REMARK  0 active torsions:
REMARK  status: ('A' for Active; 'I' for Inactive)
ROOT
HETATM    1  O1  UNL     1      -0.027  -3.910   0.790  1.00  0.00    -0.271 OA
HETATM    2  C1  UNL     1       0.660  -2.870   0.644  1.00  0.00     0.248 C 
HETATM    3  C2  UNL     1       2.014  -3.027   1.284  1.00  0.00     0.272 C 
HETATM    4  O2  UNL     1       2.866  -2.161   0.588  1.00  0.00    -0.366 OA
HETATM    5  C3  UNL     1       2.507  -0.820   0.886  1.00  0.00     0.207 C 
HETATM    6  C4  UNL     1       1.062  -0.611   0.624  1.00  0.00     0.049 C 
HETATM    7  C5  UNL     1       0.396   0.483   0.954  1.00  0.00     0.045 C 
HETATM    8  C6  UNL     1       0.436   1.832   0.347  1.00  0.00     0.037 A 
HETATM    9  C7  UNL     1      -0.895   2.279   0.266  1.00  0.00     0.060 A 
HETATM   10  N1  UNL     1      -1.129   3.500  -0.261  1.00  0.00    -0.245 NA
HETATM   11  C8  UNL     1      -0.159   4.307  -0.709  1.00  0.00     0.235 A 
HETATM   12  N2  UNL     1       1.136   3.891  -0.638  1.00  0.00    -0.224 NA
HETATM   13  C9  UNL     1       1.391   2.694  -0.125  1.00  0.00     0.141 A 
HETATM   14  N3  UNL     1       2.825   2.526  -0.194  1.00  0.00    -0.340 N 
HETATM   15  C10 UNL     1       3.668   1.373  -0.252  1.00  0.00     0.043 A 
HETATM   16  C11 UNL     1       4.796   1.840  -0.890  1.00  0.00     0.033 A 
HETATM   17  C12 UNL     1       5.806   0.929  -1.093  1.00  0.00     0.044 A 
HETATM   18  C13 UNL     1       5.697  -0.379  -0.681  1.00  0.00     0.117 A 
HETATM   19  F1  UNL     1       6.697  -1.261  -0.888  1.00  0.00    -0.206 F 
HETATM   20  C14 UNL     1       4.532  -0.749  -0.054  1.00  0.00     0.054 A 
HETATM   21  C15 UNL     1       3.429   0.077   0.214  1.00  0.00     0.006 A 
HETATM   22  C16 UNL     1      -2.126   1.620   0.673  1.00  0.00     0.102 C 
HETATM   23  C17 UNL     1      -3.008   0.602   0.613  1.00  0.00     0.019 C 
HETATM   24  C18 UNL     1      -4.120   0.891   1.550  1.00  0.00     0.220 C 
HETATM   25  O3  UNL     1      -5.240   1.159   0.765  1.00  0.00    -0.384 OA
HETATM   26  C19 UNL     1      -5.087   0.939  -0.572  1.00  0.00     0.187 C 
HETATM   27  C20 UNL     1      -4.399  -0.352  -0.914  1.00  0.00     0.148 C 
HETATM   28  N4  UNL     1      -3.348  -0.687   0.019  1.00  0.00    -0.383 N 
HETATM   29  C21 UNL     1      -2.798  -2.002   0.270  1.00  0.00     0.124 C 
HETATM   30  C22 UNL     1      -1.909  -2.512  -0.823  1.00  0.00     0.040 C 
HETATM   31  C23 UNL     1      -0.660  -1.760  -1.079  1.00  0.00     0.133 C 
HETATM   32  N5  UNL     1       0.289  -1.655  -0.026  1.00  0.00    -0.317 N 
HETATM   33  H6  UNL     1       3.314   3.444  -0.204  1.00  0.00     0.167 HD
ENDROOT
TORSDOF 0
