REMARK  5 active torsions:
REMARK  status: ('A' for Active; 'I' for Inactive)
REMARK    1  A    between atoms: C7_10  and  N3_11 
REMARK    2  A    between atoms: N3_11  and  C8_12 
REMARK    3  A    between atoms: C17_23  and  C18_24 
REMARK    4  A    between atoms: C18_24  and  C19_25 
REMARK    5  A    between atoms: C19_25  and  N5_26 
ROOT
HETATM    1  O1  UNL     1      -0.772  -1.805   2.176  1.00  0.00    -0.258 OA
HETATM    2  C1  UNL     1      -0.058  -1.245   1.433  1.00  0.00     0.304 C 
HETATM    3  C2  UNL     1       1.419  -1.743   1.485  1.00  0.00     0.081 C 
HETATM    4  C3  UNL     1       2.704  -1.461   0.938  1.00  0.00    -0.002 C 
HETATM    5  C4  UNL     1       2.262  -0.330   0.070  1.00  0.00     0.080 A 
HETATM    6  C5  UNL     1       2.644   0.463  -0.964  1.00  0.00     0.136 A 
HETATM    7  N1  UNL     1       3.053   1.279  -2.037  1.00  0.00    -0.262 NA
HETATM    8  C6  UNL     1       4.325   0.843  -2.368  1.00  0.00     0.225 A 
HETATM    9  N2  UNL     1       4.663  -0.181  -1.521  1.00  0.00    -0.247 NA
HETATM   10  C7  UNL     1       3.650  -0.468  -0.618  1.00  0.00     0.174 A 
HETATM   11  C14 UNL     1       1.668   1.480  -0.263  1.00  0.00     0.009 C 
HETATM   12  C15 UNL     1       0.341   1.405  -0.496  1.00  0.00    -0.006 C 
HETATM   13  C16 UNL     1      -0.940   1.006  -1.004  1.00  0.00     0.177 C 
HETATM   14  N4  UNL     1      -1.465   0.391   0.273  1.00  0.00    -0.281 N 
HETATM   15  C17 UNL     1      -2.710   0.074   0.369  1.00  0.00     0.152 C 
HETATM   16  O3  UNL     1      -0.349  -0.302   0.605  1.00  0.00    -0.198 OA
ENDROOT
BRANCH  10  17
HETATM   17  N3  UNL     1       4.945  -1.001   0.201  1.00  0.00    -0.359 N 
HETATM   18  H4  UNL     1       5.185  -1.856   0.827  1.00  0.00     0.162 HD
BRANCH  17  19
HETATM   19  C8  UNL     1       6.257  -0.377   0.378  1.00  0.00     0.030 A 
HETATM   20  C9  UNL     1       7.211  -0.630  -0.581  1.00  0.00     0.032 A 
HETATM   21  C10 UNL     1       8.582  -0.186  -0.654  1.00  0.00     0.044 A 
HETATM   22  C11 UNL     1       8.886   0.603   0.427  1.00  0.00     0.116 A 
HETATM   23  F1  UNL     1      10.160   1.090   0.416  1.00  0.00    -0.206 F 
HETATM   24  C12 UNL     1       8.054   0.917   1.411  1.00  0.00     0.044 A 
HETATM   25  C13 UNL     1       6.828   0.442   1.368  1.00  0.00     0.032 A 
ENDBRANCH  17  19
ENDBRANCH  10  17
BRANCH  15  26
HETATM   26  C18 UNL     1      -3.314  -1.011  -0.436  1.00  0.00     0.052 C 
BRANCH  26  27
HETATM   27  C19 UNL     1      -4.825  -0.997  -0.128  1.00  0.00     0.274 C 
BRANCH  27  28
HETATM   28  N5  UNL     1      -5.457   0.242  -0.406  1.00  0.00     0.092 N 
HETATM   29  C20 UNL     1      -5.818   1.064   0.759  1.00  0.00     0.298 C 
HETATM   30  C21 UNL     1      -7.124   0.472   1.304  1.00  0.00     0.198 C 
HETATM   31  O2  UNL     1      -7.521  -0.674   0.642  1.00  0.00    -0.388 OA
HETATM   32  C22 UNL     1      -7.691  -0.532  -0.739  1.00  0.00     0.198 C 
HETATM   33  C23 UNL     1      -6.527   0.266  -1.329  1.00  0.00     0.298 C 
ENDBRANCH  27  28
ENDBRANCH  26  27
ENDBRANCH  15  26
TORSDOF 5
