REMARK  7 active torsions:
REMARK  status: ('A' for Active; 'I' for Inactive)
REMARK    1  A    between atoms: N1_7  and  C6_8 
REMARK    2  A    between atoms: C6_8  and  C7_9 
REMARK    3  A    between atoms: C7_9  and  N2_10 
REMARK    4  A    between atoms: N2_10  and  C8_11 
REMARK    5  A    between atoms: N2_10  and  C9_13 
REMARK    6  A    between atoms: C9_13  and  N3_14 
REMARK    7  A    between atoms: C14_21  and  C15_22 
ROOT
HETATM    1  C9  UNL     1       0.896  -0.400   1.579  1.00  0.00     0.282 A 
HETATM    2  C10 UNL     1       0.431  -0.494   3.015  1.00  0.00     0.044 A 
HETATM    3  C11 UNL     1       1.387  -0.728   3.897  1.00  0.00     0.033 A 
HETATM    4  C12 UNL     1       2.621  -0.816   3.092  1.00  0.00     0.071 A 
HETATM    5  N4  UNL     1       3.822  -1.065   3.679  1.00  0.00    -0.241 NA
HETATM    6  C13 UNL     1       4.864  -1.133   2.820  1.00  0.00     0.234 A 
HETATM    7  N5  UNL     1       4.654  -0.960   1.505  1.00  0.00    -0.241 NA
HETATM    8  C14 UNL     1       3.431  -0.713   0.972  1.00  0.00     0.081 A 
HETATM    9  C21 UNL     1       2.325  -0.626   1.751  1.00  0.00     0.063 A 
ENDROOT
BRANCH   1  10
HETATM   10  N2  UNL     1       0.486   0.826   0.990  1.00  0.00    -0.316 N 
BRANCH  10  11
HETATM   11  C7  UNL     1      -0.357   0.854  -0.188  1.00  0.00     0.148 C 
BRANCH  11  12
HETATM   12  C6  UNL     1      -1.840   0.888   0.146  1.00  0.00     0.137 C 
BRANCH  12  13
HETATM   13  N1  UNL     1      -2.665   0.913  -1.010  1.00  0.00    -0.403 N 
HETATM   14  C2  UNL     1      -3.885   1.619  -0.939  1.00  0.00     0.099 C 
HETATM   15  C1  UNL     1      -4.754   1.303   0.258  1.00  0.00     0.034 C 
HETATM   16  C3  UNL     1      -4.713   1.211  -2.167  1.00  0.00     0.192 C 
HETATM   17  O1  UNL     1      -5.124  -0.090  -1.894  1.00  0.00    -0.388 OA
HETATM   18  C4  UNL     1      -4.033  -0.906  -1.825  1.00  0.00     0.187 C 
HETATM   19  C5  UNL     1      -2.698  -0.248  -1.817  1.00  0.00     0.143 C 
ENDBRANCH  12  13
ENDBRANCH  11  12
ENDBRANCH  10  11
BRANCH  10  20
HETATM   20  C8  UNL     1       0.927   2.017   1.580  1.00  0.00     0.353 C 
HETATM   21  O2  UNL     1       1.633   2.319   2.559  1.00  0.00    -0.283 OA
ENDBRANCH  10  20
ENDBRANCH   1  10
BRANCH   1  22
HETATM   22  N3  UNL     1       0.347  -1.563   0.901  1.00  0.00     0.116 N 
HETATM   23  H16 UNL     1       0.402  -2.358   1.591  1.00  0.00     0.317 HD
HETATM   24  H17 UNL     1       0.977  -1.767   0.105  1.00  0.00     0.317 HD
ENDBRANCH   1  22
BRANCH   8  25
HETATM   25  C15 UNL     1       3.435  -0.589  -0.474  1.00  0.00    -0.006 A 
HETATM   26  C16 UNL     1       2.924   0.344  -1.349  1.00  0.00     0.017 A 
HETATM   27  C17 UNL     1       3.016   0.266  -2.712  1.00  0.00     0.043 A 
HETATM   28  C18 UNL     1       3.649  -0.790  -3.293  1.00  0.00     0.116 A 
HETATM   29  F1  UNL     1       3.684  -0.773  -4.648  1.00  0.00    -0.206 F 
HETATM   30  C19 UNL     1       4.189  -1.766  -2.509  1.00  0.00     0.043 A 
HETATM   31  C20 UNL     1       4.074  -1.649  -1.140  1.00  0.00     0.017 A 
ENDBRANCH   8  25
TORSDOF 7
