REMARK  5 active torsions:
REMARK  status: ('A' for Active; 'I' for Inactive)
REMARK    1  A    between atoms: N1_1  and  C1_2 
REMARK    2  A    between atoms: C5_10  and  C6_11 
REMARK    3  A    between atoms: N4_22  and  C16_23 
REMARK    4  A    between atoms: C16_23  and  C17_24 
REMARK    5  A    between atoms: C17_24  and  N5_25 
ROOT
HETATM    1  C1  UNL     1      -1.482  -3.197   0.681  1.00  0.00     0.343 C 
HETATM    2  C2  UNL     1      -0.408  -4.091   0.815  1.00  0.00     0.231 C 
HETATM    3  O1  UNL     1       0.656  -4.847   0.829  1.00  0.00    -0.349 OA
HETATM    4  P1  UNL     1       1.860  -3.883   0.005  1.00  0.00     0.104 P 
HETATM    5  C3  UNL     1       2.649  -3.253   1.252  1.00  0.00     0.124 C 
HETATM    6  N2  UNL     1       3.142  -2.082   1.170  1.00  0.00    -0.236 NA
HETATM    7  C4  UNL     1       3.380  -1.715  -0.210  1.00  0.00     0.404 C 
HETATM    8  N3  UNL     1       3.320  -0.698  -0.999  1.00  0.00    -0.371 NA
HETATM    9  C5  UNL     1       2.898   0.584  -0.535  1.00  0.00     0.034 C 
HETATM   10  C12 UNL     1       1.660   0.717  -0.118  1.00  0.00     0.031 C 
HETATM   11  C13 UNL     1       0.639  -0.276  -0.067  1.00  0.00     0.031 C 
HETATM   12  C14 UNL     1       0.402  -1.538  -0.344  1.00  0.00     0.035 C 
HETATM   13  C15 UNL     1       1.280  -2.613  -0.940  1.00  0.00     0.070 C 
HETATM   14  N4  UNL     1      -0.975  -1.914   0.065  1.00  0.00    -0.348 N 
ENDROOT
BRANCH  14  15
HETATM   15  C16 UNL     1      -1.934  -0.883  -0.207  1.00  0.00     0.145 C 
BRANCH  15  16
HETATM   16  C17 UNL     1      -2.622  -0.226   0.920  1.00  0.00     0.145 C 
BRANCH  16  17
HETATM   17  N5  UNL     1      -3.552   0.835   0.460  1.00  0.00    -0.347 N 
HETATM   18  C18 UNL     1      -4.913   0.442   0.178  1.00  0.00     0.152 C 
HETATM   19  C19 UNL     1      -5.692   1.679  -0.211  1.00  0.00     0.188 C 
HETATM   20  O2  UNL     1      -5.298   2.798   0.506  1.00  0.00    -0.380 OA
HETATM   21  C20 UNL     1      -4.062   3.185  -0.010  1.00  0.00     0.270 C 
HETATM   22  C21 UNL     1      -3.018   2.159   0.335  1.00  0.00     0.243 C 
HETATM   23  O3  UNL     1      -1.825   2.458   0.488  1.00  0.00    -0.271 OA
ENDBRANCH  16  17
ENDBRANCH  15  16
ENDBRANCH  14  15
BRANCH   1  24
HETATM   24  N1  UNL     1      -2.067  -2.898   1.997  1.00  0.00     0.103 N 
HETATM   25  H1  UNL     1      -2.910  -3.463   2.188  1.00  0.00     0.315 HD
HETATM   26  H2  UNL     1      -1.343  -2.938   2.743  1.00  0.00     0.315 HD
ENDBRANCH   1  24
BRANCH   9  27
HETATM   27  C6  UNL     1       3.928   1.606  -0.590  1.00  0.00    -0.010 A 
HETATM   28  C7  UNL     1       5.207   1.364  -1.046  1.00  0.00     0.017 A 
HETATM   29  C8  UNL     1       6.192   2.318  -1.105  1.00  0.00     0.043 A 
HETATM   30  C9  UNL     1       5.940   3.605  -0.696  1.00  0.00     0.116 A 
HETATM   31  F1  UNL     1       6.927   4.525  -0.765  1.00  0.00    -0.206 F 
HETATM   32  C10 UNL     1       4.685   3.907  -0.231  1.00  0.00     0.043 A 
HETATM   33  C11 UNL     1       3.737   2.912  -0.195  1.00  0.00     0.017 A 
ENDBRANCH   9  27
TORSDOF 5
