REMARK  4 active torsions:
REMARK  status: ('A' for Active; 'I' for Inactive)
REMARK    1  A    between atoms: C2_2  and  C3_3 
REMARK    2  A    between atoms: C3_3  and  C4_5 
REMARK    3  A    between atoms: C4_5  and  C5_6 
REMARK    4  A    between atoms: C15_20  and  N3_21 
ROOT
HETATM    1  C5  UNL     1       1.953  -0.419  -0.421  1.00  0.00     0.032 C 
HETATM    2  C6  UNL     1       1.086  -1.400  -0.162  1.00  0.00     0.069 C 
HETATM    3  N1  UNL     1       1.522  -2.062  -1.297  1.00  0.00    -0.247 NA
HETATM    4  C7  UNL     1       0.951  -2.356  -2.389  1.00  0.00     0.193 C 
HETATM    5  N2  UNL     1      -0.297  -1.811  -2.136  1.00  0.00    -0.399 NA
HETATM    6  C8  UNL     1      -1.307  -1.778  -2.893  1.00  0.00     0.329 C 
HETATM    7  C9  UNL     1      -2.405  -1.083  -2.154  1.00  0.00     0.040 C 
HETATM    8  C10 UNL     1      -2.935  -0.473  -1.061  1.00  0.00     0.078 C 
HETATM    9  O1  UNL     1      -4.173   0.070  -0.903  1.00  0.00    -0.343 OA
HETATM   10  C11 UNL     1      -3.927   1.213  -0.049  1.00  0.00     0.259 C 
HETATM   11  C12 UNL     1      -3.216   0.407   1.035  1.00  0.00     0.182 C 
HETATM   12  O2  UNL     1      -3.257   0.196   2.292  1.00  0.00    -0.290 OA
HETATM   13  C13 UNL     1      -2.185  -0.299   0.227  1.00  0.00     0.030 C 
HETATM   14  C14 UNL     1      -1.056  -0.592   0.935  1.00  0.00     0.075 C 
HETATM   15  C15 UNL     1       0.222  -1.243   1.048  1.00  0.00     0.278 C 
ENDROOT
BRANCH   1  16
HETATM   16  C4  UNL     1       2.292   0.816   0.214  1.00  0.00     0.044 C 
BRANCH  16  17
HETATM   17  C3  UNL     1       2.694   1.971   0.698  1.00  0.00     0.115 C 
HETATM   18  F1  UNL     1       3.465   1.824  -0.407  1.00  0.00    -0.206 F 
BRANCH  17  19
HETATM   19  C2  UNL     1       2.657   3.028   1.658  1.00  0.00     0.032 C 
HETATM   20  C1  UNL     1       3.537   3.946   1.327  1.00  0.00     0.014 C 
ENDBRANCH  17  19
ENDBRANCH  16  17
ENDBRANCH   1  16
BRANCH  15  21
HETATM   21  N3  UNL     1       0.154  -2.605   1.637  1.00  0.00     0.089 N 
HETATM   22  H13 UNL     1      -0.132  -2.547   2.642  1.00  0.00     0.313 HD
HETATM   23  H14 UNL     1       1.103  -3.016   1.599  1.00  0.00     0.313 HD
ENDBRANCH  15  21
TORSDOF 4
