REMARK  7 active torsions:
REMARK  status: ('A' for Active; 'I' for Inactive)
REMARK    1  A    between atoms: C1_2  and  N2_3 
REMARK    2  A    between atoms: C2_4  and  C3_5 
REMARK    3  A    between atoms: C3_5  and  C4_6 
REMARK    4  A    between atoms: C7_11  and  C8_12 
REMARK    5  A    between atoms: C8_12  and  C9_13 
REMARK    6  A    between atoms: C10_14  and  N4_15 
REMARK    7  A    between atoms: N4_15  and  C11_16 
ROOT
HETATM    1  C4  UNL     1       2.619  -0.514  -0.039  1.00  0.00     0.096 C 
HETATM    2  O1  UNL     1       3.888  -1.035  -0.046  1.00  0.00    -0.347 OA
HETATM    3  C5  UNL     1       4.234  -2.402   0.064  1.00  0.00     0.195 C 
HETATM    4  C6  UNL     1       3.058  -3.321   0.201  1.00  0.00     0.146 C 
HETATM    5  N3  UNL     1       1.836  -2.758  -0.378  1.00  0.00    -0.386 N 
HETATM    6  C7  UNL     1       1.490  -1.400  -0.215  1.00  0.00     0.061 C 
HETATM    7  H9  UNL     1       1.170  -3.362  -0.939  1.00  0.00     0.159 HD
ENDROOT
BRANCH   6   8
HETATM    8  C8  UNL     1       0.267  -0.937  -0.180  1.00  0.00     0.033 C 
BRANCH   8   9
HETATM    9  C9  UNL     1      -0.976  -1.675  -0.341  1.00  0.00     0.019 C 
HETATM   10  C10 UNL     1      -2.225  -1.251  -0.298  1.00  0.00     0.088 C 
BRANCH  10  11
HETATM   11  N4  UNL     1      -2.554   0.109  -0.064  1.00  0.00    -0.366 N 
HETATM   12  H13 UNL     1      -1.902   0.892   0.159  1.00  0.00     0.165 HD
BRANCH  11  13
HETATM   13  C11 UNL     1      -3.850   0.674  -0.088  1.00  0.00     0.033 A 
HETATM   14  C12 UNL     1      -4.622   0.202   0.957  1.00  0.00     0.032 A 
HETATM   15  C13 UNL     1      -5.927   0.599   1.183  1.00  0.00     0.046 A 
HETATM   16  C14 UNL     1      -6.485   1.519   0.312  1.00  0.00     0.138 A 
HETATM   17  F1  UNL     1      -7.772   1.957   0.478  1.00  0.00    -0.204 F 
HETATM   18  C15 UNL     1      -5.725   1.993  -0.729  1.00  0.00     0.074 A 
HETATM   19 CL1  UNL     1      -6.379   3.164  -1.853  1.00  0.00    -0.081 Cl
HETATM   20  C16 UNL     1      -4.417   1.586  -0.945  1.00  0.00     0.056 A 
ENDBRANCH  11  13
ENDBRANCH  10  11
ENDBRANCH   8   9
ENDBRANCH   6   8
BRANCH   1  21
HETATM   21  C3  UNL     1       2.624   0.746   0.130  1.00  0.00     0.058 C 
BRANCH  21  22
HETATM   22  C2  UNL     1       2.998   2.104   0.328  1.00  0.00     0.120 C 
HETATM   23  N2  UNL     1       4.285   1.819   0.334  1.00  0.00    -0.255 NA
BRANCH  23  24
HETATM   24  C1  UNL     1       5.216   2.886   0.511  1.00  0.00     0.222 C 
HETATM   25  N1  UNL     1       6.010   3.554   1.283  1.00  0.00    -0.293 NA
HETATM   26  H1  UNL     1       6.088   3.254   2.304  1.00  0.00     0.187 HD
ENDBRANCH  23  24
ENDBRANCH  21  22
ENDBRANCH   1  21
TORSDOF 7
