REMARK  8 active torsions:
REMARK  status: ('A' for Active; 'I' for Inactive)
REMARK    1  A    between atoms: C2_2  and  C3_4 
REMARK    2  A    between atoms: C4_5  and  C5_6 
REMARK    3  A    between atoms: C5_6  and  N1_7 
REMARK    4  A    between atoms: N1_7  and  C6_8 
REMARK    5  A    between atoms: N4_18  and  C14_19 
REMARK    6  A    between atoms: C14_19  and  C15_20 
REMARK    7  A    between atoms: C15_20  and  C16_21 
REMARK    8  A    between atoms: C16_21  and  N5_22 
ROOT
HETATM    1  C6  UNL     1       1.960  -0.594  -0.322  1.00  0.00     0.137 A 
HETATM    2  N2  UNL     1       2.973  -1.383  -0.678  1.00  0.00    -0.224 NA
HETATM    3  C7  UNL     1       3.422  -1.504  -1.923  1.00  0.00     0.235 A 
HETATM    4  N3  UNL     1       2.835  -0.797  -2.905  1.00  0.00    -0.241 NA
HETATM    5  C8  UNL     1       1.797   0.036  -2.654  1.00  0.00     0.075 A 
HETATM    6  C9  UNL     1       1.239   0.738  -3.701  1.00  0.00     0.071 A 
HETATM    7  C10 UNL     1       0.190   1.581  -3.436  1.00  0.00     0.098 A 
HETATM    8  C11 UNL     1      -0.250   1.681  -2.135  1.00  0.00     0.071 A 
HETATM    9  C12 UNL     1       0.310   0.980  -1.091  1.00  0.00     0.050 A 
HETATM   10  C13 UNL     1       1.362   0.128  -1.332  1.00  0.00     0.041 A 
HETATM   11  N4  UNL     1      -1.296   2.549  -1.731  1.00  0.00    -0.314 N 
HETATM   12  C21 UNL     1      -1.851   3.324  -2.824  1.00  0.00     0.248 C 
HETATM   13  O2  UNL     1      -2.644   4.311  -2.656  1.00  0.00    -0.271 OA
HETATM   14  C22 UNL     1      -1.574   3.075  -4.268  1.00  0.00     0.279 C 
HETATM   15  O3  UNL     1      -0.392   2.295  -4.447  1.00  0.00    -0.340 OA
ENDROOT
BRANCH  11  16
HETATM   16  C14 UNL     1      -1.920   2.842  -0.503  1.00  0.00     0.134 C 
BRANCH  16  17
HETATM   17  C15 UNL     1      -3.135   2.122  -0.098  1.00  0.00     0.050 C 
BRANCH  17  18
HETATM   18  C16 UNL     1      -3.128   0.665   0.091  1.00  0.00     0.274 C 
BRANCH  18  19
HETATM   19  N5  UNL     1      -2.243   0.247   1.153  1.00  0.00     0.092 N 
HETATM   20  C17 UNL     1      -2.707   0.655   2.462  1.00  0.00     0.298 C 
HETATM   21  C18 UNL     1      -2.964  -0.570   3.333  1.00  0.00     0.198 C 
HETATM   22  O1  UNL     1      -3.838  -1.396   2.610  1.00  0.00    -0.388 OA
HETATM   23  C19 UNL     1      -3.184  -1.987   1.528  1.00  0.00     0.198 C 
HETATM   24  C20 UNL     1      -1.979  -1.181   1.097  1.00  0.00     0.298 C 
ENDBRANCH  18  19
ENDBRANCH  17  18
ENDBRANCH  16  17
ENDBRANCH  11  16
BRANCH   1  25
HETATM   25  N1  UNL     1       1.532  -0.512   1.032  1.00  0.00    -0.371 N 
HETATM   26  H7  UNL     1       0.755   0.072   1.405  1.00  0.00     0.161 HD
BRANCH  25  27
HETATM   27  C5  UNL     1       2.248  -1.320   2.000  1.00  0.00     0.148 C 
BRANCH  27  28
HETATM   28  C4  UNL     1       3.673  -0.978   2.079  1.00  0.00    -0.004 C 
HETATM   29  C3  UNL     1       4.688  -1.784   1.841  1.00  0.00     0.039 C 
BRANCH  29  30
HETATM   30  C2  UNL     1       4.916  -3.166   1.451  1.00  0.00     0.106 C 
HETATM   31  C1  UNL     1       5.914  -4.026   1.199  1.00  0.00     0.056 C 
HETATM   32  F1  UNL     1       3.907  -4.059   1.213  1.00  0.00    -0.207 F 
ENDBRANCH  29  30
ENDBRANCH  27  28
ENDBRANCH  25  27
ENDBRANCH   1  25
TORSDOF 8
