REMARK  5 active torsions:
REMARK  status: ('A' for Active; 'I' for Inactive)
REMARK    1  A    between atoms: B1_11  and  N3_12 
REMARK    2  A    between atoms: N4_23  and  C15_24 
REMARK    3  A    between atoms: C15_24  and  C16_25 
REMARK    4  A    between atoms: C16_25  and  C17_26 
REMARK    5  A    between atoms: C17_26  and  N5_27 
ROOT
HETATM    1  O1  UNL     1       2.679  -3.067   0.498  1.00  0.00    -0.271 OA
HETATM    2  C1  UNL     1       1.418  -3.050   0.351  1.00  0.00     0.248 C 
HETATM    3  C2  UNL     1       0.703  -4.374   0.440  1.00  0.00     0.279 C 
HETATM    4  O2  UNL     1      -0.211  -4.512  -0.631  1.00  0.00    -0.340 OA
HETATM    5  C3  UNL     1      -1.010  -3.420  -0.939  1.00  0.00     0.098 C 
HETATM    6  C4  UNL     1      -2.185  -3.555  -1.593  1.00  0.00     0.066 C 
HETATM    7  C5  UNL     1      -2.891  -2.308  -1.855  1.00  0.00     0.041 C 
HETATM    8  N1  UNL     1      -3.690  -2.323  -2.875  1.00  0.00    -0.248 NA
HETATM    9  C6  UNL     1      -4.461  -1.225  -3.322  1.00  0.00     0.210 C 
HETATM   10  N2  UNL     1      -4.411  -0.090  -2.734  1.00  0.00    -0.319 NA
HETATM   11  B1  UNL     1      -3.500   0.144  -1.512  1.00  0.00     0.448 B 
HETATM   12  C12 UNL     1      -2.757  -1.122  -0.989  1.00  0.00     0.075 C 
HETATM   13  C13 UNL     1      -1.359  -0.963  -0.576  1.00  0.00     0.011 C 
HETATM   14  C14 UNL     1      -0.593  -2.074  -0.565  1.00  0.00     0.067 C 
HETATM   15  N4  UNL     1       0.663  -1.840   0.108  1.00  0.00    -0.314 N 
ENDROOT
BRANCH  15  16
HETATM   16  C15 UNL     1       1.255  -0.627   0.554  1.00  0.00     0.134 C 
BRANCH  16  17
HETATM   17  C16 UNL     1       2.125   0.072  -0.467  1.00  0.00     0.050 C 
BRANCH  17  18
HETATM   18  C17 UNL     1       2.680   1.336   0.134  1.00  0.00     0.274 C 
BRANCH  18  19
HETATM   19  N5  UNL     1       3.458   1.119   1.296  1.00  0.00     0.092 N 
HETATM   20  C18 UNL     1       3.961   2.358   1.881  1.00  0.00     0.298 C 
HETATM   21  C19 UNL     1       5.217   2.746   1.164  1.00  0.00     0.198 C 
HETATM   22  O3  UNL     1       6.177   1.782   1.371  1.00  0.00    -0.388 OA
HETATM   23  C20 UNL     1       5.778   0.623   0.698  1.00  0.00     0.198 C 
HETATM   24  C21 UNL     1       4.456   0.106   1.258  1.00  0.00     0.298 C 
ENDBRANCH  18  19
ENDBRANCH  17  18
ENDBRANCH  16  17
ENDBRANCH  15  16
BRANCH  11  25
HETATM   25  N3  UNL     1      -3.941   1.179  -0.478  1.00  0.00    -0.412 N 
HETATM   26  C7  UNL     1      -3.157   2.313  -0.216  1.00  0.00     0.116 A 
HETATM   27  C8  UNL     1      -3.499   3.232   0.670  1.00  0.00     0.151 A 
HETATM   28  F1  UNL     1      -2.745   4.328   0.925  1.00  0.00    -0.203 F 
HETATM   29  C9  UNL     1      -4.738   3.103   1.431  1.00  0.00     0.071 A 
HETATM   30 CL1  UNL     1      -5.316   4.243   2.634  1.00  0.00    -0.081 Cl
HETATM   31  C10 UNL     1      -5.473   2.031   1.178  1.00  0.00     0.018 A 
HETATM   32  C11 UNL     1      -5.191   0.944   0.216  1.00  0.00     0.135 A 
ENDBRANCH  11  25
TORSDOF 5
