REMARK  5 active torsions:
REMARK  status: ('A' for Active; 'I' for Inactive)
REMARK    1  A    between atoms: C5_8  and  N3_9 
REMARK    2  A    between atoms: N3_9  and  C6_10 
REMARK    3  A    between atoms: C14_20  and  N4_21 
REMARK    4  A    between atoms: N4_21  and  C15_22 
REMARK    5  A    between atoms: C15_22  and  C16_23 
ROOT
HETATM    1  C1  UNL     1      -1.765  -2.387   1.433  1.00  0.00     0.046 C 
HETATM    2  C2  UNL     1      -1.057  -2.206   0.095  1.00  0.00     0.175 A 
HETATM    3  O1  UNL     1       0.115  -2.982   0.163  1.00  0.00    -0.322 OA
HETATM    4  C3  UNL     1       1.369  -2.459   0.084  1.00  0.00     0.180 A 
HETATM    5  N1  UNL     1       2.394  -3.343   0.172  1.00  0.00    -0.217 NA
HETATM    6  C4  UNL     1       3.671  -2.940   0.107  1.00  0.00     0.238 A 
HETATM    7  N2  UNL     1       3.868  -1.628  -0.048  1.00  0.00    -0.223 NA
HETATM    8  C5  UNL     1       2.943  -0.694  -0.144  1.00  0.00     0.144 A 
HETATM    9  C12 UNL     1       1.642  -1.126  -0.075  1.00  0.00     0.065 A 
HETATM   10  C13 UNL     1       0.461  -0.295  -0.154  1.00  0.00     0.047 A 
HETATM   11  C14 UNL     1      -0.801  -0.756  -0.080  1.00  0.00     0.035 A 
ENDROOT
BRANCH  11  12
HETATM   12  N4  UNL     1      -1.830   0.219  -0.186  1.00  0.00    -0.388 N 
HETATM   13  H11 UNL     1      -1.684   0.937   0.587  1.00  0.00     0.159 HD
BRANCH  12  14
HETATM   14  C15 UNL     1      -2.983   0.491  -1.018  1.00  0.00     0.165 C 
BRANCH  14  15
HETATM   15  C16 UNL     1      -4.119  -0.460  -0.844  1.00  0.00     0.336 C 
HETATM   16  N5  UNL     1      -4.651  -0.480   0.495  1.00  0.00     0.101 N 
HETATM   17  C17 UNL     1      -5.617   0.512   0.807  1.00  0.00     0.297 C 
HETATM   18  H15 UNL     1      -3.886  -0.465   1.217  1.00  0.00     0.317 HD
HETATM   19  C18 UNL     1      -6.041   1.422  -0.286  1.00  0.00     0.209 C 
HETATM   20  O2  UNL     1      -6.037   0.860  -1.558  1.00  0.00    -0.318 OA
HETATM   21  C19 UNL     1      -5.212  -0.213  -1.803  1.00  0.00     0.294 C 
HETATM   22  O3  UNL     1      -5.360  -0.981  -2.808  1.00  0.00    -0.263 OA
ENDBRANCH  14  15
ENDBRANCH  12  14
ENDBRANCH  11  12
BRANCH   8  23
HETATM   23  N3  UNL     1       3.178   0.690  -0.304  1.00  0.00    -0.340 N 
HETATM   24  H6  UNL     1       2.399   1.371  -0.382  1.00  0.00     0.167 HD
BRANCH  23  25
HETATM   25  C6  UNL     1       4.391   1.423  -0.391  1.00  0.00     0.035 A 
HETATM   26  C7  UNL     1       4.525   2.785  -0.544  1.00  0.00     0.032 A 
HETATM   27  C8  UNL     1       5.727   3.441  -0.620  1.00  0.00     0.046 A 
HETATM   28  C9  UNL     1       6.909   2.737  -0.545  1.00  0.00     0.138 A 
HETATM   29  F1  UNL     1       8.032   3.472  -0.631  1.00  0.00    -0.204 F 
HETATM   30  C10 UNL     1       6.813   1.372  -0.393  1.00  0.00     0.074 A 
HETATM   31 CL1  UNL     1       8.375   0.551  -0.306  1.00  0.00    -0.081 Cl
HETATM   32  C11 UNL     1       5.588   0.745  -0.319  1.00  0.00     0.056 A 
ENDBRANCH  23  25
ENDBRANCH   8  23
TORSDOF 5
