REMARK  4 active torsions:
REMARK  status: ('A' for Active; 'I' for Inactive)
REMARK    1  A    between atoms: N4_22  and  C15_23 
REMARK    2  A    between atoms: C15_23  and  C16_24 
REMARK    3  A    between atoms: C16_24  and  C17_25 
REMARK    4  A    between atoms: C17_25  and  N5_26 
ROOT
HETATM    1  O1  UNL     1       2.456  -3.681   0.775  1.00  0.00    -0.271 OA
HETATM    2  C1  UNL     1       1.346  -3.267   0.290  1.00  0.00     0.248 A 
HETATM    3  C2  UNL     1       1.131  -4.188  -0.858  1.00  0.00     0.279 A 
HETATM    4  O2  UNL     1      -0.117  -3.963  -1.458  1.00  0.00    -0.340 OA
HETATM    5  C3  UNL     1      -0.970  -2.945  -1.092  1.00  0.00     0.099 A 
HETATM    6  C4  UNL     1      -2.053  -2.845  -1.813  1.00  0.00     0.069 C 
HETATM    7  C5  UNL     1      -2.909  -1.744  -1.410  1.00  0.00     0.067 C 
HETATM    8  N1  UNL     1      -3.844  -1.517  -2.301  1.00  0.00    -0.242 NA
HETATM    9  C6  UNL     1      -4.741  -0.462  -2.109  1.00  0.00     0.255 C 
HETATM   10  N2  UNL     1      -4.509   0.198  -1.085  1.00  0.00    -0.169 NA
HETATM   11  N3  UNL     1      -3.533   0.125  -0.090  1.00  0.00    -0.280 N 
HETATM   12  C7  UNL     1      -3.104   1.123   0.899  1.00  0.00     0.225 C 
HETATM   13  C8  UNL     1      -3.640   2.390   1.097  1.00  0.00     0.100 C 
HETATM   14 CL1  UNL     1      -4.752   3.769   0.784  1.00  0.00    -0.115 Cl
HETATM   15  C9  UNL     1      -2.934   2.861   2.327  1.00  0.00     0.115 C 
HETATM   16  F1  UNL     1      -3.108   4.020   2.997  1.00  0.00    -0.209 F 
HETATM   17  C10 UNL     1      -2.066   1.916   2.674  1.00  0.00     0.039 C 
HETATM   18  C11 UNL     1      -1.386   0.646   2.509  1.00  0.00     0.003 C 
HETATM   19  C12 UNL     1      -1.379  -0.289   1.635  1.00  0.00     0.012 C 
HETATM   20  C13 UNL     1      -1.522  -1.205   0.542  1.00  0.00     0.002 C 
HETATM   21  C14 UNL     1      -0.659  -2.063   0.017  1.00  0.00     0.079 A 
HETATM   22  N4  UNL     1       0.516  -2.153   0.773  1.00  0.00    -0.313 N 
HETATM   23  C22 UNL     1      -2.860  -1.104  -0.047  1.00  0.00     0.192 C 
ENDROOT
BRANCH  22  24
HETATM   24  C15 UNL     1       1.240  -1.515   1.782  1.00  0.00     0.134 C 
BRANCH  24  25
HETATM   25  C16 UNL     1       2.278  -0.516   1.152  1.00  0.00     0.050 C 
BRANCH  25  26
HETATM   26  C17 UNL     1       1.647   0.543   0.349  1.00  0.00     0.274 C 
BRANCH  26  27
HETATM   27  N5  UNL     1       2.667   1.403  -0.214  1.00  0.00     0.092 N 
HETATM   28  C18 UNL     1       3.470   0.774  -1.202  1.00  0.00     0.298 C 
HETATM   29  C19 UNL     1       4.302   1.747  -1.963  1.00  0.00     0.198 C 
HETATM   30  O3  UNL     1       4.275   2.992  -1.334  1.00  0.00    -0.388 OA
HETATM   31  C20 UNL     1       2.962   3.480  -1.482  1.00  0.00     0.198 C 
HETATM   32  C21 UNL     1       2.052   2.627  -0.628  1.00  0.00     0.298 C 
ENDBRANCH  26  27
ENDBRANCH  25  26
ENDBRANCH  24  25
ENDBRANCH  22  24
TORSDOF 4
