REMARK  9 active torsions:
REMARK  status: ('A' for Active; 'I' for Inactive)
REMARK    1  A    between atoms: N1_2  and  C2_3 
REMARK    2  A    between atoms: N1_2  and  C14_19 
REMARK    3  A    between atoms: C2_3  and  C3_4 
REMARK    4  A    between atoms: C7_10  and  N4_11 
REMARK    5  A    between atoms: N4_11  and  C8_12 
REMARK    6  A    between atoms: C12_16  and  C13_17 
REMARK    7  A    between atoms: C14_19  and  C15_20 
REMARK    8  A    between atoms: C15_20  and  C16_21 
REMARK    9  A    between atoms: C16_21  and  N5_22 
ROOT
HETATM    1  C3  UNL     1       1.600  -0.066  -0.916  1.00  0.00     0.015 C 
HETATM    2  C4  UNL     1       2.395   0.715  -1.661  1.00  0.00     0.005 A 
HETATM    3  C5  UNL     1       1.850   1.487  -2.778  1.00  0.00     0.192 A 
HETATM    4  N2  UNL     1       2.914   2.224  -3.411  1.00  0.00    -0.278 NA
HETATM    5  C6  UNL     1       4.149   2.206  -3.045  1.00  0.00     0.229 A 
HETATM    6  N3  UNL     1       4.623   1.441  -1.950  1.00  0.00    -0.225 NA
HETATM    7  C7  UNL     1       3.800   0.717  -1.269  1.00  0.00     0.133 A 
ENDROOT
BRANCH   1   8
HETATM    8  C2  UNL     1       0.150  -0.370  -0.953  1.00  0.00     0.300 C 
BRANCH   8   9
HETATM    9  N1  UNL     1      -0.509  -0.024   0.287  1.00  0.00     0.087 N 
HETATM   10  C1  UNL     1      -0.525   1.414   0.437  1.00  0.00     0.310 C 
BRANCH   9  11
HETATM   11  C14 UNL     1      -1.923  -0.475   0.201  1.00  0.00     0.274 C 
BRANCH  11  12
HETATM   12  C15 UNL     1      -2.621  -0.279   1.491  1.00  0.00     0.050 C 
BRANCH  12  13
HETATM   13  C16 UNL     1      -4.045  -0.721   1.598  1.00  0.00     0.118 C 
BRANCH  13  14
HETATM   14  N5  UNL     1      -4.979  -0.128   0.733  1.00  0.00    -0.408 N 
HETATM   15  C17 UNL     1      -4.847  -0.545  -0.621  1.00  0.00     0.143 C 
HETATM   16  C18 UNL     1      -6.215  -1.008  -1.149  1.00  0.00     0.187 C 
HETATM   17  O2  UNL     1      -6.822  -1.875  -0.253  1.00  0.00    -0.388 OA
HETATM   18  C19 UNL     1      -7.153  -1.238   0.942  1.00  0.00     0.187 C 
HETATM   19  C20 UNL     1      -6.321  -0.022   1.209  1.00  0.00     0.143 C 
ENDBRANCH  13  14
ENDBRANCH  12  13
ENDBRANCH  11  12
ENDBRANCH   9  11
ENDBRANCH   8   9
ENDBRANCH   1   8
BRANCH   7  20
HETATM   20  N4  UNL     1       4.348  -0.032  -0.177  1.00  0.00    -0.362 N 
HETATM   21  H10 UNL     1       3.880  -0.977  -0.017  1.00  0.00     0.162 HD
BRANCH  20  22
HETATM   22  C8  UNL     1       5.447   0.488   0.617  1.00  0.00     0.142 A 
HETATM   23  C9  UNL     1       6.667   0.761  -0.184  1.00  0.00     0.003 A 
HETATM   24  C10 UNL     1       7.704   0.018   0.185  1.00  0.00    -0.001 A 
HETATM   25  C11 UNL     1       7.241  -0.838   1.298  1.00  0.00     0.012 A 
HETATM   26  C12 UNL     1       5.960  -0.577   1.550  1.00  0.00     0.006 A 
BRANCH  26  27
HETATM   27  C13 UNL     1       5.178  -1.242   2.590  1.00  0.00     0.268 C 
HETATM   28  O1  UNL     1       5.769  -2.118   3.286  1.00  0.00    -0.302 OA
ENDBRANCH  26  27
ENDBRANCH  20  22
ENDBRANCH   7  20
TORSDOF 9
