REMARK  5 active torsions:
REMARK  status: ('A' for Active; 'I' for Inactive)
REMARK    1  A    between atoms: C2_2  and  C3_4 
REMARK    2  A    between atoms: N4_23  and  C17_24 
REMARK    3  A    between atoms: C17_24  and  C18_25 
REMARK    4  A    between atoms: C18_25  and  C19_26 
REMARK    5  A    between atoms: C19_26  and  N5_27 
ROOT
HETATM    1  C3  UNL     1       5.553   0.435   0.127  1.00  0.00    -0.048 C 
HETATM    2  C4  UNL     1       4.752   1.379   0.659  1.00  0.00     0.052 C 
HETATM    3  C5  UNL     1       4.740   2.658   1.427  1.00  0.00     0.000 C 
HETATM    4  C6  UNL     1       3.525   3.113   1.655  1.00  0.00     0.082 C 
HETATM    5  N1  UNL     1       2.099   2.916   1.484  1.00  0.00    -0.374 N 
HETATM    6  C7  UNL     1       1.831   1.503   1.014  1.00  0.00     0.228 C 
HETATM    7  C8  UNL     1       0.444   1.288   0.664  1.00  0.00     0.053 C 
HETATM    8  C9  UNL     1       0.150   0.744  -0.528  1.00  0.00     0.070 C 
HETATM    9  C10 UNL     1       1.050   0.312  -1.524  1.00  0.00     0.098 C 
HETATM   10  C11 UNL     1       2.266  -0.106  -1.503  1.00  0.00     0.066 C 
HETATM   11  C12 UNL     1       3.271  -0.365  -0.473  1.00  0.00     0.038 C 
HETATM   12  N2  UNL     1       2.542  -0.245   0.572  1.00  0.00    -0.263 NA
HETATM   13  C13 UNL     1       2.976  -0.404   1.906  1.00  0.00     0.272 C 
HETATM   14  N3  UNL     1       2.458   0.733   2.001  1.00  0.00    -0.270 NA
HETATM   15  C14 UNL     1       4.684  -0.602  -0.515  1.00  0.00     0.095 C 
HETATM   16  O1  UNL     1       0.461   0.306  -2.784  1.00  0.00    -0.340 OA
HETATM   17  C15 UNL     1      -0.920   0.127  -3.031  1.00  0.00     0.279 C 
HETATM   18  C16 UNL     1      -1.685   0.991  -2.117  1.00  0.00     0.248 C 
HETATM   19  O2  UNL     1      -2.706   1.575  -2.622  1.00  0.00    -0.271 OA
HETATM   20  N4  UNL     1      -1.210   1.097  -0.742  1.00  0.00    -0.314 N 
HETATM   21  H6  UNL     1       1.258   3.465   1.589  1.00  0.00     0.161 HD
ENDROOT
BRANCH  20  22
HETATM   22  C17 UNL     1      -2.217   1.549   0.184  1.00  0.00     0.134 C 
BRANCH  22  23
HETATM   23  C18 UNL     1      -3.010   0.392   0.806  1.00  0.00     0.050 C 
BRANCH  23  24
HETATM   24  C19 UNL     1      -3.700  -0.391  -0.234  1.00  0.00     0.274 C 
BRANCH  24  25
HETATM   25  N5  UNL     1      -4.479  -1.497   0.192  1.00  0.00     0.092 N 
HETATM   26  C20 UNL     1      -5.660  -1.194   0.934  1.00  0.00     0.298 C 
HETATM   27  C21 UNL     1      -6.157  -2.433   1.607  1.00  0.00     0.198 C 
HETATM   28  O3  UNL     1      -6.498  -3.367   0.636  1.00  0.00    -0.388 OA
HETATM   29  C22 UNL     1      -6.180  -3.017  -0.648  1.00  0.00     0.198 C 
HETATM   30  C23 UNL     1      -4.798  -2.445  -0.826  1.00  0.00     0.298 C 
ENDBRANCH  24  25
ENDBRANCH  23  24
ENDBRANCH  22  23
ENDBRANCH  20  22
BRANCH   1  31
HETATM   31  C2  UNL     1       6.984   0.033  -0.054  1.00  0.00     0.015 C 
HETATM   32  C1  UNL     1       7.361  -1.046  -0.685  1.00  0.00     0.057 C 
HETATM   33 CL1  UNL     1       8.122   1.184   0.685  1.00  0.00    -0.089 Cl
ENDBRANCH   1  31
TORSDOF 5
