REMARK  2 active torsions:
REMARK  status: ('A' for Active; 'I' for Inactive)
REMARK    1  A    between atoms: C8_8  and  C9_9 
REMARK    2  A    between atoms: C21_24  and  N3_25 
ROOT
HETATM    1  C1  UNL     1       5.086  -2.349   4.326  1.00  0.00     0.019 C 
HETATM    2  C2  UNL     1       5.024  -2.030   3.152  1.00  0.00    -0.059 C 
HETATM    3  C3  UNL     1       4.935  -1.656   1.746  1.00  0.00     0.099 C 
HETATM    4  C4  UNL     1       4.858  -2.670   0.878  1.00  0.00     0.017 C 
HETATM    5  C5  UNL     1       4.782  -2.031  -0.433  1.00  0.00     0.057 C 
HETATM    6  C6  UNL     1       3.470  -2.162  -1.080  1.00  0.00    -0.021 C 
HETATM    7  C7  UNL     1       2.588  -1.223  -1.363  1.00  0.00     0.024 C 
HETATM    8  C8  UNL     1       2.203   0.209  -1.327  1.00  0.00     0.046 C 
HETATM    9  N4  UNL     1       2.878   1.200  -0.815  1.00  0.00    -0.244 NA
HETATM   10  C24 UNL     1       4.107   1.171  -0.180  1.00  0.00     0.255 C 
HETATM   11  N5  UNL     1       3.988   0.229   0.665  1.00  0.00    -0.167 NA
HETATM   12  N6  UNL     1       4.924  -0.233   1.567  1.00  0.00    -0.269 N 
HETATM   13  H30 UNL     1       5.611   0.313   2.124  1.00  0.00     0.190 HD
ENDROOT
BRANCH   8  14
HETATM   14  C9  UNL     1       0.907   0.633  -1.880  1.00  0.00     0.094 C 
HETATM   15  C10 UNL     1       0.606  -0.050  -3.163  1.00  0.00    -0.010 C 
HETATM   16  C11 UNL     1      -0.635  -0.133  -3.583  1.00  0.00     0.035 C 
HETATM   17  C12 UNL     1      -1.729   0.418  -2.806  1.00  0.00     0.094 C 
HETATM   18  C13 UNL     1      -1.545   0.997  -1.637  1.00  0.00     0.077 C 
HETATM   19  O3  UNL     1      -2.921   0.197  -3.537  1.00  0.00    -0.340 OA
HETATM   20  N1  UNL     1      -2.702   1.538  -0.983  1.00  0.00    -0.315 N 
HETATM   21  C21 UNL     1      -0.214   0.877  -0.961  1.00  0.00     0.084 C 
HETATM   22  C14 UNL     1      -3.245   2.293   0.085  1.00  0.00     0.134 C 
HETATM   23  C22 UNL     1      -3.885   1.300  -1.822  1.00  0.00     0.248 C 
HETATM   24  C15 UNL     1      -4.372   1.844   0.875  1.00  0.00     0.050 C 
HETATM   25  C16 UNL     1      -4.397   0.963   2.025  1.00  0.00     0.271 C 
HETATM   26  N2  UNL     1      -3.748  -0.298   2.070  1.00  0.00     0.085 NA
HETATM   27  C17 UNL     1      -2.309  -0.133   2.223  1.00  0.00     0.295 C 
HETATM   28  H16 UNL     1      -4.171  -0.946   2.760  1.00  0.00     0.315 HD
HETATM   29  C18 UNL     1      -1.504  -1.388   2.145  1.00  0.00     0.197 C 
HETATM   30  O1  UNL     1      -0.121  -1.088   2.265  1.00  0.00    -0.389 OA
HETATM   31  C19 UNL     1       0.162  -0.037   1.367  1.00  0.00     0.170 C 
HETATM   32  C20 UNL     1      -0.321  -0.340  -0.009  1.00  0.00     0.064 C 
HETATM   33  O2  UNL     1      -4.910   2.074  -1.924  1.00  0.00    -0.271 OA
HETATM   34  C23 UNL     1      -4.134   0.109  -2.734  1.00  0.00     0.279 C 
BRANCH  21  35
HETATM   35  N3  UNL     1       0.068   2.003  -0.130  1.00  0.00    -0.416 N 
HETATM   36  H25 UNL     1      -0.339   2.892  -0.420  1.00  0.00     0.151 HD
HETATM   37  H26 UNL     1       0.978   1.996   0.321  1.00  0.00     0.151 HD
ENDBRANCH  21  35
ENDBRANCH   8  14
TORSDOF 2
