REMARK  7 active torsions:
REMARK  status: ('A' for Active; 'I' for Inactive)
REMARK    1  A    between atoms: N1_8  and  C8_9 
REMARK    2  A    between atoms: C11_12  and  O1_13 
REMARK    3  A    between atoms: O1_13  and  C12_14 
REMARK    4  A    between atoms: C13_15  and  N2_16 
REMARK    5  A    between atoms: C16_20  and  C17_21 
REMARK    6  A    between atoms: C17_21  and  C18_22 
REMARK    7  A    between atoms: C18_22  and  N4_23 
ROOT
HETATM    1  C1  UNL     1       0.196  -1.374  -2.915  1.00  0.00     0.019 C 
HETATM    2  C2  UNL     1      -0.506  -1.943  -2.123  1.00  0.00    -0.060 C 
HETATM    3  C3  UNL     1      -1.335  -2.638  -1.198  1.00  0.00     0.085 A 
HETATM    4  C4  UNL     1      -1.985  -3.697  -1.628  1.00  0.00     0.016 A 
HETATM    5  C5  UNL     1      -2.860  -4.476  -0.749  1.00  0.00     0.058 A 
HETATM    6  C6  UNL     1      -2.909  -3.949   0.627  1.00  0.00    -0.006 A 
HETATM    7  C7  UNL     1      -2.212  -2.855   1.002  1.00  0.00     0.089 A 
HETATM    8  N1  UNL     1      -1.360  -2.115   0.082  1.00  0.00    -0.341 N 
ENDROOT
BRANCH   8   9
HETATM    9  C8  UNL     1      -0.838  -1.081   0.863  1.00  0.00     0.159 A 
HETATM   10  C9  UNL     1      -2.037  -0.232   1.588  1.00  0.00     0.171 A 
HETATM   11  C10 UNL     1      -3.260  -0.252   0.934  1.00  0.00     0.093 C 
HETATM   12  C15 UNL     1      -0.986   0.657   2.347  1.00  0.00     0.067 C 
HETATM   13  N3  UNL     1      -1.496   1.097   0.776  1.00  0.00    -0.015 N 
HETATM   14  C11 UNL     1      -2.701   0.805  -0.062  1.00  0.00     0.340 C 
HETATM   15  C14 UNL     1      -1.688   1.825   2.140  1.00  0.00     0.234 C 
HETATM   16  C16 UNL     1      -0.394   0.212   0.051  1.00  0.00     0.222 A 
BRANCH  14  17
HETATM   17  O1  UNL     1      -3.565   1.798  -0.341  1.00  0.00    -0.328 OA
BRANCH  17  18
HETATM   18  C12 UNL     1      -3.481   2.921  -1.110  1.00  0.00     0.154 C 
HETATM   19  C13 UNL     1      -2.789   3.495  -2.068  1.00  0.00     0.104 C 
BRANCH  19  20
HETATM   20  N2  UNL     1      -1.673   2.905  -2.676  1.00  0.00    -0.406 N 
HETATM   21  H12 UNL     1      -0.694   2.607  -2.692  1.00  0.00     0.155 HD
HETATM   22  H13 UNL     1      -1.849   2.541  -3.655  1.00  0.00     0.155 HD
ENDBRANCH  19  20
ENDBRANCH  17  18
ENDBRANCH  14  17
BRANCH  16  23
HETATM   23  C17 UNL     1       0.936   0.672   0.297  1.00  0.00     0.055 C 
BRANCH  23  24
HETATM   24  C18 UNL     1       2.062  -0.300  -0.007  1.00  0.00     0.119 C 
BRANCH  24  25
HETATM   25  N4  UNL     1       3.307   0.326   0.329  1.00  0.00    -0.408 N 
HETATM   26  C19 UNL     1       3.715   1.423  -0.460  1.00  0.00     0.143 C 
HETATM   27  C20 UNL     1       5.139   1.780  -0.007  1.00  0.00     0.187 C 
HETATM   28  O2  UNL     1       5.720   0.682   0.650  1.00  0.00    -0.388 OA
HETATM   29  C21 UNL     1       5.109   0.593   1.896  1.00  0.00     0.187 C 
HETATM   30  C22 UNL     1       3.633   0.332   1.708  1.00  0.00     0.143 C 
ENDBRANCH  24  25
ENDBRANCH  23  24
ENDBRANCH  16  23
ENDBRANCH   8   9
TORSDOF 7
