REMARK  6 active torsions:
REMARK  status: ('A' for Active; 'I' for Inactive)
REMARK    1  A    between atoms: C7_7  and  N1_8 
REMARK    2  A    between atoms: N1_8  and  C8_9 
REMARK    3  A    between atoms: N4_19  and  C16_20 
REMARK    4  A    between atoms: C16_20  and  C17_21 
REMARK    5  A    between atoms: C17_21  and  C18_22 
REMARK    6  A    between atoms: C18_22  and  N5_23 
ROOT
HETATM    1  C1  UNL     1       3.662   5.379   2.339  1.00  0.00     0.018 C 
HETATM    2  C2  UNL     1       3.986   4.244   2.136  1.00  0.00    -0.078 C 
HETATM    3  C3  UNL     1       4.389   2.889   1.889  1.00  0.00     0.019 A 
HETATM    4  C4  UNL     1       5.585   2.422   2.350  1.00  0.00     0.021 A 
HETATM    5  C5  UNL     1       5.906   1.113   2.078  1.00  0.00     0.004 A 
HETATM    6  C6  UNL     1       5.037   0.317   1.363  1.00  0.00     0.029 A 
HETATM    7  C7  UNL     1       3.823   0.734   0.876  1.00  0.00     0.035 A 
HETATM    8  C25 UNL     1       3.560   2.051   1.181  1.00  0.00     0.050 A 
ENDROOT
BRANCH   7   9
HETATM    9  N1  UNL     1       2.955  -0.099   0.141  1.00  0.00    -0.340 N 
HETATM   10  H5  UNL     1       2.063   0.377  -0.027  1.00  0.00     0.167 HD
BRANCH   9  11
HETATM   11  C8  UNL     1       3.209  -1.408  -0.326  1.00  0.00     0.142 A 
HETATM   12  N2  UNL     1       4.338  -2.102  -0.173  1.00  0.00    -0.224 NA
HETATM   13  C9  UNL     1       4.557  -3.331  -0.621  1.00  0.00     0.236 A 
HETATM   14  N3  UNL     1       3.580  -3.966  -1.291  1.00  0.00    -0.241 NA
HETATM   15  C10 UNL     1       2.384  -3.345  -1.503  1.00  0.00     0.075 A 
HETATM   16  C11 UNL     1       1.439  -4.065  -2.198  1.00  0.00     0.071 A 
HETATM   17  C15 UNL     1       2.214  -2.068  -1.015  1.00  0.00     0.041 A 
HETATM   18  C12 UNL     1       0.211  -3.487  -2.441  1.00  0.00     0.098 A 
HETATM   19  C13 UNL     1      -0.016  -2.209  -1.975  1.00  0.00     0.071 A 
HETATM   20  O3  UNL     1      -0.707  -4.251  -3.145  1.00  0.00    -0.340 OA
HETATM   21  C14 UNL     1       0.969  -1.553  -1.292  1.00  0.00     0.050 A 
HETATM   22  N4  UNL     1      -1.291  -1.630  -2.238  1.00  0.00    -0.314 N 
HETATM   23  C23 UNL     1      -2.247  -2.412  -2.964  1.00  0.00     0.248 C 
HETATM   24  O2  UNL     1      -3.352  -1.902  -3.316  1.00  0.00    -0.271 OA
HETATM   25  C24 UNL     1      -2.029  -3.830  -3.350  1.00  0.00     0.279 C 
BRANCH  22  26
HETATM   26  C16 UNL     1      -1.622  -0.323  -1.801  1.00  0.00     0.134 C 
BRANCH  26  27
HETATM   27  C17 UNL     1      -2.248  -0.375  -0.394  1.00  0.00     0.040 C 
BRANCH  27  28
HETATM   28  C18 UNL     1      -2.557   1.033  -0.035  1.00  0.00     0.118 C 
BRANCH  28  29
HETATM   29  N5  UNL     1      -3.145   1.290   1.220  1.00  0.00    -0.408 N 
HETATM   30  C19 UNL     1      -3.365   2.690   1.394  1.00  0.00     0.143 C 
HETATM   31  C20 UNL     1      -4.775   3.115   1.642  1.00  0.00     0.187 C 
HETATM   32  O1  UNL     1      -5.550   2.207   2.331  1.00  0.00    -0.388 OA
HETATM   33  C21 UNL     1      -5.567   1.046   1.564  1.00  0.00     0.187 C 
HETATM   34  C22 UNL     1      -4.172   0.436   1.684  1.00  0.00     0.143 C 
ENDBRANCH  28  29
ENDBRANCH  27  28
ENDBRANCH  26  27
ENDBRANCH  22  26
ENDBRANCH   9  11
ENDBRANCH   7   9
TORSDOF 6
