REMARK  2 active torsions:
REMARK  status: ('A' for Active; 'I' for Inactive)
REMARK    1  A    between atoms: O1_1  and  N1_2 
REMARK    2  A    between atoms: N1_2  and  C1_3 
ROOT
HETATM    1  C1  UNL     1       3.251  -0.496   0.468  1.00  0.00     0.267 C 
HETATM    2  N2  UNL     1       2.204  -1.114   0.896  1.00  0.00    -0.201 NA
HETATM    3  C2  UNL     1       2.112  -2.502   1.112  1.00  0.00     0.231 C 
HETATM    4  N3  UNL     1       0.894  -2.152   0.773  1.00  0.00    -0.278 NA
HETATM    5  C3  UNL     1      -0.054  -3.244   0.742  1.00  0.00     0.185 C 
HETATM    6  C4  UNL     1      -1.365  -2.862   0.178  1.00  0.00    -0.043 C 
HETATM    7  C5  UNL     1      -0.999  -2.392  -1.015  1.00  0.00    -0.019 C 
HETATM    8  C6  UNL     1      -0.917  -1.070  -0.917  1.00  0.00     0.044 C 
HETATM    9  C7  UNL     1      -2.118  -0.420  -0.400  1.00  0.00     0.061 C 
HETATM   10  C8  UNL     1      -3.140  -1.227  -0.152  1.00  0.00     0.077 C 
HETATM   11  C9  UNL     1      -2.838  -2.679   0.130  1.00  0.00     0.103 C 
HETATM   12  O2  UNL     1      -4.426  -0.713  -0.161  1.00  0.00    -0.351 OA
HETATM   13  C10 UNL     1      -4.565   0.701  -0.118  1.00  0.00     0.195 C 
HETATM   14  C11 UNL     1      -3.377   1.266   0.650  1.00  0.00     0.149 C 
HETATM   15  N4  UNL     1      -2.215   0.981  -0.170  1.00  0.00    -0.377 N 
HETATM   16  C12 UNL     1      -1.288   1.948  -0.684  1.00  0.00     0.123 C 
HETATM   17  C13 UNL     1       0.075   1.832   0.028  1.00  0.00     0.020 C 
HETATM   18  C14 UNL     1       0.942   2.879  -0.595  1.00  0.00     0.004 C 
HETATM   19  C15 UNL     1       2.315   3.037  -0.066  1.00  0.00     0.027 C 
HETATM   20  C16 UNL     1       3.127   1.795  -0.220  1.00  0.00     0.179 C 
HETATM   21  O3  UNL     1       2.592   0.749   0.519  1.00  0.00    -0.319 OA
ENDROOT
BRANCH   1  22
HETATM   22  N1  UNL     1       4.580  -0.870   0.079  1.00  0.00    -0.231 N 
HETATM   23  H2  UNL     1       5.143   0.002  -0.025  1.00  0.00     0.198 HD
BRANCH  22  24
HETATM   24  O1  UNL     1       4.619  -2.210  -0.010  1.00  0.00    -0.287 OA
HETATM   25  H1  UNL     1       4.690  -2.499  -0.951  1.00  0.00     0.244 HD
ENDBRANCH  22  24
ENDBRANCH   1  22
TORSDOF 2
