REMARK  6 active torsions:
REMARK  status: ('A' for Active; 'I' for Inactive)
REMARK    1  A    between atoms: C7_7  and  N1_8 
REMARK    2  A    between atoms: N1_8  and  C8_9 
REMARK    3  A    between atoms: N4_19  and  C16_20 
REMARK    4  A    between atoms: C16_20  and  C17_21 
REMARK    5  A    between atoms: C17_21  and  N5_22 
REMARK    6  A    between atoms: N5_22  and  C18_23 
ROOT
HETATM    1  C1  UNL     1      -8.031   1.640   0.411  1.00  0.00     0.018 C 
HETATM    2  C2  UNL     1      -6.853   1.903   0.276  1.00  0.00    -0.078 C 
HETATM    3  C3  UNL     1      -5.458   2.208   0.141  1.00  0.00     0.019 A 
HETATM    4  C4  UNL     1      -5.142   3.559   0.059  1.00  0.00     0.021 A 
HETATM    5  C5  UNL     1      -3.815   3.856  -0.068  1.00  0.00     0.004 A 
HETATM    6  C6  UNL     1      -2.800   2.932  -0.118  1.00  0.00     0.029 A 
HETATM    7  C7  UNL     1      -3.105   1.575  -0.036  1.00  0.00     0.035 A 
HETATM    8  C22 UNL     1      -4.458   1.268   0.093  1.00  0.00     0.050 A 
ENDROOT
BRANCH   7   9
HETATM    9  N1  UNL     1      -2.160   0.510  -0.074  1.00  0.00    -0.340 N 
HETATM   10  H5  UNL     1      -1.255   0.915  -0.381  1.00  0.00     0.167 HD
BRANCH   9  11
HETATM   11  C8  UNL     1      -2.303  -0.872   0.217  1.00  0.00     0.142 A 
HETATM   12  N2  UNL     1      -3.435  -1.454   0.579  1.00  0.00    -0.224 NA
HETATM   13  C9  UNL     1      -3.589  -2.747   0.874  1.00  0.00     0.236 A 
HETATM   14  N3  UNL     1      -2.496  -3.529   0.796  1.00  0.00    -0.241 NA
HETATM   15  C10 UNL     1      -1.307  -3.010   0.434  1.00  0.00     0.075 A 
HETATM   16  C11 UNL     1      -0.231  -3.866   0.380  1.00  0.00     0.071 A 
HETATM   17  C15 UNL     1      -1.189  -1.669   0.138  1.00  0.00     0.041 A 
HETATM   18  C12 UNL     1       1.033  -3.451   0.028  1.00  0.00     0.098 A 
HETATM   19  C13 UNL     1       1.172  -2.103  -0.275  1.00  0.00     0.071 A 
HETATM   20  O2  UNL     1       2.079  -4.340  -0.013  1.00  0.00    -0.340 OA
HETATM   21  C14 UNL     1       0.075  -1.271  -0.211  1.00  0.00     0.050 A 
HETATM   22  N4  UNL     1       2.442  -1.579  -0.629  1.00  0.00    -0.312 N 
HETATM   23  C20 UNL     1       3.509  -2.530  -0.638  1.00  0.00     0.248 C 
HETATM   24  O1  UNL     1       4.689  -2.127  -0.833  1.00  0.00    -0.271 OA
HETATM   25  C21 UNL     1       3.383  -4.002  -0.437  1.00  0.00     0.279 C 
BRANCH  22  26
HETATM   26  C16 UNL     1       2.716  -0.198  -0.964  1.00  0.00     0.151 C 
BRANCH  26  27
HETATM   27  C17 UNL     1       3.059   0.662   0.205  1.00  0.00     0.134 C 
BRANCH  27  28
HETATM   28  N5  UNL     1       3.306   2.007  -0.209  1.00  0.00    -0.420 N 
HETATM   29  H13 UNL     1       3.162   2.731   0.500  1.00  0.00     0.153 HD
BRANCH  28  30
HETATM   30  C18 UNL     1       4.490   2.199  -0.975  1.00  0.00     0.109 C 
HETATM   31  C19 UNL     1       5.730   1.998  -0.163  1.00  0.00     0.026 C 
ENDBRANCH  28  30
ENDBRANCH  27  28
ENDBRANCH  26  27
ENDBRANCH  22  26
ENDBRANCH   9  11
ENDBRANCH   7   9
TORSDOF 6
