REMARK  6 active torsions:
REMARK  status: ('A' for Active; 'I' for Inactive)
REMARK    1  A    between atoms: C6_6  and  N1_7 
REMARK    2  A    between atoms: N1_7  and  C7_8 
REMARK    3  A    between atoms: N4_18  and  C15_19 
REMARK    4  A    between atoms: C15_19  and  C16_20 
REMARK    5  A    between atoms: C16_20  and  C17_21 
REMARK    6  A    between atoms: C17_21  and  N5_22 
ROOT
HETATM    1  C7  UNL     1       3.159  -1.111   0.970  1.00  0.00     0.142 A 
HETATM    2  N2  UNL     1       4.158  -1.999   1.106  1.00  0.00    -0.224 NA
HETATM    3  C8  UNL     1       4.142  -3.235   0.558  1.00  0.00     0.236 A 
HETATM    4  N3  UNL     1       3.072  -3.663  -0.189  1.00  0.00    -0.241 NA
HETATM    5  C9  UNL     1       2.057  -2.789  -0.338  1.00  0.00     0.075 A 
HETATM    6  C10 UNL     1       1.014  -3.275  -1.097  1.00  0.00     0.071 A 
HETATM    7  C11 UNL     1      -0.091  -2.491  -1.332  1.00  0.00     0.098 A 
HETATM    8  C12 UNL     1      -0.082  -1.225  -0.772  1.00  0.00     0.071 A 
HETATM    9  C13 UNL     1       0.927  -0.697  -0.014  1.00  0.00     0.050 A 
HETATM   10  C14 UNL     1       2.043  -1.505   0.216  1.00  0.00     0.041 A 
HETATM   11  N4  UNL     1      -1.199  -0.372  -0.967  1.00  0.00    -0.314 N 
HETATM   12  C22 UNL     1      -2.258  -0.950  -1.763  1.00  0.00     0.248 C 
HETATM   13  O2  UNL     1      -3.081  -0.211  -2.405  1.00  0.00    -0.271 OA
HETATM   14  C23 UNL     1      -2.471  -2.415  -1.902  1.00  0.00     0.279 C 
HETATM   15  O3  UNL     1      -1.154  -2.966  -2.098  1.00  0.00    -0.340 OA
ENDROOT
BRANCH   1  16
HETATM   16  N1  UNL     1       3.012   0.224   1.427  1.00  0.00    -0.340 N 
HETATM   17  H7  UNL     1       2.193   0.601   1.973  1.00  0.00     0.167 HD
BRANCH  16  18
HETATM   18  C6  UNL     1       4.168   0.948   1.024  1.00  0.00     0.034 A 
HETATM   19  C5  UNL     1       4.017   2.175   0.371  1.00  0.00     0.029 A 
HETATM   20  C4  UNL     1       5.090   2.945  -0.054  1.00  0.00     0.003 A 
HETATM   21  C3  UNL     1       6.361   2.481   0.180  1.00  0.00     0.007 A 
HETATM   22  C2  UNL     1       6.556   1.269   0.827  1.00  0.00    -0.060 A 
HETATM   23  C1  UNL     1       7.970   0.885   1.031  1.00  0.00     0.048 C 
HETATM   24  C24 UNL     1       5.478   0.533   1.232  1.00  0.00     0.036 A 
ENDBRANCH  16  18
ENDBRANCH   1  16
BRANCH  11  25
HETATM   25  C15 UNL     1      -1.420   0.960  -0.448  1.00  0.00     0.134 C 
BRANCH  25  26
HETATM   26  C16 UNL     1      -2.040   0.928   0.931  1.00  0.00     0.050 C 
BRANCH  26  27
HETATM   27  C17 UNL     1      -3.328   0.203   1.036  1.00  0.00     0.274 C 
BRANCH  27  28
HETATM   28  N5  UNL     1      -4.421   0.649   0.262  1.00  0.00     0.092 N 
HETATM   29  C18 UNL     1      -5.010   1.900   0.600  1.00  0.00     0.298 C 
HETATM   30  C19 UNL     1      -6.312   1.992  -0.195  1.00  0.00     0.198 C 
HETATM   31  O1  UNL     1      -7.249   1.059   0.187  1.00  0.00    -0.388 OA
HETATM   32  C20 UNL     1      -6.726  -0.152   0.623  1.00  0.00     0.198 C 
HETATM   33  C21 UNL     1      -5.358  -0.428   0.082  1.00  0.00     0.298 C 
ENDBRANCH  27  28
ENDBRANCH  26  27
ENDBRANCH  25  26
ENDBRANCH  11  25
TORSDOF 6
