REMARK  7 active torsions:
REMARK  status: ('A' for Active; 'I' for Inactive)
REMARK    1  A    between atoms: C2_2  and  C3_4 
REMARK    2  A    between atoms: C4_6  and  C5_7 
REMARK    3  A    between atoms: C5_7  and  C6_8 
REMARK    4  A    between atoms: C14_20  and  N3_21 
REMARK    5  A    between atoms: C15_23  and  C16_24 
REMARK    6  A    between atoms: C16_24  and  C17_25 
REMARK    7  A    between atoms: C17_25  and  N5_26 
ROOT
HETATM    1  C6  UNL     1       3.622  -0.494   0.013  1.00  0.00     0.057 C 
HETATM    2  C7  UNL     1       3.077   0.402  -0.801  1.00  0.00     0.026 C 
HETATM    3  C8  UNL     1       1.619   0.786  -0.848  1.00  0.00     0.003 C 
HETATM    4  C9  UNL     1       0.315   0.835  -0.567  1.00  0.00     0.137 C 
HETATM    5  N1  UNL     1      -0.695   0.280   0.313  1.00  0.00    -0.332 N 
HETATM    6  C10 UNL     1      -0.959   0.948   1.587  1.00  0.00     0.244 C 
HETATM    7  O1  UNL     1      -0.240   2.004   1.688  1.00  0.00    -0.271 OA
HETATM    8  C11 UNL     1      -1.910   0.552   2.702  1.00  0.00     0.271 C 
HETATM    9  O2  UNL     1      -2.136  -0.818   2.642  1.00  0.00    -0.369 OA
HETATM   10  C12 UNL     1      -1.385  -1.474   1.701  1.00  0.00     0.186 C 
HETATM   11  C13 UNL     1       0.095  -1.445   1.960  1.00  0.00     0.143 C 
HETATM   12  N2  UNL     1       1.254  -1.244   2.505  1.00  0.00    -0.077 NA
HETATM   13  C14 UNL     1       2.500  -1.653   1.876  1.00  0.00     0.720 C 
HETATM   14  N4  UNL     1       3.344  -1.403   1.003  1.00  0.00    -0.068 NA
HETATM   15  C15 UNL     1      -1.588  -0.901   0.290  1.00  0.00     0.123 C 
ENDROOT
BRANCH  15  16
HETATM   16  C16 UNL     1      -2.890  -0.767  -0.267  1.00  0.00     0.058 C 
BRANCH  16  17
HETATM   17  C17 UNL     1      -3.922   0.161   0.229  1.00  0.00     0.274 C 
BRANCH  17  18
HETATM   18  N5  UNL     1      -5.091  -0.000  -0.628  1.00  0.00     0.092 N 
HETATM   19  C18 UNL     1      -5.725  -1.264  -0.465  1.00  0.00     0.298 C 
HETATM   20  C19 UNL     1      -7.209  -1.171  -0.854  1.00  0.00     0.198 C 
HETATM   21  O3  UNL     1      -7.271  -0.329  -1.962  1.00  0.00    -0.388 OA
HETATM   22  C20 UNL     1      -7.136   0.980  -1.491  1.00  0.00     0.198 C 
HETATM   23  C21 UNL     1      -5.985   1.122  -0.527  1.00  0.00     0.298 C 
ENDBRANCH  17  18
ENDBRANCH  16  17
ENDBRANCH  15  16
BRANCH  13  24
HETATM   24  N3  UNL     1       2.928  -2.843   2.555  1.00  0.00    -0.231 N 
HETATM   25  H15 UNL     1       3.724  -2.879   3.249  1.00  0.00     0.174 HD
HETATM   26  H16 UNL     1       2.410  -3.726   2.341  1.00  0.00     0.174 HD
ENDBRANCH  13  24
BRANCH   1  27
HETATM   27  C5  UNL     1       5.082  -0.673  -0.154  1.00  0.00     0.090 C 
BRANCH  27  28
HETATM   28  C4  UNL     1       5.551   0.290  -1.206  1.00  0.00     0.020 C 
HETATM   29  C3  UNL     1       6.438   1.267  -1.273  1.00  0.00     0.123 C 
HETATM   30  F2  UNL     1       6.971   1.270  -0.007  1.00  0.00    -0.208 F 
BRANCH  29  31
HETATM   31  C2  UNL     1       7.223   2.378  -1.888  1.00  0.00     0.227 C 
HETATM   32  C1  UNL     1       8.691   2.098  -1.813  1.00  0.00     0.052 C 
HETATM   33  F1  UNL     1       6.872   2.509  -3.237  1.00  0.00    -0.242 F 
ENDBRANCH  29  31
ENDBRANCH  27  28
ENDBRANCH   1  27
TORSDOF 7
