REMARK  1 active torsions:
REMARK  status: ('A' for Active; 'I' for Inactive)
REMARK    1  A    between atoms: C13_17  and  O2_18 
ROOT
HETATM    1  C1  UNL     1      -2.681   3.333  -0.344  1.00  0.00     0.052 C 
HETATM    2  C2  UNL     1      -1.655   2.709   0.205  1.00  0.00     0.086 A 
HETATM    3  O1  UNL     1      -0.519   3.149   0.866  1.00  0.00    -0.291 OA
HETATM    4  C3  UNL     1      -0.139   1.823   1.017  1.00  0.00     0.187 A 
HETATM    5  N1  UNL     1       0.684   0.926   1.441  1.00  0.00    -0.217 NA
HETATM    6  C4  UNL     1       1.887   1.162   2.134  1.00  0.00     0.229 C 
HETATM    7  N2  UNL     1       3.097   1.420   1.701  1.00  0.00    -0.279 NA
HETATM    8  C5  UNL     1       3.371   1.502   0.275  1.00  0.00     0.177 C 
HETATM    9  C6  UNL     1       2.857   0.334  -0.455  1.00  0.00    -0.009 C 
HETATM   10  C7  UNL     1       2.318  -0.589  -1.176  1.00  0.00    -0.027 C 
HETATM   11  C8  UNL     1       1.749  -1.692  -1.957  1.00  0.00     0.047 C 
HETATM   12  C9  UNL     1       0.257  -1.703  -1.737  1.00  0.00     0.127 C 
HETATM   13  N3  UNL     1      -0.010  -1.947  -0.351  1.00  0.00    -0.375 N 
HETATM   14  C10 UNL     1       0.294  -2.869   0.691  1.00  0.00     0.152 A 
HETATM   15  C11 UNL     1      -0.589  -1.980   1.478  1.00  0.00     0.025 A 
HETATM   16  C12 UNL     1      -0.839  -1.151   0.481  1.00  0.00     0.063 A 
HETATM   17  C13 UNL     1      -1.571   0.060   0.142  1.00  0.00     0.111 C 
HETATM   18  C15 UNL     1      -1.316   1.314   0.329  1.00  0.00     0.086 A 
ENDROOT
BRANCH  17  19
HETATM   19  O2  UNL     1      -2.691  -0.453  -0.473  1.00  0.00    -0.353 OA
HETATM   20  C14 UNL     1      -3.995  -0.392   0.015  1.00  0.00     0.210 C 
ENDBRANCH  17  19
TORSDOF 1
