REMARK  7 active torsions:
REMARK  status: ('A' for Active; 'I' for Inactive)
REMARK    1  A    between atoms: C7_11  and  N3_12 
REMARK    2  A    between atoms: N3_12  and  C8_13 
REMARK    3  A    between atoms: C12_17  and  C13_18 
REMARK    4  A    between atoms: N4_24  and  C18_25 
REMARK    5  A    between atoms: C18_25  and  C19_26 
REMARK    6  A    between atoms: C19_26  and  C20_27 
REMARK    7  A    between atoms: C20_27  and  N5_28 
ROOT
HETATM    1  O1  UNL     1       3.236  -1.862  -3.437  1.00  0.00    -0.271 OA
HETATM    2  C1  UNL     1       2.444  -2.365  -2.578  1.00  0.00     0.248 C 
HETATM    3  C2  UNL     1       2.662  -3.772  -2.130  1.00  0.00     0.279 C 
HETATM    4  O2  UNL     1       1.391  -4.363  -1.850  1.00  0.00    -0.340 OA
HETATM    5  C3  UNL     1       0.332  -3.629  -1.339  1.00  0.00     0.098 A 
HETATM    6  C4  UNL     1      -0.714  -4.281  -0.723  1.00  0.00     0.071 A 
HETATM    7  C5  UNL     1      -1.759  -3.541  -0.220  1.00  0.00     0.075 A 
HETATM    8  N1  UNL     1      -2.779  -4.207   0.385  1.00  0.00    -0.241 NA
HETATM    9  C6  UNL     1      -3.832  -3.546   0.899  1.00  0.00     0.236 A 
HETATM   10  N2  UNL     1      -3.896  -2.231   0.828  1.00  0.00    -0.224 NA
HETATM   11  C7  UNL     1      -2.939  -1.501   0.252  1.00  0.00     0.142 A 
HETATM   12  C15 UNL     1      -1.855  -2.165  -0.279  1.00  0.00     0.041 A 
HETATM   13  C16 UNL     1      -0.780  -1.572  -0.906  1.00  0.00     0.050 A 
HETATM   14  C17 UNL     1       0.292  -2.253  -1.428  1.00  0.00     0.071 A 
HETATM   15  N4  UNL     1       1.370  -1.576  -2.063  1.00  0.00    -0.314 N 
ENDROOT
BRANCH  11  16
HETATM   16  N3  UNL     1      -2.971  -0.091   0.155  1.00  0.00    -0.340 N 
HETATM   17  H5  UNL     1      -2.236   0.451  -0.318  1.00  0.00     0.167 HD
BRANCH  16  18
HETATM   18  C8  UNL     1      -3.955   0.793   0.659  1.00  0.00     0.034 A 
HETATM   19  C9  UNL     1      -4.938   0.411   1.544  1.00  0.00     0.029 A 
HETATM   20  C10 UNL     1      -5.917   1.242   2.045  1.00  0.00     0.003 A 
HETATM   21  C11 UNL     1      -5.948   2.564   1.655  1.00  0.00     0.010 A 
HETATM   22  C12 UNL     1      -4.998   3.005   0.779  1.00  0.00    -0.028 A 
HETATM   23  C14 UNL     1      -4.052   2.120   0.320  1.00  0.00     0.039 A 
BRANCH  22  24
HETATM   24  C13 UNL     1      -4.985   4.411   0.329  1.00  0.00     0.261 C 
HETATM   25  F1  UNL     1      -4.203   5.117   1.207  1.00  0.00    -0.251 F 
ENDBRANCH  22  24
ENDBRANCH  16  18
ENDBRANCH  11  16
BRANCH  15  26
HETATM   26  C18 UNL     1       1.418  -0.160  -2.203  1.00  0.00     0.134 C 
BRANCH  26  27
HETATM   27  C19 UNL     1       2.092   0.545  -1.045  1.00  0.00     0.050 C 
BRANCH  27  28
HETATM   28  C20 UNL     1       3.513   0.116  -0.854  1.00  0.00     0.274 C 
BRANCH  28  29
HETATM   29  N5  UNL     1       4.208   0.742   0.223  1.00  0.00     0.092 N 
HETATM   30  C21 UNL     1       3.750   0.395   1.532  1.00  0.00     0.298 C 
HETATM   31  C22 UNL     1       4.233   1.405   2.554  1.00  0.00     0.198 C 
HETATM   32  O3  UNL     1       5.482   1.941   2.225  1.00  0.00    -0.388 OA
HETATM   33  C23 UNL     1       5.473   2.635   1.022  1.00  0.00     0.198 C 
HETATM   34  C24 UNL     1       4.396   2.155   0.075  1.00  0.00     0.298 C 
ENDBRANCH  28  29
ENDBRANCH  27  28
ENDBRANCH  26  27
ENDBRANCH  15  26
TORSDOF 7
