REMARK  6 active torsions:
REMARK  status: ('A' for Active; 'I' for Inactive)
REMARK    1  A    between atoms: O1_1  and  C1_2 
REMARK    2  A    between atoms: C13_17  and  N3_18 
REMARK    3  A    between atoms: N3_18  and  C14_19 
REMARK    4  A    between atoms: C15_20  and  C16_21 
REMARK    5  A    between atoms: C17_22  and  C18_23 
REMARK    6  A    between atoms: C18_23  and  C19_25 
ROOT
HETATM    1  C1  UNL     1       0.159  -2.423  -0.827  1.00  0.00     0.079 C 
HETATM    2  C2  UNL     1      -1.125  -2.685  -0.487  1.00  0.00     0.103 C 
HETATM    3  C3  UNL     1      -2.054  -2.020   0.485  1.00  0.00     0.339 C 
HETATM    4  N1  UNL     1      -3.101  -1.351  -0.166  1.00  0.00     0.096 NA
HETATM    5  C4  UNL     1      -3.861  -0.343   0.400  1.00  0.00     0.274 C 
HETATM    6  C5  UNL     1      -3.412   0.432   1.573  1.00  0.00     0.050 C 
HETATM    7  C6  UNL     1      -2.203   1.253   1.531  1.00  0.00     0.119 C 
HETATM    8  N2  UNL     1      -2.109   2.240   0.462  1.00  0.00    -0.403 N 
HETATM    9  C7  UNL     1      -3.315   3.029   0.274  1.00  0.00     0.143 C 
HETATM   10  C8  UNL     1      -3.479   3.585  -1.109  1.00  0.00     0.187 C 
HETATM   11  O2  UNL     1      -2.320   3.987  -1.702  1.00  0.00    -0.387 OA
HETATM   12  C9  UNL     1      -1.294   4.023  -0.777  1.00  0.00     0.193 C 
HETATM   13  C10 UNL     1      -1.006   2.561  -0.439  1.00  0.00     0.041 C 
HETATM   14  C11 UNL     1      -0.247   1.446  -0.557  1.00  0.00     0.113 C 
HETATM   15  C12 UNL     1       0.998   1.066  -1.299  1.00  0.00     0.006 C 
HETATM   16  C13 UNL     1       1.299  -0.229  -1.023  1.00  0.00     0.011 C 
HETATM   17  C20 UNL     1       0.776  -1.304  -0.169  1.00  0.00     0.123 C 
HETATM   18  C21 UNL     1      -3.923  -2.381  -0.800  1.00  0.00     0.299 C 
HETATM   19  C22 UNL     1      -3.195  -3.438  -1.521  1.00  0.00     0.205 C 
HETATM   20  O3  UNL     1      -1.874  -3.733  -1.064  1.00  0.00    -0.349 OA
ENDROOT
BRANCH  16  21
HETATM   21  N3  UNL     1       2.466  -0.831  -1.635  1.00  0.00    -0.369 N 
HETATM   22  H18 UNL     1       2.426  -0.696  -2.690  1.00  0.00     0.165 HD
BRANCH  21  23
HETATM   23  C14 UNL     1       3.526  -1.507  -0.974  1.00  0.00     0.088 C 
HETATM   24  C15 UNL     1       4.329  -1.103  -0.005  1.00  0.00     0.017 C 
BRANCH  24  25
HETATM   25  C16 UNL     1       4.222   0.226   0.571  1.00  0.00     0.000 C 
HETATM   26  C17 UNL     1       5.028   0.640   1.548  1.00  0.00     0.012 C 
BRANCH  26  27
HETATM   27  C18 UNL     1       6.092  -0.222   2.120  1.00  0.00     0.221 C 
HETATM   28  F1  UNL     1       6.383   0.210   3.396  1.00  0.00    -0.243 F 
BRANCH  27  29
HETATM   29  C19 UNL     1       7.313  -0.116   1.216  1.00  0.00     0.263 C 
HETATM   30  F2  UNL     1       7.731   1.212   1.174  1.00  0.00    -0.252 F 
ENDBRANCH  27  29
ENDBRANCH  26  27
ENDBRANCH  24  25
ENDBRANCH  21  23
ENDBRANCH  16  21
BRANCH   1  31
HETATM   31  O1  UNL     1       0.797  -3.201  -1.758  1.00  0.00    -0.362 OA
HETATM   32  H1  UNL     1       1.136  -4.126  -1.613  1.00  0.00     0.217 HD
ENDBRANCH   1  31
TORSDOF 6
