REMARK  6 active torsions:
REMARK  status: ('A' for Active; 'I' for Inactive)
REMARK    1  A    between atoms: O1_2  and  C2_3 
REMARK    2  A    between atoms: C6_7  and  N1_8 
REMARK    3  A    between atoms: N1_8  and  C7_9 
REMARK    4  A    between atoms: N4_18  and  C14_19 
REMARK    5  A    between atoms: C14_19  and  C15_20 
REMARK    6  A    between atoms: C15_20  and  N5_21 
ROOT
HETATM    1  C7  UNL     1       2.025  -0.480  -1.181  1.00  0.00     0.120 C 
HETATM    2  N2  UNL     1       2.790  -0.494  -2.112  1.00  0.00    -0.219 NA
HETATM    3  C8  UNL     1       2.683   0.921  -2.416  1.00  0.00     0.137 C 
HETATM    4  N3  UNL     1       3.327   2.042  -2.998  1.00  0.00    -0.263 NA
HETATM    5  C9  UNL     1       2.706   3.419  -2.522  1.00  0.00     0.175 C 
HETATM    6  C10 UNL     1       1.713   2.918  -1.797  1.00  0.00     0.121 A 
HETATM    7  C11 UNL     1       2.049   2.230  -0.417  1.00  0.00     0.067 A 
HETATM    8  C12 UNL     1       0.873   1.974  -0.809  1.00  0.00     0.088 A 
HETATM    9  C13 UNL     1       1.356   0.723  -1.682  1.00  0.00     0.158 C 
HETATM   10  N4  UNL     1      -0.508   1.934  -1.071  1.00  0.00    -0.372 N 
HETATM   11  C21 UNL     1      -0.654   3.340  -1.596  1.00  0.00     0.216 C 
HETATM   12  C22 UNL     1      -0.229   4.348  -0.638  1.00  0.00     0.063 C 
HETATM   13  O3  UNL     1       0.474   3.088  -2.636  1.00  0.00    -0.351 OA
ENDROOT
BRANCH   1  14
HETATM   14  N1  UNL     1       1.149  -0.816   0.005  1.00  0.00    -0.344 N 
HETATM   15  H7  UNL     1       0.393  -0.749   0.678  1.00  0.00     0.167 HD
BRANCH  14  16
HETATM   16  C6  UNL     1       1.770  -2.016   0.602  1.00  0.00     0.036 A 
HETATM   17  C5  UNL     1       1.353  -3.323   0.492  1.00  0.00     0.029 A 
HETATM   18  C4  UNL     1       2.084  -4.308   1.105  1.00  0.00     0.005 A 
HETATM   19  C3  UNL     1       3.222  -4.062   1.831  1.00  0.00     0.037 A 
HETATM   20  C2  UNL     1       3.688  -2.773   1.977  1.00  0.00     0.070 A 
HETATM   21  C23 UNL     1       2.931  -1.786   1.346  1.00  0.00     0.066 A 
BRANCH  20  22
HETATM   22  O1  UNL     1       4.827  -2.402   2.685  1.00  0.00    -0.356 OA
HETATM   23  C1  UNL     1       5.226  -1.039   2.772  1.00  0.00     0.210 C 
ENDBRANCH  20  22
ENDBRANCH  14  16
ENDBRANCH   1  14
BRANCH  10  24
HETATM   24  C14 UNL     1      -1.521   0.947  -0.983  1.00  0.00     0.150 C 
BRANCH  24  25
HETATM   25  C15 UNL     1      -2.546   1.228   0.086  1.00  0.00     0.292 C 
BRANCH  25  26
HETATM   26  N5  UNL     1      -3.527   0.131   0.035  1.00  0.00     0.098 N 
HETATM   27  C16 UNL     1      -4.480   0.444   1.082  1.00  0.00     0.299 C 
HETATM   28  C17 UNL     1      -3.961  -0.192   2.340  1.00  0.00     0.198 C 
HETATM   29  O2  UNL     1      -4.003  -1.582   2.294  1.00  0.00    -0.387 OA
HETATM   30  C18 UNL     1      -3.765  -2.106   1.055  1.00  0.00     0.203 C 
HETATM   31  C19 UNL     1      -2.968  -1.170   0.156  1.00  0.00     0.242 C 
HETATM   32  C20 UNL     1      -2.950  -1.819  -1.213  1.00  0.00     0.045 C 
ENDBRANCH  25  26
ENDBRANCH  24  25
ENDBRANCH  10  24
TORSDOF 6
