REMARK  4 active torsions:
REMARK  status: ('A' for Active; 'I' for Inactive)
REMARK    1  A    between atoms: N4_23  and  C18_24 
REMARK    2  A    between atoms: C18_24  and  C19_25 
REMARK    3  A    between atoms: C19_25  and  C20_26 
REMARK    4  A    between atoms: C20_26  and  N5_27 
ROOT
HETATM    1  O1  UNL     1       2.762  -1.095   3.258  1.00  0.00    -0.271 OA
HETATM    2  C1  UNL     1       1.616  -0.701   2.925  1.00  0.00     0.248 C 
HETATM    3  C2  UNL     1       0.744  -0.203   4.008  1.00  0.00     0.279 C 
HETATM    4  O2  UNL     1      -0.613  -0.239   3.671  1.00  0.00    -0.339 OA
HETATM    5  C3  UNL     1      -1.150  -0.222   2.404  1.00  0.00     0.108 A 
HETATM    6  C4  UNL     1      -0.286  -0.451   1.428  1.00  0.00     0.072 A 
HETATM    7  C5  UNL     1      -1.104  -0.378   0.195  1.00  0.00     0.047 A 
HETATM    8  C6  UNL     1      -2.352  -0.118   0.519  1.00  0.00     0.008 A 
HETATM    9  C7  UNL     1      -2.485  -0.003   1.864  1.00  0.00     0.030 A 
HETATM   10  C8  UNL     1      -3.628   0.252   2.571  1.00  0.00     0.133 C 
HETATM   11  N1  UNL     1      -4.670   0.856   1.943  1.00  0.00    -0.253 NA
HETATM   12  C9  UNL     1      -4.535   2.190   1.681  1.00  0.00     0.233 C 
HETATM   13  N2  UNL     1      -3.455   2.279   0.892  1.00  0.00    -0.237 NA
HETATM   14  C10 UNL     1      -3.635   2.373  -0.435  1.00  0.00     0.215 C 
HETATM   15  N3  UNL     1      -4.091   1.116  -0.725  1.00  0.00    -0.316 N 
HETATM   16  C11 UNL     1      -3.330   0.006  -0.478  1.00  0.00     0.051 C 
HETATM   17  C12 UNL     1      -3.218  -1.219  -1.017  1.00  0.00     0.030 C 
HETATM   18  C13 UNL     1      -3.925  -1.864  -2.129  1.00  0.00    -0.001 C 
HETATM   19  C14 UNL     1      -5.213  -1.782  -2.475  1.00  0.00    -0.023 C 
HETATM   20  C15 UNL     1      -6.433  -1.101  -1.999  1.00  0.00     0.055 C 
HETATM   21  C16 UNL     1      -6.306   0.337  -1.784  1.00  0.00    -0.005 C 
HETATM   22  C17 UNL     1      -5.398   1.165  -1.294  1.00  0.00     0.094 C 
HETATM   23  N4  UNL     1       1.101  -0.699   1.593  1.00  0.00    -0.314 N 
ENDROOT
BRANCH  23  24
HETATM   24  C18 UNL     1       2.021  -0.945   0.513  1.00  0.00     0.134 C 
BRANCH  24  25
HETATM   25  C19 UNL     1       2.566   0.419   0.084  1.00  0.00     0.050 C 
BRANCH  25  26
HETATM   26  C20 UNL     1       3.545   0.300  -1.035  1.00  0.00     0.274 C 
BRANCH  26  27
HETATM   27  N5  UNL     1       4.696  -0.509  -0.702  1.00  0.00     0.092 N 
HETATM   28  C21 UNL     1       5.543   0.120   0.288  1.00  0.00     0.298 C 
HETATM   29  C22 UNL     1       6.280   1.324  -0.193  1.00  0.00     0.198 C 
HETATM   30  O3  UNL     1       6.439   1.291  -1.572  1.00  0.00    -0.388 OA
HETATM   31  C23 UNL     1       6.778  -0.048  -1.873  1.00  0.00     0.198 C 
HETATM   32  C24 UNL     1       5.440  -0.792  -1.892  1.00  0.00     0.298 C 
ENDBRANCH  26  27
ENDBRANCH  25  26
ENDBRANCH  24  25
ENDBRANCH  23  24
TORSDOF 4
