REMARK  7 active torsions:
REMARK  status: ('A' for Active; 'I' for Inactive)
REMARK    1  A    between atoms: O1_2  and  C2_3 
REMARK    2  A    between atoms: C6_7  and  N1_8 
REMARK    3  A    between atoms: N1_8  and  C7_9 
REMARK    4  A    between atoms: N4_18  and  C14_19 
REMARK    5  A    between atoms: C14_19  and  C15_20 
REMARK    6  A    between atoms: C15_20  and  C16_21 
REMARK    7  A    between atoms: C16_21  and  B1_22 
ROOT
HETATM    1  C7  UNL     1       1.934  -1.296   1.409  1.00  0.00     0.121 C 
HETATM    2  N2  UNL     1       3.043  -1.421   2.051  1.00  0.00    -0.227 NA
HETATM    3  C8  UNL     1       3.799  -2.570   2.316  1.00  0.00     0.235 C 
HETATM    4  N3  UNL     1       3.366  -3.716   1.812  1.00  0.00    -0.245 NA
HETATM    5  C9  UNL     1       2.171  -3.641   1.003  1.00  0.00     0.056 A 
HETATM    6  C10 UNL     1       1.758  -4.476   0.065  1.00  0.00     0.067 A 
HETATM    7  C11 UNL     1       0.491  -3.897  -0.439  1.00  0.00     0.095 A 
HETATM    8  C12 UNL     1       0.176  -2.744   0.201  1.00  0.00     0.065 A 
HETATM    9  C13 UNL     1       1.214  -2.529   1.151  1.00  0.00     0.160 A 
HETATM   10  N4  UNL     1      -1.061  -2.306  -0.348  1.00  0.00    -0.316 N 
HETATM   11  C21 UNL     1      -1.830  -2.932  -1.361  1.00  0.00     0.248 C 
HETATM   12  O3  UNL     1      -3.077  -2.734  -1.489  1.00  0.00    -0.271 OA
HETATM   13  C22 UNL     1      -1.096  -3.850  -2.288  1.00  0.00     0.279 C 
HETATM   14  O4  UNL     1      -0.188  -4.570  -1.456  1.00  0.00    -0.340 OA
ENDROOT
BRANCH   1  15
HETATM   15  N1  UNL     1       1.496   0.041   1.320  1.00  0.00    -0.343 N 
HETATM   16  H7  UNL     1       0.508   0.239   1.569  1.00  0.00     0.167 HD
BRANCH  15  17
HETATM   17  C6  UNL     1       2.312   1.112   0.916  1.00  0.00     0.036 A 
HETATM   18  C5  UNL     1       1.820   2.419   0.865  1.00  0.00     0.029 A 
HETATM   19  C4  UNL     1       2.562   3.514   0.477  1.00  0.00     0.005 A 
HETATM   20  C3  UNL     1       3.876   3.341   0.109  1.00  0.00     0.037 A 
HETATM   21  C2  UNL     1       4.418   2.075   0.138  1.00  0.00     0.070 A 
HETATM   22  C23 UNL     1       3.633   1.014   0.534  1.00  0.00     0.066 A 
BRANCH  21  23
HETATM   23  O1  UNL     1       5.744   1.936  -0.239  1.00  0.00    -0.356 OA
HETATM   24  C1  UNL     1       6.338   0.658  -0.223  1.00  0.00     0.210 C 
ENDBRANCH  21  23
ENDBRANCH  15  17
ENDBRANCH   1  15
BRANCH  10  25
HETATM   25  C14 UNL     1      -1.655  -1.122   0.187  1.00  0.00     0.131 C 
BRANCH  25  26
HETATM   26  C15 UNL     1      -1.313   0.085  -0.636  1.00  0.00     0.010 C 
BRANCH  26  27
HETATM   27  C16 UNL     1      -1.883   1.365  -0.108  1.00  0.00    -0.046 C 
BRANCH  27  28
HETATM   28  B1  UNL     1      -3.467   1.340  -0.034  1.00  0.00     0.180 B 
HETATM   29  C17 UNL     1      -4.213   1.201  -1.452  1.00  0.00    -0.022 C 
HETATM   30  C18 UNL     1      -5.642   1.639  -1.144  1.00  0.00     0.157 C 
HETATM   31  O2  UNL     1      -5.730   2.981  -0.857  1.00  0.00    -0.393 OA
HETATM   32  C19 UNL     1      -4.732   3.476  -0.055  1.00  0.00     0.157 C 
HETATM   33  C20 UNL     1      -4.141   2.446   0.889  1.00  0.00    -0.022 C 
ENDBRANCH  27  28
ENDBRANCH  26  27
ENDBRANCH  25  26
ENDBRANCH  10  25
TORSDOF 7
