REMARK  7 active torsions:
REMARK  status: ('A' for Active; 'I' for Inactive)
REMARK    1  A    between atoms: O1_2  and  C2_3 
REMARK    2  A    between atoms: C6_7  and  N1_8 
REMARK    3  A    between atoms: N1_8  and  C7_9 
REMARK    4  A    between atoms: N4_22  and  C16_23 
REMARK    5  A    between atoms: C16_23  and  C17_24 
REMARK    6  A    between atoms: C17_24  and  C18_25 
REMARK    7  A    between atoms: C18_25  and  N5_26 
ROOT
HETATM    1  C7  UNL     1       3.143  -1.624  -0.226  1.00  0.00     0.138 C 
HETATM    2  N2  UNL     1       3.735  -2.358  -1.119  1.00  0.00    -0.224 NA
HETATM    3  C8  UNL     1       3.178  -3.511  -1.712  1.00  0.00     0.230 C 
HETATM    4  N3  UNL     1       1.989  -4.047  -1.435  1.00  0.00    -0.266 NA
HETATM    5  C9  UNL     1       1.264  -3.372  -0.423  1.00  0.00     0.205 A 
HETATM    6  C10 UNL     1       1.693  -1.981  -0.196  1.00  0.00     0.021 A 
HETATM    7  C11 UNL     1       0.595  -1.241   0.017  1.00  0.00     0.046 A 
HETATM    8  C12 UNL     1      -0.595  -2.115  -0.085  1.00  0.00     0.069 A 
HETATM    9  C13 UNL     1      -0.178  -3.364  -0.353  1.00  0.00     0.103 A 
HETATM   10  O2  UNL     1      -1.013  -4.457  -0.532  1.00  0.00    -0.341 OA
HETATM   11  C14 UNL     1      -2.368  -4.223  -0.851  1.00  0.00     0.278 C 
HETATM   12  C15 UNL     1      -2.819  -3.019  -0.136  1.00  0.00     0.248 C 
HETATM   13  O3  UNL     1      -3.989  -2.996   0.341  1.00  0.00    -0.271 OA
HETATM   14  N4  UNL     1      -1.992  -1.878   0.041  1.00  0.00    -0.314 N 
ENDROOT
BRANCH   1  15
HETATM   15  N1  UNL     1       3.561  -0.486   0.464  1.00  0.00    -0.340 N 
HETATM   16  H7  UNL     1       3.007  -0.166   1.273  1.00  0.00     0.167 HD
BRANCH  15  17
HETATM   17  C6  UNL     1       4.723   0.162  -0.003  1.00  0.00     0.036 A 
HETATM   18  C5  UNL     1       5.539  -0.050  -1.076  1.00  0.00     0.029 A 
HETATM   19  C4  UNL     1       6.658   0.687  -1.381  1.00  0.00     0.005 A 
HETATM   20  C3  UNL     1       7.037   1.737  -0.575  1.00  0.00     0.037 A 
HETATM   21  C2  UNL     1       6.244   1.996   0.528  1.00  0.00     0.070 A 
HETATM   22  C23 UNL     1       5.134   1.220   0.780  1.00  0.00     0.066 A 
BRANCH  21  23
HETATM   23  O1  UNL     1       6.605   3.037   1.341  1.00  0.00    -0.356 OA
HETATM   24  C1  UNL     1       7.759   3.789   1.016  1.00  0.00     0.210 C 
ENDBRANCH  21  23
ENDBRANCH  15  17
ENDBRANCH   1  15
BRANCH  14  25
HETATM   25  C16 UNL     1      -2.502  -0.569   0.325  1.00  0.00     0.134 C 
BRANCH  25  26
HETATM   26  C17 UNL     1      -2.800   0.282  -0.862  1.00  0.00     0.050 C 
BRANCH  26  27
HETATM   27  C18 UNL     1      -3.335   1.646  -0.404  1.00  0.00     0.274 C 
BRANCH  27  28
HETATM   28  N5  UNL     1      -4.552   1.484   0.366  1.00  0.00     0.092 N 
HETATM   29  C19 UNL     1      -5.091   2.764   0.829  1.00  0.00     0.298 C 
HETATM   30  C20 UNL     1      -6.080   2.423   1.935  1.00  0.00     0.198 C 
HETATM   31  O4  UNL     1      -6.661   1.175   1.694  1.00  0.00    -0.388 OA
HETATM   32  C21 UNL     1      -6.884   0.950   0.353  1.00  0.00     0.198 C 
HETATM   33  C22 UNL     1      -5.607   0.879  -0.451  1.00  0.00     0.298 C 
ENDBRANCH  27  28
ENDBRANCH  26  27
ENDBRANCH  25  26
ENDBRANCH  14  25
TORSDOF 7
