REMARK  7 active torsions:
REMARK  status: ('A' for Active; 'I' for Inactive)
REMARK    1  A    between atoms: O1_2  and  C2_3 
REMARK    2  A    between atoms: C6_7  and  N1_8 
REMARK    3  A    between atoms: N1_8  and  C7_9 
REMARK    4  A    between atoms: N4_19  and  C15_20 
REMARK    5  A    between atoms: C15_20  and  N5_21 
REMARK    6  A    between atoms: N5_21  and  C17_23 
REMARK    7  A    between atoms: C17_23  and  C18_24 
ROOT
HETATM    1  C7  UNL     1       1.391   1.732   0.672  1.00  0.00     0.142 A 
HETATM    2  N2  UNL     1       2.096   2.678   1.296  1.00  0.00    -0.224 NA
HETATM    3  C8  UNL     1       1.558   3.721   1.939  1.00  0.00     0.236 A 
HETATM    4  N3  UNL     1       0.221   3.905   2.011  1.00  0.00    -0.241 NA
HETATM    5  C9  UNL     1      -0.510   2.942   1.376  1.00  0.00     0.075 A 
HETATM    6  C10 UNL     1      -1.883   3.187   1.479  1.00  0.00     0.071 A 
HETATM    7  C11 UNL     1      -2.754   2.304   0.883  1.00  0.00     0.098 A 
HETATM    8  C12 UNL     1      -2.216   1.205   0.203  1.00  0.00     0.073 A 
HETATM    9  C13 UNL     1      -0.856   0.992   0.119  1.00  0.00     0.050 A 
HETATM   10  C14 UNL     1       0.028   1.866   0.711  1.00  0.00     0.041 A 
HETATM   11  N4  UNL     1      -3.067   0.250  -0.455  1.00  0.00    -0.286 N 
HETATM   12  C19 UNL     1      -4.472   0.561  -0.326  1.00  0.00     0.250 C 
HETATM   13  O3  UNL     1      -5.388  -0.060  -0.957  1.00  0.00    -0.271 OA
HETATM   14  C20 UNL     1      -5.081   1.604   0.517  1.00  0.00     0.279 C 
HETATM   15  O4  UNL     1      -4.127   2.541   0.983  1.00  0.00    -0.340 OA
ENDROOT
BRANCH   1  16
HETATM   16  N1  UNL     1       1.981   0.644  -0.007  1.00  0.00    -0.340 N 
HETATM   17  H7  UNL     1       1.469  -0.149  -0.441  1.00  0.00     0.167 HD
BRANCH  16  18
HETATM   18  C6  UNL     1       3.375   0.459  -0.203  1.00  0.00     0.036 A 
HETATM   19  C5  UNL     1       4.292   1.513  -0.149  1.00  0.00     0.029 A 
HETATM   20  C4  UNL     1       5.644   1.365  -0.318  1.00  0.00     0.005 A 
HETATM   21  C3  UNL     1       6.162   0.112  -0.557  1.00  0.00     0.037 A 
HETATM   22  C2  UNL     1       5.316  -0.988  -0.625  1.00  0.00     0.070 A 
HETATM   23  C21 UNL     1       3.988  -0.746  -0.446  1.00  0.00     0.066 A 
BRANCH  22  24
HETATM   24  O1  UNL     1       5.866  -2.228  -0.866  1.00  0.00    -0.356 OA
HETATM   25  C1  UNL     1       5.115  -3.415  -0.955  1.00  0.00     0.210 C 
ENDBRANCH  22  24
ENDBRANCH  16  18
ENDBRANCH   1  16
BRANCH  11  26
HETATM   26  C15 UNL     1      -2.668  -0.899  -1.177  1.00  0.00     0.405 C 
BRANCH  26  27
HETATM   27  N5  UNL     1      -2.562  -2.051  -0.340  1.00  0.00     0.104 N 
HETATM   28  C16 UNL     1      -2.206  -3.280  -1.002  1.00  0.00     0.312 C 
BRANCH  27  29
HETATM   29  C17 UNL     1      -3.590  -2.290   0.602  1.00  0.00     0.310 C 
BRANCH  29  30
HETATM   30  C18 UNL     1      -3.508  -1.240   1.656  1.00  0.00     0.421 C 
HETATM   31  O2  UNL     1      -3.879  -0.665   2.671  1.00  0.00    -0.428 OA
ENDBRANCH  29  30
ENDBRANCH  27  29
ENDBRANCH  26  27
ENDBRANCH  11  26
TORSDOF 7
