REMARK  6 active torsions:
REMARK  status: ('A' for Active; 'I' for Inactive)
REMARK    1  A    between atoms: O1_2  and  C2_3 
REMARK    2  A    between atoms: C6_7  and  N1_8 
REMARK    3  A    between atoms: N1_8  and  C7_9 
REMARK    4  A    between atoms: N4_19  and  C15_20 
REMARK    5  A    between atoms: C15_20  and  C16_21 
REMARK    6  A    between atoms: C16_21  and  C17_22 
ROOT
HETATM    1  C7  UNL     1       2.670   0.870   0.862  1.00  0.00     0.141 A 
HETATM    2  N2  UNL     1       3.799   1.531   1.194  1.00  0.00    -0.224 NA
HETATM    3  C8  UNL     1       3.889   2.864   0.954  1.00  0.00     0.235 A 
HETATM    4  N3  UNL     1       3.028   3.724   0.421  1.00  0.00    -0.244 NA
HETATM    5  C9  UNL     1       1.867   3.022   0.080  1.00  0.00     0.063 A 
HETATM    6  C10 UNL     1       0.986   3.739  -0.527  1.00  0.00     0.059 A 
HETATM    7  C11 UNL     1       0.044   4.248  -1.122  1.00  0.00     0.055 A 
HETATM    8  C12 UNL     1      -0.005   2.733  -0.844  1.00  0.00     0.068 A 
HETATM    9  C13 UNL     1       0.529   1.490  -0.311  1.00  0.00     0.023 A 
HETATM   10  C14 UNL     1       1.816   1.705   0.330  1.00  0.00     0.034 A 
HETATM   11  N4  UNL     1      -1.190   2.196  -1.523  1.00  0.00    -0.398 N 
HETATM   12  C23 UNL     1      -0.812   3.329  -2.378  1.00  0.00     0.126 A 
HETATM   13  O3  UNL     1      -0.096   4.066  -1.214  1.00  0.00     0.000 OA
ENDROOT
BRANCH   1  14
HETATM   14  N1  UNL     1       2.114  -0.416   0.823  1.00  0.00    -0.340 N 
HETATM   15  H7  UNL     1       1.110  -0.659   0.881  1.00  0.00     0.167 HD
BRANCH  14  16
HETATM   16  C6  UNL     1       2.992  -1.520   0.711  1.00  0.00     0.036 A 
HETATM   17  C5  UNL     1       2.434  -2.810   0.619  1.00  0.00     0.029 A 
HETATM   18  C4  UNL     1       3.251  -3.876   0.491  1.00  0.00     0.005 A 
HETATM   19  C3  UNL     1       4.610  -3.847   0.439  1.00  0.00     0.037 A 
HETATM   20  C2  UNL     1       5.160  -2.598   0.530  1.00  0.00     0.070 A 
HETATM   21  C24 UNL     1       4.377  -1.422   0.664  1.00  0.00     0.066 A 
BRANCH  20  22
HETATM   22  O1  UNL     1       6.523  -2.415   0.491  1.00  0.00    -0.356 OA
HETATM   23  C1  UNL     1       7.265  -1.249   0.574  1.00  0.00     0.210 C 
ENDBRANCH  20  22
ENDBRANCH  14  16
ENDBRANCH   1  14
BRANCH  11  24
HETATM   24  C15 UNL     1      -2.151   1.162  -1.431  1.00  0.00     0.118 C 
BRANCH  24  25
HETATM   25  C16 UNL     1      -2.356   0.409  -0.178  1.00  0.00     0.024 C 
BRANCH  25  26
HETATM   26  C17 UNL     1      -3.535  -0.569  -0.497  1.00  0.00    -0.005 C 
HETATM   27  C18 UNL     1      -4.728   0.256  -0.868  1.00  0.00     0.031 C 
HETATM   28  C19 UNL     1      -5.951  -0.563  -0.494  1.00  0.00     0.168 C 
HETATM   29  O2  UNL     1      -6.062  -0.791   0.866  1.00  0.00    -0.391 OA
HETATM   30  C20 UNL     1      -4.875  -0.831   1.551  1.00  0.00     0.172 C 
HETATM   31  C21 UNL     1      -3.741  -1.401   0.725  1.00  0.00     0.009 C 
HETATM   32  C22 UNL     1      -3.983  -2.861   0.428  1.00  0.00     0.012 C 
ENDBRANCH  25  26
ENDBRANCH  24  25
ENDBRANCH  11  24
TORSDOF 6
