REMARK  8 active torsions:
REMARK  status: ('A' for Active; 'I' for Inactive)
REMARK    1  A    between atoms: O1_2  and  C2_3 
REMARK    2  A    between atoms: C6_7  and  N1_8 
REMARK    3  A    between atoms: N1_8  and  C7_9 
REMARK    4  A    between atoms: C10_14  and  C11_15 
REMARK    5  A    between atoms: N4_18  and  C14_19 
REMARK    6  A    between atoms: C14_19  and  C15_20 
REMARK    7  A    between atoms: C15_20  and  C16_21 
REMARK    8  A    between atoms: C16_21  and  N5_22 
ROOT
HETATM    1  C11 UNL     1       0.452   0.475  -2.198  1.00  0.00     0.093 C 
HETATM    2  C12 UNL     1       1.291   0.904  -1.235  1.00  0.00     0.044 C 
HETATM    3  C13 UNL     1       0.804   0.779   0.143  1.00  0.00     0.071 C 
HETATM    4  N4  UNL     1       2.591   1.439  -1.428  1.00  0.00    -0.317 N 
HETATM    5  C21 UNL     1       3.048   1.525  -2.771  1.00  0.00     0.248 C 
HETATM    6  O3  UNL     1       4.243   1.576  -3.062  1.00  0.00    -0.271 OA
HETATM    7  C22 UNL     1       1.992   1.548  -3.825  1.00  0.00     0.279 C 
HETATM    8  O4  UNL     1       0.970   0.618  -3.506  1.00  0.00    -0.340 OA
ENDROOT
BRANCH   1   9
HETATM    9  C10 UNL     1      -0.855  -0.087  -2.067  1.00  0.00     0.066 C 
HETATM   10  C9  UNL     1      -1.884  -0.486  -1.347  1.00  0.00     0.045 A 
HETATM   11  N3  UNL     1      -1.970  -0.425   0.047  1.00  0.00    -0.246 NA
HETATM   12  C23 UNL     1      -3.088  -1.057  -2.032  1.00  0.00     0.137 A 
HETATM   13  C8  UNL     1      -2.882  -0.747   0.854  1.00  0.00     0.235 A 
HETATM   14  N2  UNL     1      -4.042  -1.273   0.221  1.00  0.00    -0.228 NA
HETATM   15  C7  UNL     1      -4.097  -1.388  -1.049  1.00  0.00     0.111 A 
BRANCH  15  16
HETATM   16  N1  UNL     1      -5.296  -1.919  -1.558  1.00  0.00    -0.344 N 
HETATM   17  H7  UNL     1      -5.235  -2.558  -2.413  1.00  0.00     0.167 HD
BRANCH  16  18
HETATM   18  C6  UNL     1      -6.597  -1.688  -1.049  1.00  0.00     0.036 A 
HETATM   19  C5  UNL     1      -7.710  -2.314  -1.629  1.00  0.00     0.029 A 
HETATM   20  C4  UNL     1      -8.997  -2.123  -1.181  1.00  0.00     0.005 A 
HETATM   21  C3  UNL     1      -9.253  -1.294  -0.122  1.00  0.00     0.037 A 
HETATM   22  C2  UNL     1      -8.187  -0.648   0.491  1.00  0.00     0.070 A 
HETATM   23  C24 UNL     1      -6.927  -0.885  -0.010  1.00  0.00     0.066 A 
BRANCH  22  24
HETATM   24  O1  UNL     1      -8.437   0.194   1.565  1.00  0.00    -0.356 OA
HETATM   25  C1  UNL     1      -9.784   0.346   1.977  1.00  0.00     0.210 C 
ENDBRANCH  22  24
ENDBRANCH  16  18
ENDBRANCH  15  16
ENDBRANCH   1   9
BRANCH   4  26
HETATM   26  C14 UNL     1       3.503   1.899  -0.431  1.00  0.00     0.134 C 
BRANCH  26  27
HETATM   27  C15 UNL     1       4.392   0.769   0.095  1.00  0.00     0.050 C 
BRANCH  27  28
HETATM   28  C16 UNL     1       5.348   1.293   1.153  1.00  0.00     0.274 C 
BRANCH  28  29
HETATM   29  N5  UNL     1       6.212   0.246   1.678  1.00  0.00     0.092 N 
HETATM   30  C17 UNL     1       7.130  -0.175   0.626  1.00  0.00     0.298 C 
HETATM   31  C18 UNL     1       8.328  -0.918   1.193  1.00  0.00     0.198 C 
HETATM   32  O2  UNL     1       8.150  -1.178   2.539  1.00  0.00    -0.388 OA
HETATM   33  C19 UNL     1       8.097   0.014   3.240  1.00  0.00     0.198 C 
HETATM   34  C20 UNL     1       7.043   0.920   2.687  1.00  0.00     0.298 C 
ENDBRANCH  28  29
ENDBRANCH  27  28
ENDBRANCH  26  27
ENDBRANCH   4  26
TORSDOF 8
