REMARK  2 active torsions:
REMARK  status: ('A' for Active; 'I' for Inactive)
REMARK    1  A    between atoms: C6_6  and  N1_7 
REMARK    2  A    between atoms: N1_7  and  C7_8 
ROOT
HETATM    1  C7  UNL     1       2.742  -0.844   0.553  1.00  0.00     0.142 A 
HETATM    2  N2  UNL     1       3.614  -1.854   0.557  1.00  0.00    -0.224 NA
HETATM    3  C8  UNL     1       3.376  -3.124   0.853  1.00  0.00     0.236 A 
HETATM    4  N3  UNL     1       2.128  -3.455   1.190  1.00  0.00    -0.241 NA
HETATM    5  C9  UNL     1       1.146  -2.525   1.226  1.00  0.00     0.074 A 
HETATM    6  C10 UNL     1      -0.185  -2.835   1.576  1.00  0.00     0.070 A 
HETATM    7  C11 UNL     1      -1.262  -1.914   1.634  1.00  0.00     0.077 A 
HETATM    8  C12 UNL     1      -0.864  -0.617   1.297  1.00  0.00    -0.024 A 
HETATM    9  C13 UNL     1       0.433  -0.341   0.961  1.00  0.00     0.027 A 
HETATM   10  C14 UNL     1       1.477  -1.233   0.905  1.00  0.00     0.039 A 
HETATM   11  C15 UNL     1      -1.914   0.452   1.312  1.00  0.00     0.042 C 
HETATM   12  C16 UNL     1      -2.715   0.411   0.044  1.00  0.00     0.012 C 
HETATM   13  C17 UNL     1      -3.932   1.309   0.039  1.00  0.00     0.017 C 
HETATM   14  C18 UNL     1      -4.152   1.808  -1.367  1.00  0.00     0.033 C 
HETATM   15  C19 UNL     1      -5.201   2.887  -1.351  1.00  0.00     0.173 C 
HETATM   16  O1  UNL     1      -6.468   2.324  -1.354  1.00  0.00    -0.365 OA
HETATM   17  P1  UNL     1      -6.385   0.642  -0.981  1.00  0.00     0.035 P 
HETATM   18  C20 UNL     1      -5.171   0.470   0.418  1.00  0.00     0.141 C 
HETATM   19  N4  UNL     1      -4.800  -0.906   0.594  1.00  0.00    -0.348 N 
HETATM   20  C21 UNL     1      -4.319  -2.185   0.848  1.00  0.00     0.242 C 
HETATM   21  O2  UNL     1      -5.406  -2.413   0.200  1.00  0.00    -0.271 OA
HETATM   22  C22 UNL     1      -3.404  -3.206   1.370  1.00  0.00     0.278 C 
HETATM   23  O3  UNL     1      -2.312  -2.684   2.013  1.00  0.00    -0.341 OA
HETATM   24  H20 UNL     1      -7.708   0.192  -0.582  1.00  0.00     0.089 HD
HETATM   25  H22 UNL     1      -4.014  -0.741   1.248  1.00  0.00     0.163 HD
ENDROOT
BRANCH   1  26
HETATM   26  N1  UNL     1       3.053   0.487   0.229  1.00  0.00    -0.340 N 
HETATM   27  H7  UNL     1       2.334   1.214   0.250  1.00  0.00     0.167 HD
BRANCH  26  28
HETATM   28  C6  UNL     1       4.276   1.051  -0.152  1.00  0.00     0.034 A 
HETATM   29  C5  UNL     1       4.484   2.394  -0.435  1.00  0.00     0.029 A 
HETATM   30  C4  UNL     1       5.684   2.939  -0.808  1.00  0.00     0.003 A 
HETATM   31  C3  UNL     1       6.797   2.141  -0.925  1.00  0.00     0.007 A 
HETATM   32  C2  UNL     1       6.661   0.798  -0.658  1.00  0.00    -0.060 A 
HETATM   33  C1  UNL     1       7.893  -0.010  -0.802  1.00  0.00     0.048 C 
HETATM   34  C23 UNL     1       5.428   0.311  -0.288  1.00  0.00     0.036 A 
ENDBRANCH  26  28
ENDBRANCH   1  26
TORSDOF 2
