REMARK  7 active torsions:
REMARK  status: ('A' for Active; 'I' for Inactive)
REMARK    1  A    between atoms: O1_2  and  C2_3 
REMARK    2  A    between atoms: C5_6  and  N1_7 
REMARK    3  A    between atoms: N1_7  and  C6_8 
REMARK    4  A    between atoms: N4_16  and  C12_17 
REMARK    5  A    between atoms: C12_17  and  C13_18 
REMARK    6  A    between atoms: C13_18  and  C14_19 
REMARK    7  A    between atoms: C14_19  and  N5_20 
ROOT
HETATM    1  C6  UNL     1      -4.264  -0.954  -0.180  1.00  0.00     0.111 A 
HETATM    2  N2  UNL     1      -4.757  -1.569  -1.213  1.00  0.00    -0.228 NA
HETATM    3  C7  UNL     1      -3.909  -1.763  -2.338  1.00  0.00     0.235 A 
HETATM    4  N3  UNL     1      -2.682  -1.366  -2.392  1.00  0.00    -0.245 NA
HETATM    5  C8  UNL     1      -2.150  -0.695  -1.254  1.00  0.00     0.055 A 
HETATM    6  C9  UNL     1      -0.948  -0.321  -1.332  1.00  0.00     0.015 A 
HETATM    7  C10 UNL     1       0.164   0.172  -1.064  1.00  0.00     0.018 A 
HETATM    8  C11 UNL     1       1.133   0.593  -0.852  1.00  0.00     0.081 A 
HETATM    9  N4  UNL     1       2.253   1.070  -0.632  1.00  0.00    -0.340 N 
HETATM   10  C19 UNL     1       2.184   0.494  -2.121  1.00  0.00     0.214 A 
HETATM   11  O3  UNL     1       3.274   0.558  -2.949  1.00  0.00    -0.198 OA
HETATM   12  C20 UNL     1       1.133  -0.215  -3.068  1.00  0.00     0.077 A 
HETATM   13  O4  UNL     1      -0.067  -0.501  -2.445  1.00  0.00     0.000 OA
HETATM   14  C21 UNL     1      -2.874  -0.399   0.002  1.00  0.00     0.138 A 
ENDROOT
BRANCH   1  15
HETATM   15  N1  UNL     1      -5.165  -0.791   0.912  1.00  0.00    -0.344 N 
HETATM   16  H7  UNL     1      -4.823  -0.866   1.916  1.00  0.00     0.167 HD
BRANCH  15  17
HETATM   17  C5  UNL     1      -6.555  -0.524   0.707  1.00  0.00     0.032 A 
HETATM   18  C4  UNL     1      -7.228  -0.418  -0.583  1.00  0.00     0.028 A 
HETATM   19  C3  UNL     1      -8.512  -0.162  -0.415  1.00  0.00     0.011 A 
HETATM   20  C2  UNL     1      -8.813  -0.073   1.036  1.00  0.00     0.168 A 
HETATM   21  C22 UNL     1      -7.476  -0.324   1.634  1.00  0.00     0.038 A 
BRANCH  20  22
HETATM   22  O1  UNL     1      -9.791  -0.950   1.436  1.00  0.00    -0.383 OA
HETATM   23  C1  UNL     1     -10.806  -0.160   2.022  1.00  0.00     0.202 C 
ENDBRANCH  20  22
ENDBRANCH  15  17
ENDBRANCH   1  15
BRANCH   9  24
HETATM   24  C12 UNL     1       3.538   1.568  -0.514  1.00  0.00     0.128 C 
BRANCH  24  25
HETATM   25  C13 UNL     1       4.507   0.498   0.006  1.00  0.00     0.050 C 
BRANCH  25  26
HETATM   26  C14 UNL     1       5.878   1.133   0.103  1.00  0.00     0.274 C 
BRANCH  26  27
HETATM   27  N5  UNL     1       6.868   0.220   0.576  1.00  0.00     0.092 N 
HETATM   28  C15 UNL     1       6.721  -0.181   1.940  1.00  0.00     0.298 C 
HETATM   29  C16 UNL     1       7.872  -1.041   2.392  1.00  0.00     0.198 C 
HETATM   30  O2  UNL     1       9.113  -0.519   2.096  1.00  0.00    -0.388 OA
HETATM   31  C17 UNL     1       9.015   0.787   1.584  1.00  0.00     0.198 C 
HETATM   32  C18 UNL     1       8.167   0.762   0.325  1.00  0.00     0.298 C 
ENDBRANCH  26  27
ENDBRANCH  25  26
ENDBRANCH  24  25
ENDBRANCH   9  24
TORSDOF 7
