REMARK  6 active torsions:
REMARK  status: ('A' for Active; 'I' for Inactive)
REMARK    1  A    between atoms: C7_11  and  N3_12 
REMARK    2  A    between atoms: N3_12  and  C8_13 
REMARK    3  A    between atoms: N4_23  and  C18_24 
REMARK    4  A    between atoms: C18_24  and  C19_25 
REMARK    5  A    between atoms: C19_25  and  C20_26 
REMARK    6  A    between atoms: C20_26  and  N5_27 
ROOT
HETATM    1  O1  UNL     1      -3.269   1.815   2.539  1.00  0.00    -0.271 OA
HETATM    2  C1  UNL     1      -2.383   2.234   1.775  1.00  0.00     0.248 C 
HETATM    3  C2  UNL     1      -2.275   3.615   1.202  1.00  0.00     0.279 C 
HETATM    4  O2  UNL     1      -0.939   4.092   1.309  1.00  0.00    -0.340 OA
HETATM    5  C3  UNL     1       0.123   3.255   0.919  1.00  0.00     0.098 A 
HETATM    6  C4  UNL     1       1.307   3.808   0.516  1.00  0.00     0.071 A 
HETATM    7  C5  UNL     1       2.348   2.994   0.134  1.00  0.00     0.075 A 
HETATM    8  N1  UNL     1       3.538   3.494  -0.270  1.00  0.00    -0.241 NA
HETATM    9  C6  UNL     1       4.579   2.733  -0.650  1.00  0.00     0.236 A 
HETATM   10  N2  UNL     1       4.429   1.395  -0.627  1.00  0.00    -0.224 NA
HETATM   11  C7  UNL     1       3.252   0.868  -0.227  1.00  0.00     0.142 A 
HETATM   12  C15 UNL     1       2.179   1.607   0.163  1.00  0.00     0.041 A 
HETATM   13  C16 UNL     1       0.971   1.086   0.575  1.00  0.00     0.050 A 
HETATM   14  C17 UNL     1      -0.095   1.878   0.965  1.00  0.00     0.071 A 
HETATM   15  N4  UNL     1      -1.348   1.306   1.391  1.00  0.00    -0.314 N 
ENDROOT
BRANCH  11  16
HETATM   16  N3  UNL     1       3.157  -0.546  -0.223  1.00  0.00    -0.340 N 
HETATM   17  H5  UNL     1       2.400  -1.189   0.023  1.00  0.00     0.167 HD
BRANCH  16  18
HETATM   18  C8  UNL     1       4.192  -1.447  -0.596  1.00  0.00     0.030 C 
HETATM   19  C9  UNL     1       4.822  -1.904   0.486  1.00  0.00     0.006 C 
HETATM   20  C10 UNL     1       5.947  -2.850   0.577  1.00  0.00     0.056 C 
HETATM   21  C11 UNL     1       6.822  -2.898  -0.594  1.00  0.00    -0.023 C 
HETATM   22  C12 UNL     1       6.707  -2.659  -1.904  1.00  0.00    -0.004 C 
HETATM   23  C13 UNL     1       5.469  -2.228  -2.533  1.00  0.00     0.002 C 
HETATM   24  C14 UNL     1       4.391  -1.713  -2.005  1.00  0.00     0.029 C 
ENDBRANCH  16  18
ENDBRANCH  11  16
BRANCH  15  25
HETATM   25  C18 UNL     1      -1.506  -0.115   1.412  1.00  0.00     0.134 C 
BRANCH  25  26
HETATM   26  C19 UNL     1      -2.024  -0.705   0.120  1.00  0.00     0.040 C 
BRANCH  26  27
HETATM   27  C20 UNL     1      -3.372  -0.182  -0.279  1.00  0.00     0.118 C 
BRANCH  27  28
HETATM   28  N5  UNL     1      -4.408  -0.422   0.648  1.00  0.00    -0.408 N 
HETATM   29  C21 UNL     1      -4.803  -1.778   0.813  1.00  0.00     0.143 C 
HETATM   30  C22 UNL     1      -5.655  -2.184  -0.377  1.00  0.00     0.187 C 
HETATM   31  O3  UNL     1      -6.048  -1.069  -1.145  1.00  0.00    -0.388 OA
HETATM   32  C23 UNL     1      -6.583  -0.096  -0.286  1.00  0.00     0.187 C 
HETATM   33  C24 UNL     1      -5.522   0.466   0.633  1.00  0.00     0.143 C 
ENDBRANCH  27  28
ENDBRANCH  26  27
ENDBRANCH  25  26
ENDBRANCH  15  25
TORSDOF 6
