REMARK  6 active torsions:
REMARK  status: ('A' for Active; 'I' for Inactive)
REMARK    1  A    between atoms: C4_6  and  N3_7 
REMARK    2  A    between atoms: N3_7  and  C5_8 
REMARK    3  A    between atoms: C12_15  and  C13_16 
REMARK    4  A    between atoms: C13_16  and  C14_17 
REMARK    5  A    between atoms: C19_23  and  N4_24 
REMARK    6  A    between atoms: N4_24  and  C20_25 
ROOT
HETATM    1  C13 UNL     1       0.075   0.071  -1.256  1.00  0.00     0.051 C 
ENDROOT
BRANCH   1   2
HETATM    2  C12 UNL     1       1.045   0.881  -1.394  1.00  0.00     0.037 A 
HETATM    3  C2  UNL     1       1.061   2.058  -2.154  1.00  0.00     0.050 A 
HETATM    4  C1  UNL     1       0.017   2.387  -2.834  1.00  0.00     0.066 C 
HETATM    5  N1  UNL     1       2.132   2.854  -2.203  1.00  0.00    -0.245 NA
HETATM    6  C3  UNL     1       3.222   2.538  -1.518  1.00  0.00     0.235 A 
HETATM    7  N2  UNL     1       3.231   1.426  -0.789  1.00  0.00    -0.224 NA
HETATM    8  C4  UNL     1       2.193   0.588  -0.697  1.00  0.00     0.141 A 
BRANCH   8   9
HETATM    9  N3  UNL     1       2.518  -0.476   0.172  1.00  0.00    -0.340 N 
HETATM   10  H4  UNL     1       2.356  -1.321   0.704  1.00  0.00     0.167 HD
BRANCH   9  11
HETATM   11  C5  UNL     1       3.836  -0.532   0.741  1.00  0.00     0.034 A 
HETATM   12  C6  UNL     1       4.144   0.341   1.794  1.00  0.00     0.029 A 
HETATM   13  C7  UNL     1       5.396   0.419   2.419  1.00  0.00     0.003 A 
HETATM   14  C8  UNL     1       6.362  -0.436   1.939  1.00  0.00     0.007 A 
HETATM   15  C9  UNL     1       6.167  -1.329   0.914  1.00  0.00    -0.060 A 
HETATM   16  C10 UNL     1       7.191  -2.255   0.380  1.00  0.00     0.048 C 
HETATM   17  C11 UNL     1       4.910  -1.344   0.353  1.00  0.00     0.036 A 
ENDBRANCH   9  11
ENDBRANCH   8   9
ENDBRANCH   1   2
BRANCH   1  18
HETATM   18  C14 UNL     1      -0.642  -1.062  -0.809  1.00  0.00     0.089 C 
HETATM   19  C15 UNL     1      -0.174  -2.068  -0.034  1.00  0.00     0.168 C 
HETATM   20  O1  UNL     1      -1.063  -2.242   1.078  1.00  0.00    -0.346 OA
HETATM   21  C16 UNL     1      -2.425  -2.428   0.890  1.00  0.00     0.222 C 
HETATM   22  C17 UNL     1      -3.338  -1.326   1.350  1.00  0.00     0.044 C 
HETATM   23  C23 UNL     1      -2.633  -2.526  -0.599  1.00  0.00     0.277 C 
HETATM   24  C18 UNL     1      -2.759   0.027   1.339  1.00  0.00     0.041 C 
HETATM   25  C19 UNL     1      -3.021   0.941   0.220  1.00  0.00     0.246 C 
HETATM   26  C22 UNL     1      -3.458   0.449  -1.093  1.00  0.00     0.237 C 
HETATM   27  O2  UNL     1      -2.471  -0.216  -1.854  1.00  0.00    -0.268 OA
HETATM   28  N5  UNL     1      -2.047  -1.317  -1.127  1.00  0.00    -0.185 N 
HETATM   29  O3  UNL     1      -3.216  -3.532  -1.078  1.00  0.00    -0.268 OA
BRANCH  25  30
HETATM   30  N4  UNL     1      -3.877   2.076   0.605  1.00  0.00     0.089 N 
HETATM   31  H20 UNL     1      -3.346   2.660   1.284  1.00  0.00     0.316 HD
BRANCH  30  32
HETATM   32  C20 UNL     1      -5.143   1.725   1.128  1.00  0.00     0.265 C 
HETATM   33  C21 UNL     1      -6.126   1.122   0.184  1.00  0.00     0.037 C 
ENDBRANCH  30  32
ENDBRANCH  25  30
ENDBRANCH   1  18
TORSDOF 6
