REMARK  5 active torsions:
REMARK  status: ('A' for Active; 'I' for Inactive)
REMARK    1  A    between atoms: C6_6  and  C7_7 
REMARK    2  A    between atoms: N1_15  and  C14_16 
REMARK    3  A    between atoms: C14_16  and  C15_17 
REMARK    4  A    between atoms: C15_17  and  C16_18 
REMARK    5  A    between atoms: C16_18  and  N2_19 
ROOT
HETATM    1  C7  UNL     1      -1.763  -1.514  -0.387  1.00  0.00     0.088 C 
HETATM    2  C8  UNL     1      -0.548  -0.499  -0.263  1.00  0.00     0.060 C 
HETATM    3  C9  UNL     1      -0.066  -1.426  -1.024  1.00  0.00     0.058 A 
HETATM    4  C10 UNL     1       0.415  -2.439  -1.949  1.00  0.00     0.036 A 
HETATM    5  C11 UNL     1      -0.563  -1.813  -2.623  1.00  0.00     0.026 A 
HETATM    6  C12 UNL     1       0.058  -1.164  -3.827  1.00  0.00     0.117 C 
HETATM    7  C13 UNL     1       0.906  -0.002  -3.191  1.00  0.00     0.221 C 
HETATM    8  O1  UNL     1       1.805   0.595  -3.781  1.00  0.00    -0.273 OA
HETATM    9  N1  UNL     1       0.262   0.061  -1.790  1.00  0.00    -0.341 N 
HETATM   10  C21 UNL     1      -1.894  -1.950  -1.862  1.00  0.00     0.154 C 
HETATM   11  N3  UNL     1      -2.290  -3.332  -1.757  1.00  0.00    -0.276 NA
HETATM   12  C22 UNL     1      -2.057  -3.751  -0.534  1.00  0.00     0.197 C 
HETATM   13  N4  UNL     1      -1.490  -2.730   0.316  1.00  0.00    -0.369 N 
HETATM   14  H27 UNL     1      -1.058  -3.146   1.165  1.00  0.00     0.161 HD
ENDROOT
BRANCH   9  15
HETATM   15  C14 UNL     1       0.272   1.567  -1.524  1.00  0.00     0.128 C 
BRANCH  15  16
HETATM   16  C15 UNL     1       1.591   1.947  -0.925  1.00  0.00     0.039 C 
BRANCH  16  17
HETATM   17  C16 UNL     1       1.954   1.284   0.360  1.00  0.00     0.118 C 
BRANCH  17  18
HETATM   18  N2  UNL     1       3.251   1.795   0.807  1.00  0.00    -0.408 N 
HETATM   19  C17 UNL     1       4.321   1.395  -0.025  1.00  0.00     0.143 C 
HETATM   20  C18 UNL     1       5.548   0.872   0.653  1.00  0.00     0.187 C 
HETATM   21  O2  UNL     1       5.173   0.069   1.732  1.00  0.00    -0.388 OA
HETATM   22  C19 UNL     1       4.596   0.897   2.691  1.00  0.00     0.187 C 
HETATM   23  C20 UNL     1       3.465   1.728   2.201  1.00  0.00     0.143 C 
ENDBRANCH  17  18
ENDBRANCH  16  17
ENDBRANCH  15  16
ENDBRANCH   9  15
BRANCH   1  24
HETATM   24  C6  UNL     1      -3.014  -0.953   0.045  1.00  0.00    -0.027 A 
HETATM   25  C5  UNL     1      -4.271  -1.004  -0.519  1.00  0.00     0.010 A 
HETATM   26  C4  UNL     1      -5.427  -0.436  -0.035  1.00  0.00     0.001 A 
HETATM   27  C3  UNL     1      -5.330   0.277   1.164  1.00  0.00     0.007 A 
HETATM   28  C2  UNL     1      -4.094   0.357   1.768  1.00  0.00    -0.061 A 
HETATM   29  C1  UNL     1      -4.153   1.149   3.039  1.00  0.00     0.048 C 
HETATM   30  C23 UNL     1      -2.964  -0.236   1.232  1.00  0.00     0.016 A 
ENDBRANCH   1  24
TORSDOF 5
