REMARK  1 active torsions:
REMARK  status: ('A' for Active; 'I' for Inactive)
REMARK    1  A    between atoms: N3_9  and  C7_10 
ROOT
HETATM    1  C1  UNL     1       4.434  -0.599  -1.864  1.00  0.00    -0.000 C 
HETATM    2  C2  UNL     1       5.192  -0.292  -0.771  1.00  0.00    -0.000 C 
HETATM    3  C3  UNL     1       4.382   0.072   0.357  1.00  0.00    -0.001 C 
HETATM    4  C4  UNL     1       3.773   0.431   1.493  1.00  0.00     0.015 C 
HETATM    5  C5  UNL     1       2.329   0.451   1.452  1.00  0.00     0.140 A 
HETATM    6  N1  UNL     1       2.317   0.755   2.660  1.00  0.00    -0.257 NA
HETATM    7  C6  UNL     1       1.483   1.046   3.742  1.00  0.00     0.251 A 
HETATM    8  N2  UNL     1       0.240   1.005   3.475  1.00  0.00    -0.161 NA
HETATM    9  N3  UNL     1      -0.191   0.684   2.160  1.00  0.00    -0.239 N 
HETATM   10  C17 UNL     1       0.917   0.466   1.391  1.00  0.00     0.076 A 
HETATM   11  C18 UNL     1       1.090   0.175   0.194  1.00  0.00     0.168 A 
HETATM   12  N4  UNL     1       0.866  -0.159  -1.186  1.00  0.00    -0.406 N 
HETATM   13  C19 UNL     1       0.671  -0.608  -2.508  1.00  0.00     0.142 C 
HETATM   14  C20 UNL     1       1.961  -0.923  -3.196  1.00  0.00    -0.008 C 
HETATM   15  C21 UNL     1       3.124  -0.744  -2.491  1.00  0.00    -0.002 C 
HETATM   16  H16 UNL     1       0.799   0.891  -1.492  1.00  0.00     0.154 HD
ENDROOT
BRANCH   9  17
HETATM   17  C7  UNL     1      -1.483   0.589   1.635  1.00  0.00     0.044 A 
HETATM   18  C8  UNL     1      -2.233   0.776   0.582  1.00  0.00    -0.025 A 
HETATM   19  C9  UNL     1      -2.087   1.247  -0.773  1.00  0.00     0.010 C 
HETATM   20  C15 UNL     1      -3.381   0.307   1.363  1.00  0.00     0.049 A 
HETATM   21  C10 UNL     1      -2.558   1.044  -1.983  1.00  0.00     0.001 C 
HETATM   22  C11 UNL     1      -3.590   0.066  -2.429  1.00  0.00     0.000 C 
HETATM   23  C12 UNL     1      -4.317  -0.894  -1.802  1.00  0.00    -0.000 C 
HETATM   24  C13 UNL     1      -4.344  -1.328  -0.418  1.00  0.00    -0.003 C 
HETATM   25  C14 UNL     1      -4.013  -0.939   0.825  1.00  0.00    -0.017 C 
HETATM   26  C16 UNL     1      -2.563   0.071   2.575  1.00  0.00     0.073 A 
ENDBRANCH   9  17
TORSDOF 1
