REMARK  10 active torsions:
REMARK  status: ('A' for Active; 'I' for Inactive)
REMARK    1  A    between atoms: C6_6  and  N1_7 
REMARK    2  A    between atoms: N1_7  and  C7_8 
REMARK    3  A    between atoms: N2_9  and  C8_10 
REMARK    4  A    between atoms: C8_10  and  N3_11 
REMARK    5  A    between atoms: N3_11  and  C9_12 
REMARK    6  A    between atoms: C13_16  and  C14_17 
REMARK    7  A    between atoms: N4_22  and  C17_23 
REMARK    8  A    between atoms: C17_23  and  C18_24 
REMARK    9  A    between atoms: C18_24  and  C19_25 
REMARK   10  A    between atoms: C19_25  and  N5_26 
ROOT
HETATM    1  C9  UNL     1       1.221   0.491   0.758  1.00  0.00     0.040 A 
HETATM    2  C10 UNL     1       0.240  -0.074   0.640  1.00  0.00     0.074 A 
HETATM    3  C11 UNL     1      -0.640  -0.601   0.546  1.00  0.00    -0.013 A 
HETATM    4  C12 UNL     1      -1.567  -1.178   0.460  1.00  0.00     0.126 A 
HETATM    5  C13 UNL     1      -0.292  -1.634   1.331  1.00  0.00     0.112 A 
HETATM    6  C14 UNL     1       1.036  -0.828   1.469  1.00  0.00     0.097 A 
HETATM    7  O1  UNL     1      -0.046  -2.846   2.174  1.00  0.00    -0.365 OA
HETATM    8  C15 UNL     1      -0.981  -3.866   2.091  1.00  0.00     0.272 C 
HETATM    9  C16 UNL     1      -2.294  -3.507   1.513  1.00  0.00     0.244 C 
HETATM   10  O2  UNL     1      -3.319  -4.212   1.648  1.00  0.00    -0.271 OA
HETATM   11  N4  UNL     1      -2.321  -2.261   0.756  1.00  0.00    -0.331 N 
ENDROOT
BRANCH   1  12
HETATM   12  N3  UNL     1       1.920   1.548   0.425  1.00  0.00    -0.249 NA
BRANCH  12  13
HETATM   13  C8  UNL     1       2.990   1.487  -0.332  1.00  0.00     0.234 C 
BRANCH  13  14
HETATM   14  N2  UNL     1       3.160   0.146  -0.645  1.00  0.00    -0.237 NA
HETATM   15  C7  UNL     1       3.900  -0.645   0.018  1.00  0.00     0.208 C 
BRANCH  15  16
HETATM   16  N1  UNL     1       4.665  -0.335   1.164  1.00  0.00    -0.351 N 
HETATM   17  H7  UNL     1       4.563  -1.019   1.969  1.00  0.00     0.166 HD
BRANCH  16  18
HETATM   18  C6  UNL     1       5.495   0.801   1.203  1.00  0.00     0.033 A 
HETATM   19  C5  UNL     1       6.780   0.561   0.691  1.00  0.00     0.029 A 
HETATM   20  C4  UNL     1       7.781   1.495   0.634  1.00  0.00     0.003 A 
HETATM   21  C3  UNL     1       7.542   2.769   1.105  1.00  0.00     0.007 A 
HETATM   22  C2  UNL     1       6.295   3.046   1.618  1.00  0.00    -0.060 A 
HETATM   23  C1  UNL     1       5.924   4.381   2.154  1.00  0.00     0.048 C 
HETATM   24  C24 UNL     1       5.318   2.083   1.658  1.00  0.00     0.036 A 
ENDBRANCH  16  18
ENDBRANCH  15  16
ENDBRANCH  13  14
ENDBRANCH  12  13
ENDBRANCH   1  12
BRANCH  11  25
HETATM   25  C17 UNL     1      -3.463  -1.873   0.031  1.00  0.00     0.129 C 
BRANCH  25  26
HETATM   26  C18 UNL     1      -3.560  -2.274  -1.406  1.00  0.00     0.050 C 
BRANCH  26  27
HETATM   27  C19 UNL     1      -4.880  -1.738  -1.915  1.00  0.00     0.274 C 
BRANCH  27  28
HETATM   28  N5  UNL     1      -5.028  -0.310  -1.821  1.00  0.00     0.092 N 
HETATM   29  C20 UNL     1      -6.335   0.052  -2.233  1.00  0.00     0.298 C 
HETATM   30  C21 UNL     1      -6.383   1.051  -3.354  1.00  0.00     0.198 C 
HETATM   31  O3  UNL     1      -5.571   2.127  -2.954  1.00  0.00    -0.388 OA
HETATM   32  C22 UNL     1      -4.260   1.677  -3.105  1.00  0.00     0.198 C 
HETATM   33  C23 UNL     1      -3.951   0.470  -2.293  1.00  0.00     0.298 C 
ENDBRANCH  27  28
ENDBRANCH  26  27
ENDBRANCH  25  26
ENDBRANCH  11  25
TORSDOF 10
