REMARK  8 active torsions:
REMARK  status: ('A' for Active; 'I' for Inactive)
REMARK    1  A    between atoms: C6_6  and  N1_7 
REMARK    2  A    between atoms: N1_7  and  C7_8 
REMARK    3  A    between atoms: C11_14  and  O1_15 
REMARK    4  A    between atoms: O1_15  and  C12_16 
REMARK    5  A    between atoms: C12_16  and  C13_17 
REMARK    6  A    between atoms: C13_17  and  C14_18 
REMARK    7  A    between atoms: C14_18  and  C15_19 
REMARK    8  A    between atoms: C15_19  and  N4_20 
ROOT
HETATM    1  C7  UNL     1       4.117  -0.309   0.178  1.00  0.00     0.142 A 
HETATM    2  N2  UNL     1       4.465  -1.458   0.724  1.00  0.00    -0.224 NA
HETATM    3  C8  UNL     1       3.584  -2.409   1.024  1.00  0.00     0.236 A 
HETATM    4  N3  UNL     1       2.274  -2.237   0.780  1.00  0.00    -0.241 NA
HETATM    5  C9  UNL     1       1.848  -1.069   0.216  1.00  0.00     0.074 A 
HETATM    6  C10 UNL     1       0.497  -0.946  -0.012  1.00  0.00     0.069 A 
HETATM    7  C11 UNL     1       0.005   0.209  -0.579  1.00  0.00     0.071 A 
HETATM    8  C20 UNL     1       0.894   1.210  -0.900  1.00  0.00     0.038 A 
HETATM    9  C21 UNL     1       2.233   1.014  -0.642  1.00  0.00     0.020 A 
HETATM   10  C22 UNL     1       2.785  -0.105  -0.083  1.00  0.00     0.039 A 
ENDROOT
BRANCH   7  11
HETATM   11  O1  UNL     1      -1.345   0.393  -0.834  1.00  0.00    -0.351 OA
BRANCH  11  12
HETATM   12  C12 UNL     1      -2.295  -0.609  -0.521  1.00  0.00     0.175 C 
BRANCH  12  13
HETATM   13  C13 UNL     1      -3.649  -0.088  -0.927  1.00  0.00     0.028 C 
BRANCH  13  14
HETATM   14  C14 UNL     1      -4.764  -1.096  -0.633  1.00  0.00     0.032 C 
BRANCH  14  15
HETATM   15  C15 UNL     1      -6.058  -0.462  -1.080  1.00  0.00     0.272 C 
BRANCH  15  16
HETATM   16  N4  UNL     1      -6.268   0.754  -0.348  1.00  0.00     0.092 N 
HETATM   17  C16 UNL     1      -7.495   1.413  -0.795  1.00  0.00     0.298 C 
HETATM   18  C17 UNL     1      -8.661   0.856  -0.025  1.00  0.00     0.198 C 
HETATM   19  O2  UNL     1      -8.435  -0.374   0.542  1.00  0.00    -0.388 OA
HETATM   20  C18 UNL     1      -7.371  -0.410   1.434  1.00  0.00     0.198 C 
HETATM   21  C19 UNL     1      -6.296   0.568   1.092  1.00  0.00     0.298 C 
ENDBRANCH  15  16
ENDBRANCH  14  15
ENDBRANCH  13  14
ENDBRANCH  12  13
ENDBRANCH  11  12
ENDBRANCH   7  11
BRANCH   1  22
HETATM   22  N1  UNL     1       5.022   0.729  -0.159  1.00  0.00    -0.340 N 
HETATM   23  H7  UNL     1       4.714   1.612  -0.592  1.00  0.00     0.167 HD
BRANCH  22  24
HETATM   24  C6  UNL     1       6.428   0.784   0.009  1.00  0.00     0.034 A 
HETATM   25  C5  UNL     1       7.247   1.823  -0.411  1.00  0.00     0.029 A 
HETATM   26  C4  UNL     1       8.607   1.860  -0.238  1.00  0.00     0.003 A 
HETATM   27  C3  UNL     1       9.253   0.836   0.380  1.00  0.00     0.007 A 
HETATM   28  C2  UNL     1       8.476  -0.218   0.813  1.00  0.00    -0.060 A 
HETATM   29  C1  UNL     1       9.241  -1.321   1.490  1.00  0.00     0.048 C 
HETATM   30  C23 UNL     1       7.114  -0.220   0.622  1.00  0.00     0.036 A 
ENDBRANCH  22  24
ENDBRANCH   1  22
TORSDOF 8
