REMARK  4 active torsions:
REMARK  status: ('A' for Active; 'I' for Inactive)
REMARK    1  A    between atoms: C2_2  and  C3_3 
REMARK    2  A    between atoms: C3_3  and  N1_4 
REMARK    3  A    between atoms: C10_15  and  N4_16 
REMARK    4  A    between atoms: N4_16  and  C11_17 
ROOT
HETATM    1  N1  UNL     1      -3.400   0.403  -0.200  1.00  0.00    -0.314 N 
HETATM    2  C4  UNL     1      -4.657   1.042   0.024  1.00  0.00     0.248 C 
HETATM    3  O1  UNL     1      -5.495   0.429   0.717  1.00  0.00    -0.271 OA
HETATM    4  C5  UNL     1      -4.889   2.392  -0.580  1.00  0.00     0.279 C 
HETATM    5  O2  UNL     1      -3.686   3.163  -0.544  1.00  0.00    -0.340 OA
HETATM    6  C6  UNL     1      -2.449   2.536  -0.767  1.00  0.00     0.098 A 
HETATM    7  C7  UNL     1      -1.392   3.361  -1.161  1.00  0.00     0.071 A 
HETATM    8  C8  UNL     1      -0.169   2.765  -1.381  1.00  0.00     0.075 A 
HETATM    9  N2  UNL     1       0.904   3.487  -1.743  1.00  0.00    -0.241 NA
HETATM   10  C9  UNL     1       2.112   2.887  -1.940  1.00  0.00     0.236 A 
HETATM   11  N3  UNL     1       2.319   1.550  -1.791  1.00  0.00    -0.224 NA
HETATM   12  C10 UNL     1       1.263   0.766  -1.426  1.00  0.00     0.142 A 
HETATM   13  C18 UNL     1       0.069   1.424  -1.239  1.00  0.00     0.041 A 
HETATM   14  C19 UNL     1      -1.026   0.649  -0.844  1.00  0.00     0.050 A 
HETATM   15  C20 UNL     1      -2.281   1.183  -0.606  1.00  0.00     0.071 A 
ENDROOT
BRANCH  12  16
HETATM   16  N4  UNL     1       1.433  -0.645  -1.246  1.00  0.00    -0.340 N 
HETATM   17  H12 UNL     1       0.591  -1.117  -1.570  1.00  0.00     0.167 HD
BRANCH  16  18
HETATM   18  C11 UNL     1       2.613  -1.215  -0.700  1.00  0.00     0.034 A 
HETATM   19  C12 UNL     1       2.935  -2.544  -0.863  1.00  0.00     0.029 A 
HETATM   20  C13 UNL     1       4.083  -3.079  -0.271  1.00  0.00     0.003 A 
HETATM   21  C14 UNL     1       4.825  -2.177   0.460  1.00  0.00     0.007 A 
HETATM   22  C15 UNL     1       4.557  -0.844   0.661  1.00  0.00    -0.060 A 
HETATM   23  C16 UNL     1       5.469  -0.010   1.493  1.00  0.00     0.048 C 
HETATM   24  C17 UNL     1       3.415  -0.365   0.056  1.00  0.00     0.036 A 
ENDBRANCH  16  18
ENDBRANCH  12  16
BRANCH   1  25
HETATM   25  C3  UNL     1      -3.243  -1.013  -0.014  1.00  0.00     0.132 C 
BRANCH  25  26
HETATM   26  C2  UNL     1      -2.816  -1.389   1.395  1.00  0.00     0.016 C 
HETATM   27  C1  UNL     1      -2.704  -2.906   1.432  1.00  0.00     0.006 C 
ENDBRANCH  25  26
ENDBRANCH   1  25
TORSDOF 4
