REMARK  4 active torsions:
REMARK  status: ('A' for Active; 'I' for Inactive)
REMARK    1  A    between atoms: N4_23  and  C18_24 
REMARK    2  A    between atoms: C18_24  and  C19_25 
REMARK    3  A    between atoms: C19_25  and  C20_26 
REMARK    4  A    between atoms: C20_26  and  N5_27 
ROOT
HETATM    1  C1  UNL     1      -3.278  -3.567   1.845  1.00  0.00     0.044 C 
HETATM    2  C2  UNL     1      -3.928  -2.559   0.964  1.00  0.00    -0.067 C 
HETATM    3  C3  UNL     1      -5.219  -2.550   0.640  1.00  0.00    -0.023 C 
HETATM    4  C4  UNL     1      -5.855  -1.569   1.306  1.00  0.00     0.012 C 
HETATM    5  C5  UNL     1      -5.696  -0.458   0.393  1.00  0.00    -0.002 C 
HETATM    6  C6  UNL     1      -5.989   0.452  -0.573  1.00  0.00    -0.007 C 
HETATM    7  C7  UNL     1      -5.354   1.629  -1.322  1.00  0.00     0.148 C 
HETATM    8  N1  UNL     1      -3.976   1.744  -0.946  1.00  0.00    -0.371 N 
HETATM    9  C8  UNL     1      -3.032   2.056   0.050  1.00  0.00     0.133 C 
HETATM   10  N2  UNL     1      -3.483   3.256   0.144  1.00  0.00    -0.225 NA
HETATM   11  C9  UNL     1      -2.851   4.130   1.111  1.00  0.00     0.229 C 
HETATM   12  N3  UNL     1      -1.921   3.612   1.778  1.00  0.00    -0.278 NA
HETATM   13  C10 UNL     1      -1.342   2.320   1.800  1.00  0.00     0.192 C 
HETATM   14  C11 UNL     1      -1.913   1.461   0.730  1.00  0.00     0.009 C 
HETATM   15  C12 UNL     1      -1.234   0.347   0.576  1.00  0.00     0.045 C 
HETATM   16  C13 UNL     1      -0.967  -0.924  -0.115  1.00  0.00     0.067 C 
HETATM   17  C14 UNL     1      -1.967  -1.833  -0.231  1.00  0.00     0.077 C 
HETATM   18  C15 UNL     1      -3.281  -1.396   0.387  1.00  0.00     0.101 C 
HETATM   19  O1  UNL     1      -1.747  -3.043  -0.873  1.00  0.00    -0.344 OA
HETATM   20  C16 UNL     1      -0.739  -3.186  -1.866  1.00  0.00     0.278 C 
HETATM   21  C17 UNL     1       0.484  -2.446  -1.460  1.00  0.00     0.248 C 
HETATM   22  O2  UNL     1       1.670  -2.774  -1.691  1.00  0.00    -0.271 OA
HETATM   23  N4  UNL     1       0.265  -1.225  -0.725  1.00  0.00    -0.314 N 
HETATM   24  H9  UNL     1      -3.267   1.495  -1.704  1.00  0.00     0.161 HD
ENDROOT
BRANCH  23  25
HETATM   25  C18 UNL     1       1.363  -0.290  -0.626  1.00  0.00     0.134 C 
BRANCH  25  26
HETATM   26  C19 UNL     1       2.282  -0.568   0.529  1.00  0.00     0.040 C 
BRANCH  26  27
HETATM   27  C20 UNL     1       3.431   0.412   0.639  1.00  0.00     0.119 C 
BRANCH  27  28
HETATM   28  N5  UNL     1       4.265   0.435  -0.512  1.00  0.00    -0.404 N 
HETATM   29  C21 UNL     1       5.024  -0.755  -0.730  1.00  0.00     0.143 C 
HETATM   30  C22 UNL     1       6.041  -0.636  -1.829  1.00  0.00     0.187 C 
HETATM   31  O3  UNL     1       5.908   0.550  -2.548  1.00  0.00    -0.388 OA
HETATM   32  C23 UNL     1       6.132   1.587  -1.645  1.00  0.00     0.192 C 
HETATM   33  C24 UNL     1       4.980   1.656  -0.709  1.00  0.00     0.098 C 
HETATM   34  C25 UNL     1       5.503   2.056   0.679  1.00  0.00     0.034 C 
ENDBRANCH  27  28
ENDBRANCH  26  27
ENDBRANCH  25  26
ENDBRANCH  23  25
TORSDOF 4
