REMARK  5 active torsions:
REMARK  status: ('A' for Active; 'I' for Inactive)
REMARK    1  A    between atoms: C4_5  and  O2_6 
REMARK    2  A    between atoms: C7_10  and  N2_11 
REMARK    3  A    between atoms: N3_21  and  C16_22 
REMARK    4  A    between atoms: C16_22  and  C17_23 
REMARK    5  A    between atoms: C17_23  and  N4_24 
ROOT
HETATM    1  C1  UNL     1       1.085  -1.677  -1.442  1.00  0.00     0.034 C 
HETATM    2  C2  UNL     1      -0.001  -1.368  -0.448  1.00  0.00     0.099 C 
HETATM    3  C3  UNL     1      -0.146  -2.634   0.416  1.00  0.00     0.195 C 
HETATM    4  O1  UNL     1      -1.135  -2.763   1.104  1.00  0.00    -0.354 OA
HETATM    5  C4  UNL     1      -2.176  -2.908   1.832  1.00  0.00     0.305 C 
HETATM    6  C5  UNL     1      -3.304  -2.131   1.165  1.00  0.00     0.065 C 
HETATM    7  N1  UNL     1      -4.291  -2.144   0.345  1.00  0.00    -0.287 NA
HETATM    8  C6  UNL     1      -4.269  -1.281  -0.839  1.00  0.00     0.206 C 
HETATM    9  C7  UNL     1      -3.189  -0.279  -0.635  1.00  0.00     0.035 C 
HETATM   10  C13 UNL     1      -2.444  -0.107   0.453  1.00  0.00    -0.033 C 
HETATM   11  C14 UNL     1      -3.206  -0.691   1.614  1.00  0.00     0.097 C 
HETATM   12  C15 UNL     1      -1.138   0.480   0.695  1.00  0.00     0.154 C 
HETATM   13  N3  UNL     1      -0.007  -0.134   0.043  1.00  0.00    -0.401 N 
ENDROOT
BRANCH  13  14
HETATM   14  C16 UNL     1       1.141   0.500   0.564  1.00  0.00     0.137 C 
BRANCH  14  15
HETATM   15  C17 UNL     1       2.506   0.053   0.274  1.00  0.00     0.136 C 
BRANCH  15  16
HETATM   16  N4  UNL     1       3.419   0.957   0.968  1.00  0.00    -0.407 N 
HETATM   17  C18 UNL     1       3.432   0.918   2.356  1.00  0.00     0.143 C 
HETATM   18  C19 UNL     1       4.807   1.291   2.885  1.00  0.00     0.187 C 
HETATM   19  O3  UNL     1       5.798   0.776   2.035  1.00  0.00    -0.388 OA
HETATM   20  C20 UNL     1       5.780   1.407   0.805  1.00  0.00     0.187 C 
HETATM   21  C21 UNL     1       4.405   1.579   0.211  1.00  0.00     0.143 C 
ENDBRANCH  15  16
ENDBRANCH  14  15
ENDBRANCH  13  14
BRANCH   9  22
HETATM   22  N2  UNL     1      -2.874   0.638  -1.717  1.00  0.00    -0.354 N 
HETATM   23  C8  UNL     1      -2.837   2.055  -1.451  1.00  0.00     0.110 A 
HETATM   24  C9  UNL     1      -2.549   3.028  -2.295  1.00  0.00     0.026 A 
HETATM   25 BR1  UNL     1      -2.528   4.856  -1.834  1.00  0.00    -0.050 Br
HETATM   26  C10 UNL     1      -2.251   2.635  -3.663  1.00  0.00     0.018 A 
HETATM   27  C11 UNL     1      -2.303   1.343  -3.915  1.00  0.00    -0.005 A 
HETATM   28  C12 UNL     1      -2.611   0.180  -3.068  1.00  0.00     0.155 A 
ENDBRANCH   9  22
BRANCH   5  29
HETATM   29  O2  UNL     1      -2.061  -2.328   3.151  1.00  0.00    -0.366 OA
HETATM   30  H8  UNL     1      -2.848  -2.568   3.666  1.00  0.00     0.213 HD
ENDBRANCH   5  29
TORSDOF 5
