REMARK  2 active torsions:
REMARK  status: ('A' for Active; 'I' for Inactive)
REMARK    1  A    between atoms: N2_12  and  C10_13 
REMARK    2  A    between atoms: C10_13  and  N3_14 
ROOT
HETATM    1  C1  UNL     1       1.485   2.236  -0.493  1.00  0.00     0.099 C 
HETATM    2  C2  UNL     1       1.285   1.092   0.136  1.00  0.00     0.040 C 
HETATM    3  C3  UNL     1       1.879   0.521   1.328  1.00  0.00     0.147 C 
HETATM    4  C4  UNL     1       3.342   0.911   1.448  1.00  0.00     0.062 C 
HETATM    5  C5  UNL     1       4.107   0.436   0.266  1.00  0.00    -0.005 C 
HETATM    6  C6  UNL     1       3.547  -0.257  -0.706  1.00  0.00     0.112 C 
HETATM    7  N1  UNL     1       2.822  -0.981  -1.657  1.00  0.00    -0.275 NA
HETATM    8  C7  UNL     1       1.598  -1.314  -1.562  1.00  0.00     0.116 C 
HETATM    9  C8  UNL     1       0.519  -1.137  -0.577  1.00  0.00     0.145 C 
HETATM   10  C9  UNL     1       0.871  -1.541   0.821  1.00  0.00     0.198 C 
HETATM   11  O1  UNL     1       1.841  -0.835   1.439  1.00  0.00    -0.381 OA
HETATM   12  N2  UNL     1       0.266   0.292  -0.517  1.00  0.00    -0.379 N 
ENDROOT
BRANCH  12  13
HETATM   13  C10 UNL     1      -0.925   0.892  -1.070  1.00  0.00     0.248 C 
BRANCH  13  14
HETATM   14  N3  UNL     1      -2.141   0.385  -0.470  1.00  0.00    -0.332 N 
HETATM   15  C11 UNL     1      -2.794   0.962   0.714  1.00  0.00     0.153 C 
HETATM   16  C12 UNL     1      -4.185   0.363   0.796  1.00  0.00     0.188 C 
HETATM   17  O2  UNL     1      -4.026  -1.010   0.975  1.00  0.00    -0.380 OA
HETATM   18  C13 UNL     1      -3.588  -1.647  -0.168  1.00  0.00     0.270 C 
HETATM   19  C14 UNL     1      -2.780  -0.756  -1.040  1.00  0.00     0.244 C 
HETATM   20  O3  UNL     1      -2.660  -1.002  -2.268  1.00  0.00    -0.271 OA
ENDBRANCH  13  14
ENDBRANCH  12  13
TORSDOF 2
