REMARK  11 active torsions:
REMARK  status: ('A' for Active; 'I' for Inactive)
REMARK    1  A    between atoms: C2_2  and  C3_3 
REMARK    2  A    between atoms: C2_2  and  N4_20 
REMARK    3  A    between atoms: C3_3  and  O1_4 
REMARK    4  A    between atoms: O1_4  and  C4_5 
REMARK    5  A    between atoms: C8_9  and  N1_10 
REMARK    6  A    between atoms: N1_10  and  C9_11 
REMARK    7  A    between atoms: C10_12  and  C11_13 
REMARK    8  A    between atoms: C11_13  and  C12_14 
REMARK    9  A    between atoms: N4_20  and  C15_21 
REMARK   10  A    between atoms: C15_21  and  C16_22 
REMARK   11  A    between atoms: C16_22  and  N5_23 
ROOT
HETATM    1  C4  UNL     1       1.186  -0.813   0.873  1.00  0.00     0.197 A 
HETATM    2  C5  UNL     1       1.549  -0.167   2.157  1.00  0.00     0.012 A 
HETATM    3  C6  UNL     1       2.846   0.179   2.174  1.00  0.00     0.016 A 
HETATM    4  C7  UNL     1       3.504  -0.186   0.926  1.00  0.00     0.037 A 
HETATM    5  C8  UNL     1       4.744  -0.114   0.342  1.00  0.00     0.141 A 
HETATM    6  N2  UNL     1       4.963  -0.588  -0.892  1.00  0.00    -0.224 NA
HETATM    7  C13 UNL     1       3.965  -1.163  -1.623  1.00  0.00     0.235 A 
HETATM    8  N3  UNL     1       2.741  -1.247  -1.077  1.00  0.00    -0.242 NA
HETATM    9  C14 UNL     1       2.517  -0.772   0.161  1.00  0.00     0.082 A 
ENDROOT
BRANCH   1  10
HETATM   10  O1  UNL     1       0.245  -0.055   0.178  1.00  0.00    -0.370 OA
BRANCH  10  11
HETATM   11  C3  UNL     1      -0.811  -0.906  -0.191  1.00  0.00     0.224 C 
BRANCH  11  12
HETATM   12  C2  UNL     1      -1.805  -0.088  -0.927  1.00  0.00     0.019 C 
HETATM   13  C1  UNL     1      -2.049  -0.462  -2.170  1.00  0.00     0.040 C 
BRANCH  12  14
HETATM   14  N4  UNL     1      -2.506   1.032  -0.414  1.00  0.00    -0.391 N 
HETATM   15  H16 UNL     1      -1.916   1.905  -0.408  1.00  0.00     0.159 HD
BRANCH  14  16
HETATM   16  C15 UNL     1      -3.899   0.955   0.049  1.00  0.00     0.139 C 
BRANCH  16  17
HETATM   17  C16 UNL     1      -4.770   0.718  -1.135  1.00  0.00     0.145 C 
BRANCH  17  18
HETATM   18  N5  UNL     1      -6.184   0.604  -0.838  1.00  0.00    -0.347 N 
HETATM   19  C17 UNL     1      -7.285   1.540  -0.753  1.00  0.00     0.152 C 
HETATM   20  C18 UNL     1      -8.199   1.112   0.343  1.00  0.00     0.188 C 
HETATM   21  O2  UNL     1      -8.802  -0.110   0.194  1.00  0.00    -0.380 OA
HETATM   22  C19 UNL     1      -8.114  -0.984  -0.633  1.00  0.00     0.270 C 
HETATM   23  C20 UNL     1      -6.631  -0.741  -0.560  1.00  0.00     0.243 C 
HETATM   24  O3  UNL     1      -5.851  -1.699  -0.267  1.00  0.00    -0.271 OA
ENDBRANCH  17  18
ENDBRANCH  16  17
ENDBRANCH  14  16
ENDBRANCH  12  14
ENDBRANCH  11  12
ENDBRANCH  10  11
ENDBRANCH   1  10
BRANCH   5  25
HETATM   25  N1  UNL     1       5.782   0.492   1.118  1.00  0.00    -0.350 N 
HETATM   26  H8  UNL     1       6.149   1.481   1.241  1.00  0.00     0.166 HD
BRANCH  25  27
HETATM   27  C9  UNL     1       6.416  -0.551   1.869  1.00  0.00     0.085 C 
HETATM   28  C10 UNL     1       7.603  -0.790   1.287  1.00  0.00    -0.009 C 
BRANCH  28  29
HETATM   29  C11 UNL     1       8.133  -0.098   0.101  1.00  0.00     0.043 C 
BRANCH  29  30
HETATM   30  C12 UNL     1       9.440   0.610   0.388  1.00  0.00     0.118 C 
HETATM   31 CL1  UNL     1       9.271   1.837   1.661  1.00  0.00    -0.130 Cl
ENDBRANCH  29  30
ENDBRANCH  28  29
ENDBRANCH  25  27
ENDBRANCH   5  25
TORSDOF 11
