REMARK  6 active torsions:
REMARK  status: ('A' for Active; 'I' for Inactive)
REMARK    1  A    between atoms: N1_4  and  C3_5 
REMARK    2  A    between atoms: C3_5  and  C4_6 
REMARK    3  A    between atoms: C4_6  and  C5_7 
REMARK    4  A    between atoms: C5_7  and  N2_8 
REMARK    5  A    between atoms: C13_17  and  N3_18 
REMARK    6  A    between atoms: N3_18  and  C14_19 
ROOT
HETATM    1  O1  UNL     1       0.422  -5.861   1.128  1.00  0.00    -0.290 OA
HETATM    2  C1  UNL     1       0.436  -4.663   0.794  1.00  0.00     0.179 A 
HETATM    3  C2  UNL     1       1.619  -3.904   0.319  1.00  0.00     0.207 A 
HETATM    4  N1  UNL     1       1.044  -2.583   0.020  1.00  0.00    -0.373 N 
HETATM    5  C10 UNL     1      -0.320  -2.592   0.353  1.00  0.00     0.045 A 
HETATM    6  C11 UNL     1      -1.203  -1.556   0.253  1.00  0.00     0.048 A 
HETATM    7  C12 UNL     1      -2.531  -1.653   0.603  1.00  0.00     0.041 A 
HETATM    8  C13 UNL     1      -3.476  -0.629   0.524  1.00  0.00     0.142 A 
HETATM    9  N4  UNL     1      -4.700  -0.950   0.917  1.00  0.00    -0.224 NA
HETATM   10  C20 UNL     1      -5.080  -2.145   1.369  1.00  0.00     0.236 A 
HETATM   11  N5  UNL     1      -4.175  -3.145   1.452  1.00  0.00    -0.241 NA
HETATM   12  C21 UNL     1      -2.921  -2.896   1.073  1.00  0.00     0.073 A 
HETATM   13  C22 UNL     1      -2.070  -3.971   1.191  1.00  0.00     0.050 A 
HETATM   14  C23 UNL     1      -0.750  -3.815   0.826  1.00  0.00     0.040 A 
ENDROOT
BRANCH   4  15
HETATM   15  C3  UNL     1       2.017  -1.703  -0.512  1.00  0.00     0.125 C 
BRANCH  15  16
HETATM   16  C4  UNL     1       1.611  -0.316  -0.849  1.00  0.00     0.050 C 
BRANCH  16  17
HETATM   17  C5  UNL     1       2.802   0.474  -1.431  1.00  0.00     0.274 C 
BRANCH  17  18
HETATM   18  N2  UNL     1       3.903   0.573  -0.521  1.00  0.00     0.092 N 
HETATM   19  C6  UNL     1       4.954   1.303  -1.204  1.00  0.00     0.298 C 
HETATM   20  C7  UNL     1       6.150   1.532  -0.305  1.00  0.00     0.198 C 
HETATM   21  O2  UNL     1       5.752   1.821   1.002  1.00  0.00    -0.388 OA
HETATM   22  C8  UNL     1       4.452   2.326   1.015  1.00  0.00     0.198 C 
HETATM   23  C9  UNL     1       3.449   1.261   0.671  1.00  0.00     0.298 C 
ENDBRANCH  17  18
ENDBRANCH  16  17
ENDBRANCH  15  16
ENDBRANCH   4  15
BRANCH   8  24
HETATM   24  N3  UNL     1      -3.048   0.630   0.046  1.00  0.00    -0.340 N 
HETATM   25  H18 UNL     1      -2.076   0.818  -0.223  1.00  0.00     0.167 HD
BRANCH  24  26
HETATM   26  C14 UNL     1      -3.833   1.794  -0.139  1.00  0.00     0.035 A 
HETATM   27  C15 UNL     1      -5.202   1.819  -0.020  1.00  0.00     0.029 A 
HETATM   28  C16 UNL     1      -6.022   2.908  -0.178  1.00  0.00     0.004 A 
HETATM   29  C17 UNL     1      -5.415   4.123  -0.493  1.00  0.00     0.024 A 
HETATM   30  C18 UNL     1      -4.045   4.184  -0.631  1.00  0.00     0.036 A 
HETATM   31 CL1  UNL     1      -3.220   5.675  -1.024  1.00  0.00    -0.084 Cl
HETATM   32  C19 UNL     1      -3.319   3.031  -0.451  1.00  0.00     0.053 A 
ENDBRANCH  24  26
ENDBRANCH   8  24
TORSDOF 6
