REMARK  3 active torsions:
REMARK  status: ('A' for Active; 'I' for Inactive)
REMARK    1  A    between atoms: O1_2  and  C2_3 
REMARK    2  A    between atoms: C12_16  and  N4_17 
REMARK    3  A    between atoms: C16_21  and  C17_22 
ROOT
HETATM    1  C2  UNL     1       4.937   0.950  -1.032  1.00  0.00     0.069 A 
HETATM    2  C3  UNL     1       5.580  -0.246  -0.888  1.00  0.00     0.039 A 
HETATM    3  C4  UNL     1       4.784  -1.355  -0.652  1.00  0.00     0.040 A 
HETATM    4  C5  UNL     1       3.395  -1.275  -0.563  1.00  0.00     0.086 A 
HETATM    5  C6  UNL     1       2.761  -0.072  -0.708  1.00  0.00    -0.004 A 
HETATM    6  C7  UNL     1       3.564   1.021  -0.942  1.00  0.00     0.048 A 
HETATM    7  C8  UNL     1       1.312   0.321  -0.664  1.00  0.00     0.161 C 
HETATM    8  N1  UNL     1       0.653  -0.385   0.416  1.00  0.00    -0.379 N 
HETATM    9  C9  UNL     1       0.624  -1.815   0.613  1.00  0.00     0.129 A 
HETATM   10  C10 UNL     1       1.600  -2.769   0.295  1.00  0.00     0.202 A 
HETATM   11  N2  UNL     1       1.415  -4.077   0.570  1.00  0.00    -0.215 NA
HETATM   12  C11 UNL     1       0.224  -4.369   1.169  1.00  0.00     0.238 A 
HETATM   13  N3  UNL     1      -0.778  -3.508   1.512  1.00  0.00    -0.222 NA
HETATM   14  C12 UNL     1      -0.575  -2.197   1.227  1.00  0.00     0.162 A 
HETATM   15  O2  UNL     1       2.842  -2.523  -0.322  1.00  0.00    -0.289 OA
HETATM   16  H9  UNL     1       0.104   0.042   1.220  1.00  0.00     0.160 HD
ENDROOT
BRANCH  14  17
HETATM   17  N4  UNL     1      -1.613  -1.285   1.549  1.00  0.00    -0.336 N 
HETATM   18  C13 UNL     1      -1.774  -1.102   2.958  1.00  0.00     0.093 A 
HETATM   19  C14 UNL     1      -2.705  -0.237   3.369  1.00  0.00     0.018 A 
HETATM   20  C15 UNL     1      -3.493   0.460   2.381  1.00  0.00     0.011 A 
HETATM   21  C16 UNL     1      -3.378   0.316   1.073  1.00  0.00    -0.030 A 
HETATM   22  C23 UNL     1      -2.383  -0.638   0.535  1.00  0.00     0.169 A 
BRANCH  21  23
HETATM   23  C17 UNL     1      -4.192   1.039   0.102  1.00  0.00    -0.028 A 
HETATM   24  C18 UNL     1      -4.053   0.873  -1.260  1.00  0.00     0.012 A 
HETATM   25  C19 UNL     1      -4.802   1.536  -2.209  1.00  0.00     0.001 A 
HETATM   26  C20 UNL     1      -5.764   2.433  -1.789  1.00  0.00     0.000 A 
HETATM   27  C21 UNL     1      -5.960   2.651  -0.442  1.00  0.00     0.001 A 
HETATM   28  C22 UNL     1      -5.170   1.949   0.442  1.00  0.00     0.012 A 
ENDBRANCH  21  23
ENDBRANCH  14  17
BRANCH   1  29
HETATM   29  O1  UNL     1       5.642   2.113  -1.270  1.00  0.00    -0.356 OA
HETATM   30  C1  UNL     1       7.040   2.180  -1.384  1.00  0.00     0.210 C 
ENDBRANCH   1  29
TORSDOF 3
