REMARK  5 active torsions:
REMARK  status: ('A' for Active; 'I' for Inactive)
REMARK    1  A    between atoms: C2_2  and  C3_3 
REMARK    2  A    between atoms: C4_5  and  C5_6 
REMARK    3  A    between atoms: C5_6  and  N1_7 
REMARK    4  A    between atoms: N1_7  and  C6_8 
REMARK    5  A    between atoms: C8_10  and  C9_11 
ROOT
HETATM    1  C6  UNL     1       0.959  -1.484   1.125  1.00  0.00     0.127 A 
HETATM    2  C7  UNL     1      -0.102  -0.991   0.426  1.00  0.00     0.084 A 
HETATM    3  C8  UNL     1      -1.400  -0.944   0.884  1.00  0.00     0.095 A 
HETATM    4  N2  UNL     1      -1.619  -1.436   2.138  1.00  0.00    -0.239 NA
HETATM    5  C15 UNL     1      -0.590  -1.934   2.861  1.00  0.00     0.236 A 
HETATM    6  N3  UNL     1       0.650  -1.948   2.350  1.00  0.00    -0.225 NA
ENDROOT
BRANCH   1   7
HETATM    7  N1  UNL     1       2.281  -1.523   0.656  1.00  0.00    -0.371 N 
HETATM    8  H7  UNL     1       2.980  -2.004   1.304  1.00  0.00     0.161 HD
BRANCH   7   9
HETATM    9  C5  UNL     1       2.827  -1.008  -0.569  1.00  0.00     0.150 C 
BRANCH   9  10
HETATM   10  C4  UNL     1       2.776   0.477  -0.639  1.00  0.00     0.016 C 
HETATM   11  C3  UNL     1       3.820   1.318  -0.765  1.00  0.00     0.031 C 
HETATM   12 CL1  UNL     1       3.522   3.037  -0.825  1.00  0.00    -0.085 Cl
BRANCH  11  13
HETATM   13  C2  UNL     1       5.216   0.864  -0.857  1.00  0.00     0.013 C 
HETATM   14  C1  UNL     1       6.198   1.745  -0.982  1.00  0.00     0.013 C 
ENDBRANCH  11  13
ENDBRANCH   9  10
ENDBRANCH   7   9
ENDBRANCH   1   7
BRANCH   3  15
HETATM   15  C9  UNL     1      -2.552  -0.422   0.165  1.00  0.00     0.098 C 
HETATM   16  C10 UNL     1      -3.721  -0.467   0.764  1.00  0.00     0.039 C 
HETATM   17  C11 UNL     1      -5.061  -0.065   0.401  1.00  0.00     0.007 C 
HETATM   18  C12 UNL     1      -5.404   0.632  -0.681  1.00  0.00     0.052 C 
HETATM   19  C13 UNL     1      -4.482   1.130  -1.724  1.00  0.00     0.173 C 
HETATM   20  O1  UNL     1      -5.089   1.565  -2.764  1.00  0.00    -0.291 OA
HETATM   21  C14 UNL     1      -2.985   1.205  -1.761  1.00  0.00     0.258 C 
HETATM   22  O2  UNL     1      -2.393   0.099  -1.107  1.00  0.00    -0.341 OA
ENDBRANCH   3  15
TORSDOF 5
