REMARK  3 active torsions:
REMARK  status: ('A' for Active; 'I' for Inactive)
REMARK    1  A    between atoms: C5_6  and  N1_7 
REMARK    2  A    between atoms: N1_7  and  C6_8 
REMARK    3  A    between atoms: C13_17  and  N4_18 
ROOT
HETATM    1  C6  UNL     1       1.140  -0.920  -0.507  1.00  0.00     0.135 C 
HETATM    2  C7  UNL     1       0.089  -1.296   0.255  1.00  0.00     0.090 C 
HETATM    3  C8  UNL     1      -0.359  -2.350   1.265  1.00  0.00     0.087 C 
HETATM    4  C9  UNL     1      -0.252  -3.632   0.677  1.00  0.00     0.066 C 
HETATM    5  C10 UNL     1      -0.217  -3.362  -0.832  1.00  0.00     0.057 C 
HETATM    6  N2  UNL     1       1.030  -3.419  -1.377  1.00  0.00    -0.178 NA
HETATM    7  N3  UNL     1       1.830  -2.133  -1.109  1.00  0.00    -0.262 N 
HETATM    8  C11 UNL     1      -1.473  -2.835  -1.558  1.00  0.00     0.066 C 
HETATM    9  C12 UNL     1      -1.865  -1.461  -1.146  1.00  0.00     0.087 C 
HETATM   10  C13 UNL     1      -1.187  -0.621  -0.070  1.00  0.00     0.387 C 
HETATM   11  N5  UNL     1      -1.857  -0.306   1.126  1.00  0.00     0.152 N 
HETATM   12  C18 UNL     1      -2.026  -0.996   2.337  1.00  0.00     0.448 C 
HETATM   13  O2  UNL     1      -0.786  -1.816   2.549  1.00  0.00    -0.321 OA
HETATM   14  H6  UNL     1       2.800  -1.903  -1.274  1.00  0.00     0.191 HD
HETATM   15  H19 UNL     1      -1.218   0.468   1.534  1.00  0.00     0.322 HD
ENDROOT
BRANCH   1  16
HETATM   16  N1  UNL     1       1.499   0.369  -0.774  1.00  0.00    -0.341 N 
HETATM   17  H4  UNL     1       1.032   0.966  -1.519  1.00  0.00     0.167 HD
BRANCH  16  18
HETATM   18  C5  UNL     1       2.595   0.824   0.009  1.00  0.00     0.035 A 
HETATM   19  C4  UNL     1       2.914   1.180   1.289  1.00  0.00     0.029 A 
HETATM   20  C3  UNL     1       4.186   1.615   1.578  1.00  0.00     0.004 A 
HETATM   21  C2  UNL     1       5.171   1.711   0.622  1.00  0.00     0.024 A 
HETATM   22  C1  UNL     1       4.861   1.351  -0.688  1.00  0.00     0.036 A 
HETATM   23 CL1  UNL     1       6.196   1.523  -1.812  1.00  0.00    -0.084 Cl
HETATM   24  C19 UNL     1       3.567   0.907  -0.985  1.00  0.00     0.053 A 
ENDBRANCH  16  18
ENDBRANCH   1  16
BRANCH  10  25
HETATM   25  N4  UNL     1      -1.119   0.714  -0.639  1.00  0.00     0.137 N 
HETATM   26  C14 UNL     1      -2.344   1.148  -1.280  1.00  0.00     0.302 C 
HETATM   27  C15 UNL     1      -3.532   1.309  -0.407  1.00  0.00     0.198 C 
HETATM   28  O1  UNL     1      -3.271   2.103   0.690  1.00  0.00    -0.388 OA
HETATM   29  C16 UNL     1      -2.012   2.610   0.742  1.00  0.00     0.198 C 
HETATM   30  C17 UNL     1      -0.866   1.829   0.217  1.00  0.00     0.302 C 
ENDBRANCH  10  25
TORSDOF 3
