REMARK  10 active torsions:
REMARK  status: ('A' for Active; 'I' for Inactive)
REMARK    1  A    between atoms: C3_4  and  C4_5 
REMARK    2  A    between atoms: C4_5  and  N1_6 
REMARK    3  A    between atoms: N1_6  and  C5_7 
REMARK    4  A    between atoms: C10_14  and  N4_15 
REMARK    5  A    between atoms: N4_15  and  C11_16 
REMARK       I    between atoms: N4_15  and  C18_25 
REMARK    6  A    between atoms: C11_16  and  C12_17 
REMARK    7  A    between atoms: C12_17  and  C13_18 
REMARK    8  A    between atoms: C13_18  and  N5_19 
REMARK    9  A    between atoms: C18_25  and  C19_27 
REMARK   10  A    between atoms: C19_27  and  O3_28 
ROOT
HETATM    1  C5  UNL     1       1.355   0.280  -0.684  1.00  0.00     0.301 A 
HETATM    2  N2  UNL     1       1.301   1.644  -1.091  1.00  0.00    -0.234 NA
HETATM    3  C6  UNL     1       2.361   2.410  -1.426  1.00  0.00     0.229 C 
HETATM    4  N3  UNL     1       3.712   1.899  -1.405  1.00  0.00    -0.255 NA
HETATM    5  C7  UNL     1       4.152   0.700  -1.739  1.00  0.00     0.118 C 
HETATM    6  C8  UNL     1       3.252  -0.381  -2.221  1.00  0.00     0.029 C 
HETATM    7  C9  UNL     1       2.009  -0.534  -1.731  1.00  0.00     0.012 A 
HETATM    8  C10 UNL     1       0.626  -0.865  -1.348  1.00  0.00     0.187 A 
ENDROOT
BRANCH   8   9
HETATM    9  N4  UNL     1      -0.494  -0.636  -2.247  1.00  0.00    -0.337 N 
HETATM   10  C18 UNL     1      -0.851   0.260  -3.335  1.00  0.00     0.244 C 
HETATM   11  O2  UNL     1      -2.053   0.190  -3.808  1.00  0.00    -0.271 OA
BRANCH   9  12
HETATM   12  C11 UNL     1      -1.582  -1.586  -2.040  1.00  0.00     0.128 C 
BRANCH  12  13
HETATM   13  C12 UNL     1      -2.637  -1.152  -1.097  1.00  0.00     0.050 C 
BRANCH  13  14
HETATM   14  C13 UNL     1      -2.105  -0.901   0.270  1.00  0.00     0.274 C 
BRANCH  14  15
HETATM   15  N5  UNL     1      -3.131  -0.492   1.224  1.00  0.00     0.092 N 
HETATM   16  C14 UNL     1      -2.508  -0.294   2.495  1.00  0.00     0.298 C 
HETATM   17  C15 UNL     1      -3.055   0.927   3.148  1.00  0.00     0.198 C 
HETATM   18  O1  UNL     1      -4.443   0.885   3.103  1.00  0.00    -0.388 OA
HETATM   19  C16 UNL     1      -4.924   1.071   1.808  1.00  0.00     0.198 C 
HETATM   20  C17 UNL     1      -3.941   0.588   0.769  1.00  0.00     0.298 C 
ENDBRANCH  14  15
ENDBRANCH  13  14
ENDBRANCH  12  13
ENDBRANCH   9  12
BRANCH  10  21
HETATM   21  C19 UNL     1      -0.409   1.340  -4.261  1.00  0.00     0.267 C 
BRANCH  21  22
HETATM   22  O3  UNL     1       0.977   1.489  -4.108  1.00  0.00    -0.392 OA
HETATM   23  H28 UNL     1       1.183   2.440  -4.290  1.00  0.00     0.210 HD
ENDBRANCH  21  22
ENDBRANCH  10  21
ENDBRANCH   8   9
BRANCH   1  24
HETATM   24  N1  UNL     1       1.548  -0.013   0.734  1.00  0.00     0.124 NA
HETATM   25  H7  UNL     1       0.953   0.678   1.242  1.00  0.00     0.320 HD
BRANCH  24  26
HETATM   26  C4  UNL     1       2.865   0.033   1.233  1.00  0.00     0.302 C 
BRANCH  26  27
HETATM   27  C3  UNL     1       2.921  -0.357   2.699  1.00  0.00     0.022 C 
HETATM   28  C2  UNL     1       3.599  -1.377   3.261  1.00  0.00     0.006 C 
HETATM   29  C1  UNL     1       4.345  -2.148   2.246  1.00  0.00     0.061 C 
HETATM   30 CL1  UNL     1       3.368  -1.445   4.995  1.00  0.00    -0.090 Cl
ENDBRANCH  26  27
ENDBRANCH  24  26
ENDBRANCH   1  24
TORSDOF 10
