REMARK  0 active torsions:
REMARK  status: ('A' for Active; 'I' for Inactive)
ROOT
HETATM    1  O1  UNL     1       0.591   0.113   2.176  1.00  0.00    -0.293 OA
HETATM    2  C1  UNL     1       0.778  -1.064   1.853  1.00  0.00     0.186 C 
HETATM    3  C2  UNL     1      -0.291  -1.326   2.889  1.00  0.00     0.255 C 
HETATM    4  O2  UNL     1      -0.784  -0.046   3.338  1.00  0.00    -0.356 OA
HETATM    5  C3  UNL     1      -1.696   0.598   2.517  1.00  0.00     0.137 C 
HETATM    6  C4  UNL     1      -1.988   0.155   1.282  1.00  0.00     0.053 C 
HETATM    7  C5  UNL     1      -2.786   0.406   0.085  1.00  0.00     0.033 C 
HETATM    8  C6  UNL     1      -3.056  -0.047  -1.118  1.00  0.00     0.027 C 
HETATM    9  C7  UNL     1      -2.641  -1.173  -1.969  1.00  0.00     0.002 C 
HETATM   10  C8  UNL     1      -1.737  -1.953  -1.322  1.00  0.00     0.125 C 
HETATM   11  N1  UNL     1      -0.999  -3.169  -1.647  1.00  0.00    -0.412 N 
HETATM   12  C9  UNL     1       0.319  -3.256  -1.027  1.00  0.00     0.116 C 
HETATM   13  C10 UNL     1       1.360  -2.386  -1.580  1.00  0.00     0.049 C 
HETATM   14  C11 UNL     1       1.302  -0.930  -1.543  1.00  0.00     0.276 C 
HETATM   15  N2  UNL     1       1.324  -0.221  -0.328  1.00  0.00     0.111 NA
HETATM   16  C12 UNL     1       1.860  -0.991   0.781  1.00  0.00     0.318 C 
HETATM   17  C13 UNL     1       3.028  -0.295   1.442  1.00  0.00     0.211 C 
HETATM   18  O3  UNL     1       3.956   0.190   0.574  1.00  0.00    -0.386 OA
HETATM   19  C14 UNL     1       3.463   0.855  -0.541  1.00  0.00     0.205 C 
HETATM   20  C15 UNL     1       1.996   1.028  -0.347  1.00  0.00     0.269 C 
HETATM   21  C16 UNL     1       1.392   2.113  -1.188  1.00  0.00     0.140 C 
HETATM   22 CL1  UNL     1       1.121   1.719  -2.871  1.00  0.00    -0.118 Cl
HETATM   23  C17 UNL     1       0.237   2.721  -0.495  1.00  0.00    -0.005 C 
HETATM   24  C18 UNL     1      -0.696   3.398   0.130  1.00  0.00    -0.001 C 
HETATM   25  C19 UNL     1      -1.976   3.654   0.753  1.00  0.00     0.017 C 
HETATM   26  C20 UNL     1      -2.998   2.895   0.913  1.00  0.00     0.088 C 
HETATM   27  N3  UNL     1      -3.401   1.572   0.618  1.00  0.00    -0.366 N 
HETATM   28  H8  UNL     1      -0.963  -4.093  -2.186  1.00  0.00     0.153 HD
HETATM   29  H26 UNL     1      -4.364   1.232   0.813  1.00  0.00     0.165 HD
ENDROOT
TORSDOF 0
