REMARK  8 active torsions:
REMARK  status: ('A' for Active; 'I' for Inactive)
REMARK    1  A    between atoms: C2_2  and  C3_3 
REMARK    2  A    between atoms: C4_4  and  C5_5 
REMARK    3  A    between atoms: C4_4  and  C21_27 
REMARK    4  A    between atoms: C6_6  and  C7_7 
REMARK    5  A    between atoms: C7_7  and  C8_8 
REMARK    6  A    between atoms: C8_8  and  N1_9 
REMARK    7  A    between atoms: N1_9  and  C9_10 
REMARK    8  A    between atoms: C16_20  and  O1_21 
ROOT
HETATM    1  C9  UNL     1       0.533  -1.936   1.056  1.00  0.00     0.159 A 
HETATM    2  N2  UNL     1       0.479  -3.059   1.819  1.00  0.00    -0.222 NA
HETATM    3  C10 UNL     1       1.627  -3.624   2.223  1.00  0.00     0.238 A 
HETATM    4  N3  UNL     1       2.860  -3.154   1.925  1.00  0.00    -0.215 NA
HETATM    5  C11 UNL     1       2.969  -2.037   1.168  1.00  0.00     0.202 A 
HETATM    6  C12 UNL     1       1.789  -1.441   0.742  1.00  0.00     0.129 A 
HETATM    7  N4  UNL     1       1.789  -0.261  -0.061  1.00  0.00    -0.379 N 
HETATM    8  C13 UNL     1       2.748   0.544  -0.773  1.00  0.00     0.161 C 
HETATM    9  C14 UNL     1       4.114   0.454  -0.250  1.00  0.00    -0.004 A 
HETATM   10  C15 UNL     1       4.793   1.593  -0.624  1.00  0.00     0.048 A 
HETATM   11  C16 UNL     1       6.100   1.835  -0.302  1.00  0.00     0.069 A 
HETATM   12  C18 UNL     1       6.760   0.870   0.441  1.00  0.00     0.039 A 
HETATM   13  C19 UNL     1       6.129  -0.285   0.840  1.00  0.00     0.040 A 
HETATM   14  C20 UNL     1       4.809  -0.492   0.495  1.00  0.00     0.086 A 
HETATM   15  O2  UNL     1       4.298  -1.702   0.964  1.00  0.00    -0.289 OA
HETATM   16  H10 UNL     1       0.804   0.125  -0.155  1.00  0.00     0.160 HD
ENDROOT
BRANCH   1  17
HETATM   17  N1  UNL     1      -0.541  -1.188   0.531  1.00  0.00    -0.349 N 
HETATM   18  H8  UNL     1      -0.814  -0.467   1.227  1.00  0.00     0.167 HD
BRANCH  17  19
HETATM   19  C8  UNL     1      -1.233  -1.277  -0.698  1.00  0.00     0.090 C 
BRANCH  19  20
HETATM   20  C7  UNL     1      -2.477  -0.843  -0.759  1.00  0.00     0.017 C 
BRANCH  20  21
HETATM   21  C6  UNL     1      -3.252  -0.900  -1.983  1.00  0.00     0.002 C 
HETATM   22  C5  UNL     1      -4.494  -0.495  -2.150  1.00  0.00     0.011 C 
BRANCH  22  23
HETATM   23  C4  UNL     1      -5.294   0.088  -1.090  1.00  0.00    -0.033 C 
HETATM   24  C3  UNL     1      -5.251   0.446   0.289  1.00  0.00     0.061 C 
BRANCH  24  25
HETATM   25  C2  UNL     1      -5.672  -0.511   1.107  1.00  0.00    -0.154 C 
HETATM   26  C1  UNL     1      -6.384  -1.308   1.893  1.00  0.00     0.096 C 
ENDBRANCH  24  25
BRANCH  23  27
HETATM   27  C21 UNL     1      -6.531   0.476  -1.331  1.00  0.00    -0.019 C 
HETATM   28  C22 UNL     1      -7.556   1.087  -0.465  1.00  0.00     0.037 C 
ENDBRANCH  23  27
ENDBRANCH  22  23
ENDBRANCH  20  21
ENDBRANCH  19  20
ENDBRANCH  17  19
ENDBRANCH   1  17
BRANCH  11  29
HETATM   29  O1  UNL     1       6.855   2.940  -0.632  1.00  0.00    -0.356 OA
HETATM   30  C17 UNL     1       6.242   3.971  -1.394  1.00  0.00     0.210 C 
ENDBRANCH  11  29
TORSDOF 8
