REMARK  0 active torsions:
REMARK  status: ('A' for Active; 'I' for Inactive)
ROOT
HETATM    1  C1  UNL     1       1.394   2.600  -0.675  1.00  0.00     0.310 C 
HETATM    2  N1  UNL     1       1.086   1.157  -0.221  1.00  0.00     0.094 N 
HETATM    3  C2  UNL     1      -0.097   1.320   0.461  1.00  0.00     0.308 C 
HETATM    4  C3  UNL     1      -1.088   0.273   0.780  1.00  0.00     0.259 C 
HETATM    5  N2  UNL     1      -2.386   1.049   0.811  1.00  0.00     0.090 N 
HETATM    6  C4  UNL     1      -3.502   0.208   1.047  1.00  0.00     0.270 C 
HETATM    7  C5  UNL     1      -3.704  -0.513  -0.298  1.00  0.00     0.031 C 
HETATM    8  C6  UNL     1      -2.552  -1.460  -0.377  1.00  0.00     0.016 C 
HETATM    9  C7  UNL     1      -1.204  -0.893  -0.113  1.00  0.00     0.091 C 
HETATM   10  C8  UNL     1      -0.412  -2.085   0.380  1.00  0.00     0.145 C 
HETATM   11  O1  UNL     1      -0.838  -3.208   0.671  1.00  0.00    -0.297 OA
HETATM   12  C9  UNL     1       0.970  -1.760   0.483  1.00  0.00     0.060 A 
HETATM   13  C10 UNL     1       1.288  -1.941  -0.826  1.00  0.00     0.030 C 
HETATM   14  C11 UNL     1       2.116  -0.948  -1.617  1.00  0.00     0.070 A 
HETATM   15  C12 UNL     1       2.961  -0.011  -2.118  1.00  0.00     0.118 A 
HETATM   16  F1  UNL     1       3.672   0.867  -2.901  1.00  0.00    -0.212 F 
HETATM   17  C13 UNL     1       3.145  -0.091  -0.823  1.00  0.00     0.146 A 
HETATM   18  N3  UNL     1       3.517  -1.316   0.014  1.00  0.00    -0.296 NA
HETATM   19  C14 UNL     1       2.369  -1.412   0.719  1.00  0.00     0.076 A 
HETATM   20  C15 UNL     1       1.514  -0.783   1.716  1.00  0.00     0.045 A 
HETATM   21  C16 UNL     1       2.542   0.105   1.580  1.00  0.00     0.061 A 
HETATM   22  C17 UNL     1       2.330   0.747   0.217  1.00  0.00     0.267 C 
HETATM   23  H7  UNL     1      -2.495   1.568  -0.091  1.00  0.00     0.316 HD
ENDROOT
TORSDOF 0
