REMARK  7 active torsions:
REMARK  status: ('A' for Active; 'I' for Inactive)
REMARK    1  A    between atoms: C2_2  and  C3_3 
REMARK    2  A    between atoms: C3_3  and  C4_4 
REMARK    3  A    between atoms: C5_5  and  N1_6 
REMARK    4  A    between atoms: N1_6  and  C6_7 
REMARK    5  A    between atoms: C13_16  and  O1_17 
REMARK    6  A    between atoms: O1_17  and  C14_18 
REMARK    7  A    between atoms: C14_18  and  C15_19 
ROOT
HETATM    1  C6  UNL     1       2.311   1.551   0.062  1.00  0.00     0.128 A 
HETATM    2  C7  UNL     1       1.208   1.633  -0.667  1.00  0.00     0.051 A 
HETATM    3  C8  UNL     1      -0.141   1.077  -0.554  1.00  0.00     0.014 A 
HETATM    4  C9  UNL     1      -0.755   0.372   0.373  1.00  0.00    -0.020 A 
HETATM    5  C10 UNL     1      -0.331  -0.142   1.671  1.00  0.00     0.067 A 
HETATM    6  N2  UNL     1       0.718  -0.230   2.390  1.00  0.00    -0.241 NA
HETATM    7  C11 UNL     1       2.078   0.192   2.196  1.00  0.00     0.235 A 
HETATM    8  N3  UNL     1       2.676   0.881   1.287  1.00  0.00    -0.225 NA
HETATM    9  C12 UNL     1      -1.362  -0.780   2.491  1.00  0.00     0.066 C 
HETATM   10  C13 UNL     1      -2.590  -0.845   2.002  1.00  0.00     0.083 C 
HETATM   11  C16 UNL     1      -3.122  -0.355   0.701  1.00  0.00     0.290 C 
HETATM   12  C17 UNL     1      -2.100   0.187  -0.227  1.00  0.00     0.096 C 
HETATM   13  C18 UNL     1      -2.264  -1.103  -1.006  1.00  0.00     0.258 C 
HETATM   14  C19 UNL     1      -2.608  -0.858  -2.448  1.00  0.00     0.204 C 
HETATM   15  O3  UNL     1      -3.848  -0.310  -2.636  1.00  0.00    -0.387 OA
HETATM   16  C20 UNL     1      -4.822  -1.141  -2.144  1.00  0.00     0.198 C 
HETATM   17  C21 UNL     1      -4.624  -1.636  -0.757  1.00  0.00     0.300 C 
HETATM   18  N4  UNL     1      -3.350  -1.456  -0.176  1.00  0.00     0.109 N 
ENDROOT
BRANCH   1  19
HETATM   19  N1  UNL     1       3.433   2.272  -0.428  1.00  0.00    -0.351 N 
HETATM   20  H8  UNL     1       3.397   3.253  -0.023  1.00  0.00     0.166 HD
BRANCH  19  21
HETATM   21  C5  UNL     1       4.590   2.275  -1.221  1.00  0.00     0.086 C 
HETATM   22  C4  UNL     1       5.723   1.813  -0.694  1.00  0.00    -0.006 C 
BRANCH  22  23
HETATM   23  C3  UNL     1       7.020   1.758  -1.415  1.00  0.00     0.054 C 
BRANCH  23  24
HETATM   24  C2  UNL     1       7.410   0.310  -1.437  1.00  0.00    -0.033 C 
HETATM   25  C1  UNL     1       7.650  -0.584  -2.393  1.00  0.00     0.007 C 
ENDBRANCH  23  24
ENDBRANCH  22  23
ENDBRANCH  19  21
ENDBRANCH   1  19
BRANCH  10  26
HETATM   26  O1  UNL     1      -3.583  -1.448   2.768  1.00  0.00    -0.346 OA
BRANCH  26  27
HETATM   27  C14 UNL     1      -4.555  -0.732   3.473  1.00  0.00     0.244 C 
BRANCH  27  28
HETATM   28  C15 UNL     1      -5.421  -1.761   4.158  1.00  0.00     0.257 C 
HETATM   29  O2  UNL     1      -4.673  -2.538   3.623  1.00  0.00    -0.305 OA
ENDBRANCH  27  28
ENDBRANCH  26  27
ENDBRANCH  10  26
TORSDOF 7
