REMARK  6 active torsions:
REMARK  status: ('A' for Active; 'I' for Inactive)
REMARK    1  A    between atoms: C6_7  and  N1_8 
REMARK    2  A    between atoms: N1_8  and  C7_9 
REMARK    3  A    between atoms: N4_21  and  C16_22 
REMARK    4  A    between atoms: C16_22  and  C17_23 
REMARK    5  A    between atoms: C17_23  and  C18_24 
REMARK    6  A    between atoms: C18_24  and  N5_25 
ROOT
HETATM    1  O1  UNL     1      -1.515  -2.467   1.648  1.00  0.00    -0.273 OA
HETATM    2  C1  UNL     1      -0.502  -2.608   1.038  1.00  0.00     0.222 C 
HETATM    3  C2  UNL     1       0.641  -3.963   1.063  1.00  0.00     0.122 C 
HETATM    4  C3  UNL     1       1.485  -2.997   0.657  1.00  0.00     0.046 A 
HETATM    5  C4  UNL     1       1.810  -2.676  -0.615  1.00  0.00     0.080 A 
HETATM    6  C5  UNL     1       1.734  -1.703  -1.840  1.00  0.00     0.094 C 
HETATM    7  C6  UNL     1       2.322  -0.717  -0.860  1.00  0.00     0.159 C 
HETATM    8  N2  UNL     1       3.741  -1.263  -1.126  1.00  0.00    -0.250 NA
HETATM    9  C13 UNL     1       3.962  -2.599  -1.242  1.00  0.00     0.200 C 
HETATM   10  N3  UNL     1       2.882  -3.652  -0.958  1.00  0.00    -0.371 N 
HETATM   11  C14 UNL     1       1.838  -1.408   0.465  1.00  0.00     0.106 A 
HETATM   12  C15 UNL     1       1.578  -2.002   1.682  1.00  0.00    -0.002 A 
HETATM   13  N4  UNL     1       0.258  -1.738  -0.010  1.00  0.00    -0.334 N 
HETATM   14  H11 UNL     1       2.497  -4.624  -0.852  1.00  0.00     0.161 HD
ENDROOT
BRANCH   7  15
HETATM   15  N1  UNL     1       2.169   0.586  -0.980  1.00  0.00    -0.360 N 
HETATM   16  H5  UNL     1       1.605   0.875  -1.810  1.00  0.00     0.162 HD
BRANCH  15  17
HETATM   17  C7  UNL     1       2.705   1.540  -0.082  1.00  0.00     0.033 A 
HETATM   18  C8  UNL     1       3.443   1.112   1.001  1.00  0.00     0.029 A 
HETATM   19  C9  UNL     1       3.982   2.026   1.899  1.00  0.00     0.005 A 
HETATM   20  C10 UNL     1       3.774   3.380   1.701  1.00  0.00     0.042 A 
HETATM   21  C11 UNL     1       3.034   3.821   0.616  1.00  0.00     0.118 A 
HETATM   22  F1  UNL     1       2.814   5.152   0.399  1.00  0.00    -0.206 F 
HETATM   23  C12 UNL     1       2.500   2.891  -0.275  1.00  0.00     0.071 A 
ENDBRANCH  15  17
ENDBRANCH   7  15
BRANCH  13  24
HETATM   24  C16 UNL     1      -0.790  -1.245  -0.973  1.00  0.00     0.129 C 
BRANCH  24  25
HETATM   25  C17 UNL     1      -1.291   0.001  -0.129  1.00  0.00     0.050 C 
BRANCH  25  26
HETATM   26  C18 UNL     1      -2.386   0.684  -0.925  1.00  0.00     0.274 C 
BRANCH  26  27
HETATM   27  N5  UNL     1      -2.847   1.810  -0.175  1.00  0.00     0.092 N 
HETATM   28  C19 UNL     1      -3.902   2.544  -0.844  1.00  0.00     0.298 C 
HETATM   29  C20 UNL     1      -5.205   1.761  -0.867  1.00  0.00     0.198 C 
HETATM   30  O2  UNL     1      -5.556   1.314   0.396  1.00  0.00    -0.388 OA
HETATM   31  C21 UNL     1      -4.533   0.565   0.969  1.00  0.00     0.198 C 
HETATM   32  C22 UNL     1      -3.335   1.467   1.128  1.00  0.00     0.298 C 
ENDBRANCH  26  27
ENDBRANCH  25  26
ENDBRANCH  24  25
ENDBRANCH  13  24
TORSDOF 6
