REMARK  2 active torsions:
REMARK  status: ('A' for Active; 'I' for Inactive)
REMARK    1  A    between atoms: C9_12  and  N2_13 
REMARK    2  A    between atoms: N2_13  and  C10_14 
ROOT
HETATM    1  O1  UNL     1      -0.669   1.661  -0.328  1.00  0.00     0.000 OA
HETATM    2  C1  UNL     1      -1.607   2.334  -0.376  1.00  0.00     0.294 A 
HETATM    3  N1  UNL     1      -2.626   3.074   0.290  1.00  0.00    -0.343 N 
HETATM    4  C2  UNL     1      -2.424   2.900   1.786  1.00  0.00     0.299 C 
HETATM    5  O2  UNL     1      -2.603   1.544   2.066  1.00  0.00    -0.334 OA
HETATM    6  C3  UNL     1      -1.863   0.463   1.728  1.00  0.00     0.077 C 
HETATM    7  C4  UNL     1      -0.764  -0.157   1.274  1.00  0.00     0.037 C 
HETATM    8  C5  UNL     1       0.490   0.455   0.812  1.00  0.00     0.166 A 
HETATM    9  C6  UNL     1       0.440   0.794  -0.695  1.00  0.00     0.278 A 
HETATM   10  C7  UNL     1       1.526   0.068  -0.875  1.00  0.00     0.063 A 
HETATM   11  C8  UNL     1       2.714  -0.744  -0.985  1.00  0.00     0.076 A 
HETATM   12  C9  UNL     1       2.772  -1.054   0.322  1.00  0.00     0.110 A 
HETATM   13  N3  UNL     1       1.630  -0.290   0.525  1.00  0.00    -0.322 N 
HETATM   14  N4  UNL     1      -0.643   1.627  -1.255  1.00  0.00     0.165 N 
HETATM   15  C16 UNL     1      -0.902   1.772  -2.669  1.00  0.00     0.285 C 
HETATM   16  C17 UNL     1      -1.693   0.613  -3.159  1.00  0.00     0.061 C 
HETATM   17  C18 UNL     1      -2.950   0.230  -2.437  1.00  0.00     0.272 C 
HETATM   18  N5  UNL     1      -2.659  -0.296  -1.168  1.00  0.00     0.089 N 
HETATM   19  C19 UNL     1      -3.639  -0.839  -0.333  1.00  0.00     0.238 C 
HETATM   20  C20 UNL     1      -4.723   0.033   0.203  1.00  0.00     0.153 C 
HETATM   21  N6  UNL     1      -5.058  -0.477   1.545  1.00  0.00    -0.203 NA
HETATM   22  O3  UNL     1      -4.106  -0.185   2.389  1.00  0.00    -0.294 OA
HETATM   23  C21 UNL     1      -2.876  -0.642   2.040  1.00  0.00     0.204 C 
HETATM   24  C22 UNL     1      -3.013  -1.594   0.873  1.00  0.00     0.077 C 
HETATM   25  H1  UNL     1      -2.763   3.192  -0.734  1.00  0.00     0.163 HD
HETATM   26  H18 UNL     1      -1.803  -0.924  -1.290  1.00  0.00     0.316 HD
HETATM   27  H22 UNL     1      -5.987  -0.061   1.774  1.00  0.00     0.153 HD
ENDROOT
BRANCH  12  28
HETATM   28  N2  UNL     1       3.801  -1.886   0.850  1.00  0.00    -0.342 N 
HETATM   29  H7  UNL     1       3.362  -2.708   1.316  1.00  0.00     0.167 HD
BRANCH  28  30
HETATM   30  C10 UNL     1       5.203  -1.622   0.750  1.00  0.00     0.036 A 
HETATM   31  C11 UNL     1       6.116  -2.514   1.281  1.00  0.00     0.029 A 
HETATM   32  C12 UNL     1       7.478  -2.230   1.170  1.00  0.00     0.005 A 
HETATM   33  C13 UNL     1       7.890  -1.071   0.535  1.00  0.00     0.042 A 
HETATM   34  C14 UNL     1       6.921  -0.233   0.032  1.00  0.00     0.118 A 
HETATM   35  F1  UNL     1       7.339   0.900  -0.586  1.00  0.00    -0.206 F 
HETATM   36  C15 UNL     1       5.560  -0.451   0.107  1.00  0.00     0.071 A 
ENDBRANCH  28  30
ENDBRANCH  12  28
TORSDOF 2
