REMARK  8 active torsions:
REMARK  status: ('A' for Active; 'I' for Inactive)
REMARK    1  A    between atoms: C2_2  and  N1_3 
REMARK    2  A    between atoms: N2_11  and  C8_12 
REMARK    3  A    between atoms: C8_12  and  C9_13 
REMARK    4  A    between atoms: C9_13  and  C10_14 
REMARK    5  A    between atoms: C10_14  and  N3_15 
REMARK    6  A    between atoms: C17_23  and  C18_24 
REMARK    7  A    between atoms: C18_24  and  N4_25 
REMARK    8  A    between atoms: N4_25  and  C19_26 
ROOT
HETATM    1  N1  UNL     1       3.631   1.644  -0.878  1.00  0.00    -0.289 NA
HETATM    2  C3  UNL     1       2.505   1.697  -0.290  1.00  0.00     0.065 A 
HETATM    3  C4  UNL     1       1.830   2.887   0.186  1.00  0.00     0.071 A 
HETATM    4  C5  UNL     1       0.663   2.858   0.786  1.00  0.00     0.098 A 
HETATM    5  O1  UNL     1       0.035   4.032   1.237  1.00  0.00    -0.340 OA
HETATM    6  C6  UNL     1      -1.337   4.057   1.568  1.00  0.00     0.279 C 
HETATM    7  C7  UNL     1      -1.836   2.773   2.069  1.00  0.00     0.248 C 
HETATM    8  O2  UNL     1      -2.790   2.762   2.915  1.00  0.00    -0.271 OA
HETATM    9  N2  UNL     1      -1.305   1.497   1.658  1.00  0.00    -0.314 N 
HETATM   10  C15 UNL     1      -0.032   1.597   1.011  1.00  0.00     0.071 A 
HETATM   11  C16 UNL     1       0.524   0.454   0.601  1.00  0.00     0.048 A 
HETATM   12  C17 UNL     1       1.808   0.441  -0.064  1.00  0.00     0.010 A 
ENDROOT
BRANCH   9  13
HETATM   13  C8  UNL     1      -2.029   0.293   1.904  1.00  0.00     0.134 C 
BRANCH  13  14
HETATM   14  C9  UNL     1      -2.969  -0.048   0.739  1.00  0.00     0.040 C 
BRANCH  14  15
HETATM   15  C10 UNL     1      -3.711  -1.309   1.026  1.00  0.00     0.118 C 
BRANCH  15  16
HETATM   16  N3  UNL     1      -4.611  -1.768   0.070  1.00  0.00    -0.408 N 
HETATM   17  C11 UNL     1      -5.333  -2.964   0.312  1.00  0.00     0.143 C 
HETATM   18  C12 UNL     1      -6.545  -2.969  -0.614  1.00  0.00     0.187 C 
HETATM   19  O3  UNL     1      -6.066  -2.818  -1.904  1.00  0.00    -0.388 OA
HETATM   20  C13 UNL     1      -5.619  -1.526  -2.149  1.00  0.00     0.187 C 
HETATM   21  C14 UNL     1      -5.179  -0.882  -0.864  1.00  0.00     0.143 C 
ENDBRANCH  15  16
ENDBRANCH  14  15
ENDBRANCH  13  14
ENDBRANCH   9  13
BRANCH  12  22
HETATM   22  C18 UNL     1       2.335  -0.694  -0.458  1.00  0.00     0.102 C 
BRANCH  22  23
HETATM   23  N4  UNL     1       3.594  -0.762  -1.116  1.00  0.00    -0.366 N 
HETATM   24  H25 UNL     1       3.909  -0.416  -2.052  1.00  0.00     0.165 HD
BRANCH  23  25
HETATM   25  C19 UNL     1       4.621  -1.418  -0.377  1.00  0.00     0.047 A 
HETATM   26  C20 UNL     1       5.326  -1.068   0.704  1.00  0.00     0.028 A 
HETATM   27  C21 UNL     1       6.286  -2.091   1.101  1.00  0.00     0.001 A 
HETATM   28  C22 UNL     1       6.148  -3.092   0.219  1.00  0.00     0.016 A 
HETATM   29  C23 UNL     1       5.092  -2.760  -0.787  1.00  0.00     0.242 A 
HETATM   30  F1  UNL     1       5.571  -2.773  -2.081  1.00  0.00    -0.239 F 
ENDBRANCH  23  25
ENDBRANCH  22  23
ENDBRANCH  12  22
BRANCH   1  31
HETATM   31  C2  UNL     1       4.406   2.830  -1.152  1.00  0.00     0.145 C 
HETATM   32  C1  UNL     1       5.425   2.569  -2.249  1.00  0.00     0.028 C 
ENDBRANCH   1  31
TORSDOF 8
