REMARK  3 active torsions:
REMARK  status: ('A' for Active; 'I' for Inactive)
REMARK    1  A    between atoms: C4_4  and  C5_5 
REMARK    2  A    between atoms: C9_9  and  N1_10 
REMARK    3  A    between atoms: N1_10  and  C11_12 
ROOT
HETATM    1  C5  UNL     1      -2.134  -0.028   0.034  1.00  0.00    -0.037 C 
HETATM    2  C6  UNL     1      -2.188  -1.523   0.080  1.00  0.00     0.050 C 
HETATM    3  C7  UNL     1      -1.000   0.576  -0.347  1.00  0.00     0.049 A 
HETATM    4  C8  UNL     1       0.154  -0.254  -0.704  1.00  0.00     0.138 A 
HETATM    5  C9  UNL     1       1.292   0.643  -1.112  1.00  0.00     0.113 A 
HETATM    6  N2  UNL     1       1.246   1.932  -1.133  1.00  0.00    -0.228 NA
HETATM    7  C17 UNL     1       0.077   2.651  -0.761  1.00  0.00     0.235 A 
HETATM    8  N3  UNL     1      -0.967   1.996  -0.394  1.00  0.00    -0.246 NA
ENDROOT
BRANCH   5   9
HETATM    9  N1  UNL     1       2.443  -0.134  -1.477  1.00  0.00    -0.339 N 
HETATM   10  C10 UNL     1       2.704  -0.781  -2.743  1.00  0.00     0.158 C 
BRANCH   9  11
HETATM   11  C11 UNL     1       3.451  -0.291  -0.477  1.00  0.00     0.035 A 
HETATM   12  C12 UNL     1       4.600  -1.025  -0.734  1.00  0.00     0.029 A 
HETATM   13  C13 UNL     1       5.542  -1.151   0.253  1.00  0.00     0.002 A 
HETATM   14  C14 UNL     1       5.405  -0.582   1.494  1.00  0.00     0.000 A 
HETATM   15  C15 UNL     1       4.270   0.160   1.787  1.00  0.00     0.002 A 
HETATM   16  C16 UNL     1       3.350   0.265   0.781  1.00  0.00     0.029 A 
ENDBRANCH   9  11
ENDBRANCH   5   9
BRANCH   1  17
HETATM   17  C4  UNL     1      -3.290   0.795   0.394  1.00  0.00     0.010 C 
HETATM   18  C2  UNL     1      -4.529   0.597   0.799  1.00  0.00    -0.087 C 
HETATM   19  C1  UNL     1      -5.531   1.687   1.103  1.00  0.00     0.043 C 
HETATM   20  C3  UNL     1      -5.073  -0.778   1.001  1.00  0.00     0.043 C 
ENDBRANCH   1  17
TORSDOF 3
