REMARK  6 active torsions:
REMARK  status: ('A' for Active; 'I' for Inactive)
REMARK    1  A    between atoms: C6_7  and  C7_8 
REMARK    2  A    between atoms: C7_8  and  C8_9 
REMARK    3  A    between atoms: C8_9  and  N2_10 
REMARK    4  A    between atoms: N2_10  and  C9_11 
REMARK    5  A    between atoms: N2_10  and  C10_13 
REMARK    6  A    between atoms: C9_11  and  O1_12 
ROOT
HETATM    1  C10 UNL     1      -0.977  -1.069   0.290  1.00  0.00     0.055 C 
HETATM    2  C11 UNL     1      -1.394   0.133   0.187  1.00  0.00     0.050 C 
HETATM    3  C12 UNL     1      -1.967   1.384   0.039  1.00  0.00     0.019 A 
HETATM    4  N3  UNL     1      -2.872   2.234  -0.292  1.00  0.00    -0.231 NA
HETATM    5  C13 UNL     1      -4.149   1.849  -0.890  1.00  0.00     0.184 C 
HETATM    6  N4  UNL     1      -4.797   0.637  -0.907  1.00  0.00    -0.249 NA
HETATM    7  C14 UNL     1      -3.917  -0.282  -0.166  1.00  0.00     0.059 C 
HETATM    8  C15 UNL     1      -3.227  -1.262  -0.725  1.00  0.00     0.054 C 
HETATM    9  C16 UNL     1      -2.253  -1.860   0.185  1.00  0.00     0.170 C 
HETATM   10  F1  UNL     1      -2.092  -3.176  -0.088  1.00  0.00    -0.231 F 
HETATM   11  C17 UNL     1      -2.795  -1.815   1.646  1.00  0.00     0.111 C 
HETATM   12  C18 UNL     1      -2.794  -0.352   2.049  1.00  0.00     0.014 C 
HETATM   13  C19 UNL     1      -3.761   0.228   1.250  1.00  0.00     0.056 C 
HETATM   14  N5  UNL     1      -2.172   0.783   2.869  1.00  0.00    -0.371 N 
HETATM   15  C20 UNL     1      -2.452   2.138   2.361  1.00  0.00     0.087 C 
HETATM   16  C21 UNL     1      -2.376   2.449   1.007  1.00  0.00     0.152 A 
HETATM   17  H26 UNL     1      -1.980  -0.142   3.218  1.00  0.00     0.164 HD
ENDROOT
BRANCH   1  18
HETATM   18  N2  UNL     1       0.232  -1.716   0.618  1.00  0.00    -0.360 N 
BRANCH  18  19
HETATM   19  C8  UNL     1       0.977  -2.317  -0.460  1.00  0.00     0.127 C 
BRANCH  19  20
HETATM   20  C7  UNL     1       2.288  -1.670  -0.754  1.00  0.00     0.055 C 
BRANCH  20  21
HETATM   21  C6  UNL     1       2.183  -0.217  -1.140  1.00  0.00     0.225 C 
HETATM   22  C2  UNL     1       3.606   0.296  -1.404  1.00  0.00     0.015 C 
HETATM   23  C1  UNL     1       4.346   0.201  -0.097  1.00  0.00     0.012 C 
HETATM   24  C3  UNL     1       3.563   1.734  -1.829  1.00  0.00     0.008 C 
HETATM   25  C4  UNL     1       2.161   2.273  -1.744  1.00  0.00     0.030 C 
HETATM   26  C5  UNL     1       1.192   1.407  -2.492  1.00  0.00     0.270 C 
HETATM   27  N1  UNL     1       1.466  -0.009  -2.356  1.00  0.00     0.088 N 
HETATM   28  H11 UNL     1       1.973  -0.350  -3.208  1.00  0.00     0.316 HD
ENDBRANCH  20  21
ENDBRANCH  19  20
ENDBRANCH  18  19
BRANCH  18  29
HETATM   29  C9  UNL     1       1.014  -1.983   1.811  1.00  0.00     0.289 C 
BRANCH  29  30
HETATM   30  O1  UNL     1       0.395  -1.384   2.879  1.00  0.00    -0.382 OA
HETATM   31  H19 UNL     1       0.932  -1.384   3.706  1.00  0.00     0.211 HD
ENDBRANCH  29  30
ENDBRANCH  18  29
ENDBRANCH   1  18
TORSDOF 6
