REMARK  2 active torsions:
REMARK  status: ('A' for Active; 'I' for Inactive)
REMARK    1  A    between atoms: C2_3  and  C3_4 
REMARK    2  A    between atoms: C6_7  and  C7_8 
ROOT
HETATM    1  C3  UNL     1       2.566  -0.570   0.182  1.00  0.00     0.071 C 
HETATM    2  C4  UNL     1       2.800   0.809  -0.039  1.00  0.00     0.145 C 
HETATM    3  C5  UNL     1       1.487   1.379   0.363  1.00  0.00     0.027 C 
HETATM    4  C6  UNL     1       1.921   2.697   0.053  1.00  0.00     0.046 C 
HETATM    5  N2  UNL     1       0.184   1.958   0.761  1.00  0.00    -0.414 N 
HETATM    6  C8  UNL     1      -0.679   1.657  -0.368  1.00  0.00     0.144 C 
HETATM    7  C9  UNL     1      -2.061   1.393   0.222  1.00  0.00     0.292 C 
HETATM    8  N3  UNL     1      -2.580   0.157  -0.449  1.00  0.00     0.106 N 
HETATM    9  C10 UNL     1      -4.025   0.286  -0.454  1.00  0.00     0.299 C 
HETATM   10  C11 UNL     1      -4.692  -1.050  -0.531  1.00  0.00     0.198 C 
HETATM   11  O1  UNL     1      -3.830  -1.905  -1.210  1.00  0.00    -0.387 OA
HETATM   12  C12 UNL     1      -2.787  -2.230  -0.354  1.00  0.00     0.211 C 
HETATM   13  C13 UNL     1      -2.210  -1.002   0.316  1.00  0.00     0.317 C 
HETATM   14  C14 UNL     1      -0.776  -1.197   0.563  1.00  0.00     0.186 C 
HETATM   15  O2  UNL     1      -0.333  -0.940   1.702  1.00  0.00    -0.293 OA
HETATM   16  C15 UNL     1       0.427  -1.651  -0.227  1.00  0.00     0.256 C 
HETATM   17  O3  UNL     1       1.605  -1.558   0.608  1.00  0.00    -0.346 OA
HETATM   18  H9  UNL     1       0.143   2.414   1.694  1.00  0.00     0.153 HD
ENDROOT
BRANCH   1  19
HETATM   19  C2  UNL     1       3.878  -1.185  -0.201  1.00  0.00     0.142 C 
HETATM   20  N1  UNL     1       4.088  -2.429  -0.173  1.00  0.00    -0.304 NA
HETATM   21  C1  UNL     1       5.291  -3.139  -0.510  1.00  0.00     0.177 C 
ENDBRANCH   1  19
BRANCH   4  22
HETATM   22  C7  UNL     1       1.365   4.090   0.092  1.00  0.00     0.229 C 
HETATM   23  F1  UNL     1       2.186   4.843   0.926  1.00  0.00    -0.255 F 
ENDBRANCH   4  22
TORSDOF 2
