REMARK  5 active torsions:
REMARK  status: ('A' for Active; 'I' for Inactive)
REMARK    1  A    between atoms: O1_2  and  C2_3 
REMARK    2  A    between atoms: C7_9  and  C8_10 
REMARK    3  A    between atoms: C7_9  and  N2_12 
REMARK    4  A    between atoms: C8_10  and  N1_11 
REMARK    5  A    between atoms: C16_20  and  N3_21 
ROOT
HETATM    1  C2  UNL     1       4.876   0.861  -0.084  1.00  0.00     0.067 A 
HETATM    2  C3  UNL     1       4.368  -0.185  -0.745  1.00  0.00     0.046 A 
HETATM    3  C4  UNL     1       3.048  -0.575  -0.189  1.00  0.00     0.178 A 
HETATM    4  O2  UNL     1       3.036  -1.807   0.425  1.00  0.00    -0.372 OA
HETATM    5  C5  UNL     1       1.823  -2.437   0.379  1.00  0.00     0.227 C 
HETATM    6  C6  UNL     1       0.665  -1.540   0.743  1.00  0.00     0.053 C 
HETATM    7  C7  UNL     1      -0.446  -1.957   0.189  1.00  0.00     0.060 C 
HETATM    8  N4  UNL     1       0.694  -0.394   1.565  1.00  0.00    -0.386 N 
HETATM    9  C20 UNL     1       1.722   0.546   1.861  1.00  0.00     0.157 C 
HETATM   10  C21 UNL     1       2.864   0.419   0.920  1.00  0.00    -0.027 A 
HETATM   11  C22 UNL     1       3.917   1.244   0.976  1.00  0.00     0.044 A 
HETATM   12  H25 UNL     1      -0.209  -0.225   2.033  1.00  0.00     0.159 HD
ENDROOT
BRANCH   7  13
HETATM   13  C8  UNL     1      -1.070  -2.971  -0.673  1.00  0.00     0.325 C 
BRANCH  13  14
HETATM   14  N1  UNL     1      -2.083  -3.709   0.039  1.00  0.00     0.083 N 
HETATM   15  H10 UNL     1      -2.738  -4.185  -0.586  1.00  0.00     0.313 HD
HETATM   16  H11 UNL     1      -1.612  -4.393   0.645  1.00  0.00     0.313 HD
ENDBRANCH  13  14
ENDBRANCH   7  13
BRANCH   7  17
HETATM   17  N2  UNL     1      -1.575  -1.138   0.488  1.00  0.00    -0.369 N 
HETATM   18  C9  UNL     1      -2.529  -1.351   1.593  1.00  0.00     0.151 C 
HETATM   19  C10 UNL     1      -3.324  -0.089   1.847  1.00  0.00    -0.000 C 
HETATM   20  C11 UNL     1      -3.786   0.610   0.820  1.00  0.00    -0.058 C 
HETATM   21  C12 UNL     1      -4.577   1.802   0.645  1.00  0.00     0.007 C 
HETATM   22  C19 UNL     1      -3.353  -0.007  -0.504  1.00  0.00     0.067 C 
HETATM   23  C13 UNL     1      -4.361   2.669  -0.305  1.00  0.00     0.001 C 
HETATM   24  C14 UNL     1      -3.461   2.902  -1.425  1.00  0.00     0.002 C 
HETATM   25  C15 UNL     1      -2.418   2.431  -2.071  1.00  0.00     0.029 C 
HETATM   26  C16 UNL     1      -1.468   1.386  -2.102  1.00  0.00     0.023 C 
HETATM   27  C17 UNL     1      -1.076   0.304  -1.480  1.00  0.00     0.027 C 
HETATM   28  C18 UNL     1      -1.853   0.011  -0.317  1.00  0.00     0.114 C 
BRANCH  26  29
HETATM   29  N3  UNL     1      -0.511   1.400  -3.180  1.00  0.00    -0.399 N 
HETATM   30  H19 UNL     1       0.176   1.412  -3.938  1.00  0.00     0.156 HD
HETATM   31  H20 UNL     1      -0.535   1.262  -4.223  1.00  0.00     0.156 HD
ENDBRANCH  26  29
ENDBRANCH   7  17
BRANCH   1  32
HETATM   32  O1  UNL     1       6.050   1.604  -0.192  1.00  0.00    -0.356 OA
HETATM   33  C1  UNL     1       6.873   1.718   0.980  1.00  0.00     0.210 C 
ENDBRANCH   1  32
TORSDOF 5
