REMARK  2 active torsions:
REMARK  status: ('A' for Active; 'I' for Inactive)
REMARK    1  A    between atoms: C5_6  and  N1_7 
REMARK    2  A    between atoms: N1_7  and  C6_8 
ROOT
HETATM    1  C6  UNL     1       2.092   0.730   0.366  1.00  0.00     0.162 A 
HETATM    2  N2  UNL     1       1.912  -0.561   0.546  1.00  0.00    -0.256 NA
HETATM    3  C7  UNL     1       0.891  -1.331   0.841  1.00  0.00     0.180 A 
HETATM    4  N3  UNL     1       0.291  -0.155   0.834  1.00  0.00    -0.405 NA
HETATM    5  C8  UNL     1       0.825   0.985   0.598  1.00  0.00     0.339 A 
HETATM    6  C9  UNL     1       1.636   2.057   0.312  1.00  0.00     0.069 A 
HETATM    7  C10 UNL     1       0.571   3.035   0.402  1.00  0.00    -0.011 C 
HETATM    8  C11 UNL     1      -0.549   3.202   1.136  1.00  0.00    -0.004 C 
HETATM    9  C12 UNL     1      -1.429   4.340   0.963  1.00  0.00     0.194 C 
HETATM   10  O1  UNL     1      -2.719   4.199   0.623  1.00  0.00    -0.387 OA
HETATM   11  C13 UNL     1      -3.147   3.588  -0.495  1.00  0.00     0.168 C 
HETATM   12  C14 UNL     1      -2.885   2.107  -0.471  1.00  0.00     0.026 C 
HETATM   13  C15 UNL     1      -3.685   1.403   0.612  1.00  0.00     0.004 C 
HETATM   14  C16 UNL     1      -3.274  -0.035   0.791  1.00  0.00     0.020 C 
HETATM   15  C17 UNL     1      -3.309  -0.851  -0.459  1.00  0.00     0.123 C 
HETATM   16  N4  UNL     1      -2.683  -2.169  -0.296  1.00  0.00    -0.380 N 
HETATM   17  C18 UNL     1      -2.618  -3.605  -0.307  1.00  0.00     0.149 C 
HETATM   18  C19 UNL     1      -1.346  -3.909  -1.121  1.00  0.00     0.187 C 
HETATM   19  O2  UNL     1      -1.046  -2.819  -1.980  1.00  0.00    -0.384 OA
HETATM   20  C20 UNL     1      -0.687  -1.687  -1.230  1.00  0.00     0.224 C 
HETATM   21  C21 UNL     1      -1.342  -1.887   0.096  1.00  0.00     0.031 C 
HETATM   22  C22 UNL     1      -0.512  -1.706   1.152  1.00  0.00     0.058 C 
ENDROOT
BRANCH   1  23
HETATM   23  N1  UNL     1       3.503   0.837   0.057  1.00  0.00    -0.360 N 
HETATM   24  H4  UNL     1       4.061   1.703  -0.217  1.00  0.00     0.162 HD
BRANCH  23  25
HETATM   25  C5  UNL     1       4.444  -0.211   0.062  1.00  0.00     0.033 A 
HETATM   26  C4  UNL     1       5.520  -0.321  -0.820  1.00  0.00     0.029 A 
HETATM   27  C3  UNL     1       6.473  -1.310  -0.849  1.00  0.00     0.005 A 
HETATM   28  C2  UNL     1       6.337  -2.294   0.105  1.00  0.00     0.042 A 
HETATM   29  C1  UNL     1       5.307  -2.279   1.025  1.00  0.00     0.118 A 
HETATM   30  F1  UNL     1       5.303  -3.301   1.891  1.00  0.00    -0.206 F 
HETATM   31  C23 UNL     1       4.406  -1.246   0.970  1.00  0.00     0.071 A 
ENDBRANCH  23  25
ENDBRANCH   1  23
TORSDOF 2
