REMARK  2 active torsions:
REMARK  status: ('A' for Active; 'I' for Inactive)
REMARK    1  A    between atoms: C6_6  and  N1_7 
REMARK    2  A    between atoms: N1_7  and  C8_9 
ROOT
HETATM    1  C8  UNL     1      -0.475  -0.492   1.588  1.00  0.00     0.140 A 
HETATM    2  N2  UNL     1      -0.773  -0.451   2.920  1.00  0.00    -0.224 NA
HETATM    3  C9  UNL     1       0.200   0.054   3.728  1.00  0.00     0.236 A 
HETATM    4  N3  UNL     1       1.386   0.489   3.257  1.00  0.00    -0.241 NA
HETATM    5  C10 UNL     1       1.692   0.454   1.949  1.00  0.00     0.072 A 
HETATM    6  C11 UNL     1       2.867   0.866   1.356  1.00  0.00     0.039 A 
HETATM    7  C12 UNL     1       3.033   0.762  -0.020  1.00  0.00    -0.054 A 
HETATM    8  C13 UNL     1       4.322   1.221  -0.618  1.00  0.00     0.049 C 
HETATM    9  C14 UNL     1       2.034   0.244  -0.848  1.00  0.00    -0.055 A 
HETATM   10  C15 UNL     1       2.267   0.157  -2.299  1.00  0.00     0.049 C 
HETATM   11  C16 UNL     1       0.857  -0.170  -0.259  1.00  0.00     0.025 A 
HETATM   12  C17 UNL     1       0.734  -0.050   1.099  1.00  0.00     0.039 A 
ENDROOT
BRANCH   1  13
HETATM   13  N1  UNL     1      -1.623  -1.039   0.899  1.00  0.00    -0.358 N 
HETATM   14  C7  UNL     1      -1.930  -2.433   1.262  1.00  0.00     0.152 C 
BRANCH  13  15
HETATM   15  C6  UNL     1      -2.624  -0.687  -0.056  1.00  0.00     0.137 A 
HETATM   16  C2  UNL     1      -2.492   0.670  -0.636  1.00  0.00    -0.058 A 
HETATM   17  C1  UNL     1      -2.508   1.920   0.172  1.00  0.00     0.046 C 
HETATM   18  C3  UNL     1      -2.366   0.521  -1.967  1.00  0.00     0.005 A 
HETATM   19  C4  UNL     1      -2.404  -0.888  -2.328  1.00  0.00    -0.001 A 
HETATM   20  C5  UNL     1      -2.556  -1.611  -1.205  1.00  0.00     0.003 A 
ENDBRANCH  13  15
ENDBRANCH   1  13
TORSDOF 2
