REMARK  4 active torsions:
REMARK  status: ('A' for Active; 'I' for Inactive)
REMARK    1  A    between atoms: B1_1  and  N1_2 
REMARK    2  A    between atoms: N1_2  and  C1_3 
REMARK    3  A    between atoms: C4_8  and  C5_9 
REMARK    4  A    between atoms: C9_13  and  C10_14 
ROOT
HETATM    1  C1  UNL     1      -3.624   0.308   1.714  1.00  0.00     0.086 C 
HETATM    2  N2  UNL     1      -3.285  -0.646   2.582  1.00  0.00    -0.259 NA
HETATM    3  C2  UNL     1      -2.333  -1.675   2.290  1.00  0.00     0.223 C 
HETATM    4  N3  UNL     1      -1.111  -1.702   1.630  1.00  0.00    -0.279 NA
HETATM    5  C3  UNL     1      -0.678  -0.471   1.118  1.00  0.00     0.189 C 
HETATM    6  C4  UNL     1       0.053  -0.411  -0.125  1.00  0.00    -0.032 C 
HETATM    7  C13 UNL     1      -0.767  -0.198  -1.202  1.00  0.00    -0.017 C 
HETATM    8  C14 UNL     1      -2.183  -0.115  -0.968  1.00  0.00     0.033 C 
HETATM    9  C15 UNL     1      -2.962   1.054  -0.859  1.00  0.00     0.031 C 
HETATM   10  C16 UNL     1      -3.544   1.109   0.378  1.00  0.00     0.118 C 
ENDROOT
BRANCH   6  11
HETATM   11  C5  UNL     1       1.494  -0.534  -0.297  1.00  0.00    -0.028 A 
HETATM   12  C6  UNL     1       2.369  -0.782   0.737  1.00  0.00     0.012 A 
HETATM   13  C7  UNL     1       3.739  -0.880   0.635  1.00  0.00     0.001 A 
HETATM   14  C8  UNL     1       4.295  -0.715  -0.634  1.00  0.00     0.007 A 
HETATM   15  C9  UNL     1       3.486  -0.462  -1.738  1.00  0.00    -0.058 A 
HETATM   16  C12 UNL     1       2.130  -0.387  -1.496  1.00  0.00     0.019 A 
BRANCH  15  17
HETATM   17  C10 UNL     1       4.109  -0.280  -3.055  1.00  0.00     0.034 C 
HETATM   18  C11 UNL     1       4.370   1.185  -3.350  1.00  0.00     0.010 C 
ENDBRANCH  15  17
ENDBRANCH   6  11
BRANCH   1  19
HETATM   19  N1  UNL     1      -4.587   1.051   2.532  1.00  0.00    -0.457 N 
HETATM   20  H3  UNL     1      -5.433   1.400   1.976  1.00  0.00     0.133 HD
BRANCH  19  21
HETATM   21  B1  UNL     1      -4.693   1.465   4.016  1.00  0.00     0.245 B 
HETATM   22  H1  UNL     1      -4.151   2.501   4.287  1.00  0.00    -0.006 HD
HETATM   23  H2  UNL     1      -5.665   1.197   4.630  1.00  0.00    -0.006 HD
ENDBRANCH  19  21
ENDBRANCH   1  19
TORSDOF 4
