REMARK  5 active torsions:
REMARK  status: ('A' for Active; 'I' for Inactive)
REMARK    1  A    between atoms: N1_2  and  C2_3 
REMARK    2  A    between atoms: C7_9  and  C8_10 
REMARK    3  A    between atoms: N2_11  and  N3_12 
REMARK    4  A    between atoms: N3_12  and  C10_14 
REMARK    5  A    between atoms: C15_19  and  N4_20 
ROOT
HETATM    1  C8  UNL     1       1.105   0.875  -0.834  1.00  0.00     0.152 C 
HETATM    2  N2  UNL     1       0.095   0.411  -0.194  1.00  0.00    -0.184 NA
ENDROOT
BRANCH   2   3
HETATM    3  N3  UNL     1      -1.203   0.867  -0.338  1.00  0.00    -0.272 N 
HETATM    4  C9  UNL     1      -1.501   1.981  -1.181  1.00  0.00     0.180 C 
BRANCH   3   5
HETATM    5  C10 UNL     1      -2.241   0.204   0.373  1.00  0.00     0.078 A 
HETATM    6  C11 UNL     1      -2.391   0.039   1.727  1.00  0.00     0.033 A 
HETATM    7  C12 UNL     1      -3.490  -0.647   2.205  1.00  0.00     0.002 A 
HETATM    8  C13 UNL     1      -4.431  -1.165   1.339  1.00  0.00     0.002 A 
HETATM    9  C14 UNL     1      -4.301  -1.012  -0.021  1.00  0.00     0.031 A 
HETATM   10  C15 UNL     1      -3.195  -0.321  -0.504  1.00  0.00     0.054 A 
BRANCH  10  11
HETATM   11  N4  UNL     1      -3.169  -0.226  -1.932  1.00  0.00    -0.397 N 
HETATM   12  H14 UNL     1      -3.831   0.208  -2.596  1.00  0.00     0.156 HD
HETATM   13  H15 UNL     1      -2.267  -0.729  -2.158  1.00  0.00     0.156 HD
ENDBRANCH  10  11
ENDBRANCH   3   5
ENDBRANCH   2   3
BRANCH   1  14
HETATM   14  C7  UNL     1       2.477   0.401  -0.690  1.00  0.00     0.013 A 
HETATM   15  C2  UNL     1       2.730  -0.619   0.193  1.00  0.00     0.067 A 
HETATM   16  C3  UNL     1       3.990  -1.147   0.411  1.00  0.00     0.034 A 
HETATM   17  C4  UNL     1       5.070  -0.625  -0.298  1.00  0.00     0.026 A 
HETATM   18  C5  UNL     1       4.801   0.407  -1.188  1.00  0.00     0.035 A 
HETATM   19 CL1  UNL     1       6.151   1.081  -2.093  1.00  0.00    -0.084 Cl
HETATM   20  C6  UNL     1       3.539   0.923  -1.395  1.00  0.00     0.039 A 
BRANCH  15  21
HETATM   21  N1  UNL     1       1.661  -1.191   0.945  1.00  0.00    -0.271 NA
HETATM   22  C1  UNL     1       1.762  -1.256   2.223  1.00  0.00     0.149 C 
ENDBRANCH  15  21
ENDBRANCH   1  14
TORSDOF 5
