REMARK  5 active torsions:
REMARK  status: ('A' for Active; 'I' for Inactive)
REMARK    1  A    between atoms: B1_3  and  C3_4 
REMARK    2  A    between atoms: C3_4  and  C4_5 
REMARK    3  A    between atoms: C5_6  and  C6_7 
REMARK    4  A    between atoms: C6_7  and  N1_8 
REMARK    5  A    between atoms: N1_8  and  C8_10 
ROOT
HETATM    1  C1  UNL     1      -7.273   1.175   0.140  1.00  0.00    -0.005 C 
HETATM    2  C2  UNL     1      -6.302   0.529  -0.158  1.00  0.00    -0.182 C 
HETATM    3  B1  UNL     1      -4.843  -0.464  -0.584  1.00  0.00     0.274 B 
ENDROOT
BRANCH   3   4
HETATM    4  C3  UNL     1      -3.273  -1.291  -0.215  1.00  0.00    -0.071 C 
BRANCH   4   5
HETATM    5  C4  UNL     1      -3.004  -1.043   1.190  1.00  0.00    -0.017 C 
HETATM    6  C5  UNL     1      -1.937  -0.330   1.516  1.00  0.00    -0.008 C 
BRANCH   6   7
HETATM    7  C6  UNL     1      -1.074   0.176   0.420  1.00  0.00     0.151 C 
BRANCH   7   8
HETATM    8  N1  UNL     1       0.279  -0.369   0.588  1.00  0.00    -0.367 N 
HETATM    9  C7  UNL     1       0.316  -1.782   0.366  1.00  0.00     0.151 C 
BRANCH   8  10
HETATM   10  C8  UNL     1       1.363   0.482   0.925  1.00  0.00     0.126 C 
HETATM   11  C9  UNL     1       1.668   0.650  -0.403  1.00  0.00     0.052 C 
HETATM   12  C10 UNL     1       2.398  -0.181  -1.224  1.00  0.00     0.028 C 
HETATM   13  C11 UNL     1       3.736  -0.475  -1.078  1.00  0.00     0.042 C 
HETATM   14 CL1  UNL     1       4.569  -1.993  -1.145  1.00  0.00    -0.084 Cl
HETATM   15  C12 UNL     1       4.745   0.423  -0.836  1.00  0.00     0.090 C 
HETATM   16  C13 UNL     1       4.306   1.045   0.230  1.00  0.00    -0.052 C 
HETATM   17  C14 UNL     1       3.903   1.582   1.170  1.00  0.00     0.040 C 
HETATM   18  N2  UNL     1       3.433   2.170   2.220  1.00  0.00    -0.191 NA
HETATM   19  C15 UNL     1       2.179   1.883   2.641  1.00  0.00     0.246 C 
HETATM   20  N3  UNL     1       1.605   0.729   2.208  1.00  0.00    -0.224 NA
ENDBRANCH   8  10
ENDBRANCH   7   8
ENDBRANCH   6   7
ENDBRANCH   4   5
ENDBRANCH   3   4
TORSDOF 5
