REMARK  7 active torsions:
REMARK  status: ('A' for Active; 'I' for Inactive)
REMARK    1  A    between atoms: C3_3  and  C4_4 
REMARK    2  A    between atoms: C7_9  and  N3_10 
REMARK    3  A    between atoms: N3_10  and  C8_11 
REMARK    4  A    between atoms: N3_10  and  C15_18 
REMARK    5  A    between atoms: C17_20  and  O1_21 
REMARK    6  A    between atoms: O1_21  and  C18_22 
REMARK    7  A    between atoms: C18_22  and  O2_23 
ROOT
HETATM    1  N3  UNL     1       0.284   0.363  -0.100  1.00  0.00    -0.316 N 
ENDROOT
BRANCH   1   2
HETATM    2  C7  UNL     1      -0.914   0.545   0.654  1.00  0.00     0.144 A 
HETATM    3  C4  UNL     1      -2.137   0.900   0.134  1.00  0.00     0.027 A 
HETATM    4  C5  UNL     1      -3.096   1.043   1.109  1.00  0.00     0.133 A 
HETATM    5  N1  UNL     1      -2.951   0.878   2.424  1.00  0.00    -0.253 NA
HETATM    6  C6  UNL     1      -1.730   0.530   2.867  1.00  0.00     0.234 A 
HETATM    7  N2  UNL     1      -0.733   0.369   1.980  1.00  0.00    -0.223 NA
BRANCH   3   8
HETATM    8  C3  UNL     1      -2.284   1.065  -1.286  1.00  0.00     0.012 C 
HETATM    9  C2  UNL     1      -3.317   1.424  -2.024  1.00  0.00    -0.030 C 
HETATM   10  C1  UNL     1      -4.681   1.778  -1.630  1.00  0.00     0.036 C 
ENDBRANCH   3   8
ENDBRANCH   1   2
BRANCH   1  11
HETATM   11  C8  UNL     1       0.662  -1.005  -0.215  1.00  0.00     0.037 A 
HETATM   12  C9  UNL     1       1.775  -1.434  -0.919  1.00  0.00     0.030 A 
HETATM   13  C10 UNL     1       2.165  -2.751  -1.042  1.00  0.00     0.003 A 
HETATM   14  C11 UNL     1       1.427  -3.725  -0.441  1.00  0.00     0.007 A 
HETATM   15  C12 UNL     1       0.309  -3.386   0.277  1.00  0.00    -0.060 A 
HETATM   16  C13 UNL     1      -0.483  -4.452   0.924  1.00  0.00     0.048 C 
HETATM   17  C14 UNL     1      -0.014  -2.065   0.354  1.00  0.00     0.036 A 
ENDBRANCH   1  11
BRANCH   1  18
HETATM   18  C15 UNL     1       1.119   1.366  -0.746  1.00  0.00     0.173 A 
HETATM   19  C16 UNL     1       1.597   2.360   0.293  1.00  0.00     0.040 A 
HETATM   20  C17 UNL     1       2.513   1.503  -0.482  1.00  0.00     0.074 A 
BRANCH  20  21
HETATM   21  O1  UNL     1       3.923   1.471  -0.385  1.00  0.00    -0.328 OA
BRANCH  21  22
HETATM   22  C18 UNL     1       4.674   2.591  -0.859  1.00  0.00     0.341 C 
BRANCH  22  23
HETATM   23  O2  UNL     1       6.047   2.369  -0.676  1.00  0.00    -0.377 OA
HETATM   24  H19 UNL     1       6.168   1.974   0.230  1.00  0.00     0.212 HD
ENDBRANCH  22  23
ENDBRANCH  21  22
ENDBRANCH  20  21
ENDBRANCH   1  18
TORSDOF 7
