REMARK  3 active torsions:
REMARK  status: ('A' for Active; 'I' for Inactive)
REMARK    1  A    between atoms: O1_2  and  C2_3 
REMARK    2  A    between atoms: C7_10  and  N3_11 
REMARK    3  A    between atoms: N3_11  and  C8_12 
ROOT
HETATM    1  C2  UNL     1      -3.297   0.379   0.340  1.00  0.00     0.074 C 
HETATM    2  C3  UNL     1      -1.996   0.140   0.294  1.00  0.00     0.054 C 
HETATM    3  C4  UNL     1      -1.349  -1.154   0.482  1.00  0.00     0.037 A 
HETATM    4  C5  UNL     1      -1.913  -2.412   0.443  1.00  0.00     0.053 A 
HETATM    5  N1  UNL     1      -1.176  -3.515   0.639  1.00  0.00    -0.245 NA
HETATM    6  C6  UNL     1       0.147  -3.407   0.880  1.00  0.00     0.235 A 
HETATM    7  N2  UNL     1       0.717  -2.186   0.922  1.00  0.00    -0.224 NA
HETATM    8  C7  UNL     1       0.021  -1.068   0.733  1.00  0.00     0.141 A 
HETATM    9  C16 UNL     1      -3.299  -2.867   0.209  1.00  0.00     0.088 C 
HETATM   10  C17 UNL     1      -4.332  -1.875   0.513  1.00  0.00    -0.011 C 
HETATM   11  C18 UNL     1      -4.391  -0.555   0.582  1.00  0.00    -0.032 C 
HETATM   12  C19 UNL     1      -5.657   0.140   0.934  1.00  0.00     0.050 C 
ENDROOT
BRANCH   8  13
HETATM   13  N3  UNL     1       0.645   0.211   0.780  1.00  0.00    -0.350 N 
HETATM   14  H6  UNL     1       0.769   0.838   1.609  1.00  0.00     0.166 HD
BRANCH  13  15
HETATM   15  C8  UNL     1       1.291   1.082  -0.171  1.00  0.00     0.097 C 
HETATM   16  C9  UNL     1       2.606   1.100  -0.334  1.00  0.00    -0.039 A 
HETATM   17  C10 UNL     1       3.309   1.957  -1.277  1.00  0.00     0.009 A 
HETATM   18  C15 UNL     1       3.406   0.170   0.519  1.00  0.00     0.067 A 
HETATM   19  C11 UNL     1       4.613   1.965  -1.430  1.00  0.00     0.007 A 
HETATM   20  C12 UNL     1       5.451   1.090  -0.638  1.00  0.00    -0.066 A 
HETATM   21  C13 UNL     1       6.932   1.063  -0.774  1.00  0.00     0.048 C 
HETATM   22  C14 UNL     1       4.858   0.296   0.231  1.00  0.00    -0.015 A 
ENDBRANCH  13  15
ENDBRANCH   8  13
BRANCH   1  23
HETATM   23  O1  UNL     1      -3.545   1.730   0.114  1.00  0.00    -0.355 OA
HETATM   24  C1  UNL     1      -3.784   2.239  -1.188  1.00  0.00     0.210 C 
ENDBRANCH   1  23
TORSDOF 3
