REMARK  4 active torsions:
REMARK  status: ('A' for Active; 'I' for Inactive)
REMARK    1  A    between atoms: C10_12  and  C11_13 
REMARK    2  A    between atoms: C12_14  and  O1_15 
REMARK    3  A    between atoms: C12_14  and  C13_16 
REMARK    4  A    between atoms: C13_16  and  O2_17 
ROOT
HETATM    1  C1  UNL     1       3.007   2.407   1.532  1.00  0.00     0.050 C 
HETATM    2  C2  UNL     1       2.599   1.749   0.309  1.00  0.00    -0.031 A 
HETATM    3  C3  UNL     1       2.560   0.394   0.158  1.00  0.00     0.038 A 
HETATM    4  C4  UNL     1       2.154  -0.070  -1.073  1.00  0.00     0.034 A 
HETATM    5  C5  UNL     1       1.774   0.589  -2.220  1.00  0.00     0.032 A 
HETATM    6  C6  UNL     1       1.757   1.962  -2.238  1.00  0.00     0.034 A 
HETATM    7  C7  UNL     1       2.181   1.870  -0.953  1.00  0.00     0.059 A 
HETATM    8  N1  UNL     1       1.551   3.153  -0.566  1.00  0.00    -0.258 NA
HETATM    9  C8  UNL     1       0.287   3.048  -0.121  1.00  0.00     0.275 C 
HETATM   10  N2  UNL     1      -0.997   2.599   0.290  1.00  0.00    -0.273 NA
HETATM   11  C9  UNL     1      -1.553   1.467   0.236  1.00  0.00     0.098 C 
HETATM   12  C10 UNL     1      -1.783   0.019  -0.028  1.00  0.00     0.075 C 
HETATM   13  C14 UNL     1      -0.461  -0.615  -0.340  1.00  0.00     0.004 C 
HETATM   14  C15 UNL     1       0.677  -1.240  -0.517  1.00  0.00     0.088 C 
HETATM   15  N3  UNL     1       1.917  -1.462  -1.239  1.00  0.00    -0.361 N 
HETATM   16  C16 UNL     1       2.069  -2.846  -1.615  1.00  0.00     0.155 C 
ENDROOT
BRANCH  12  17
HETATM   17  C11 UNL     1      -2.354  -0.645   1.193  1.00  0.00     0.021 C 
HETATM   18  C12 UNL     1      -3.509  -1.272   1.159  1.00  0.00     0.064 C 
BRANCH  18  19
HETATM   19  O1  UNL     1      -4.161  -1.282  -0.064  1.00  0.00    -0.363 OA
HETATM   20  H11 UNL     1      -4.194  -2.120  -0.633  1.00  0.00     0.217 HD
ENDBRANCH  18  19
BRANCH  18  21
HETATM   21  C13 UNL     1      -4.111  -1.937   2.334  1.00  0.00     0.228 C 
BRANCH  21  22
HETATM   22  O2  UNL     1      -3.357  -1.844   3.472  1.00  0.00    -0.394 OA
HETATM   23  H14 UNL     1      -2.395  -1.715   3.312  1.00  0.00     0.209 HD
ENDBRANCH  21  22
ENDBRANCH  18  21
ENDBRANCH  12  17
TORSDOF 4
