REMARK  3 active torsions:
REMARK  status: ('A' for Active; 'I' for Inactive)
REMARK    1  A    between atoms: O1_2  and  C2_3 
REMARK    2  A    between atoms: C6_10  and  N3_11 
REMARK    3  A    between atoms: N3_11  and  C7_12 
ROOT
HETATM    1  C2  UNL     1       4.053   0.312   0.580  1.00  0.00     0.069 C 
HETATM    2  C3  UNL     1       3.800  -0.752  -0.137  1.00  0.00     0.053 C 
HETATM    3  C4  UNL     1       2.739  -1.770  -0.215  1.00  0.00     0.092 C 
HETATM    4  N1  UNL     1       1.727  -1.773   0.538  1.00  0.00    -0.363 NA
HETATM    5  B1  UNL     1       0.580  -2.734   0.571  1.00  0.00     0.339 B 
HETATM    6  C5  UNL     1      -0.262  -2.885   1.890  1.00  0.00     0.063 C 
HETATM    7  N2  UNL     1      -0.913  -1.850   2.276  1.00  0.00    -0.257 NA
HETATM    8  C6  UNL     1      -0.908  -0.609   1.584  1.00  0.00     0.122 C 
HETATM    9  C14 UNL     1      -0.055   0.403   1.831  1.00  0.00     0.027 C 
HETATM   10  C15 UNL     1       1.015   0.366   2.869  1.00  0.00     0.058 C 
HETATM   11  C16 UNL     1       2.280   0.683   2.205  1.00  0.00    -0.020 C 
HETATM   12  C17 UNL     1       3.459   1.095   1.685  1.00  0.00     0.033 C 
HETATM   13  H6  UNL     1       0.088  -3.213  -0.387  1.00  0.00     0.008 HD
ENDROOT
BRANCH   8  14
HETATM   14  N3  UNL     1      -1.854  -0.441   0.566  1.00  0.00    -0.341 N 
HETATM   15  H8  UNL     1      -2.457   0.050   1.306  1.00  0.00     0.167 HD
BRANCH  14  16
HETATM   16  C7  UNL     1      -2.803  -0.271  -0.447  1.00  0.00     0.034 A 
HETATM   17  C8  UNL     1      -3.737  -1.308  -0.547  1.00  0.00     0.029 A 
HETATM   18  C9  UNL     1      -4.709  -1.244  -1.542  1.00  0.00     0.003 A 
HETATM   19  C10 UNL     1      -4.620  -0.120  -2.331  1.00  0.00     0.007 A 
HETATM   20  C11 UNL     1      -3.717   0.925  -2.267  1.00  0.00    -0.060 A 
HETATM   21  C12 UNL     1      -3.818   2.047  -3.246  1.00  0.00     0.048 C 
HETATM   22  C13 UNL     1      -2.773   0.829  -1.275  1.00  0.00     0.036 A 
ENDBRANCH  14  16
ENDBRANCH   8  14
BRANCH   1  23
HETATM   23  O1  UNL     1       5.280   0.884   0.157  1.00  0.00    -0.356 OA
HETATM   24  C1  UNL     1       5.149   2.122  -0.549  1.00  0.00     0.210 C 
ENDBRANCH   1  23
TORSDOF 3
