REMARK  4 active torsions:
REMARK  status: ('A' for Active; 'I' for Inactive)
REMARK    1  A    between atoms: O1_2  and  C2_3 
REMARK    2  A    between atoms: C6_9  and  N3_10 
REMARK    3  A    between atoms: N3_10  and  C8_12 
REMARK    4  A    between atoms: C16_20  and  O2_21 
ROOT
HETATM    1  C2  UNL     1      -3.062   0.436  -1.228  1.00  0.00     0.103 A 
HETATM    2  C3  UNL     1      -3.194  -0.615  -0.339  1.00  0.00     0.072 A 
HETATM    3  C4  UNL     1      -2.074  -1.211   0.252  1.00  0.00     0.075 A 
HETATM    4  N1  UNL     1      -2.147  -2.236   1.123  1.00  0.00    -0.241 NA
HETATM    5  C5  UNL     1      -0.984  -2.731   1.630  1.00  0.00     0.236 A 
HETATM    6  N2  UNL     1       0.225  -2.241   1.299  1.00  0.00    -0.223 NA
HETATM    7  C6  UNL     1       0.306  -1.202   0.418  1.00  0.00     0.144 A 
HETATM    8  C14 UNL     1      -0.855  -0.679  -0.114  1.00  0.00     0.042 A 
HETATM    9  C15 UNL     1      -0.665   0.369  -0.995  1.00  0.00     0.057 A 
HETATM   10  C16 UNL     1      -1.812   0.923  -1.552  1.00  0.00     0.102 A 
ENDROOT
BRANCH   7  11
HETATM   11  N3  UNL     1       1.647  -0.798   0.169  1.00  0.00    -0.335 N 
HETATM   12  C7  UNL     1       2.211  -0.848  -1.189  1.00  0.00     0.158 C 
BRANCH  11  13
HETATM   13  C8  UNL     1       2.456  -0.341   1.233  1.00  0.00     0.035 A 
HETATM   14  C9  UNL     1       2.004  -0.265   2.525  1.00  0.00     0.029 A 
HETATM   15  C10 UNL     1       2.816   0.189   3.567  1.00  0.00     0.002 A 
HETATM   16  C11 UNL     1       4.128   0.583   3.320  1.00  0.00     0.000 A 
HETATM   17  C12 UNL     1       4.584   0.508   2.021  1.00  0.00     0.002 A 
HETATM   18  C13 UNL     1       3.760   0.055   1.010  1.00  0.00     0.029 A 
ENDBRANCH  11  13
ENDBRANCH   7  11
BRANCH  10  19
HETATM   19  O2  UNL     1      -1.748   1.992  -2.461  1.00  0.00    -0.353 OA
HETATM   20  C17 UNL     1      -0.448   2.487  -2.790  1.00  0.00     0.210 C 
ENDBRANCH  10  19
BRANCH   1  21
HETATM   21  O1  UNL     1      -4.185   1.006  -1.796  1.00  0.00    -0.353 OA
HETATM   22  C1  UNL     1      -5.484   0.559  -1.509  1.00  0.00     0.210 C 
ENDBRANCH   1  21
TORSDOF 4
