REMARK  3 active torsions:
REMARK  status: ('A' for Active; 'I' for Inactive)
REMARK    1  A    between atoms: C6_6  and  N1_7 
REMARK    2  A    between atoms: N1_7  and  C8_9 
REMARK    3  A    between atoms: C13_15  and  O1_16 
ROOT
HETATM    1  C8  UNL     1      -0.489   1.183  -0.565  1.00  0.00     0.138 C 
HETATM    2  C9  UNL     1      -1.580   0.522  -0.245  1.00  0.00     0.001 C 
HETATM    3  C10 UNL     1      -1.191  -0.051   1.055  1.00  0.00     0.011 C 
HETATM    4  C11 UNL     1      -1.831  -0.542   2.108  1.00  0.00     0.017 C 
HETATM    5  C12 UNL     1      -3.307  -0.606   2.157  1.00  0.00     0.249 C 
HETATM    6  F1  UNL     1      -3.868   0.620   2.464  1.00  0.00    -0.238 F 
HETATM    7  C13 UNL     1      -3.903  -1.223   0.954  1.00  0.00     0.078 C 
HETATM    8  C14 UNL     1      -3.669  -0.774  -0.266  1.00  0.00     0.023 C 
HETATM    9  C15 UNL     1      -2.881   0.312  -0.868  1.00  0.00     0.088 C 
HETATM   10  C16 UNL     1      -2.710   0.144  -2.329  1.00  0.00     0.104 C 
HETATM   11  N2  UNL     1      -1.938   0.699  -3.202  1.00  0.00    -0.257 NA
HETATM   12  C17 UNL     1      -0.963   1.722  -2.905  1.00  0.00     0.234 C 
HETATM   13  N3  UNL     1      -0.330   1.947  -1.780  1.00  0.00    -0.224 NA
ENDROOT
BRANCH   1  14
HETATM   14  N1  UNL     1       0.692   1.246   0.231  1.00  0.00    -0.336 N 
HETATM   15  C7  UNL     1       0.927   2.068   1.433  1.00  0.00     0.158 C 
BRANCH  14  16
HETATM   16  C6  UNL     1       1.803   0.421  -0.193  1.00  0.00     0.036 A 
HETATM   17  C5  UNL     1       1.723  -0.399  -1.304  1.00  0.00     0.029 A 
HETATM   18  C4  UNL     1       2.763  -1.196  -1.732  1.00  0.00     0.003 A 
HETATM   19  C3  UNL     1       3.948  -1.182  -1.025  1.00  0.00     0.007 A 
HETATM   20  C2  UNL     1       4.075  -0.379   0.090  1.00  0.00    -0.060 A 
HETATM   21  C1  UNL     1       5.366  -0.390   0.826  1.00  0.00     0.048 C 
HETATM   22  C18 UNL     1       3.006   0.402   0.480  1.00  0.00     0.036 A 
ENDBRANCH  14  16
ENDBRANCH   1  14
BRANCH   7  23
HETATM   23  O1  UNL     1      -4.745  -2.320   1.089  1.00  0.00    -0.362 OA
HETATM   24  H13 UNL     1      -5.746  -2.288   0.999  1.00  0.00     0.217 HD
ENDBRANCH   7  23
TORSDOF 3
