REMARK  4 active torsions:
REMARK  status: ('A' for Active; 'I' for Inactive)
REMARK    1  A    between atoms: O1_2  and  C2_3 
REMARK    2  A    between atoms: C5_6  and  N1_7 
REMARK    3  A    between atoms: C8_10  and  C9_11 
REMARK    4  A    between atoms: C9_11  and  C10_12 
ROOT
HETATM    1  C2  UNL     1      -3.204  -0.298  -0.724  1.00  0.00     0.122 C 
HETATM    2  C3  UNL     1      -2.137  -0.568  -1.586  1.00  0.00     0.052 C 
HETATM    3  C4  UNL     1      -0.761  -0.187  -1.074  1.00  0.00    -0.005 C 
HETATM    4  C5  UNL     1      -0.009  -0.859  -0.150  1.00  0.00     0.142 C 
HETATM    5  N2  UNL     1      -0.378  -1.631   1.056  1.00  0.00    -0.223 NA
HETATM    6  C12 UNL     1      -1.317  -1.194   1.937  1.00  0.00     0.238 C 
HETATM    7  N3  UNL     1      -2.534  -0.296   1.726  1.00  0.00    -0.215 NA
HETATM    8  C13 UNL     1      -2.779   0.367   0.587  1.00  0.00     0.204 C 
HETATM    9  O2  UNL     1      -2.596   1.797   0.692  1.00  0.00    -0.302 OA
HETATM   10  C14 UNL     1      -1.524   2.562   0.046  1.00  0.00     0.140 C 
HETATM   11  C15 UNL     1      -0.524   2.260  -0.832  1.00  0.00     0.002 C 
HETATM   12  C16 UNL     1       0.201   0.960  -1.230  1.00  0.00     0.071 C 
ENDROOT
BRANCH   4  13
HETATM   13  N1  UNL     1       1.355  -0.726  -0.497  1.00  0.00    -0.305 N 
HETATM   14  C6  UNL     1       2.105  -0.786  -1.704  1.00  0.00     0.113 C 
HETATM   15  C7  UNL     1       3.211  -0.844  -1.034  1.00  0.00     0.021 C 
HETATM   16  C8  UNL     1       2.675  -0.521   0.091  1.00  0.00     0.054 C 
BRANCH  16  17
HETATM   17  C9  UNL     1       3.056  -0.112   1.435  1.00  0.00     0.050 C 
BRANCH  17  18
HETATM   18  C10 UNL     1       4.320   0.024   1.797  1.00  0.00     0.010 C 
HETATM   19  C11 UNL     1       5.579  -0.173   1.036  1.00  0.00     0.062 C 
HETATM   20 CL1  UNL     1       4.805   0.514   3.406  1.00  0.00    -0.089 Cl
ENDBRANCH  17  18
ENDBRANCH  16  17
ENDBRANCH   4  13
BRANCH   1  21
HETATM   21  O1  UNL     1      -4.374  -0.733  -1.345  1.00  0.00    -0.352 OA
HETATM   22  C1  UNL     1      -5.540  -1.076  -0.652  1.00  0.00     0.210 C 
ENDBRANCH   1  21
TORSDOF 4
