REMARK  2 active torsions:
REMARK  status: ('A' for Active; 'I' for Inactive)
REMARK    1  A    between atoms: O1_2  and  S1_3 
REMARK    2  A    between atoms: S1_3  and  O2_4 
ROOT
HETATM    1  S1  UNL     1      -3.589   1.496   1.021  1.00  0.00     0.019 SA
HETATM    2  C3  UNL     1      -3.495  -0.045   0.535  1.00  0.00     0.056 C 
HETATM    3  C4  UNL     1      -2.295  -0.582   0.522  1.00  0.00     0.055 C 
HETATM    4  C5  UNL     1      -1.141   0.098  -0.049  1.00  0.00     0.070 C 
HETATM    5  N1  UNL     1      -0.281  -0.687  -0.528  1.00  0.00    -0.242 NA
HETATM    6  C6  UNL     1      -0.099  -2.045  -0.675  1.00  0.00     0.229 C 
HETATM    7  N2  UNL     1       0.676  -3.054  -0.491  1.00  0.00    -0.264 NA
HETATM    8  C7  UNL     1       1.959  -2.834   0.138  1.00  0.00     0.268 C 
HETATM    9  N3  UNL     1       3.126  -3.152  -0.551  1.00  0.00    -0.399 N 
HETATM   10  C8  UNL     1       3.591  -4.437  -0.541  1.00  0.00     0.144 C 
HETATM   11  C9  UNL     1       3.769  -2.104  -1.241  1.00  0.00     0.124 C 
HETATM   12  C10 UNL     1       4.399  -1.088  -0.351  1.00  0.00     0.033 C 
HETATM   13  C11 UNL     1       3.659   0.087  -0.360  1.00  0.00     0.120 A 
HETATM   14  C12 UNL     1       2.780   1.217  -0.487  1.00  0.00     0.011 A 
HETATM   15 CL1  UNL     1       2.349   0.256  -1.890  1.00  0.00    -0.176 Cl
HETATM   16  C13 UNL     1       2.186   2.443  -0.360  1.00  0.00    -0.003 C 
HETATM   17  C14 UNL     1       0.965   2.465  -1.195  1.00  0.00     0.056 C 
HETATM   18  C15 UNL     1      -0.265   2.641  -0.314  1.00  0.00    -0.009 C 
HETATM   19  C16 UNL     1      -0.906   1.505  -0.025  1.00  0.00    -0.002 C 
HETATM   20  C17 UNL     1      -2.104   2.073   0.713  1.00  0.00     0.096 C 
ENDROOT
BRANCH   1  21
HETATM   21  O1  UNL     1      -4.003   1.567   2.611  1.00  0.00    -0.315 OA
HETATM   22  C1  UNL     1      -4.766   0.451   2.959  1.00  0.00     0.221 C 
ENDBRANCH   1  21
BRANCH   1  23
HETATM   23  O2  UNL     1      -4.647   2.217  -0.030  1.00  0.00    -0.315 OA
HETATM   24  C2  UNL     1      -4.554   3.576  -0.164  1.00  0.00     0.221 C 
ENDBRANCH   1  23
TORSDOF 2
