REMARK  3 active torsions:
REMARK  status: ('A' for Active; 'I' for Inactive)
REMARK    1  A    between atoms: O1_2  and  C2_3 
REMARK    2  A    between atoms: C10_12  and  N2_13 
REMARK    3  A    between atoms: N2_13  and  C11_14 
ROOT
HETATM    1  C2  UNL     1       6.289  -0.054   0.728  1.00  0.00     0.069 A 
HETATM    2  C3  UNL     1       6.405  -0.750  -0.457  1.00  0.00     0.039 A 
HETATM    3  C4  UNL     1       5.350  -0.919  -1.345  1.00  0.00     0.040 A 
HETATM    4  C5  UNL     1       4.155  -0.338  -0.964  1.00  0.00     0.086 A 
HETATM    5  C6  UNL     1       3.974   0.367   0.200  1.00  0.00    -0.004 A 
HETATM    6  C7  UNL     1       5.057   0.519   1.073  1.00  0.00     0.048 A 
HETATM    7  C8  UNL     1       2.867   1.082   0.863  1.00  0.00     0.161 C 
HETATM    8  N1  UNL     1       1.570   0.880   0.254  1.00  0.00    -0.379 N 
HETATM    9  C9  UNL     1       1.188   0.559  -1.077  1.00  0.00     0.129 A 
HETATM   10  C10 UNL     1      -0.090   1.022  -1.297  1.00  0.00     0.160 A 
HETATM   11  N4  UNL     1      -0.594   0.808  -2.541  1.00  0.00    -0.222 NA
HETATM   12  C22 UNL     1       0.144   0.169  -3.498  1.00  0.00     0.238 A 
HETATM   13  N5  UNL     1       1.405  -0.276  -3.243  1.00  0.00    -0.215 NA
HETATM   14  C23 UNL     1       1.944  -0.086  -2.029  1.00  0.00     0.202 A 
HETATM   15  O2  UNL     1       3.226  -0.602  -1.954  1.00  0.00    -0.289 OA
HETATM   16  H9  UNL     1       0.757   0.995   0.894  1.00  0.00     0.160 HD
ENDROOT
BRANCH  10  17
HETATM   17  N2  UNL     1      -0.924   1.673  -0.336  1.00  0.00    -0.338 N 
HETATM   18  H10 UNL     1      -0.939   2.617   0.075  1.00  0.00     0.167 HD
BRANCH  17  19
HETATM   19  C11 UNL     1      -1.868   0.634  -0.005  1.00  0.00     0.049 A 
HETATM   20  C12 UNL     1      -1.660  -0.617   0.360  1.00  0.00     0.113 A 
HETATM   21  N3  UNL     1      -2.770  -1.460   0.640  1.00  0.00    -0.385 N 
HETATM   22  C13 UNL     1      -4.144  -1.078   0.471  1.00  0.00     0.137 A 
HETATM   23  H12 UNL     1      -2.547  -2.413   0.991  1.00  0.00     0.160 HD
HETATM   24  C14 UNL     1      -4.929  -1.457   1.678  1.00  0.00     0.003 C 
HETATM   25  C20 UNL     1      -4.299   0.328   0.079  1.00  0.00    -0.030 A 
HETATM   26  C15 UNL     1      -6.170  -1.439   2.136  1.00  0.00    -0.002 C 
HETATM   27  C16 UNL     1      -7.415  -0.954   1.502  1.00  0.00    -0.000 C 
HETATM   28  C17 UNL     1      -7.661   0.066   0.663  1.00  0.00     0.000 C 
HETATM   29  C18 UNL     1      -6.831   1.107   0.032  1.00  0.00     0.001 C 
HETATM   30  C19 UNL     1      -5.506   1.111  -0.149  1.00  0.00     0.009 C 
HETATM   31  C21 UNL     1      -3.263   1.104  -0.143  1.00  0.00     0.040 A 
ENDBRANCH  17  19
ENDBRANCH  10  17
BRANCH   1  32
HETATM   32  O1  UNL     1       7.370   0.104   1.608  1.00  0.00    -0.356 OA
HETATM   33  C1  UNL     1       8.620  -0.466   1.273  1.00  0.00     0.210 C 
ENDBRANCH   1  32
TORSDOF 3
