REMARK  5 active torsions:
REMARK  status: ('A' for Active; 'I' for Inactive)
REMARK    1  A    between atoms: C2_2  and  C3_3 
REMARK    2  A    between atoms: N1_6  and  C6_7 
REMARK    3  A    between atoms: C9_11  and  O1_12 
REMARK    4  A    between atoms: O1_12  and  C10_13 
REMARK    5  A    between atoms: C10_13  and  O2_14 
ROOT
HETATM    1  C6  UNL     1       1.219  -0.007   1.514  1.00  0.00     0.048 C 
HETATM    2  B1  UNL     1       0.117  -1.521  -0.168  1.00  0.00     0.236 B 
HETATM    3  C7  UNL     1      -1.300  -1.111   0.271  1.00  0.00    -0.019 C 
HETATM    4  C8  UNL     1      -2.491  -0.769  -0.556  1.00  0.00     0.001 C 
HETATM    5  C9  UNL     1      -3.343   0.282  -0.763  1.00  0.00     0.075 C 
HETATM    6  C11 UNL     1      -3.383   1.640  -0.158  1.00  0.00    -0.002 C 
HETATM    7  C12 UNL     1      -4.248   2.611  -0.410  1.00  0.00    -0.019 C 
HETATM    8  C13 UNL     1      -5.412   2.885  -1.234  1.00  0.00     0.036 C 
HETATM    9  C14 UNL     1      -2.331   1.903   0.808  1.00  0.00     0.340 C 
HETATM   10  N2  UNL     1      -1.486   2.327   1.682  1.00  0.00    -0.399 NA
HETATM   11  C15 UNL     1      -0.407   1.594   2.210  1.00  0.00     0.193 C 
HETATM   12  N3  UNL     1       0.593   0.824   2.428  1.00  0.00    -0.246 NA
ENDROOT
BRANCH   1  13
HETATM   13  N1  UNL     1       2.512  -0.349   1.149  1.00  0.00    -0.352 N 
HETATM   14  C5  UNL     1       2.861  -1.773   1.191  1.00  0.00     0.156 C 
HETATM   15  C4  UNL     1       3.661  -2.182   0.042  1.00  0.00     0.000 C 
HETATM   16  C3  UNL     1       4.766  -1.558  -0.306  1.00  0.00    -0.061 C 
HETATM   17  C18 UNL     1       5.490  -0.390   0.256  1.00  0.00     0.066 C 
HETATM   18  C17 UNL     1       4.597   0.793   0.392  1.00  0.00    -0.005 C 
HETATM   19  C16 UNL     1       3.328   0.751   0.780  1.00  0.00     0.088 C 
BRANCH  16  20
HETATM   20  C2  UNL     1       5.378  -2.158  -1.485  1.00  0.00    -0.019 C 
HETATM   21  C1  UNL     1       6.240  -2.354  -2.469  1.00  0.00     0.031 C 
ENDBRANCH  16  20
ENDBRANCH   1  13
BRANCH   5  22
HETATM   22  O1  UNL     1      -4.396   0.212  -1.668  1.00  0.00    -0.326 OA
BRANCH  22  23
HETATM   23  C10 UNL     1      -5.355  -0.813  -1.499  1.00  0.00     0.341 C 
BRANCH  23  24
HETATM   24  O2  UNL     1      -6.275  -0.663  -2.528  1.00  0.00    -0.377 OA
HETATM   25  H12 UNL     1      -7.047  -0.102  -2.319  1.00  0.00     0.212 HD
ENDBRANCH  23  24
ENDBRANCH  22  23
ENDBRANCH   5  22
TORSDOF 5
