REMARK  4 active torsions:
REMARK  status: ('A' for Active; 'I' for Inactive)
REMARK    1  A    between atoms: O1_2  and  C2_3 
REMARK    2  A    between atoms: C6_9  and  N3_10 
REMARK    3  A    between atoms: N3_10  and  C8_12 
REMARK    4  A    between atoms: C16_20  and  O2_21 
ROOT
HETATM    1  C2  UNL     1      -3.511   0.458  -0.366  1.00  0.00     0.103 A 
HETATM    2  C3  UNL     1      -2.958   1.673  -0.042  1.00  0.00     0.072 A 
HETATM    3  C4  UNL     1      -1.666   1.825   0.458  1.00  0.00     0.075 A 
HETATM    4  N1  UNL     1      -1.149   3.027   0.766  1.00  0.00    -0.241 NA
HETATM    5  C5  UNL     1       0.122   3.124   1.253  1.00  0.00     0.236 A 
HETATM    6  N2  UNL     1       0.896   2.016   1.438  1.00  0.00    -0.223 NA
HETATM    7  C6  UNL     1       0.371   0.825   1.127  1.00  0.00     0.144 A 
HETATM    8  C14 UNL     1      -0.916   0.675   0.630  1.00  0.00     0.042 A 
HETATM    9  C15 UNL     1      -1.421  -0.571   0.322  1.00  0.00     0.057 A 
HETATM   10  C16 UNL     1      -2.708  -0.648  -0.169  1.00  0.00     0.102 A 
ENDROOT
BRANCH   7  11
HETATM   11  N3  UNL     1       1.193  -0.336   1.325  1.00  0.00    -0.336 N 
HETATM   12  C7  UNL     1       1.118  -1.560   2.117  1.00  0.00     0.158 C 
BRANCH  11  13
HETATM   13  C8  UNL     1       2.375  -0.224   0.526  1.00  0.00     0.032 A 
HETATM   14  C9  UNL     1       3.493   0.002   1.208  1.00  0.00     0.007 A 
HETATM   15  C10 UNL     1       4.647   0.098   0.274  1.00  0.00     0.063 A 
HETATM   16  C11 UNL     1       3.974  -0.112  -1.028  1.00  0.00    -0.078 A 
HETATM   17  C12 UNL     1       4.629  -0.126  -2.384  1.00  0.00     0.044 C 
HETATM   18  C13 UNL     1       2.683  -0.296  -0.897  1.00  0.00     0.032 A 
ENDBRANCH  11  13
ENDBRANCH   7  11
BRANCH  10  19
HETATM   19  O2  UNL     1      -3.215  -1.902  -0.479  1.00  0.00    -0.353 OA
HETATM   20  C17 UNL     1      -2.499  -3.090  -0.323  1.00  0.00     0.210 C 
ENDBRANCH  10  19
BRANCH   1  21
HETATM   21  O1  UNL     1      -4.777   0.276  -0.858  1.00  0.00    -0.353 OA
HETATM   22  C1  UNL     1      -5.710   1.280  -1.112  1.00  0.00     0.210 C 
ENDBRANCH   1  21
TORSDOF 4
