REMARK  8 active torsions:
REMARK  status: ('A' for Active; 'I' for Inactive)
REMARK    1  A    between atoms: O1_2  and  C2_3 
REMARK    2  A    between atoms: C7_8  and  O2_9 
REMARK    3  A    between atoms: C9_11  and  B1_12 
REMARK    4  A    between atoms: B1_12  and  N1_13 
REMARK    5  A    between atoms: N1_13  and  C11_15 
REMARK    6  A    between atoms: C12_16  and  C13_17 
REMARK    7  A    between atoms: C14_18  and  C15_19 
REMARK    8  A    between atoms: C16_20  and  N2_21 
ROOT
HETATM    1  C2  UNL     1      -2.539  -1.643  -0.025  1.00  0.00     0.103 A 
HETATM    2  C3  UNL     1      -2.137  -1.674  -1.342  1.00  0.00     0.071 A 
HETATM    3  C4  UNL     1      -1.481  -0.584  -1.872  1.00  0.00     0.063 A 
HETATM    4  C5  UNL     1      -1.194   0.563  -1.156  1.00  0.00    -0.010 A 
HETATM    5  C6  UNL     1      -1.629   0.527   0.166  1.00  0.00     0.052 A 
HETATM    6  C7  UNL     1      -2.300  -0.536   0.783  1.00  0.00     0.102 A 
HETATM    7  C9  UNL     1      -0.569   1.414  -1.921  1.00  0.00    -0.066 A 
HETATM    8  C17 UNL     1      -0.427   0.788  -3.265  1.00  0.00     0.174 A 
HETATM    9  N3  UNL     1      -1.059  -0.488  -3.073  1.00  0.00    -0.286 NA
ENDROOT
BRANCH   7  10
HETATM   10  B1  UNL     1      -0.106   2.824  -1.382  1.00  0.00     0.305 B 
HETATM   11  H9  UNL     1      -0.925   3.446  -0.766  1.00  0.00     0.005 HD
BRANCH  10  12
HETATM   12  N1  UNL     1       1.348   2.818  -0.871  1.00  0.00    -0.442 N 
HETATM   13  C10 UNL     1       1.756   3.869   0.066  1.00  0.00     0.128 C 
BRANCH  12  14
HETATM   14  C11 UNL     1       2.317   1.847  -1.260  1.00  0.00     0.069 C 
HETATM   15  C12 UNL     1       2.491   0.802  -0.472  1.00  0.00     0.015 C 
BRANCH  15  16
HETATM   16  C13 UNL     1       1.696   0.694   0.739  1.00  0.00     0.001 C 
HETATM   17  C14 UNL     1       2.064  -0.433   1.322  1.00  0.00     0.001 C 
BRANCH  17  18
HETATM   18  C15 UNL     1       3.088  -0.973   0.424  1.00  0.00     0.011 C 
HETATM   19  C16 UNL     1       3.598  -2.151   0.857  1.00  0.00     0.054 C 
BRANCH  19  20
HETATM   20  N2  UNL     1       2.902  -2.434   2.097  1.00  0.00    -0.312 NA
HETATM   21  H19 UNL     1       2.592  -2.959   2.941  1.00  0.00     0.123 HD
HETATM   22  H20 UNL     1       2.470  -2.790   3.002  1.00  0.00     0.123 HD
ENDBRANCH  19  20
ENDBRANCH  17  18
ENDBRANCH  15  16
ENDBRANCH  12  14
ENDBRANCH  10  12
ENDBRANCH   7  10
BRANCH   6  23
HETATM   23  O2  UNL     1      -2.675  -0.427   2.120  1.00  0.00    -0.353 OA
HETATM   24  C8  UNL     1      -2.340   0.786   2.769  1.00  0.00     0.210 C 
ENDBRANCH   6  23
BRANCH   1  25
HETATM   25  O1  UNL     1      -3.203  -2.638   0.669  1.00  0.00    -0.353 OA
HETATM   26  C1  UNL     1      -3.558  -3.861   0.069  1.00  0.00     0.210 C 
ENDBRANCH   1  25
TORSDOF 8
