REMARK  4 active torsions:
REMARK  status: ('A' for Active; 'I' for Inactive)
REMARK    1  A    between atoms: O1_2  and  C2_3 
REMARK    2  A    between atoms: C6_9  and  N3_10 
REMARK    3  A    between atoms: N3_10  and  C8_12 
REMARK    4  A    between atoms: C15_20  and  O2_21 
ROOT
HETATM    1  C2  UNL     1       2.933   0.549   0.310  1.00  0.00     0.103 A 
HETATM    2  C3  UNL     1       2.433   1.796  -0.050  1.00  0.00     0.072 A 
HETATM    3  C4  UNL     1       1.100   1.917  -0.389  1.00  0.00     0.075 A 
HETATM    4  N1  UNL     1       0.554   3.093  -0.746  1.00  0.00    -0.241 NA
HETATM    5  C5  UNL     1      -0.766   3.181  -1.076  1.00  0.00     0.236 A 
HETATM    6  N2  UNL     1      -1.501   2.071  -1.034  1.00  0.00    -0.223 NA
HETATM    7  C6  UNL     1      -1.007   0.867  -0.684  1.00  0.00     0.144 A 
HETATM    8  C13 UNL     1       0.320   0.806  -0.358  1.00  0.00     0.042 A 
HETATM    9  C14 UNL     1       0.821  -0.424  -0.001  1.00  0.00     0.057 A 
HETATM   10  C15 UNL     1       2.153  -0.601   0.348  1.00  0.00     0.102 A 
ENDROOT
BRANCH   7  11
HETATM   11  N3  UNL     1      -1.927  -0.220  -0.690  1.00  0.00    -0.335 N 
HETATM   12  C7  UNL     1      -1.832  -1.445  -1.500  1.00  0.00     0.158 C 
BRANCH  11  13
HETATM   13  C8  UNL     1      -3.085  -0.158   0.168  1.00  0.00     0.048 C 
HETATM   14  C9  UNL     1      -3.897   0.840   0.458  1.00  0.00     0.005 C 
HETATM   15  C10 UNL     1      -5.103   0.459   0.846  1.00  0.00     0.038 C 
HETATM   16  C11 UNL     1      -4.867  -0.899   1.367  1.00  0.00     0.037 C 
HETATM   17 CL1  UNL     1      -5.910  -1.919   2.342  1.00  0.00    -0.084 Cl
HETATM   18  C12 UNL     1      -3.644  -1.273   0.955  1.00  0.00     0.054 C 
ENDBRANCH  11  13
ENDBRANCH   7  11
BRANCH  10  19
HETATM   19  O2  UNL     1       2.737  -1.805   0.720  1.00  0.00    -0.353 OA
HETATM   20  C16 UNL     1       1.993  -2.988   0.774  1.00  0.00     0.210 C 
ENDBRANCH  10  19
BRANCH   1  21
HETATM   21  O1  UNL     1       4.257   0.436   0.645  1.00  0.00    -0.353 OA
HETATM   22  C1  UNL     1       5.178   1.489   0.659  1.00  0.00     0.210 C 
ENDBRANCH   1  21
TORSDOF 4
