REMARK  3 active torsions:
REMARK  status: ('A' for Active; 'I' for Inactive)
REMARK    1  A    between atoms: O1_2  and  C2_3 
REMARK    2  A    between atoms: C10_12  and  N2_13 
REMARK    3  A    between atoms: N2_13  and  C11_14 
ROOT
HETATM    1  C2  UNL     1       4.161   0.148  -0.523  1.00  0.00     0.069 A 
HETATM    2  C3  UNL     1       4.273   1.456  -0.941  1.00  0.00     0.039 A 
HETATM    3  C4  UNL     1       3.166   2.215  -1.250  1.00  0.00     0.041 A 
HETATM    4  C5  UNL     1       1.937   1.606  -1.122  1.00  0.00     0.094 A 
HETATM    5  C6  UNL     1       1.676   0.279  -0.707  1.00  0.00    -0.003 A 
HETATM    6  C7  UNL     1       2.894  -0.373  -0.426  1.00  0.00     0.048 A 
HETATM    7  C8  UNL     1       0.597  -0.681  -0.475  1.00  0.00     0.162 C 
HETATM    8  N1  UNL     1      -0.554  -0.278   0.304  1.00  0.00    -0.375 N 
HETATM    9  C9  UNL     1      -1.349   0.936   0.169  1.00  0.00     0.150 A 
HETATM   10  C10 UNL     1      -2.520   1.038   0.783  1.00  0.00     0.162 A 
HETATM   11  N3  UNL     1      -3.231   2.231   0.619  1.00  0.00    -0.221 NA
HETATM   12  C15 UNL     1      -2.954   3.278  -0.037  1.00  0.00     0.246 A 
HETATM   13  N4  UNL     1      -1.780   3.596  -0.852  1.00  0.00    -0.188 NA
HETATM   14  S1  UNL     1      -0.768   2.353  -0.835  1.00  0.00     0.096 SA
HETATM   15  O2  UNL     1       0.858   2.485  -1.467  1.00  0.00    -0.263 OA
HETATM   16  H9  UNL     1      -0.960  -0.872   1.101  1.00  0.00     0.160 HD
ENDROOT
BRANCH  10  17
HETATM   17  N2  UNL     1      -2.879  -0.097   1.533  1.00  0.00    -0.364 N 
HETATM   18  H10 UNL     1      -2.566  -0.463   2.460  1.00  0.00     0.162 HD
BRANCH  17  19
HETATM   19  C11 UNL     1      -3.859  -0.640   0.601  1.00  0.00     0.109 A 
HETATM   20  C12 UNL     1      -3.386  -0.975  -0.713  1.00  0.00    -0.006 A 
HETATM   21  C13 UNL     1      -3.566  -2.248  -0.565  1.00  0.00    -0.026 A 
HETATM   22  C14 UNL     1      -4.074  -2.106   0.792  1.00  0.00     0.056 A 
ENDBRANCH  17  19
ENDBRANCH  10  17
BRANCH   1  23
HETATM   23  O1  UNL     1       5.295  -0.588  -0.220  1.00  0.00    -0.356 OA
HETATM   24  C1  UNL     1       5.203  -1.951   0.217  1.00  0.00     0.210 C 
ENDBRANCH   1  23
TORSDOF 3
