REMARK  5 active torsions:
REMARK  status: ('A' for Active; 'I' for Inactive)
REMARK    1  A    between atoms: O1_2  and  C2_3 
REMARK    2  A    between atoms: C5_6  and  C6_7 
REMARK    3  A    between atoms: C6_7  and  N1_9 
REMARK    4  A    between atoms: N1_9  and  C8_11 
REMARK    5  A    between atoms: C15_18  and  O2_19 
ROOT
HETATM    1  C2  UNL     1      -3.253   0.734   0.225  1.00  0.00     0.098 A 
HETATM    2  C3  UNL     1      -2.545   1.451   1.079  1.00  0.00     0.017 A 
HETATM    3  C4  UNL     1      -1.078   1.664   1.192  1.00  0.00     0.072 A 
HETATM    4  C5  UNL     1      -0.435   0.886   0.106  1.00  0.00    -0.013 A 
HETATM    5  C14 UNL     1      -1.142   0.086  -0.857  1.00  0.00     0.050 A 
HETATM    6  C15 UNL     1      -2.462   0.020  -0.794  1.00  0.00     0.101 A 
ENDROOT
BRANCH   4   7
HETATM    7  C6  UNL     1       0.879   1.093   0.228  1.00  0.00     0.112 C 
HETATM    8 CL1  UNL     1       1.152   2.168   1.598  1.00  0.00    -0.064 Cl
BRANCH   7   9
HETATM    9  N1  UNL     1       1.979   0.605  -0.531  1.00  0.00    -0.341 N 
HETATM   10  C7  UNL     1       2.086   1.032  -1.906  1.00  0.00     0.157 C 
BRANCH   9  11
HETATM   11  C8  UNL     1       2.931  -0.273   0.056  1.00  0.00     0.035 A 
HETATM   12  C9  UNL     1       3.988  -0.737  -0.692  1.00  0.00     0.029 A 
HETATM   13  C10 UNL     1       4.931  -1.596  -0.138  1.00  0.00     0.002 A 
HETATM   14  C11 UNL     1       4.722  -1.938   1.196  1.00  0.00     0.000 A 
HETATM   15  C12 UNL     1       3.664  -1.489   1.986  1.00  0.00     0.002 A 
HETATM   16  C13 UNL     1       2.782  -0.650   1.372  1.00  0.00     0.029 A 
ENDBRANCH   9  11
ENDBRANCH   7   9
ENDBRANCH   4   7
BRANCH   6  17
HETATM   17  O2  UNL     1      -3.065  -0.777  -1.765  1.00  0.00    -0.353 OA
HETATM   18  C16 UNL     1      -2.549  -1.975  -2.259  1.00  0.00     0.210 C 
ENDBRANCH   6  17
BRANCH   1  19
HETATM   19  O1  UNL     1      -4.607   0.551   0.138  1.00  0.00    -0.353 OA
HETATM   20  C1  UNL     1      -5.506   0.971   1.129  1.00  0.00     0.210 C 
ENDBRANCH   1  19
TORSDOF 5
