REMARK  4 active torsions:
REMARK  status: ('A' for Active; 'I' for Inactive)
REMARK    1  A    between atoms: O1_2  and  C2_3 
REMARK    2  A    between atoms: C5_6  and  N1_7 
REMARK    3  A    between atoms: C14_18  and  O2_19 
REMARK    4  A    between atoms: C16_21  and  O3_22 
ROOT
HETATM    1  C2  UNL     1      -2.400  -0.546   0.382  1.00  0.00     0.101 A 
HETATM    2  C3  UNL     1      -1.626  -1.594   0.055  1.00  0.00     0.030 A 
HETATM    3  C4  UNL     1      -0.293  -1.815  -0.573  1.00  0.00     0.115 A 
HETATM    4  C5  UNL     1       0.557  -2.697   0.207  1.00  0.00     0.013 C 
HETATM    5  C6  UNL     1       1.410  -3.397   0.906  1.00  0.00    -0.001 C 
HETATM    6  C7  UNL     1       2.718  -2.700   1.176  1.00  0.00     0.001 C 
HETATM    7  C8  UNL     1       3.536  -1.616   1.051  1.00  0.00     0.033 C 
HETATM    8  C9  UNL     1       3.858  -0.237   0.570  1.00  0.00     0.071 C 
HETATM    9  C10 UNL     1       3.606   0.947  -0.076  1.00  0.00     0.065 C 
HETATM   10  N2  UNL     1       2.674   1.784  -0.865  1.00  0.00    -0.399 N 
HETATM   11  C11 UNL     1       2.792   3.129  -0.277  1.00  0.00     0.144 C 
HETATM   12  C12 UNL     1       2.078   0.914  -1.847  1.00  0.00     0.267 C 
HETATM   13  N3  UNL     1       1.339  -0.194  -1.439  1.00  0.00    -0.271 NA
HETATM   14  C13 UNL     1       0.254  -0.444  -0.889  1.00  0.00     0.080 A 
HETATM   15  C14 UNL     1      -0.577   0.740  -0.541  1.00  0.00     0.129 A 
HETATM   16  C16 UNL     1      -1.766   0.698   0.029  1.00  0.00     0.137 A 
ENDROOT
BRANCH   4  17
HETATM   17  N1  UNL     1      -0.376  -3.819   0.300  1.00  0.00    -0.402 N 
HETATM   18  H6  UNL     1      -0.741  -4.791   0.349  1.00  0.00     0.156 HD
HETATM   19  H7  UNL     1      -1.014  -4.674   0.367  1.00  0.00     0.156 HD
ENDBRANCH   4  17
BRANCH   1  20
HETATM   20  O1  UNL     1      -3.608  -0.875   0.974  1.00  0.00    -0.353 OA
HETATM   21  C1  UNL     1      -3.681  -0.857   2.411  1.00  0.00     0.210 C 
ENDBRANCH   1  20
BRANCH  15  22
HETATM   22  O2  UNL     1      -0.110   2.002  -0.817  1.00  0.00    -0.351 OA
HETATM   23  C15 UNL     1      -0.881   3.017  -1.361  1.00  0.00     0.210 C 
ENDBRANCH  15  22
BRANCH  16  24
HETATM   24  O3  UNL     1      -2.574   1.779   0.370  1.00  0.00    -0.351 OA
HETATM   25  C17 UNL     1      -3.830   1.925  -0.272  1.00  0.00     0.210 C 
ENDBRANCH  16  24
TORSDOF 4
