REMARK  4 active torsions:
REMARK  status: ('A' for Active; 'I' for Inactive)
REMARK    1  A    between atoms: O1_2  and  C2_3 
REMARK    2  A    between atoms: C6_9  and  N3_10 
REMARK    3  A    between atoms: N3_10  and  C8_12 
REMARK    4  A    between atoms: C16_20  and  O2_21 
ROOT
HETATM    1  C2  UNL     1      -3.262   0.479   0.055  1.00  0.00     0.103 A 
HETATM    2  C3  UNL     1      -2.881   0.987   1.280  1.00  0.00     0.072 A 
HETATM    3  C4  UNL     1      -1.598   0.781   1.711  1.00  0.00     0.075 A 
HETATM    4  N1  UNL     1      -1.124   1.231   2.885  1.00  0.00    -0.241 NA
HETATM    5  C5  UNL     1       0.170   0.982   3.240  1.00  0.00     0.236 A 
HETATM    6  N2  UNL     1       1.012   0.286   2.445  1.00  0.00    -0.223 NA
HETATM    7  C6  UNL     1       0.566  -0.176   1.265  1.00  0.00     0.144 A 
HETATM    8  C14 UNL     1      -0.741   0.070   0.896  1.00  0.00     0.042 A 
HETATM    9  C15 UNL     1      -1.145  -0.429  -0.326  1.00  0.00     0.057 A 
HETATM   10  C16 UNL     1      -2.430  -0.240  -0.792  1.00  0.00     0.102 A 
ENDROOT
BRANCH   7  11
HETATM   11  N3  UNL     1       1.531  -0.895   0.504  1.00  0.00    -0.335 N 
HETATM   12  C7  UNL     1       1.396  -2.293   0.081  1.00  0.00     0.158 C 
BRANCH  11  13
HETATM   13  C8  UNL     1       2.737  -0.251   0.099  1.00  0.00     0.035 A 
HETATM   14  C9  UNL     1       3.679  -0.925  -0.634  1.00  0.00     0.029 A 
HETATM   15  C10 UNL     1       4.870  -0.356  -1.058  1.00  0.00     0.002 A 
HETATM   16  C11 UNL     1       5.149   0.954  -0.741  1.00  0.00     0.000 A 
HETATM   17  C12 UNL     1       4.214   1.674   0.004  1.00  0.00     0.002 A 
HETATM   18  C13 UNL     1       3.049   1.054   0.396  1.00  0.00     0.029 A 
ENDBRANCH  11  13
ENDBRANCH   7  11
BRANCH  10  19
HETATM   19  O2  UNL     1      -2.932  -0.701  -2.004  1.00  0.00    -0.353 OA
HETATM   20  C17 UNL     1      -2.037  -1.428  -2.827  1.00  0.00     0.210 C 
ENDBRANCH  10  19
BRANCH   1  21
HETATM   21  O1  UNL     1      -4.572   0.699  -0.367  1.00  0.00    -0.353 OA
HETATM   22  C1  UNL     1      -5.508   1.410   0.397  1.00  0.00     0.210 C 
ENDBRANCH   1  21
TORSDOF 4
