REMARK  6 active torsions:
REMARK  status: ('A' for Active; 'I' for Inactive)
REMARK    1  A    between atoms: O1_2  and  C2_3 
REMARK    2  A    between atoms: C2_3  and  C3_4 
REMARK    3  A    between atoms: C3_4  and  C4_5 
REMARK    4  A    between atoms: C6_9  and  P1_10 
REMARK    5  A    between atoms: P1_10  and  N3_11 
REMARK    6  A    between atoms: N3_11  and  C8_13 
ROOT
HETATM    1  C4  UNL     1      -2.648  -1.056   0.453  1.00  0.00     0.046 A 
HETATM    2  N1  UNL     1      -2.556  -0.867   1.800  1.00  0.00    -0.246 NA
HETATM    3  C5  UNL     1      -1.363  -0.678   2.398  1.00  0.00     0.234 A 
HETATM    4  N2  UNL     1      -0.203  -0.666   1.693  1.00  0.00    -0.239 NA
HETATM    5  C6  UNL     1      -0.253  -0.851   0.349  1.00  0.00     0.087 A 
HETATM    6  C14 UNL     1      -1.470  -1.044  -0.262  1.00  0.00    -0.006 A 
HETATM    7  C15 UNL     1      -1.488  -1.243  -1.712  1.00  0.00     0.053 C 
ENDROOT
BRANCH   5   8
HETATM    8  P1  UNL     1       1.349  -0.814  -0.464  1.00  0.00     0.027 P 
HETATM    9  H9  UNL     1       1.435  -1.437  -1.739  1.00  0.00     0.087 HD
BRANCH   8  10
HETATM   10  N3  UNL     1       2.267   0.683  -0.265  1.00  0.00    -0.357 N 
HETATM   11  C7  UNL     1       1.690   2.005  -0.268  1.00  0.00     0.155 C 
BRANCH  10  12
HETATM   12  C8  UNL     1       3.676   0.581  -0.087  1.00  0.00     0.035 A 
HETATM   13  C9  UNL     1       4.517   1.661   0.081  1.00  0.00     0.029 A 
HETATM   14  C10 UNL     1       5.881   1.554   0.254  1.00  0.00     0.004 A 
HETATM   15  C11 UNL     1       6.473   0.294   0.263  1.00  0.00     0.024 A 
HETATM   16  C12 UNL     1       5.692  -0.812   0.101  1.00  0.00     0.036 A 
HETATM   17 CL1  UNL     1       6.318  -2.451   0.096  1.00  0.00    -0.084 Cl
HETATM   18  C13 UNL     1       4.335  -0.652  -0.067  1.00  0.00     0.053 A 
ENDBRANCH  10  12
ENDBRANCH   8  10
ENDBRANCH   5   8
BRANCH   1  19
HETATM   19  C3  UNL     1      -3.975  -1.259  -0.170  1.00  0.00     0.086 C 
BRANCH  19  20
HETATM   20  C2  UNL     1      -4.490  -0.058  -0.883  1.00  0.00     0.173 C 
BRANCH  20  21
HETATM   21  O1  UNL     1      -4.656   1.075  -0.125  1.00  0.00    -0.396 OA
HETATM   22  C1  UNL     1      -5.551   0.933   0.923  1.00  0.00     0.201 C 
ENDBRANCH  20  21
ENDBRANCH  19  20
ENDBRANCH   1  19
TORSDOF 6
