REMARK  4 active torsions:
REMARK  status: ('A' for Active; 'I' for Inactive)
REMARK    1  A    between atoms: O1_2  and  C2_3 
REMARK    2  A    between atoms: C6_7  and  O2_8 
REMARK    3  A    between atoms: C10_15  and  N3_16 
REMARK    4  A    between atoms: N3_16  and  C12_18 
ROOT
HETATM    1  C2  UNL     1      -2.265   0.889   0.855  1.00  0.00     0.116 A 
HETATM    2  C3  UNL     1      -1.320   0.743  -0.027  1.00  0.00     0.027 A 
HETATM    3  C4  UNL     1      -0.936  -0.505  -0.243  1.00  0.00     0.037 A 
HETATM    4  C5  UNL     1      -1.899  -1.271   0.562  1.00  0.00     0.124 A 
HETATM    5  C6  UNL     1      -2.710  -0.444   1.232  1.00  0.00     0.137 A 
HETATM    6  O3  UNL     1      -2.146  -2.619   0.772  1.00  0.00    -0.300 OA
HETATM    7  C8  UNL     1      -1.601  -3.760   0.200  1.00  0.00     0.260 C 
HETATM    8  N1  UNL     1      -0.443  -4.035  -0.351  1.00  0.00    -0.230 NA
HETATM    9  C9  UNL     1       0.731  -3.225  -0.571  1.00  0.00     0.231 C 
HETATM   10  N2  UNL     1       0.825  -1.995  -0.860  1.00  0.00    -0.252 NA
HETATM   11  C10 UNL     1       0.229  -0.745  -1.135  1.00  0.00     0.247 C 
ENDROOT
BRANCH  11  12
HETATM   12  N3  UNL     1       1.101   0.397  -1.151  1.00  0.00    -0.358 N 
HETATM   13  C11 UNL     1       0.453   1.596  -1.715  1.00  0.00     0.152 C 
BRANCH  12  14
HETATM   14  C12 UNL     1       2.444   0.626  -0.733  1.00  0.00     0.031 A 
HETATM   15  C13 UNL     1       3.078   1.848  -0.859  1.00  0.00     0.029 A 
HETATM   16  C14 UNL     1       4.368   2.038  -0.445  1.00  0.00     0.002 A 
HETATM   17  C15 UNL     1       5.121   1.032   0.124  1.00  0.00     0.000 A 
HETATM   18  C16 UNL     1       4.518  -0.220   0.271  1.00  0.00     0.002 A 
HETATM   19  C17 UNL     1       3.221  -0.356  -0.162  1.00  0.00     0.029 A 
ENDBRANCH  12  14
ENDBRANCH  11  12
BRANCH   1  20
HETATM   20  O1  UNL     1      -2.815   2.049   1.401  1.00  0.00    -0.352 OA
HETATM   21  C1  UNL     1      -1.943   3.122   1.680  1.00  0.00     0.210 C 
ENDBRANCH   1  20
BRANCH   5  22
HETATM   22  O2  UNL     1      -3.739  -0.871   2.091  1.00  0.00    -0.351 OA
HETATM   23  C7  UNL     1      -5.004  -1.279   1.585  1.00  0.00     0.210 C 
ENDBRANCH   5  22
TORSDOF 4
