REMARK  3 active torsions:
REMARK  status: ('A' for Active; 'I' for Inactive)
REMARK    1  A    between atoms: O1_2  and  C2_3 
REMARK    2  A    between atoms: C6_9  and  N3_10 
REMARK    3  A    between atoms: N3_10  and  C8_12 
ROOT
HETATM    1  C2  UNL     1      -2.989   1.077  -0.436  1.00  0.00     0.049 A 
HETATM    2  C3  UNL     1      -2.450   1.528   0.760  1.00  0.00     0.065 A 
HETATM    3  C4  UNL     1      -1.101   0.885   1.119  1.00  0.00     0.083 A 
HETATM    4  N1  UNL     1      -0.932   1.643   2.298  1.00  0.00    -0.240 NA
HETATM    5  C5  UNL     1       0.250   1.282   2.894  1.00  0.00     0.236 A 
HETATM    6  N2  UNL     1       1.132   0.361   2.463  1.00  0.00    -0.223 NA
HETATM    7  C6  UNL     1       0.983  -0.363   1.348  1.00  0.00     0.152 A 
HETATM    8  C14 UNL     1      -0.084  -0.139   0.669  1.00  0.00     0.092 A 
HETATM    9  C15 UNL     1      -0.864  -0.347  -0.347  1.00  0.00    -0.061 A 
HETATM   10  C16 UNL     1      -1.490  -0.495  -1.137  1.00  0.00    -0.101 A 
HETATM   11  C17 UNL     1      -2.354  -0.673  -2.193  1.00  0.00     0.100 A 
HETATM   12  C18 UNL     1      -3.419   0.489  -1.729  1.00  0.00     0.077 A 
ENDROOT
BRANCH   7  13
HETATM   13  N3  UNL     1       1.506  -1.361   0.500  1.00  0.00    -0.335 N 
HETATM   14  C7  UNL     1       0.840  -2.638   0.363  1.00  0.00     0.158 C 
BRANCH  13  15
HETATM   15  C8  UNL     1       2.719  -1.149  -0.253  1.00  0.00     0.035 A 
HETATM   16  C9  UNL     1       3.166  -2.191  -1.030  1.00  0.00     0.029 A 
HETATM   17  C10 UNL     1       4.318  -2.142  -1.820  1.00  0.00     0.002 A 
HETATM   18  C11 UNL     1       4.998  -0.930  -1.760  1.00  0.00     0.000 A 
HETATM   19  C12 UNL     1       4.596   0.147  -0.999  1.00  0.00     0.002 A 
HETATM   20  C13 UNL     1       3.447   0.012  -0.251  1.00  0.00     0.029 A 
ENDBRANCH  13  15
ENDBRANCH   7  13
BRANCH   1  21
HETATM   21  O1  UNL     1      -4.152   1.849  -0.422  1.00  0.00    -0.360 OA
HETATM   22  C1  UNL     1      -4.158   3.231  -0.575  1.00  0.00     0.209 C 
ENDBRANCH   1  21
TORSDOF 3
