REMARK  7 active torsions:
REMARK  status: ('A' for Active; 'I' for Inactive)
REMARK    1  A    between atoms: C3_3  and  C4_4 
REMARK    2  A    between atoms: C5_5  and  C6_6 
REMARK    3  A    between atoms: C6_6  and  N1_7 
REMARK    4  A    between atoms: N1_7  and  C8_9 
REMARK    5  A    between atoms: C10_12  and  C11_13 
REMARK    6  A    between atoms: C11_13  and  O3_17 
REMARK    7  A    between atoms: C12_14  and  O2_15 
ROOT
HETATM    1  C8  UNL     1       0.193  -1.417  -0.202  1.00  0.00     0.147 C 
HETATM    2  C9  UNL     1      -0.470  -0.324  -0.551  1.00  0.00     0.192 C 
HETATM    3  O1  UNL     1      -1.777   0.137  -0.291  1.00  0.00    -0.316 OA
HETATM    4  C10 UNL     1      -2.739  -0.156   0.694  1.00  0.00     0.106 C 
HETATM    5  C15 UNL     1      -2.767  -0.924   1.767  1.00  0.00     0.018 C 
HETATM    6  C16 UNL     1      -1.879  -1.846   2.498  1.00  0.00     0.077 C 
HETATM    7  C17 UNL     1      -1.005  -2.663   1.618  1.00  0.00     0.096 C 
HETATM    8  N2  UNL     1      -0.209  -2.552   0.595  1.00  0.00    -0.245 NA
ENDROOT
BRANCH   1   9
HETATM    9  N1  UNL     1       1.474  -1.279  -0.785  1.00  0.00    -0.365 N 
HETATM   10  C7  UNL     1       2.066  -2.224  -1.678  1.00  0.00     0.151 C 
BRANCH   9  11
HETATM   11  C6  UNL     1       2.230  -0.082  -0.445  1.00  0.00     0.151 C 
BRANCH  11  12
HETATM   12  C5  UNL     1       3.419  -0.354   0.366  1.00  0.00    -0.007 C 
HETATM   13  C4  UNL     1       4.688  -0.102   0.101  1.00  0.00    -0.003 C 
BRANCH  13  14
HETATM   14  C3  UNL     1       5.168   0.531  -1.117  1.00  0.00    -0.005 C 
HETATM   15  C2  UNL     1       6.445   0.773  -1.360  1.00  0.00    -0.031 C 
HETATM   16  C1  UNL     1       7.524   0.419  -0.406  1.00  0.00     0.036 C 
ENDBRANCH  13  14
ENDBRANCH  11  12
ENDBRANCH   9  11
ENDBRANCH   1   9
BRANCH   4  17
HETATM   17  C11 UNL     1      -3.992   0.530   0.510  1.00  0.00     0.123 C 
HETATM   18  C12 UNL     1      -4.115   1.336  -0.525  1.00  0.00     0.173 C 
BRANCH  18  19
HETATM   19  O2  UNL     1      -5.115   2.148  -1.036  1.00  0.00    -0.365 OA
HETATM   20  C13 UNL     1      -4.927   3.570  -1.009  1.00  0.00     0.209 C 
ENDBRANCH  18  19
BRANCH  17  21
HETATM   21  O3  UNL     1      -5.044   0.376   1.358  1.00  0.00    -0.351 OA
HETATM   22  C14 UNL     1      -6.362   0.772   1.128  1.00  0.00     0.210 C 
ENDBRANCH  17  21
ENDBRANCH   4  17
TORSDOF 7
