REMARK  9 active torsions:
REMARK  status: ('A' for Active; 'I' for Inactive)
REMARK    1  A    between atoms: N1_2  and  C2_3 
REMARK    2  A    between atoms: C3_4  and  N2_5 
REMARK    3  A    between atoms: N2_5  and  C4_6 
REMARK    4  A    between atoms: C4_6  and  C5_7 
REMARK    5  A    between atoms: C6_8  and  C7_9 
REMARK    6  A    between atoms: C7_9  and  C8_10 
REMARK    7  A    between atoms: C17_22  and  O1_23 
REMARK    8  A    between atoms: O1_23  and  C18_24 
REMARK    9  A    between atoms: C21_27  and  O2_28 
ROOT
HETATM    1  C2  UNL     1       1.491   1.396   0.472  1.00  0.00     0.128 A 
HETATM    2  C3  UNL     1       0.111   1.223   0.325  1.00  0.00     0.156 A 
HETATM    3  N3  UNL     1      -0.342   0.190  -0.416  1.00  0.00    -0.222 NA
HETATM    4  C16 UNL     1       0.554  -0.629  -0.982  1.00  0.00     0.238 A 
HETATM    5  N4  UNL     1       1.872  -0.475  -0.850  1.00  0.00    -0.215 NA
HETATM    6  C17 UNL     1       2.406   0.526  -0.130  1.00  0.00     0.202 A 
ENDROOT
BRANCH   2   7
HETATM    7  N2  UNL     1      -0.847   2.086   0.921  1.00  0.00    -0.369 N 
HETATM    8  H5  UNL     1      -0.504   2.897   1.502  1.00  0.00     0.161 HD
BRANCH   7   9
HETATM    9  C4  UNL     1      -2.287   1.867   0.740  1.00  0.00     0.156 C 
BRANCH   9  10
HETATM   10  C5  UNL     1      -2.727   0.554   1.246  1.00  0.00    -0.052 A 
HETATM   11  C6  UNL     1      -3.313  -0.518   0.689  1.00  0.00    -0.051 A 
HETATM   12  C13 UNL     1      -3.468  -1.482   1.769  1.00  0.00     0.004 A 
HETATM   13  C14 UNL     1      -2.999  -1.010   2.912  1.00  0.00    -0.022 A 
HETATM   14  C15 UNL     1      -2.467   0.356   2.713  1.00  0.00     0.063 A 
BRANCH  11  15
HETATM   15  C7  UNL     1      -3.702  -0.663  -0.717  1.00  0.00     0.060 C 
BRANCH  15  16
HETATM   16  C8  UNL     1      -5.133  -0.878  -0.962  1.00  0.00    -0.119 A 
HETATM   17  C9  UNL     1      -5.992  -0.919   0.044  1.00  0.00    -0.010 A 
HETATM   18  C10 UNL     1      -7.403  -1.131  -0.193  1.00  0.00    -0.006 A 
HETATM   19  C11 UNL     1      -7.816  -1.281  -1.431  1.00  0.00    -0.036 A 
HETATM   20  C12 UNL     1      -7.107  -1.283  -2.734  1.00  0.00    -0.021 A 
HETATM   21  B1  UNL     1      -5.567  -1.050  -2.447  1.00  0.00     0.193 B 
HETATM   22  H15 UNL     1      -4.758  -1.032  -3.315  1.00  0.00    -0.021 HD
ENDBRANCH  15  16
ENDBRANCH  11  15
ENDBRANCH   9  10
ENDBRANCH   7   9
ENDBRANCH   2   7
BRANCH   1  23
HETATM   23  N1  UNL     1       1.829   2.537   1.287  1.00  0.00    -0.388 N 
HETATM   24  C1  UNL     1       1.982   3.762   0.522  1.00  0.00     0.146 C 
HETATM   25  H4  UNL     1       1.890   2.216   2.282  1.00  0.00     0.159 HD
ENDBRANCH   1  23
BRANCH   6  26
HETATM   26  O1  UNL     1       3.686   0.904   0.161  1.00  0.00    -0.290 OA
BRANCH  26  27
HETATM   27  C18 UNL     1       4.803   0.245  -0.287  1.00  0.00     0.078 A 
HETATM   28  C19 UNL     1       5.954   0.883   0.185  1.00  0.00     0.040 A 
HETATM   29  C20 UNL     1       7.228   0.399  -0.136  1.00  0.00     0.039 A 
HETATM   30  C21 UNL     1       7.382  -0.721  -0.928  1.00  0.00     0.068 A 
HETATM   31  C23 UNL     1       6.228  -1.329  -1.380  1.00  0.00     0.039 A 
HETATM   32  C24 UNL     1       4.967  -0.862  -1.071  1.00  0.00     0.040 A 
BRANCH  30  33
HETATM   33  O2  UNL     1       8.640  -1.206  -1.250  1.00  0.00    -0.356 OA
HETATM   34  C22 UNL     1       8.800  -2.343  -2.055  1.00  0.00     0.210 C 
ENDBRANCH  30  33
ENDBRANCH  26  27
ENDBRANCH   6  26
TORSDOF 9
