REMARK  4 active torsions:
REMARK  status: ('A' for Active; 'I' for Inactive)
REMARK    1  A    between atoms: O1_2  and  C2_3 
REMARK    2  A    between atoms: C7_10  and  C8_11 
REMARK    3  A    between atoms: C8_11  and  N3_12 
REMARK    4  A    between atoms: C15_19  and  O2_20 
ROOT
HETATM    1  C2  UNL     1      -1.849   1.897  -0.388  1.00  0.00     0.066 A 
HETATM    2  C3  UNL     1      -1.370   0.577  -0.496  1.00  0.00     0.001 A 
HETATM    3  C4  UNL     1      -0.797  -0.746  -0.543  1.00  0.00     0.025 A 
HETATM    4  C5  UNL     1      -1.457  -1.935  -0.877  1.00  0.00     0.055 A 
HETATM    5  N1  UNL     1      -0.720  -3.077  -0.855  1.00  0.00    -0.245 NA
HETATM    6  C6  UNL     1       0.594  -3.001  -0.518  1.00  0.00     0.233 A 
HETATM    7  N2  UNL     1       1.235  -1.850  -0.194  1.00  0.00    -0.244 NA
HETATM    8  C7  UNL     1       0.537  -0.676  -0.200  1.00  0.00     0.066 A 
HETATM    9  C14 UNL     1      -2.857  -2.215  -1.266  1.00  0.00     0.124 C 
HETATM   10  C15 UNL     1      -3.737  -1.163  -0.700  1.00  0.00     0.046 C 
HETATM   11  C16 UNL     1      -3.725   0.150  -0.624  1.00  0.00     0.022 C 
HETATM   12  C17 UNL     1      -2.629   0.997  -1.193  1.00  0.00     0.104 A 
ENDROOT
BRANCH   8  13
HETATM   13  C8  UNL     1       1.154   0.636   0.140  1.00  0.00     0.182 C 
BRANCH  13  14
HETATM   14  N3  UNL     1       2.557   0.361   0.450  1.00  0.00    -0.381 N 
HETATM   15  C9  UNL     1       2.728  -0.531   1.536  1.00  0.00     0.086 A 
HETATM   16  C10 UNL     1       3.947  -0.863   1.920  1.00  0.00     0.017 A 
HETATM   17  C11 UNL     1       5.143  -0.347   1.269  1.00  0.00    -0.001 A 
HETATM   18  C12 UNL     1       4.919   0.481   0.261  1.00  0.00    -0.007 A 
HETATM   19  C13 UNL     1       3.631   0.962  -0.303  1.00  0.00     0.149 A 
ENDBRANCH  13  14
ENDBRANCH   8  13
BRANCH   1  20
HETATM   20  O1  UNL     1      -1.481   3.092   0.240  1.00  0.00    -0.359 OA
HETATM   21  C1  UNL     1      -2.436   3.864   0.964  1.00  0.00     0.209 C 
ENDBRANCH   1  20
BRANCH  10  22
HETATM   22  O2  UNL     1      -4.892  -1.664  -0.075  1.00  0.00    -0.365 OA
HETATM   23  H15 UNL     1      -5.302  -2.485  -0.466  1.00  0.00     0.217 HD
ENDBRANCH  10  22
TORSDOF 4
