REMARK  6 active torsions:
REMARK  status: ('A' for Active; 'I' for Inactive)
REMARK    1  A    between atoms: O1_2  and  C2_3 
REMARK    2  A    between atoms: C2_3  and  C8_11 
REMARK    3  A    between atoms: C3_4  and  C4_5 
REMARK    4  A    between atoms: C8_11  and  O2_21 
REMARK    5  A    between atoms: C9_12  and  N3_13 
REMARK    6  A    between atoms: N3_13  and  C11_15 
ROOT
HETATM    1  C8  UNL     1       0.528  -0.417  -0.149  1.00  0.00     0.117 C 
HETATM    2  C9  UNL     1      -0.712  -0.698  -0.499  1.00  0.00     0.130 C 
ENDROOT
BRANCH   1   3
HETATM    3  C2  UNL     1       1.564  -0.553  -1.166  1.00  0.00     0.103 C 
HETATM    4  C3  UNL     1       2.826  -0.297  -0.940  1.00  0.00     0.054 C 
BRANCH   3   5
HETATM    5  O1  UNL     1       1.175  -0.988  -2.447  1.00  0.00    -0.353 OA
HETATM    6  C1  UNL     1       1.766  -2.229  -2.860  1.00  0.00     0.210 C 
ENDBRANCH   3   5
BRANCH   4   7
HETATM    7  C4  UNL     1       3.760   0.150   0.091  1.00  0.00     0.002 A 
HETATM    8  C5  UNL     1       4.965  -0.463   0.414  1.00  0.00     0.131 A 
HETATM    9  N1  UNL     1       5.710   0.095   1.379  1.00  0.00    -0.253 NA
HETATM   10  C6  UNL     1       5.319   1.218   2.027  1.00  0.00     0.232 A 
HETATM   11  N2  UNL     1       4.148   1.836   1.731  1.00  0.00    -0.253 NA
HETATM   12  C7  UNL     1       3.361   1.298   0.755  1.00  0.00     0.131 A 
ENDBRANCH   4   7
ENDBRANCH   1   3
BRANCH   1  13
HETATM   13  O2  UNL     1       0.739  -0.016   1.155  1.00  0.00    -0.352 OA
HETATM   14  C17 UNL     1      -0.258  -0.149   2.143  1.00  0.00     0.210 C 
ENDBRANCH   1  13
BRANCH   2  15
HETATM   15  N3  UNL     1      -2.078  -0.805  -0.171  1.00  0.00    -0.358 N 
HETATM   16  C10 UNL     1      -2.706  -2.058   0.262  1.00  0.00     0.156 C 
BRANCH  15  17
HETATM   17  C11 UNL     1      -2.911   0.348  -0.258  1.00  0.00     0.033 A 
HETATM   18  C12 UNL     1      -4.252   0.347   0.036  1.00  0.00     0.029 A 
HETATM   19  C13 UNL     1      -5.065   1.458  -0.046  1.00  0.00     0.002 A 
HETATM   20  C14 UNL     1      -4.463   2.633  -0.453  1.00  0.00     0.000 A 
HETATM   21  C15 UNL     1      -3.118   2.726  -0.769  1.00  0.00     0.002 A 
HETATM   22  C16 UNL     1      -2.372   1.574  -0.663  1.00  0.00     0.029 A 
ENDBRANCH  15  17
ENDBRANCH   2  15
TORSDOF 6
