REMARK  6 active torsions:
REMARK  status: ('A' for Active; 'I' for Inactive)
REMARK    1  A    between atoms: O1_2  and  C2_3 
REMARK    2  A    between atoms: C5_6  and  C6_7 
REMARK    3  A    between atoms: C6_7  and  N1_8 
REMARK    4  A    between atoms: N1_8  and  C8_10 
REMARK    5  A    between atoms: C16_20  and  O2_21 
REMARK    6  A    between atoms: C18_23  and  O3_24 
ROOT
HETATM    1  C2  UNL     1      -1.907   1.998   0.300  1.00  0.00     0.105 A 
HETATM    2  C3  UNL     1      -1.408   0.725   0.314  1.00  0.00     0.055 A 
HETATM    3  C4  UNL     1      -0.688   0.281  -0.790  1.00  0.00     0.025 A 
HETATM    4  C5  UNL     1      -0.265  -1.019  -0.663  1.00  0.00     0.066 A 
HETATM    5  N2  UNL     1       0.412  -1.512  -1.714  1.00  0.00    -0.244 NA
HETATM    6  C14 UNL     1       0.686  -0.829  -2.836  1.00  0.00     0.234 A 
HETATM    7  N3  UNL     1       0.265   0.443  -2.938  1.00  0.00    -0.238 NA
HETATM    8  C15 UNL     1      -0.408   1.010  -1.954  1.00  0.00     0.106 A 
HETATM    9  C16 UNL     1      -0.956   2.303  -1.879  1.00  0.00     0.134 A 
HETATM   10  C18 UNL     1      -1.667   2.773  -0.815  1.00  0.00     0.137 A 
ENDROOT
BRANCH   4  11
HETATM   11  C6  UNL     1      -0.314  -1.995   0.452  1.00  0.00     0.182 C 
BRANCH  11  12
HETATM   12  N1  UNL     1       0.878  -1.814   1.258  1.00  0.00    -0.380 N 
HETATM   13  C7  UNL     1       1.122  -0.509   1.791  1.00  0.00     0.150 C 
BRANCH  12  14
HETATM   14  C8  UNL     1       1.757  -2.896   1.491  1.00  0.00     0.030 A 
HETATM   15  C9  UNL     1       1.602  -4.196   0.991  1.00  0.00     0.029 A 
HETATM   16  C10 UNL     1       2.442  -5.267   1.196  1.00  0.00     0.002 A 
HETATM   17  C11 UNL     1       3.553  -5.051   1.972  1.00  0.00     0.000 A 
HETATM   18  C12 UNL     1       3.825  -3.827   2.523  1.00  0.00     0.002 A 
HETATM   19  C13 UNL     1       2.910  -2.836   2.245  1.00  0.00     0.029 A 
ENDBRANCH  12  14
ENDBRANCH  11  12
ENDBRANCH   4  11
BRANCH   1  20
HETATM   20  O1  UNL     1      -2.632   2.622   1.268  1.00  0.00    -0.353 OA
HETATM   21  C1  UNL     1      -2.981   1.988   2.509  1.00  0.00     0.210 C 
ENDBRANCH   1  20
BRANCH   9  22
HETATM   22  O2  UNL     1      -0.661   3.010  -3.049  1.00  0.00    -0.351 OA
HETATM   23  C17 UNL     1       0.481   3.788  -3.243  1.00  0.00     0.210 C 
ENDBRANCH   9  22
BRANCH  10  24
HETATM   24  O3  UNL     1      -2.085   4.102  -1.042  1.00  0.00    -0.351 OA
HETATM   25  C19 UNL     1      -3.315   4.370  -1.690  1.00  0.00     0.210 C 
ENDBRANCH  10  24
TORSDOF 6
