REMARK  5 active torsions:
REMARK  status: ('A' for Active; 'I' for Inactive)
REMARK    1  A    between atoms: N1_2  and  C2_3 
REMARK    2  A    between atoms: C3_4  and  O1_5 
REMARK    3  A    between atoms: C5_7  and  O2_8 
REMARK    4  A    between atoms: C9_12  and  N2_13 
REMARK    5  A    between atoms: N2_13  and  C11_15 
ROOT
HETATM    1  C2  UNL     1      -2.561  -0.753   0.264  1.00  0.00     0.094 A 
HETATM    2  C3  UNL     1      -2.741   0.545  -0.218  1.00  0.00     0.130 A 
HETATM    3  C5  UNL     1      -1.645   1.315  -0.586  1.00  0.00     0.104 A 
HETATM    4  C7  UNL     1      -0.370   0.781  -0.470  1.00  0.00     0.057 A 
HETATM    5  C8  UNL     1      -0.243  -0.497   0.008  1.00  0.00     0.044 A 
HETATM    6  C9  UNL     1       1.059  -0.968   0.098  1.00  0.00     0.144 A 
HETATM    7  N3  UNL     1       1.190  -2.241   0.574  1.00  0.00    -0.223 NA
HETATM    8  C17 UNL     1       0.138  -3.001   0.935  1.00  0.00     0.236 A 
HETATM    9  N4  UNL     1      -1.128  -2.552   0.851  1.00  0.00    -0.239 NA
HETATM   10  C18 UNL     1      -1.288  -1.312   0.390  1.00  0.00     0.101 A 
ENDROOT
BRANCH   6  11
HETATM   11  N2  UNL     1       2.254  -0.284  -0.244  1.00  0.00    -0.335 N 
HETATM   12  C10 UNL     1       2.556   0.227  -1.592  1.00  0.00     0.158 C 
BRANCH  11  13
HETATM   13  C11 UNL     1       3.217  -0.080   0.772  1.00  0.00     0.035 A 
HETATM   14  C12 UNL     1       3.079  -0.497   2.071  1.00  0.00     0.029 A 
HETATM   15  C13 UNL     1       4.004  -0.307   3.071  1.00  0.00     0.002 A 
HETATM   16  C14 UNL     1       5.169   0.351   2.771  1.00  0.00     0.000 A 
HETATM   17  C15 UNL     1       5.383   0.803   1.480  1.00  0.00     0.002 A 
HETATM   18  C16 UNL     1       4.416   0.582   0.521  1.00  0.00     0.029 A 
ENDBRANCH  11  13
ENDBRANCH   6  11
BRANCH   3  19
HETATM   19  O2  UNL     1      -1.910   2.590  -1.053  1.00  0.00    -0.353 OA
HETATM   20  C6  UNL     1      -0.798   3.387  -1.433  1.00  0.00     0.210 C 
ENDBRANCH   3  19
BRANCH   1  21
HETATM   21  N1  UNL     1      -3.724  -1.485   0.622  1.00  0.00    -0.390 N 
HETATM   22  C1  UNL     1      -4.432  -2.315  -0.321  1.00  0.00     0.146 C 
HETATM   23  H4  UNL     1      -4.162  -1.490   1.574  1.00  0.00     0.159 HD
ENDBRANCH   1  21
BRANCH   2  24
HETATM   24  O1  UNL     1      -4.017   1.053  -0.324  1.00  0.00    -0.351 OA
HETATM   25  C4  UNL     1      -4.807   0.920  -1.482  1.00  0.00     0.210 C 
ENDBRANCH   2  24
TORSDOF 5
