REMARK  4 active torsions:
REMARK  status: ('A' for Active; 'I' for Inactive)
REMARK    1  A    between atoms: O1_2  and  C2_3 
REMARK    2  A    between atoms: C2_3  and  C3_4 
REMARK    3  A    between atoms: C3_4  and  C4_5 
REMARK    4  A    between atoms: N1_8  and  C7_9 
ROOT
HETATM    1  C4  UNL     1       1.310  -0.047  -0.485  1.00  0.00     0.039 C 
HETATM    2  C5  UNL     1       1.230   0.546   0.889  1.00  0.00     0.079 C 
HETATM    3  C6  UNL     1      -0.109   1.142   1.131  1.00  0.00     0.129 C 
HETATM    4  N1  UNL     1      -1.227   0.274   1.253  1.00  0.00    -0.379 N 
HETATM    5  C13 UNL     1      -1.552  -0.420   0.053  1.00  0.00     0.146 C 
HETATM    6  C14 UNL     1      -1.997   0.439  -1.057  1.00  0.00     0.251 C 
HETATM    7  N2  UNL     1      -1.289   0.334  -2.159  1.00  0.00    -0.297 NA
HETATM    8  C15 UNL     1      -0.173  -0.585  -2.178  1.00  0.00     0.168 C 
HETATM    9  N3  UNL     1       0.959  -0.876  -1.572  1.00  0.00    -0.255 NA
ENDROOT
BRANCH   1  10
HETATM   10  C3  UNL     1       2.210   0.356  -1.420  1.00  0.00     0.064 C 
BRANCH  10  11
HETATM   11  C2  UNL     1       3.033   0.566  -2.598  1.00  0.00     0.076 C 
HETATM   12  C16 UNL     1       4.011   1.305  -3.157  1.00  0.00     0.087 C 
HETATM   13  I1  UNL     1       4.417   0.629  -5.096  1.00  0.00    -0.054 I 
BRANCH  11  14
HETATM   14  O1  UNL     1       2.385  -0.501  -3.223  1.00  0.00    -0.355 OA
HETATM   15  C1  UNL     1       3.024  -1.758  -3.272  1.00  0.00     0.210 C 
ENDBRANCH  11  14
ENDBRANCH  10  11
ENDBRANCH   1  10
BRANCH   4  16
HETATM   16  C7  UNL     1      -1.939   0.119   2.480  1.00  0.00     0.030 A 
HETATM   17  C8  UNL     1      -1.532   0.716   3.653  1.00  0.00     0.029 A 
HETATM   18  C9  UNL     1      -2.169   0.614   4.884  1.00  0.00     0.002 A 
HETATM   19  C10 UNL     1      -3.331  -0.165   4.954  1.00  0.00     0.000 A 
HETATM   20  C11 UNL     1      -3.771  -0.773   3.818  1.00  0.00     0.002 A 
HETATM   21  C12 UNL     1      -3.080  -0.614   2.661  1.00  0.00     0.029 A 
ENDBRANCH   4  16
TORSDOF 4
