REMARK  6 active torsions:
REMARK  status: ('A' for Active; 'I' for Inactive)
REMARK    1  A    between atoms: C2_2  and  N1_3 
REMARK    2  A    between atoms: N1_3  and  C3_4 
REMARK    3  A    between atoms: N1_3  and  C11_17 
REMARK    4  A    between atoms: S1_9  and  O1_10 
REMARK    5  A    between atoms: C6_11  and  C7_12 
REMARK    6  A    between atoms: C9_14  and  O2_15 
ROOT
HETATM    1  C3  UNL     1       0.334   0.225  -1.024  1.00  0.00     0.122 A 
HETATM    2  N2  UNL     1       0.552   0.415  -2.302  1.00  0.00    -0.227 NA
HETATM    3  C4  UNL     1      -0.365   1.128  -3.110  1.00  0.00     0.235 A 
HETATM    4  N3  UNL     1      -1.446   1.615  -2.614  1.00  0.00    -0.237 NA
HETATM    5  C5  UNL     1      -1.748   1.445  -1.218  1.00  0.00     0.100 A 
HETATM    6  S1  UNL     1      -3.144   2.096  -0.626  1.00  0.00    -0.052 S 
HETATM    7  C6  UNL     1      -0.832   0.696  -0.288  1.00  0.00     0.146 A 
HETATM    8  H7  UNL     1      -3.706   3.172  -1.382  1.00  0.00     0.127 HD
ENDROOT
BRANCH   1   9
HETATM    9  N1  UNL     1       1.435  -0.511  -0.537  1.00  0.00    -0.335 N 
BRANCH   9  10
HETATM   10  C2  UNL     1       1.424  -1.942  -0.767  1.00  0.00     0.126 C 
HETATM   11  C1  UNL     1       1.585  -2.222  -2.268  1.00  0.00     0.027 C 
ENDBRANCH   9  10
BRANCH   9  12
HETATM   12  C11 UNL     1       2.466   0.181   0.133  1.00  0.00     0.035 A 
HETATM   13  C12 UNL     1       2.426   1.548   0.324  1.00  0.00     0.029 A 
HETATM   14  C13 UNL     1       3.415   2.258   0.973  1.00  0.00     0.002 A 
HETATM   15  C14 UNL     1       4.522   1.593   1.474  1.00  0.00     0.000 A 
HETATM   16  C15 UNL     1       4.625   0.208   1.316  1.00  0.00     0.002 A 
HETATM   17  C16 UNL     1       3.594  -0.414   0.657  1.00  0.00     0.029 A 
ENDBRANCH   9  12
ENDBRANCH   1   9
BRANCH   7  18
HETATM   18  C7  UNL     1      -1.697  -0.418   0.246  1.00  0.00    -0.044 C 
HETATM   19  C8  UNL     1      -2.329  -1.397  -0.678  1.00  0.00     0.046 C 
HETATM   20  C9  UNL     1      -1.923  -0.554   1.562  1.00  0.00     0.137 C 
BRANCH  20  21
HETATM   21  O2  UNL     1      -2.598  -1.358   2.470  1.00  0.00    -0.368 OA
HETATM   22  C10 UNL     1      -3.760  -0.826   3.102  1.00  0.00     0.208 C 
ENDBRANCH  20  21
ENDBRANCH   7  18
BRANCH   6  23
HETATM   23  O1  UNL     1      -3.487   1.882   1.046  1.00  0.00    -0.338 OA
HETATM   24  H8  UNL     1      -4.343   1.406   1.112  1.00  0.00     0.227 HD
ENDBRANCH   6  23
TORSDOF 6
