REMARK  3 active torsions:
REMARK  status: ('A' for Active; 'I' for Inactive)
REMARK    1  A    between atoms: C2_2  and  C3_3 
REMARK    2  A    between atoms: C8_8  and  C9_9 
REMARK    3  A    between atoms: C14_16  and  O1_17 
ROOT
HETATM    1  C9  UNL     1       0.738  -0.477  -0.848  1.00  0.00     0.081 A 
HETATM    2  N1  UNL     1       1.504  -1.332  -1.501  1.00  0.00    -0.240 NA
HETATM    3  C10 UNL     1       1.028  -2.423  -2.120  1.00  0.00     0.234 A 
HETATM    4  N2  UNL     1      -0.285  -2.704  -2.103  1.00  0.00    -0.241 NA
HETATM    5  C11 UNL     1      -1.107  -1.866  -1.451  1.00  0.00     0.069 A 
HETATM    6  C12 UNL     1      -0.612  -0.750  -0.817  1.00  0.00     0.025 A 
HETATM    7  C13 UNL     1      -1.103   0.219  -0.067  1.00  0.00     0.054 C 
HETATM    8  C14 UNL     1      -2.436   0.582   0.395  1.00  0.00     0.090 C 
HETATM    9  C16 UNL     1      -3.644   0.163   0.050  1.00  0.00     0.171 C 
HETATM   10  O2  UNL     1      -4.089  -0.778  -0.876  1.00  0.00    -0.357 OA
HETATM   11  C17 UNL     1      -3.747  -2.105  -1.214  1.00  0.00     0.204 C 
HETATM   12  C18 UNL     1      -2.341  -2.316  -1.554  1.00  0.00     0.032 C 
ENDROOT
BRANCH   1  13
HETATM   13  C8  UNL     1       1.444   0.633  -0.275  1.00  0.00    -0.000 A 
HETATM   14  C3  UNL     1       2.388   0.480   0.729  1.00  0.00    -0.046 A 
HETATM   15  C4  UNL     1       3.102   1.553   1.223  1.00  0.00     0.008 A 
HETATM   16  C5  UNL     1       2.936   2.840   0.766  1.00  0.00     0.001 A 
HETATM   17  C6  UNL     1       2.015   3.073  -0.231  1.00  0.00     0.001 A 
HETATM   18  C7  UNL     1       1.329   1.975  -0.691  1.00  0.00     0.014 A 
BRANCH  14  19
HETATM   19  C2  UNL     1       2.730  -0.811   1.359  1.00  0.00     0.035 C 
HETATM   20  C1  UNL     1       3.675  -1.589   0.478  1.00  0.00     0.010 C 
ENDBRANCH  14  19
ENDBRANCH   1  13
BRANCH   8  21
HETATM   21  O1  UNL     1      -2.327   1.552   1.377  1.00  0.00    -0.354 OA
HETATM   22  C15 UNL     1      -3.326   2.380   1.867  1.00  0.00     0.210 C 
ENDBRANCH   8  21
TORSDOF 3
