REMARK  7 active torsions:
REMARK  status: ('A' for Active; 'I' for Inactive)
REMARK    1  A    between atoms: O1_2  and  C2_3 
REMARK    2  A    between atoms: C5_7  and  N1_8 
REMARK    3  A    between atoms: N1_8  and  C6_9 
REMARK    4  A    between atoms: C10_13  and  C11_14 
REMARK    5  A    between atoms: C16_19  and  N2_20 
REMARK    6  A    between atoms: N2_20  and  C17_21 
REMARK    7  A    between atoms: C17_21  and  N3_22 
ROOT
HETATM    1  C6  UNL     1      -0.234  -0.648   1.010  1.00  0.00     0.030 A 
HETATM    2  C7  UNL     1       0.025  -1.958   1.339  1.00  0.00     0.029 A 
HETATM    3  C8  UNL     1      -0.883  -2.985   1.273  1.00  0.00     0.003 A 
HETATM    4  C9  UNL     1      -2.167  -2.705   0.845  1.00  0.00     0.012 A 
HETATM    5  C10 UNL     1      -2.466  -1.395   0.505  1.00  0.00    -0.021 A 
HETATM    6  C18 UNL     1      -1.514  -0.404   0.590  1.00  0.00     0.041 A 
ENDROOT
BRANCH   1   7
HETATM    7  N1  UNL     1       0.729   0.395   1.087  1.00  0.00    -0.367 N 
HETATM    8  H7  UNL     1       0.432   1.357   0.820  1.00  0.00     0.161 HD
BRANCH   7   9
HETATM    9  C5  UNL     1       2.100   0.204   1.514  1.00  0.00     0.202 C 
HETATM   10  C4  UNL     1       2.853   1.500   1.512  1.00  0.00     0.222 C 
HETATM   11  O2  UNL     1       4.184   1.417   1.065  1.00  0.00    -0.344 OA
HETATM   12  C3  UNL     1       4.551   1.077  -0.255  1.00  0.00     0.110 A 
HETATM   13  C2  UNL     1       5.381   1.250  -1.297  1.00  0.00     0.102 A 
HETATM   14  C20 UNL     1       3.823   0.083  -1.078  1.00  0.00    -0.002 A 
HETATM   15  C21 UNL     1       4.640   0.260  -2.091  1.00  0.00     0.051 A 
HETATM   16  C19 UNL     1       2.607  -0.717  -0.677  1.00  0.00     0.157 C 
HETATM   17  N4  UNL     1       2.687  -0.864   0.758  1.00  0.00    -0.396 N 
HETATM   18  H19 UNL     1       3.571  -1.238   1.115  1.00  0.00     0.155 HD
BRANCH  13  19
HETATM   19  O1  UNL     1       6.487   2.077  -1.457  1.00  0.00    -0.353 OA
HETATM   20  C1  UNL     1       7.460   2.249  -0.445  1.00  0.00     0.210 C 
ENDBRANCH  13  19
ENDBRANCH   7   9
ENDBRANCH   1   7
BRANCH   5  21
HETATM   21  C11 UNL     1      -3.827  -1.123   0.055  1.00  0.00     0.003 A 
HETATM   22  C12 UNL     1      -4.829  -1.715   0.826  1.00  0.00     0.014 A 
HETATM   23  C13 UNL     1      -6.170  -1.551   0.527  1.00  0.00     0.001 A 
HETATM   24  C14 UNL     1      -6.571  -0.781  -0.566  1.00  0.00     0.002 A 
HETATM   25  C15 UNL     1      -5.564  -0.205  -1.313  1.00  0.00     0.032 A 
HETATM   26  C16 UNL     1      -4.225  -0.361  -1.027  1.00  0.00     0.069 A 
BRANCH  26  27
HETATM   27  N2  UNL     1      -3.166   0.217  -1.775  1.00  0.00    -0.244 NA
BRANCH  27  28
HETATM   28  C17 UNL     1      -3.267   1.474  -2.059  1.00  0.00     0.200 C 
BRANCH  28  29
HETATM   29  N3  UNL     1      -4.408   2.234  -1.628  1.00  0.00    -0.394 N 
HETATM   30  H16 UNL     1      -4.384   2.928  -0.827  1.00  0.00     0.156 HD
HETATM   31  H17 UNL     1      -5.348   2.657  -1.503  1.00  0.00     0.156 HD
ENDBRANCH  28  29
ENDBRANCH  27  28
ENDBRANCH  26  27
ENDBRANCH   5  21
TORSDOF 7
