REMARK  7 active torsions:
REMARK  status: ('A' for Active; 'I' for Inactive)
REMARK    1  A    between atoms: O1_2  and  C2_3 
REMARK    2  A    between atoms: C6_9  and  N3_10 
REMARK    3  A    between atoms: N3_10  and  C7_11 
REMARK    4  A    between atoms: C8_12  and  C9_13 
REMARK    5  A    between atoms: C10_14  and  C11_15 
REMARK    6  A    between atoms: C12_16  and  S1_17 
REMARK    7  A    between atoms: C16_21  and  O2_22 
ROOT
HETATM    1  C2  UNL     1      -4.765  -0.103  -0.640  1.00  0.00     0.103 A 
HETATM    2  C3  UNL     1      -4.188  -0.082  -1.895  1.00  0.00     0.072 A 
HETATM    3  C4  UNL     1      -2.828  -0.171  -2.059  1.00  0.00     0.075 A 
HETATM    4  N1  UNL     1      -2.257  -0.152  -3.277  1.00  0.00    -0.241 NA
HETATM    5  C5  UNL     1      -0.942  -0.234  -3.502  1.00  0.00     0.236 A 
HETATM    6  N2  UNL     1      -0.073  -0.347  -2.462  1.00  0.00    -0.224 NA
HETATM    7  C6  UNL     1      -0.606  -0.370  -1.205  1.00  0.00     0.141 A 
HETATM    8  C14 UNL     1      -1.962  -0.285  -0.980  1.00  0.00     0.042 A 
HETATM    9  C15 UNL     1      -2.529  -0.306   0.273  1.00  0.00     0.057 A 
HETATM   10  C16 UNL     1      -3.898  -0.216   0.428  1.00  0.00     0.102 A 
ENDROOT
BRANCH   7  11
HETATM   11  N3  UNL     1       0.241  -0.486  -0.076  1.00  0.00    -0.350 N 
HETATM   12  H6  UNL     1       0.465  -1.454   0.262  1.00  0.00     0.166 HD
BRANCH  11  13
HETATM   13  C7  UNL     1       0.934   0.376   0.808  1.00  0.00     0.090 C 
HETATM   14  C8  UNL     1       2.249   0.417   0.670  1.00  0.00     0.017 C 
BRANCH  14  15
HETATM   15  C9  UNL     1       2.912  -0.388  -0.339  1.00  0.00     0.001 C 
HETATM   16  C10 UNL     1       4.214  -0.386  -0.520  1.00  0.00     0.001 C 
BRANCH  16  17
HETATM   17  C11 UNL     1       5.069   0.443   0.304  1.00  0.00     0.007 C 
HETATM   18  C12 UNL     1       6.383   0.484   0.166  1.00  0.00     0.044 C 
BRANCH  18  19
HETATM   19  S1  UNL     1       7.561   1.448   1.099  1.00  0.00    -0.146 SA
HETATM   20  C13 UNL     1       8.121   0.495   2.522  1.00  0.00     0.095 C 
ENDBRANCH  18  19
ENDBRANCH  16  17
ENDBRANCH  14  15
ENDBRANCH  11  13
ENDBRANCH   7  11
BRANCH  10  21
HETATM   21  O2  UNL     1      -4.417  -0.242   1.707  1.00  0.00    -0.353 OA
HETATM   22  C17 UNL     1      -3.664  -0.353   2.874  1.00  0.00     0.210 C 
ENDBRANCH  10  21
BRANCH   1  23
HETATM   23  O1  UNL     1      -6.128  -0.018  -0.384  1.00  0.00    -0.353 OA
HETATM   24  C1  UNL     1      -6.998   0.098  -1.495  1.00  0.00     0.210 C 
ENDBRANCH   1  23
TORSDOF 7
