REMARK  4 active torsions:
REMARK  status: ('A' for Active; 'I' for Inactive)
REMARK    1  A    between atoms: C2_2  and  C3_3 
REMARK    2  A    between atoms: C5_9  and  O2_10 
REMARK    3  A    between atoms: C7_12  and  N3_13 
REMARK    4  A    between atoms: N3_13  and  C8_14 
ROOT
HETATM    1  C3  UNL     1       2.662  -0.389   0.499  1.00  0.00     0.054 C 
HETATM    2  N1  UNL     1       1.503  -1.037   0.197  1.00  0.00    -0.174 NA
HETATM    3  N2  UNL     1       0.402  -0.276  -0.392  1.00  0.00    -0.226 N 
HETATM    4  P1  UNL     1      -0.056   0.044  -2.177  1.00  0.00     0.144 P 
HETATM    5  O1  UNL     1       0.411   1.832  -2.116  1.00  0.00    -0.301 OA
HETATM    6  C4  UNL     1       0.916   2.004  -0.729  1.00  0.00     0.108 C 
HETATM    7  C5  UNL     1      -0.189   2.030   0.100  1.00  0.00     0.123 C 
HETATM    8  C7  UNL     1      -0.546   0.563   0.387  1.00  0.00     0.269 C 
HETATM    9  C14 UNL     1       2.337   2.126  -0.199  1.00  0.00     0.042 C 
HETATM   10  C15 UNL     1       3.061   1.070   0.326  1.00  0.00     0.032 C 
HETATM   11  H6  UNL     1      -1.464  -0.071  -2.354  1.00  0.00     0.113 HD
ENDROOT
BRANCH   8  12
HETATM   12  N3  UNL     1      -1.867   0.358  -0.137  1.00  0.00    -0.362 N 
HETATM   13  H11 UNL     1      -2.427   1.160  -0.560  1.00  0.00     0.162 HD
BRANCH  12  14
HETATM   14  C8  UNL     1      -2.528  -0.884  -0.141  1.00  0.00     0.029 A 
HETATM   15  C9  UNL     1      -1.999  -2.052   0.360  1.00  0.00     0.029 A 
HETATM   16  C10 UNL     1      -2.628  -3.280   0.364  1.00  0.00     0.002 A 
HETATM   17  C11 UNL     1      -3.899  -3.366  -0.177  1.00  0.00     0.000 A 
HETATM   18  C12 UNL     1      -4.487  -2.241  -0.695  1.00  0.00     0.002 A 
HETATM   19  C13 UNL     1      -3.797  -1.073  -0.658  1.00  0.00     0.029 A 
ENDBRANCH  12  14
ENDBRANCH   8  12
BRANCH   7  20
HETATM   20  O2  UNL     1      -1.189   2.724   0.843  1.00  0.00    -0.353 OA
HETATM   21  C6  UNL     1      -1.304   4.125   0.791  1.00  0.00     0.209 C 
ENDBRANCH   7  20
BRANCH   1  22
HETATM   22  C2  UNL     1       3.763  -1.191   1.104  1.00  0.00     0.056 C 
HETATM   23  C1  UNL     1       4.949  -1.103   0.176  1.00  0.00     0.011 C 
ENDBRANCH   1  22
TORSDOF 4
