REMARK  4 active torsions:
REMARK  status: ('A' for Active; 'I' for Inactive)
REMARK    1  A    between atoms: C2_2  and  N1_3 
REMARK    2  A    between atoms: C6_7  and  O1_8 
REMARK    3  A    between atoms: O1_8  and  N2_9 
REMARK    4  A    between atoms: C7_10  and  O2_11 
ROOT
HETATM    1  N1  UNL     1      -1.626   0.866  -0.167  1.00  0.00    -0.375 N 
HETATM    2  C3  UNL     1      -0.591   1.138  -1.182  1.00  0.00     0.162 C 
HETATM    3  C4  UNL     1       0.674   0.441  -0.821  1.00  0.00    -0.029 A 
HETATM    4  C5  UNL     1       1.501   1.393  -0.275  1.00  0.00     0.051 A 
HETATM    5  C6  UNL     1       2.767   1.176   0.192  1.00  0.00     0.125 A 
HETATM    6  C7  UNL     1       3.241  -0.140   0.094  1.00  0.00     0.104 A 
HETATM    7  C9  UNL     1       2.445  -1.130  -0.448  1.00  0.00     0.049 A 
HETATM    8  C10 UNL     1       1.153  -0.860  -0.914  1.00  0.00    -0.030 A 
HETATM    9  C11 UNL     1       0.569  -2.113  -1.427  1.00  0.00     0.159 C 
HETATM   10  N3  UNL     1      -0.675  -2.353  -0.770  1.00  0.00    -0.384 N 
HETATM   11  C12 UNL     1      -1.790  -1.794  -0.086  1.00  0.00     0.055 A 
HETATM   12  C13 UNL     1      -2.587  -2.809   0.391  1.00  0.00     0.031 A 
HETATM   13  C14 UNL     1      -3.747  -2.541   1.093  1.00  0.00     0.002 A 
HETATM   14  C15 UNL     1      -4.092  -1.242   1.307  1.00  0.00     0.002 A 
HETATM   15  C16 UNL     1      -3.286  -0.235   0.825  1.00  0.00     0.031 A 
HETATM   16  C17 UNL     1      -2.103  -0.462   0.110  1.00  0.00     0.057 A 
HETATM   17  H17 UNL     1      -0.810  -3.394  -0.826  1.00  0.00     0.160 HD
ENDROOT
BRANCH   5  18
HETATM   18  O1  UNL     1       3.649   2.077   0.750  1.00  0.00    -0.264 OA
BRANCH  18  19
HETATM   19  N2  UNL     1       3.278   3.387   0.879  1.00  0.00    -0.209 NA
HETATM   20  H9  UNL     1       2.670   3.639   0.068  1.00  0.00     0.150 HD
HETATM   21  H10 UNL     1       4.188   3.933   0.735  1.00  0.00     0.150 HD
ENDBRANCH  18  19
ENDBRANCH   5  18
BRANCH   6  22
HETATM   22  O2  UNL     1       4.513  -0.463   0.541  1.00  0.00    -0.353 OA
HETATM   23  C8  UNL     1       4.970  -1.781   0.435  1.00  0.00     0.210 C 
ENDBRANCH   6  22
BRANCH   1  24
HETATM   24  C2  UNL     1      -2.202   1.951   0.588  1.00  0.00     0.119 C 
HETATM   25  C1  UNL     1      -3.075   2.900  -0.123  1.00  0.00     0.026 C 
ENDBRANCH   1  24
TORSDOF 4
