REMARK  4 active torsions:
REMARK  status: ('A' for Active; 'I' for Inactive)
REMARK    1  A    between atoms: C2_2  and  N1_3 
REMARK    2  A    between atoms: N1_3  and  C3_4 
REMARK    3  A    between atoms: N1_3  and  C9_10 
REMARK    4  A    between atoms: C15_19  and  O2_20 
ROOT
HETATM    1  C9  UNL     1      -0.772  -0.955  -0.467  1.00  0.00     0.144 A 
HETATM    2  N2  UNL     1      -1.570  -2.050  -0.494  1.00  0.00    -0.223 NA
HETATM    3  C10 UNL     1      -1.103  -3.281  -0.241  1.00  0.00     0.236 A 
HETATM    4  N3  UNL     1       0.206  -3.438   0.050  1.00  0.00    -0.241 NA
HETATM    5  C11 UNL     1       1.050  -2.378   0.091  1.00  0.00     0.075 A 
HETATM    6  C12 UNL     1       2.388  -2.463   0.382  1.00  0.00     0.072 A 
HETATM    7  C13 UNL     1       3.226  -1.358   0.419  1.00  0.00     0.103 A 
HETATM    8  O1  UNL     1       4.467  -1.439   0.688  1.00  0.00    -0.353 OA
HETATM    9  C14 UNL     1       5.740  -1.522   0.965  1.00  0.00     0.210 C 
HETATM   10  C15 UNL     1       2.655  -0.113   0.143  1.00  0.00     0.102 A 
HETATM   11  C17 UNL     1       1.296   0.034  -0.161  1.00  0.00     0.057 A 
HETATM   12  C18 UNL     1       0.560  -1.126  -0.169  1.00  0.00     0.042 A 
ENDROOT
BRANCH  10  13
HETATM   13  O2  UNL     1       3.452   0.997   0.171  1.00  0.00    -0.353 OA
HETATM   14  C16 UNL     1       3.003   2.287  -0.093  1.00  0.00     0.210 C 
ENDBRANCH  10  13
BRANCH   1  15
HETATM   15  N1  UNL     1      -1.478   0.264  -0.779  1.00  0.00    -0.331 N 
BRANCH  15  16
HETATM   16  C2  UNL     1      -1.126   0.996  -1.995  1.00  0.00     0.126 C 
HETATM   17  C1  UNL     1      -2.246   1.038  -2.983  1.00  0.00     0.027 C 
ENDBRANCH  15  16
BRANCH  15  18
HETATM   18  C3  UNL     1      -2.476   0.642   0.144  1.00  0.00     0.035 A 
HETATM   19  C4  UNL     1      -2.780  -0.077   1.276  1.00  0.00     0.029 A 
HETATM   20  C5  UNL     1      -3.743   0.292   2.171  1.00  0.00     0.002 A 
HETATM   21  C6  UNL     1      -4.487   1.432   1.993  1.00  0.00     0.000 A 
HETATM   22  C7  UNL     1      -4.231   2.189   0.885  1.00  0.00     0.002 A 
HETATM   23  C8  UNL     1      -3.244   1.778   0.001  1.00  0.00     0.029 A 
ENDBRANCH  15  18
ENDBRANCH   1  15
TORSDOF 4
