REMARK  5 active torsions:
REMARK  status: ('A' for Active; 'I' for Inactive)
REMARK    1  A    between atoms: B1_1  and  C1_2 
REMARK    2  A    between atoms: C1_2  and  C2_3 
REMARK    3  A    between atoms: C1_2  and  C8_9 
REMARK    4  A    between atoms: C12_15  and  O1_16 
REMARK    5  A    between atoms: C14_18  and  O2_19 
ROOT
HETATM    1  C8  UNL     1      -0.688  -0.607   0.042  1.00  0.00     0.047 A 
HETATM    2  N1  UNL     1      -1.173  -1.600   0.824  1.00  0.00    -0.246 NA
HETATM    3  C9  UNL     1      -0.403  -2.335   1.637  1.00  0.00     0.234 A 
HETATM    4  N2  UNL     1       0.947  -2.148   1.750  1.00  0.00    -0.241 NA
HETATM    5  C10 UNL     1       1.497  -1.173   0.998  1.00  0.00     0.073 A 
HETATM    6  C11 UNL     1       2.855  -0.955   1.080  1.00  0.00     0.072 A 
HETATM    7  C12 UNL     1       3.449   0.038   0.313  1.00  0.00     0.103 A 
HETATM    8  C14 UNL     1       2.657   0.800  -0.531  1.00  0.00     0.102 A 
HETATM    9  C16 UNL     1       1.304   0.531  -0.566  1.00  0.00     0.055 A 
HETATM   10  C17 UNL     1       0.676  -0.432   0.168  1.00  0.00     0.020 A 
ENDROOT
BRANCH   1  11
HETATM   11  C1  UNL     1      -1.566   0.202  -0.825  1.00  0.00     0.020 C 
BRANCH  11  12
HETATM   12  B1  UNL     1      -1.503   1.760  -0.519  1.00  0.00     0.153 B 
HETATM   13  H1  UNL     1      -1.025   2.188   0.458  1.00  0.00    -0.031 HD
HETATM   14  H2  UNL     1      -1.641   2.511  -1.430  1.00  0.00    -0.031 HD
ENDBRANCH  11  12
BRANCH  11  15
HETATM   15  C2  UNL     1      -2.981  -0.196  -0.464  1.00  0.00    -0.058 A 
HETATM   16  C3  UNL     1      -3.622   0.488   0.577  1.00  0.00     0.007 A 
HETATM   17  C4  UNL     1      -4.911   0.199   0.979  1.00  0.00     0.001 A 
HETATM   18  C5  UNL     1      -5.564  -0.807   0.305  1.00  0.00     0.000 A 
HETATM   19  C6  UNL     1      -4.973  -1.505  -0.724  1.00  0.00     0.001 A 
HETATM   20  C7  UNL     1      -3.685  -1.197  -1.105  1.00  0.00     0.007 A 
ENDBRANCH  11  15
ENDBRANCH   1  11
BRANCH   8  21
HETATM   21  O2  UNL     1       3.351   1.757  -1.244  1.00  0.00    -0.353 OA
HETATM   22  C15 UNL     1       2.853   2.669  -2.161  1.00  0.00     0.210 C 
ENDBRANCH   8  21
BRANCH   7  23
HETATM   23  O1  UNL     1       4.801   0.218   0.429  1.00  0.00    -0.353 OA
HETATM   24  C13 UNL     1       5.593  -0.559   1.287  1.00  0.00     0.210 C 
ENDBRANCH   7  23
TORSDOF 5
