REMARK  4 active torsions:
REMARK  status: ('A' for Active; 'I' for Inactive)
REMARK    1  A    between atoms: C7_8  and  C8_9 
REMARK    2  A    between atoms: C8_9  and  O1_10 
REMARK    3  A    between atoms: C10_12  and  O2_14 
REMARK    4  A    between atoms: N3_21  and  C16_22 
ROOT
HETATM    1  C1  UNL     1       0.482  -3.278  -1.052  1.00  0.00     0.006 C 
HETATM    2  C2  UNL     1      -0.597  -2.675  -0.632  1.00  0.00    -0.097 A 
HETATM    3  C3  UNL     1      -1.834  -3.494  -0.627  1.00  0.00    -0.005 A 
HETATM    4  C4  UNL     1      -2.922  -2.881  -0.194  1.00  0.00     0.001 A 
HETATM    5  C5  UNL     1      -2.924  -1.470   0.259  1.00  0.00     0.013 A 
HETATM    6  C6  UNL     1      -1.875  -0.624   0.303  1.00  0.00    -0.024 A 
HETATM    7  B1  UNL     1      -0.481  -1.185  -0.180  1.00  0.00     0.281 B 
HETATM    8  C7  UNL     1       0.674  -0.303  -0.757  1.00  0.00     0.049 C 
HETATM    9  C13 UNL     1       0.301   1.132  -1.053  1.00  0.00     0.221 C 
HETATM   10  N1  UNL     1      -0.171   1.942  -0.105  1.00  0.00    -0.442 NA
HETATM   11  C14 UNL     1      -0.541   2.756   0.687  1.00  0.00     0.292 C 
HETATM   12  N2  UNL     1      -1.327   2.524   1.842  1.00  0.00    -0.226 NA
HETATM   13  C15 UNL     1      -2.133   1.541   1.841  1.00  0.00     0.211 C 
HETATM   14  N3  UNL     1      -2.386   0.593   0.820  1.00  0.00    -0.355 N 
ENDROOT
BRANCH   8  15
HETATM   15  C8  UNL     1       1.932  -0.338   0.021  1.00  0.00     0.073 C 
HETATM   16  C10 UNL     1       3.096  -0.596  -0.617  1.00  0.00     0.070 C 
HETATM   17  C11 UNL     1       3.098  -0.839  -2.080  1.00  0.00     0.079 C 
BRANCH  15  18
HETATM   18  O1  UNL     1       2.206  -0.152   1.359  1.00  0.00    -0.358 OA
HETATM   19  C9  UNL     1       1.599   0.694   2.268  1.00  0.00     0.209 C 
ENDBRANCH  15  18
BRANCH  16  20
HETATM   20  O2  UNL     1       4.368  -0.671  -0.065  1.00  0.00    -0.358 OA
HETATM   21  C12 UNL     1       4.920   0.454   0.543  1.00  0.00     0.209 C 
ENDBRANCH  16  20
ENDBRANCH   8  15
BRANCH  14  22
HETATM   22  C16 UNL     1      -3.532   1.217   0.287  1.00  0.00     0.124 C 
HETATM   23  C17 UNL     1      -3.392   2.526  -0.395  1.00  0.00     0.027 C 
ENDBRANCH  14  22
TORSDOF 4
