REMARK  9 active torsions:
REMARK  status: ('A' for Active; 'I' for Inactive)
REMARK    1  A    between atoms: N1_2  and  C2_3 
REMARK    2  A    between atoms: C2_3  and  C3_4 
REMARK    3  A    between atoms: C5_8  and  C6_9 
REMARK    4  A    between atoms: C9_12  and  C10_13 
REMARK    5  A    between atoms: C10_13  and  O1_14 
REMARK    6  A    between atoms: C14_18  and  C15_19 
REMARK    7  A    between atoms: C15_19  and  C16_20 
REMARK    8  A    between atoms: C16_20  and  C17_21 
REMARK    9  A    between atoms: C17_21  and  O2_22 
ROOT
HETATM    1  C3  UNL     1      -1.991  -2.438   0.424  1.00  0.00     0.076 A 
HETATM    2  N2  UNL     1      -1.592  -3.737   0.374  1.00  0.00    -0.244 NA
HETATM    3  C4  UNL     1      -0.273  -3.970   0.323  1.00  0.00     0.234 A 
HETATM    4  N3  UNL     1       0.651  -2.993   0.318  1.00  0.00    -0.240 NA
HETATM    5  C5  UNL     1       0.295  -1.687   0.366  1.00  0.00     0.080 A 
HETATM    6  C14 UNL     1      -1.057  -1.431   0.420  1.00  0.00     0.020 A 
ENDROOT
BRANCH   5   7
HETATM    7  C6  UNL     1       1.390  -0.738   0.359  1.00  0.00    -0.006 A 
HETATM    8  C7  UNL     1       2.369  -1.024   1.315  1.00  0.00     0.014 A 
HETATM    9  C8  UNL     1       3.510  -0.271   1.485  1.00  0.00     0.010 A 
HETATM   10  C9  UNL     1       3.730   0.834   0.681  1.00  0.00    -0.035 A 
HETATM   11  C12 UNL     1       2.767   1.120  -0.264  1.00  0.00     0.010 A 
HETATM   12  C13 UNL     1       1.626   0.366  -0.433  1.00  0.00     0.014 A 
BRANCH  10  13
HETATM   13  C10 UNL     1       4.954   1.647   0.861  1.00  0.00     0.205 C 
BRANCH  13  14
HETATM   14  O1  UNL     1       5.967   1.162   0.072  1.00  0.00    -0.391 OA
HETATM   15  C11 UNL     1       5.698   1.164  -1.280  1.00  0.00     0.201 C 
ENDBRANCH  13  14
ENDBRANCH  10  13
ENDBRANCH   5   7
BRANCH   6  16
HETATM   16  C15 UNL     1      -1.453  -0.058   0.475  1.00  0.00     0.014 C 
BRANCH  16  17
HETATM   17  C16 UNL     1      -2.429   0.819   0.494  1.00  0.00     0.000 C 
BRANCH  17  18
HETATM   18  C17 UNL     1      -2.470   2.293   0.561  1.00  0.00     0.194 C 
BRANCH  18  19
HETATM   19  O2  UNL     1      -3.101   2.850  -0.543  1.00  0.00    -0.392 OA
HETATM   20  C18 UNL     1      -3.134   4.218  -0.483  1.00  0.00     0.201 C 
ENDBRANCH  18  19
ENDBRANCH  17  18
ENDBRANCH  16  17
ENDBRANCH   6  16
BRANCH   1  21
HETATM   21  C2  UNL     1      -3.455  -2.234   0.496  1.00  0.00     0.329 C 
BRANCH  21  22
HETATM   22  N1  UNL     1      -4.010  -1.780  -0.749  1.00  0.00     0.084 N 
HETATM   23  C1  UNL     1      -3.802  -2.687  -1.837  1.00  0.00     0.307 C 
HETATM   24  H4  UNL     1      -4.975  -1.445  -0.668  1.00  0.00     0.315 HD
ENDBRANCH  21  22
ENDBRANCH   1  21
TORSDOF 9
