REMARK  4 active torsions:
REMARK  status: ('A' for Active; 'I' for Inactive)
REMARK    1  A    between atoms: C7_7  and  C8_8 
REMARK    2  A    between atoms: C8_8  and  O1_9 
REMARK    3  A    between atoms: C10_13  and  N3_14 
REMARK    4  A    between atoms: N3_14  and  C12_16 
ROOT
HETATM    1  C1  UNL     1      -3.810   0.021  -2.092  1.00  0.00     0.049 C 
HETATM    2  C2  UNL     1      -3.051   0.129  -0.814  1.00  0.00    -0.053 A 
HETATM    3  C3  UNL     1      -1.664   0.180  -0.743  1.00  0.00     0.023 A 
HETATM    4  C4  UNL     1      -1.033   0.280   0.476  1.00  0.00     0.019 A 
HETATM    5  C5  UNL     1      -1.830   0.326   1.599  1.00  0.00     0.089 A 
HETATM    6  C6  UNL     1      -3.209   0.277   1.547  1.00  0.00     0.044 A 
HETATM    7  C7  UNL     1      -3.837   0.176   0.319  1.00  0.00    -0.027 A 
HETATM    8  N1  UNL     1      -1.290   0.419   2.785  1.00  0.00    -0.179 NA
HETATM    9  N2  UNL     1       0.084   0.471   2.929  1.00  0.00    -0.308 N 
HETATM   10  C9  UNL     1       0.999   0.437   1.819  1.00  0.00     0.199 A 
HETATM   11  C10 UNL     1       0.290   0.328   0.518  1.00  0.00     0.043 A 
HETATM   12  H9  UNL     1       0.559   0.540   3.871  1.00  0.00     0.182 HD
ENDROOT
BRANCH  11  13
HETATM   13  N3  UNL     1       1.115   0.282  -0.639  1.00  0.00    -0.361 N 
HETATM   14  C11 UNL     1       1.190   1.022  -1.884  1.00  0.00     0.155 C 
BRANCH  13  15
HETATM   15  C12 UNL     1       2.141  -0.706  -0.656  1.00  0.00     0.102 C 
HETATM   16  C13 UNL     1       3.409  -0.483  -0.356  1.00  0.00    -0.014 A 
HETATM   17  C14 UNL     1       4.366  -1.571  -0.409  1.00  0.00     0.014 A 
HETATM   18  C17 UNL     1       3.862   0.847   0.029  1.00  0.00     0.062 A 
HETATM   19  C15 UNL     1       5.646  -1.462  -0.132  1.00  0.00     0.008 A 
HETATM   20  C16 UNL     1       6.387  -0.260   0.282  1.00  0.00     0.049 A 
HETATM   21  S1  UNL     1       5.446   1.095   0.397  1.00  0.00    -0.113 SA
ENDBRANCH  13  15
ENDBRANCH  11  13
BRANCH   7  22
HETATM   22  C8  UNL     1      -5.321   0.124   0.272  1.00  0.00     0.203 C 
BRANCH  22  23
HETATM   23  O1  UNL     1      -5.765  -1.176   0.023  1.00  0.00    -0.396 OA
HETATM   24  H8  UNL     1      -6.155  -1.560   0.856  1.00  0.00     0.209 HD
ENDBRANCH  22  23
ENDBRANCH   7  22
TORSDOF 4
