REMARK  1 active torsions:
REMARK  status: ('A' for Active; 'I' for Inactive)
REMARK    1  A    between atoms: O1_2  and  C2_3 
ROOT
HETATM    1  C2  UNL     1       1.853  -0.443  -1.483  1.00  0.00     0.055 C 
HETATM    2  C3  UNL     1       1.161   0.149  -2.477  1.00  0.00     0.126 C 
HETATM    3  C4  UNL     1      -0.058   0.998  -2.536  1.00  0.00    -0.001 C 
HETATM    4  C5  UNL     1      -1.096   1.636  -1.948  1.00  0.00     0.089 C 
HETATM    5  N1  UNL     1      -1.357   1.623  -0.558  1.00  0.00    -0.338 N 
HETATM    6  C6  UNL     1      -1.643   2.753   0.273  1.00  0.00     0.279 C 
HETATM    7  N2  UNL     1      -1.968   2.302   1.602  1.00  0.00    -0.263 NA
HETATM    8  C7  UNL     1      -1.210   1.681   2.416  1.00  0.00     0.228 C 
HETATM    9  N3  UNL     1       0.104   1.350   2.084  1.00  0.00    -0.255 NA
HETATM   10  C8  UNL     1       1.182   1.828   2.539  1.00  0.00     0.118 C 
HETATM   11  C9  UNL     1       1.672   0.867   1.598  1.00  0.00     0.027 C 
HETATM   12  C10 UNL     1       1.127   0.002   0.799  1.00  0.00    -0.042 C 
HETATM   13  C11 UNL     1       2.122  -0.788  -0.009  1.00  0.00     0.072 C 
HETATM   14  C12 UNL     1      -0.258  -0.346   0.568  1.00  0.00    -0.002 A 
HETATM   15  C13 UNL     1      -0.470  -1.621   1.048  1.00  0.00     0.021 A 
HETATM   16  C14 UNL     1      -1.701  -2.289   0.990  1.00  0.00    -0.061 A 
HETATM   17  C15 UNL     1      -1.952  -3.670   1.502  1.00  0.00     0.048 C 
HETATM   18  C16 UNL     1      -2.761  -1.616   0.414  1.00  0.00     0.009 A 
HETATM   19  C17 UNL     1      -2.535  -0.339  -0.063  1.00  0.00     0.031 A 
HETATM   20  C18 UNL     1      -1.324   0.313  -0.005  1.00  0.00     0.046 A 
ENDROOT
BRANCH   1  21
HETATM   21  O1  UNL     1       2.763  -0.978  -2.391  1.00  0.00    -0.389 OA
HETATM   22  C1  UNL     1       3.944  -0.287  -2.776  1.00  0.00     0.202 C 
ENDBRANCH   1  21
TORSDOF 1
