REMARK  4 active torsions:
REMARK  status: ('A' for Active; 'I' for Inactive)
REMARK    1  A    between atoms: O1_2  and  C2_3 
REMARK    2  A    between atoms: C6_10  and  N3_11 
REMARK    3  A    between atoms: N3_11  and  C8_13 
REMARK    4  A    between atoms: C16_21  and  O2_22 
ROOT
HETATM    1  C2  UNL     1      -3.205   0.152   0.668  1.00  0.00     0.103 A 
HETATM    2  C3  UNL     1      -2.851   1.474   0.526  1.00  0.00     0.072 A 
HETATM    3  C4  UNL     1      -1.574   1.771   0.077  1.00  0.00     0.077 A 
HETATM    4  N1  UNL     1      -1.203   3.054  -0.070  1.00  0.00    -0.218 NA
HETATM    5  C5  UNL     1       0.059   3.290  -0.513  1.00  0.00     0.225 A 
HETATM    6 CL1  UNL     1       0.526   4.983  -0.700  1.00  0.00    -0.041 Cl
HETATM    7  N2  UNL     1       0.898   2.284  -0.790  1.00  0.00    -0.200 NA
HETATM    8  C6  UNL     1       0.553   0.987  -0.651  1.00  0.00     0.145 A 
HETATM    9  C14 UNL     1      -0.729   0.728  -0.202  1.00  0.00     0.042 A 
HETATM   10  C15 UNL     1      -1.098  -0.589  -0.054  1.00  0.00     0.057 A 
HETATM   11  C16 UNL     1      -2.368  -0.908   0.392  1.00  0.00     0.102 A 
ENDROOT
BRANCH   8  12
HETATM   12  N3  UNL     1       1.506  -0.021  -0.968  1.00  0.00    -0.335 N 
HETATM   13  C7  UNL     1       1.296  -1.046  -2.005  1.00  0.00     0.158 C 
BRANCH  12  14
HETATM   14  C8  UNL     1       2.734  -0.044  -0.246  1.00  0.00     0.035 A 
HETATM   15  C9  UNL     1       3.023   0.872   0.742  1.00  0.00     0.029 A 
HETATM   16  C10 UNL     1       4.232   0.827   1.434  1.00  0.00     0.002 A 
HETATM   17  C11 UNL     1       5.177  -0.153   1.137  1.00  0.00     0.000 A 
HETATM   18  C12 UNL     1       4.910  -1.073   0.159  1.00  0.00     0.002 A 
HETATM   19  C13 UNL     1       3.702  -0.992  -0.501  1.00  0.00     0.029 A 
ENDBRANCH  12  14
ENDBRANCH   8  12
BRANCH  11  20
HETATM   20  O2  UNL     1      -2.857  -2.182   0.581  1.00  0.00    -0.353 OA
HETATM   21  C17 UNL     1      -2.129  -3.363   0.345  1.00  0.00     0.210 C 
ENDBRANCH  11  20
BRANCH   1  22
HETATM   22  O1  UNL     1      -4.494  -0.090   1.120  1.00  0.00    -0.353 OA
HETATM   23  C1  UNL     1      -5.385   0.953   1.415  1.00  0.00     0.210 C 
ENDBRANCH   1  22
TORSDOF 4
