REMARK  8 active torsions:
REMARK  status: ('A' for Active; 'I' for Inactive)
REMARK    1  A    between atoms: O1_2  and  C2_3 
REMARK    2  A    between atoms: N1_7  and  O2_8 
REMARK    3  A    between atoms: O2_8  and  P1_9 
REMARK    4  A    between atoms: P1_9  and  N2_10 
REMARK    5  A    between atoms: N2_10  and  C6_11 
REMARK    6  A    between atoms: C6_11  and  N3_12 
REMARK    7  A    between atoms: N3_12  and  C8_14 
REMARK    8  A    between atoms: C15_22  and  O3_23 
ROOT
HETATM    1  O2  UNL     1      -0.661   1.826  -0.802  1.00  0.00    -0.196 OA
ENDROOT
BRANCH   1   2
HETATM    2  N1  UNL     1      -1.535   1.809   0.245  1.00  0.00    -0.132 NA
HETATM    3  C5  UNL     1      -2.585   1.098   0.180  1.00  0.00     0.068 A 
HETATM    4  C4  UNL     1      -3.324   1.288   1.458  1.00  0.00     0.091 A 
HETATM    5  C14 UNL     1      -3.087   0.225  -0.873  1.00  0.00     0.069 A 
HETATM    6  C3  UNL     1      -4.581   0.483   1.468  1.00  0.00     0.019 A 
HETATM    7  C2  UNL     1      -5.035  -0.319   0.491  1.00  0.00     0.098 A 
HETATM    8  C15 UNL     1      -4.228  -0.428  -0.716  1.00  0.00     0.103 A 
BRANCH   7   9
HETATM    9  O1  UNL     1      -6.218  -1.023   0.604  1.00  0.00    -0.353 OA
HETATM   10  C1  UNL     1      -6.871  -1.015   1.860  1.00  0.00     0.210 C 
ENDBRANCH   7   9
BRANCH   8  11
HETATM   11  O3  UNL     1      -4.644  -1.232  -1.742  1.00  0.00    -0.353 OA
HETATM   12  C16 UNL     1      -3.831  -1.553  -2.846  1.00  0.00     0.210 C 
ENDBRANCH   8  11
ENDBRANCH   1   2
BRANCH   1  13
HETATM   13  P1  UNL     1       1.073   1.915  -0.540  1.00  0.00     0.261 P 
BRANCH  13  14
HETATM   14  N2  UNL     1       1.666   1.529   0.904  1.00  0.00    -0.245 NA
BRANCH  14  15
HETATM   15  C6  UNL     1       3.035   1.550   1.270  1.00  0.00     0.274 C 
BRANCH  15  16
HETATM   16  N3  UNL     1       3.835   1.162   0.150  1.00  0.00    -0.366 N 
HETATM   17  C7  UNL     1       3.843   1.879  -1.101  1.00  0.00     0.151 C 
BRANCH  16  18
HETATM   18  C8  UNL     1       4.693   0.010   0.211  1.00  0.00     0.053 A 
HETATM   19  C9  UNL     1       6.060   0.060   0.036  1.00  0.00     0.031 A 
HETATM   20  C10 UNL     1       6.800  -1.114   0.114  1.00  0.00     0.002 A 
HETATM   21  C11 UNL     1       6.206  -2.355   0.366  1.00  0.00     0.002 A 
HETATM   22  C12 UNL     1       4.831  -2.407   0.543  1.00  0.00     0.026 A 
HETATM   23  C13 UNL     1       4.113  -1.227   0.461  1.00  0.00     0.060 A 
HETATM   24 CL1  UNL     1       2.391  -1.390   0.696  1.00  0.00    -0.082 Cl
ENDBRANCH  16  18
ENDBRANCH  15  16
ENDBRANCH  14  15
ENDBRANCH  13  14
ENDBRANCH   1  13
TORSDOF 8
