REMARK  7 active torsions:
REMARK  status: ('A' for Active; 'I' for Inactive)
REMARK    1  A    between atoms: C2_2  and  C3_3 
REMARK    2  A    between atoms: C3_3  and  C15_19 
REMARK    3  A    between atoms: C4_4  and  C5_5 
REMARK    4  A    between atoms: C8_11  and  N3_12 
REMARK    5  A    between atoms: N3_12  and  C10_14 
REMARK    6  A    between atoms: C15_19  and  C16_20 
REMARK    7  A    between atoms: C17_21  and  O1_22 
ROOT
HETATM    1  C5  UNL     1      -0.381  -1.535   0.304  1.00  0.00     0.028 A 
HETATM    2  C6  UNL     1       0.423  -2.502   0.861  1.00  0.00     0.135 A 
HETATM    3  N1  UNL     1      -0.020  -3.204   1.942  1.00  0.00    -0.230 NA
HETATM    4  C7  UNL     1      -1.240  -2.941   2.446  1.00  0.00     0.224 A 
HETATM    5 CL1  UNL     1      -1.924  -3.767   3.825  1.00  0.00    -0.041 Cl
HETATM    6  N2  UNL     1      -2.014  -2.006   1.904  1.00  0.00    -0.200 NA
HETATM    7  C8  UNL     1      -1.618  -1.284   0.834  1.00  0.00     0.141 A 
ENDROOT
BRANCH   1   8
HETATM    8  C4  UNL     1       0.156  -0.809  -0.814  1.00  0.00     0.020 C 
HETATM    9  C3  UNL     1       1.261  -0.188  -1.216  1.00  0.00    -0.076 C 
BRANCH   9  10
HETATM   10  C2  UNL     1       1.307   0.455  -2.582  1.00  0.00     0.030 C 
HETATM   11  C1  UNL     1       1.601   1.929  -2.440  1.00  0.00     0.010 C 
ENDBRANCH   9  10
BRANCH   9  12
HETATM   12  C15 UNL     1       2.595   0.118  -0.642  1.00  0.00     0.063 C 
BRANCH  12  13
HETATM   13  C16 UNL     1       2.772  -0.342   0.752  1.00  0.00     0.001 C 
HETATM   14  C17 UNL     1       3.733  -1.184   1.006  1.00  0.00     0.127 C 
BRANCH  14  15
HETATM   15  O1  UNL     1       4.440  -1.499  -0.165  1.00  0.00    -0.373 OA
HETATM   16  H20 UNL     1       5.308  -1.010  -0.373  1.00  0.00     0.216 HD
ENDBRANCH  14  15
ENDBRANCH  12  13
ENDBRANCH   9  12
ENDBRANCH   1   8
BRANCH   7  17
HETATM   17  N3  UNL     1      -2.469  -0.291   0.272  1.00  0.00    -0.358 N 
HETATM   18  C9  UNL     1      -3.061  -0.162  -1.067  1.00  0.00     0.152 C 
BRANCH  17  19
HETATM   19  C10 UNL     1      -2.889   0.838   1.068  1.00  0.00     0.131 A 
HETATM   20  C11 UNL     1      -2.420   2.096   0.420  1.00  0.00     0.002 A 
HETATM   21  C12 UNL     1      -1.620   2.751   1.270  1.00  0.00    -0.002 A 
HETATM   22  C13 UNL     1      -1.514   1.974   2.513  1.00  0.00    -0.002 A 
HETATM   23  C14 UNL     1      -2.238   0.878   2.403  1.00  0.00     0.002 A 
ENDBRANCH  17  19
ENDBRANCH   7  17
TORSDOF 7
