REMARK  4 active torsions:
REMARK  status: ('A' for Active; 'I' for Inactive)
REMARK    1  A    between atoms: C2_2  and  O1_3 
REMARK    2  A    between atoms: O1_3  and  C3_4 
REMARK    3  A    between atoms: N3_11  and  C8_12 
REMARK    4  A    between atoms: C14_19  and  O2_20 
ROOT
HETATM    1  C3  UNL     1      -1.355   0.234   0.860  1.00  0.00     0.115 A 
HETATM    2  C4  UNL     1      -0.171  -0.070   0.414  1.00  0.00     0.047 A 
HETATM    3  C5  UNL     1       0.621  -0.805   1.112  1.00  0.00     0.103 A 
HETATM    4  C6  UNL     1       0.297  -1.357   2.423  1.00  0.00     0.090 A 
HETATM    5  N1  UNL     1       1.129  -2.096   3.094  1.00  0.00    -0.238 NA
HETATM    6  C7  UNL     1       2.428  -2.401   2.554  1.00  0.00     0.256 A 
HETATM    7  N2  UNL     1       2.724  -1.919   1.397  1.00  0.00    -0.159 NA
HETATM    8  N3  UNL     1       1.913  -1.127   0.608  1.00  0.00    -0.214 N 
HETATM    9  C13 UNL     1      -1.045  -1.015   2.932  1.00  0.00     0.073 A 
HETATM   10  C14 UNL     1      -1.822  -0.244   2.154  1.00  0.00     0.104 A 
ENDROOT
BRANCH   8  11
HETATM   11  C8  UNL     1       2.397  -0.675  -0.652  1.00  0.00     0.125 A 
HETATM   12  C9  UNL     1       2.144  -1.263  -1.812  1.00  0.00     0.050 A 
HETATM   13  C10 UNL     1       2.694  -0.714  -3.059  1.00  0.00     0.001 A 
HETATM   14  C11 UNL     1       3.452   0.385  -3.015  1.00  0.00    -0.007 A 
HETATM   15  C12 UNL     1       3.792   1.114  -1.767  1.00  0.00     0.148 A 
HETATM   16  N4  UNL     1       3.205   0.496  -0.602  1.00  0.00    -0.371 N 
HETATM   17  H12 UNL     1       3.478   1.051   0.237  1.00  0.00     0.161 HD
ENDBRANCH   8  11
BRANCH   1  18
HETATM   18  O1  UNL     1      -2.238   1.021   0.144  1.00  0.00    -0.348 OA
BRANCH  18  19
HETATM   19  C2  UNL     1      -2.559   0.777  -1.213  1.00  0.00     0.171 C 
HETATM   20  C1  UNL     1      -3.552   1.780  -1.771  1.00  0.00     0.034 C 
ENDBRANCH  18  19
ENDBRANCH   1  18
BRANCH  10  21
HETATM   21  O2  UNL     1      -3.053   0.004   2.743  1.00  0.00    -0.353 OA
HETATM   22  C15 UNL     1      -3.973   0.826   2.054  1.00  0.00     0.210 C 
ENDBRANCH  10  21
TORSDOF 4
