REMARK  9 active torsions:
REMARK  status: ('A' for Active; 'I' for Inactive)
REMARK    1  A    between atoms: O1_1  and  C1_2 
REMARK    2  A    between atoms: N1_3  and  C2_4 
REMARK    3  A    between atoms: C2_4  and  N2_5 
REMARK    4  A    between atoms: N2_5  and  C3_6 
REMARK    5  A    between atoms: C3_6  and  N4_16 
REMARK    6  A    between atoms: C4_7  and  N3_8 
REMARK    7  A    between atoms: N3_8  and  C5_9 
REMARK    8  A    between atoms: C5_9  and  C6_10 
REMARK    9  A    between atoms: N4_16  and  C12_17 
ROOT
HETATM    1  C3  UNL     1      -1.151  -1.246  -0.538  1.00  0.00     0.144 C 
HETATM    2  C4  UNL     1       0.068  -1.638  -0.192  1.00  0.00     0.134 C 
ENDROOT
BRANCH   1   3
HETATM    3  N2  UNL     1      -2.401  -1.921  -0.622  1.00  0.00    -0.223 NA
BRANCH   3   4
HETATM    4  C2  UNL     1      -2.486  -2.923  -1.431  1.00  0.00     0.237 C 
BRANCH   4   5
HETATM    5  N1  UNL     1      -2.167  -3.938  -2.405  1.00  0.00    -0.231 NA
HETATM    6  C1  UNL     1      -1.538  -5.019  -2.039  1.00  0.00     0.249 C 
BRANCH   6   7
HETATM    7  O1  UNL     1      -1.148  -5.247  -0.712  1.00  0.00    -0.355 OA
HETATM    8  H1  UNL     1      -1.613  -4.715  -0.004  1.00  0.00     0.218 HD
ENDBRANCH   6   7
ENDBRANCH   4   5
ENDBRANCH   3   4
ENDBRANCH   1   3
BRANCH   1   9
HETATM    9  N4  UNL     1      -1.744  -0.004  -0.969  1.00  0.00    -0.340 N 
HETATM   10  H13 UNL     1      -1.840   0.347  -1.963  1.00  0.00     0.167 HD
BRANCH   9  11
HETATM   11  C12 UNL     1      -2.257   0.843   0.069  1.00  0.00     0.035 A 
HETATM   12  C13 UNL     1      -2.160   0.437   1.381  1.00  0.00     0.029 A 
HETATM   13  C14 UNL     1      -2.640   1.215   2.435  1.00  0.00     0.004 A 
HETATM   14  C15 UNL     1      -3.231   2.436   2.116  1.00  0.00     0.019 A 
HETATM   15  C16 UNL     1      -3.340   2.863   0.808  1.00  0.00     0.013 A 
HETATM   16 BR1  UNL     1      -4.167   4.559   0.443  1.00  0.00    -0.051 Br
HETATM   17  C17 UNL     1      -2.845   2.049  -0.198  1.00  0.00     0.048 A 
ENDBRANCH   9  11
ENDBRANCH   1   9
BRANCH   2  18
HETATM   18  N3  UNL     1       1.254  -0.900  -0.136  1.00  0.00    -0.392 N 
HETATM   19  H5  UNL     1       2.139  -1.448  -0.217  1.00  0.00     0.159 HD
BRANCH  18  20
HETATM   20  C5  UNL     1       1.268   0.540   0.025  1.00  0.00     0.157 C 
BRANCH  20  21
HETATM   21  C6  UNL     1       2.680   1.028   0.048  1.00  0.00    -0.041 A 
HETATM   22  C7  UNL     1       3.285   1.381  -1.146  1.00  0.00     0.009 A 
HETATM   23  C8  UNL     1       4.596   1.826  -1.057  1.00  0.00     0.001 A 
HETATM   24  C9  UNL     1       5.332   1.945   0.092  1.00  0.00     0.000 A 
HETATM   25  C10 UNL     1       4.682   1.578   1.270  1.00  0.00     0.001 A 
HETATM   26  C11 UNL     1       3.363   1.121   1.256  1.00  0.00     0.009 A 
ENDBRANCH  20  21
ENDBRANCH  18  20
ENDBRANCH   2  18
TORSDOF 9
