REMARK  2 active torsions:
REMARK  status: ('A' for Active; 'I' for Inactive)
REMARK    1  A    between atoms: O1_2  and  C2_3 
REMARK    2  A    between atoms: C14_18  and  O2_19 
ROOT
HETATM    1  C2  UNL     1       2.922  -0.752  -0.445  1.00  0.00     0.145 A 
HETATM    2  C3  UNL     1       2.088  -1.260   0.493  1.00  0.00     0.088 A 
HETATM    3  C4  UNL     1       0.616  -1.080   0.575  1.00  0.00     0.073 A 
HETATM    4  N1  UNL     1       0.353  -1.745   1.621  1.00  0.00    -0.240 NA
HETATM    5  C5  UNL     1      -0.934  -1.893   2.148  1.00  0.00     0.255 C 
HETATM    6  N2  UNL     1      -1.805  -1.280   1.547  1.00  0.00    -0.168 NA
HETATM    7  N3  UNL     1      -3.125  -1.049   1.575  1.00  0.00    -0.277 N 
HETATM    8  C6  UNL     1      -2.785   0.333   1.310  1.00  0.00     0.056 A 
HETATM    9  C7  UNL     1      -3.405   1.105   2.298  1.00  0.00     0.031 A 
HETATM   10  C8  UNL     1      -3.263   2.498   2.317  1.00  0.00     0.002 A 
HETATM   11  C9  UNL     1      -2.493   3.146   1.345  1.00  0.00     0.001 A 
HETATM   12  C10 UNL     1      -1.910   2.328   0.401  1.00  0.00     0.010 A 
HETATM   13  C11 UNL     1      -2.009   0.965   0.325  1.00  0.00    -0.025 A 
HETATM   14  C12 UNL     1      -1.404   0.058  -0.674  1.00  0.00     0.086 C 
HETATM   15  C13 UNL     1       0.009  -0.258  -0.490  1.00  0.00     0.026 A 
HETATM   16  C14 UNL     1       0.880   0.216  -1.384  1.00  0.00     0.152 A 
HETATM   17  N4  UNL     1       2.286   0.046  -1.463  1.00  0.00    -0.317 N 
HETATM   18  H6  UNL     1      -4.129  -1.305   1.675  1.00  0.00     0.189 HD
HETATM   19  H16 UNL     1       2.848   0.475  -2.219  1.00  0.00     0.170 HD
ENDROOT
BRANCH   1  20
HETATM   20  O1  UNL     1       4.321  -0.884  -0.580  1.00  0.00    -0.341 OA
HETATM   21  C1  UNL     1       4.965  -2.079  -0.174  1.00  0.00     0.211 C 
ENDBRANCH   1  20
BRANCH  16  22
HETATM   22  O2  UNL     1       0.362   1.010  -2.424  1.00  0.00    -0.340 OA
HETATM   23  C15 UNL     1       0.606   0.673  -3.760  1.00  0.00     0.211 C 
ENDBRANCH  16  22
TORSDOF 2
