REMARK  4 active torsions:
REMARK  status: ('A' for Active; 'I' for Inactive)
REMARK    1  A    between atoms: O1_2  and  C2_3 
REMARK    2  A    between atoms: C6_9  and  N3_10 
REMARK    3  A    between atoms: N3_10  and  C7_11 
REMARK    4  A    between atoms: C14_18  and  O2_19 
ROOT
HETATM    1  C2  UNL     1      -3.203   0.194   0.210  1.00  0.00     0.103 A 
HETATM    2  C3  UNL     1      -2.605   1.434   0.136  1.00  0.00     0.072 A 
HETATM    3  C4  UNL     1      -1.220   1.567   0.049  1.00  0.00     0.075 A 
HETATM    4  N1  UNL     1      -0.666   2.804  -0.022  1.00  0.00    -0.241 NA
HETATM    5  C5  UNL     1       0.671   2.913  -0.106  1.00  0.00     0.236 A 
HETATM    6  N2  UNL     1       1.430   1.781  -0.118  1.00  0.00    -0.224 NA
HETATM    7  C6  UNL     1       0.871   0.560  -0.047  1.00  0.00     0.141 A 
HETATM    8  C12 UNL     1      -0.492   0.391   0.040  1.00  0.00     0.042 A 
HETATM    9  C13 UNL     1      -1.040  -0.848   0.111  1.00  0.00     0.057 A 
HETATM   10  C14 UNL     1      -2.419  -0.963   0.198  1.00  0.00     0.102 A 
ENDROOT
BRANCH   7  11
HETATM   11  N3  UNL     1       1.780  -0.532  -0.069  1.00  0.00    -0.344 N 
HETATM   12  H6  UNL     1       1.607  -1.556  -0.027  1.00  0.00     0.167 HD
BRANCH  11  13
HETATM   13  C7  UNL     1       3.179  -0.286  -0.161  1.00  0.00     0.014 A 
HETATM   14  C8  UNL     1       3.814   0.120  -1.252  1.00  0.00     0.025 A 
HETATM   15  C9  UNL     1       5.234   0.259  -0.950  1.00  0.00    -0.002 A 
HETATM   16  C10 UNL     1       5.458  -0.064   0.326  1.00  0.00    -0.021 A 
HETATM   17  C11 UNL     1       4.165  -0.440   0.939  1.00  0.00     0.084 A 
ENDBRANCH  11  13
ENDBRANCH   7  11
BRANCH  10  18
HETATM   18  O2  UNL     1      -2.994  -2.224   0.270  1.00  0.00    -0.353 OA
HETATM   19  C15 UNL     1      -2.139  -3.340   0.253  1.00  0.00     0.210 C 
ENDBRANCH  10  18
BRANCH   1  20
HETATM   20  O1  UNL     1      -4.570  -0.025   0.299  1.00  0.00    -0.353 OA
HETATM   21  C1  UNL     1      -5.499   1.068   0.322  1.00  0.00     0.210 C 
ENDBRANCH   1  20
TORSDOF 4
