REMARK  3 active torsions:
REMARK  status: ('A' for Active; 'I' for Inactive)
REMARK    1  A    between atoms: C2_3  and  B2_4 
REMARK    2  A    between atoms: C5_8  and  N2_9 
REMARK    3  A    between atoms: N2_9  and  C6_10 
ROOT
HETATM    1  B1  UNL     1      -2.741  -2.320   4.919  1.00  0.00     0.188 B 
HETATM    2  C1  UNL     1      -3.401  -1.844   3.397  1.00  0.00    -0.270 C 
HETATM    3  C2  UNL     1      -3.934  -1.447   2.107  1.00  0.00     0.022 C 
ENDROOT
BRANCH   3   4
HETATM    4  B2  UNL     1      -2.780  -0.944   1.123  1.00  0.00     0.273 B 
HETATM    5  C3  UNL     1      -1.376  -0.619   1.743  1.00  0.00     0.078 C 
HETATM    6  N1  UNL     1      -0.524   0.146   0.889  1.00  0.00    -0.391 N 
HETATM    7  C4  UNL     1      -0.117  -0.130  -0.448  1.00  0.00     0.127 A 
HETATM    8  H5  UNL     1      -0.068   1.074   1.167  1.00  0.00     0.158 HD
HETATM    9  C5  UNL     1       1.203   0.156  -0.753  1.00  0.00     0.160 A 
HETATM   10  C13 UNL     1      -0.911  -0.642  -1.489  1.00  0.00     0.200 A 
HETATM   11  N3  UNL     1       1.642  -0.063  -1.994  1.00  0.00    -0.222 NA
HETATM   12  C12 UNL     1       0.905  -0.544  -2.985  1.00  0.00     0.238 A 
HETATM   13  N4  UNL     1      -0.384  -0.838  -2.735  1.00  0.00    -0.215 NA
HETATM   14  O1  UNL     1      -2.269  -1.023  -1.482  1.00  0.00    -0.307 OA
HETATM   15  C14 UNL     1      -3.151  -0.936  -0.389  1.00  0.00     0.010 C 
HETATM   16  C15 UNL     1      -4.423  -0.835  -0.676  1.00  0.00    -0.011 C 
HETATM   17  C16 UNL     1      -5.094  -0.800  -2.026  1.00  0.00     0.037 C 
BRANCH   9  18
HETATM   18  N2  UNL     1       2.041   0.638   0.287  1.00  0.00    -0.339 N 
HETATM   19  H6  UNL     1       1.736   0.677   1.281  1.00  0.00     0.167 HD
BRANCH  18  20
HETATM   20  C6  UNL     1       3.381   1.111   0.219  1.00  0.00     0.035 A 
HETATM   21  C7  UNL     1       4.164   1.450   1.327  1.00  0.00     0.029 A 
HETATM   22  C8  UNL     1       5.449   1.906   1.221  1.00  0.00     0.004 A 
HETATM   23  C9  UNL     1       6.057   2.062  -0.001  1.00  0.00     0.019 A 
HETATM   24  C10 UNL     1       5.331   1.742  -1.148  1.00  0.00     0.013 A 
HETATM   25 BR1  UNL     1       6.205   1.970  -2.823  1.00  0.00    -0.051 Br
HETATM   26  C11 UNL     1       4.044   1.288  -0.976  1.00  0.00     0.048 A 
ENDBRANCH  18  20
ENDBRANCH   9  18
ENDBRANCH   3   4
TORSDOF 3
