REMARK  4 active torsions:
REMARK  status: ('A' for Active; 'I' for Inactive)
REMARK    1  A    between atoms: O1_2  and  C2_3 
REMARK    2  A    between atoms: C5_6  and  N1_7 
REMARK    3  A    between atoms: C8_12  and  C9_13 
REMARK    4  A    between atoms: C10_14  and  C12_16 
ROOT
HETATM    1  N1  UNL     1       0.389  -1.650   0.226  1.00  0.00    -0.317 N 
HETATM    2  C6  UNL     1       0.260  -3.089   0.326  1.00  0.00     0.281 A 
HETATM    3  N2  UNL     1       1.568  -3.691   0.346  1.00  0.00    -0.263 NA
HETATM    4  C7  UNL     1       2.630  -2.984   0.281  1.00  0.00     0.230 A 
HETATM    5  N3  UNL     1       2.678  -1.566   0.183  1.00  0.00    -0.225 NA
HETATM    6  C8  UNL     1       1.586  -0.887   0.154  1.00  0.00     0.133 A 
ENDROOT
BRANCH   1   7
HETATM    7  C5  UNL     1      -0.849  -0.911   0.195  1.00  0.00     0.015 A 
HETATM    8  C4  UNL     1      -1.118  -0.277   1.316  1.00  0.00     0.027 A 
HETATM    9  C3  UNL     1      -2.372   0.456   1.249  1.00  0.00     0.034 A 
HETATM   10  C2  UNL     1      -2.947   0.312   0.073  1.00  0.00     0.046 A 
HETATM   11  C14 UNL     1      -2.732  -0.362  -1.224  1.00  0.00     0.070 A 
HETATM   12  C13 UNL     1      -1.432  -1.121  -1.145  1.00  0.00     0.064 A 
BRANCH  10  13
HETATM   13  O1  UNL     1      -4.167   1.002  -0.049  1.00  0.00    -0.360 OA
HETATM   14  C1  UNL     1      -4.227   2.413   0.015  1.00  0.00     0.209 C 
ENDBRANCH  10  13
ENDBRANCH   1   7
BRANCH   6  15
HETATM   15  C9  UNL     1       1.550   0.565   0.055  1.00  0.00     0.062 C 
HETATM   16  C10 UNL     1       2.669   1.262  -0.011  1.00  0.00     0.025 C 
HETATM   17  C11 UNL     1       3.987   0.624   0.011  1.00  0.00     0.053 C 
BRANCH  16  18
HETATM   18  C12 UNL     1       2.564   2.762  -0.112  1.00  0.00     0.413 C 
HETATM   19  F1  UNL     1       3.186   3.094  -1.305  1.00  0.00    -0.166 F 
HETATM   20  F2  UNL     1       1.245   3.148  -0.217  1.00  0.00    -0.166 F 
HETATM   21  F3  UNL     1       3.140   3.384   0.969  1.00  0.00    -0.166 F 
ENDBRANCH  16  18
ENDBRANCH   6  15
TORSDOF 4
