REMARK  3 active torsions:
REMARK  status: ('A' for Active; 'I' for Inactive)
REMARK    1  A    between atoms: C2_2  and  N1_3 
REMARK    2  A    between atoms: C7_10  and  O1_11 
REMARK    3  A    between atoms: C15_19  and  C16_20 
ROOT
HETATM    1  N1  UNL     1      -2.236   0.658   2.040  1.00  0.00    -0.273 N 
HETATM    2  N2  UNL     1      -2.482   1.921   1.496  1.00  0.00    -0.169 NA
HETATM    3  C3  UNL     1      -1.945   2.458   0.479  1.00  0.00     0.215 C 
HETATM    4  N3  UNL     1      -0.969   2.069  -0.457  1.00  0.00    -0.398 NA
HETATM    5  C4  UNL     1      -0.605   2.522  -1.559  1.00  0.00     0.326 C 
HETATM    6  C5  UNL     1       0.503   1.816  -2.311  1.00  0.00     0.001 C 
HETATM    7  C6  UNL     1       1.482   0.899  -2.459  1.00  0.00     0.003 C 
HETATM    8  C7  UNL     1       2.090  -0.150  -1.670  1.00  0.00     0.144 C 
HETATM    9  C9  UNL     1       1.370  -1.404  -1.360  1.00  0.00     0.051 C 
HETATM   10  C10 UNL     1       0.094  -1.193  -0.568  1.00  0.00     0.008 A 
HETATM   11  C11 UNL     1       0.712  -0.425   0.391  1.00  0.00    -0.013 A 
HETATM   12  C12 UNL     1       0.148   0.298   1.416  1.00  0.00     0.024 A 
HETATM   13  C13 UNL     1      -1.202   0.078   1.258  1.00  0.00     0.036 A 
HETATM   14  C14 UNL     1      -1.169  -0.722   0.200  1.00  0.00     0.070 A 
HETATM   15  C15 UNL     1      -1.264  -1.523  -0.843  1.00  0.00     0.097 A 
ENDROOT
BRANCH  15  16
HETATM   16  C16 UNL     1      -1.191  -2.390  -2.001  1.00  0.00     0.398 C 
HETATM   17  F1  UNL     1      -0.376  -3.484  -1.666  1.00  0.00    -0.170 F 
HETATM   18  F2  UNL     1      -2.441  -2.995  -2.224  1.00  0.00    -0.170 F 
HETATM   19  F3  UNL     1      -0.770  -1.808  -3.164  1.00  0.00    -0.170 F 
ENDBRANCH  15  16
BRANCH   8  20
HETATM   20  O1  UNL     1       3.297  -0.545  -2.328  1.00  0.00    -0.387 OA
HETATM   21  C8  UNL     1       4.348  -0.116  -1.500  1.00  0.00     0.202 C 
ENDBRANCH   8  20
BRANCH   1  22
HETATM   22  C2  UNL     1      -2.573  -0.247   3.101  1.00  0.00     0.147 C 
HETATM   23  C1  UNL     1      -1.876   0.244   4.374  1.00  0.00     0.028 C 
ENDBRANCH   1  22
TORSDOF 3
