REMARK  5 active torsions:
REMARK  status: ('A' for Active; 'I' for Inactive)
REMARK    1  A    between atoms: O1_2  and  C2_3 
REMARK    2  A    between atoms: C6_9  and  N3_10 
REMARK    3  A    between atoms: N3_10  and  C8_12 
REMARK    4  A    between atoms: C9_13  and  C10_14 
REMARK    5  A    between atoms: C13_18  and  O2_19 
ROOT
HETATM    1  C2  UNL     1       2.880  -0.002   0.148  1.00  0.00     0.103 A 
HETATM    2  C3  UNL     1       2.529  -0.644   1.319  1.00  0.00     0.072 A 
HETATM    3  C4  UNL     1       1.199  -1.010   1.530  1.00  0.00     0.075 A 
HETATM    4  N1  UNL     1       0.782  -1.642   2.655  1.00  0.00    -0.241 NA
HETATM    5  C5  UNL     1      -0.516  -1.970   2.801  1.00  0.00     0.236 A 
HETATM    6  N2  UNL     1      -1.414  -1.679   1.841  1.00  0.00    -0.223 NA
HETATM    7  C6  UNL     1      -1.011  -1.051   0.718  1.00  0.00     0.143 A 
HETATM    8  C11 UNL     1       0.310  -0.694   0.523  1.00  0.00     0.042 A 
HETATM    9  C12 UNL     1       0.636  -0.054  -0.655  1.00  0.00     0.057 A 
HETATM   10  C13 UNL     1       1.958   0.296  -0.836  1.00  0.00     0.102 A 
ENDROOT
BRANCH   7  11
HETATM   11  N3  UNL     1      -2.068  -0.803  -0.218  1.00  0.00    -0.346 N 
HETATM   12  C7  UNL     1      -2.235  -1.246  -1.589  1.00  0.00     0.157 C 
BRANCH  11  13
HETATM   13  C8  UNL     1      -3.088   0.017   0.348  1.00  0.00     0.090 C 
HETATM   14  C9  UNL     1      -3.398   1.056  -0.406  1.00  0.00     0.021 C 
BRANCH  14  15
HETATM   15  C10 UNL     1      -4.417   2.090  -0.093  1.00  0.00     0.251 C 
HETATM   16  F1  UNL     1      -3.784   3.319  -0.037  1.00  0.00    -0.251 F 
ENDBRANCH  14  15
ENDBRANCH  11  13
ENDBRANCH   7  11
BRANCH  10  17
HETATM   17  O2  UNL     1       2.405   0.943  -1.981  1.00  0.00    -0.353 OA
HETATM   18  C14 UNL     1       1.438   1.236  -2.972  1.00  0.00     0.210 C 
ENDBRANCH  10  17
BRANCH   1  19
HETATM   19  O1  UNL     1       4.208   0.352  -0.040  1.00  0.00    -0.353 OA
HETATM   20  C1  UNL     1       5.150   0.033   0.995  1.00  0.00     0.210 C 
ENDBRANCH   1  19
TORSDOF 5
