REMARK  4 active torsions:
REMARK  status: ('A' for Active; 'I' for Inactive)
REMARK    1  A    between atoms: O1_2  and  C2_3 
REMARK    2  A    between atoms: C10_13  and  C11_14 
REMARK    3  A    between atoms: C12_15  and  C13_16 
REMARK    4  A    between atoms: C17_24  and  O2_25 
ROOT
HETATM    1  C2  UNL     1       3.169   0.927  -0.316  1.00  0.00     0.103 C 
HETATM    2  C3  UNL     1       2.890   0.495   0.931  1.00  0.00     0.068 C 
HETATM    3  C4  UNL     1       1.505   0.077   1.103  1.00  0.00     0.051 C 
HETATM    4  N1  UNL     1       1.320  -0.564   2.200  1.00  0.00    -0.246 NA
HETATM    5  C5  UNL     1       0.073  -1.079   2.596  1.00  0.00     0.229 C 
HETATM    6  N2  UNL     1      -1.051  -1.612   2.808  1.00  0.00    -0.253 NA
HETATM    7  C6  UNL     1      -1.764  -2.443   1.902  1.00  0.00     0.232 C 
HETATM    8  C7  UNL     1      -0.820  -2.998   0.861  1.00  0.00     0.022 C 
HETATM    9  C8  UNL     1       0.114  -2.107   0.596  1.00  0.00     0.010 C 
HETATM   10  C9  UNL     1      -0.550  -0.858   0.332  1.00  0.00    -0.018 C 
HETATM   11  C10 UNL     1      -1.862  -0.716   0.358  1.00  0.00     0.039 C 
HETATM   12  N3  UNL     1      -2.683  -1.620   1.074  1.00  0.00    -0.358 N 
HETATM   13  C14 UNL     1      -4.100  -1.867   1.137  1.00  0.00     0.152 C 
HETATM   14  C15 UNL     1       0.331   0.252   0.161  1.00  0.00     0.098 C 
HETATM   15  C16 UNL     1       0.826   0.681  -1.121  1.00  0.00     0.028 C 
HETATM   16  C17 UNL     1       2.115   1.002  -1.354  1.00  0.00     0.098 C 
ENDROOT
BRANCH  11  17
HETATM   17  C11 UNL     1      -2.415   0.413  -0.377  1.00  0.00     0.034 C 
HETATM   18  C12 UNL     1      -3.652   0.822  -0.547  1.00  0.00     0.091 C 
BRANCH  18  19
HETATM   19  C13 UNL     1      -4.228   1.981  -1.301  1.00  0.00     0.408 C 
HETATM   20  F1  UNL     1      -4.892   2.868  -0.478  1.00  0.00    -0.167 F 
HETATM   21  F2  UNL     1      -3.210   2.707  -1.917  1.00  0.00    -0.167 F 
HETATM   22  F3  UNL     1      -5.068   1.589  -2.317  1.00  0.00    -0.167 F 
ENDBRANCH  18  19
ENDBRANCH  11  17
BRANCH  16  23
HETATM   23  O2  UNL     1       2.574   1.439  -2.613  1.00  0.00    -0.353 OA
HETATM   24  C18 UNL     1       3.406   0.551  -3.338  1.00  0.00     0.210 C 
ENDBRANCH  16  23
BRANCH   1  25
HETATM   25  O1  UNL     1       4.468   1.325  -0.596  1.00  0.00    -0.353 OA
HETATM   26  C1  UNL     1       5.128   2.357   0.114  1.00  0.00     0.210 C 
ENDBRANCH   1  25
TORSDOF 4
