REMARK  2 active torsions:
REMARK  status: ('A' for Active; 'I' for Inactive)
REMARK    1  A    between atoms: O1_2  and  C2_3 
REMARK    2  A    between atoms: C10_14  and  C11_15 
ROOT
HETATM    1  C2  UNL     1       1.463  -0.845   1.497  1.00  0.00     0.098 C 
HETATM    2  C3  UNL     1       2.031   0.296   1.159  1.00  0.00     0.022 C 
HETATM    3  C4  UNL     1       1.718   1.014  -0.097  1.00  0.00     0.064 C 
HETATM    4  C5  UNL     1       1.765   0.053  -1.214  1.00  0.00     0.064 C 
HETATM    5  C6  UNL     1       0.837   0.415  -2.339  1.00  0.00     0.123 C 
HETATM    6  N1  UNL     1       0.901   1.648  -2.722  1.00  0.00    -0.170 NA
HETATM    7  N2  UNL     1       0.750   2.817  -1.949  1.00  0.00    -0.184 N 
HETATM    8  O2  UNL     1       0.529   3.032  -0.632  1.00  0.00    -0.248 OA
HETATM    9  C7  UNL     1       0.481   1.830   0.082  1.00  0.00     0.113 C 
HETATM   10  C8  UNL     1       0.359   2.136   1.573  1.00  0.00     0.054 C 
HETATM   11  C9  UNL     1      -0.746   1.128  -0.290  1.00  0.00     0.030 C 
HETATM   12  C10 UNL     1      -1.986   0.996  -0.684  1.00  0.00     0.047 C 
HETATM   13  C12 UNL     1      -2.827  -0.203  -0.912  1.00  0.00     0.016 C 
HETATM   14  C13 UNL     1      -2.704  -1.501  -0.821  1.00  0.00     0.003 C 
HETATM   15  C14 UNL     1      -1.926  -2.671  -0.520  1.00  0.00     0.025 C 
HETATM   16  C15 UNL     1      -0.703  -3.007  -0.108  1.00  0.00     0.142 C 
HETATM   17  O3  UNL     1       0.636  -3.005   0.328  1.00  0.00    -0.320 OA
HETATM   18  C16 UNL     1       1.213  -1.743   0.388  1.00  0.00     0.104 C 
HETATM   19  C17 UNL     1       1.571  -1.355  -0.848  1.00  0.00     0.024 C 
HETATM   20  H8  UNL     1       0.810   3.761  -2.439  1.00  0.00     0.218 HD
ENDROOT
BRANCH  12  21
HETATM   21  C11 UNL     1      -2.681   2.310  -0.947  1.00  0.00     0.417 C 
HETATM   22  F1  UNL     1      -3.873   2.253  -0.200  1.00  0.00    -0.166 F 
HETATM   23  F2  UNL     1      -3.065   2.362  -2.272  1.00  0.00    -0.166 F 
HETATM   24  F3  UNL     1      -1.955   3.392  -0.589  1.00  0.00    -0.166 F 
ENDBRANCH  12  21
BRANCH   1  25
HETATM   25  O1  UNL     1       1.120  -1.192   2.792  1.00  0.00    -0.353 OA
HETATM   26  C1  UNL     1       1.409  -2.499   3.267  1.00  0.00     0.210 C 
ENDBRANCH   1  25
TORSDOF 2
