REMARK  5 active torsions:
REMARK  status: ('A' for Active; 'I' for Inactive)
REMARK    1  A    between atoms: C2_2  and  C3_3 
REMARK    2  A    between atoms: C3_3  and  C17_22 
REMARK    3  A    between atoms: C4_4  and  C5_5 
REMARK    4  A    between atoms: C13_16  and  C14_17 
REMARK    5  A    between atoms: C14_17  and  O1_18 
ROOT
HETATM    1  C5  UNL     1      -1.551   0.518  -0.323  1.00  0.00     0.036 A 
HETATM    2  C6  UNL     1      -0.505   1.359   0.032  1.00  0.00     0.043 A 
HETATM    3  C7  UNL     1       0.633   0.591  -0.075  1.00  0.00     0.014 A 
HETATM    4  C8  UNL     1       0.294  -0.709  -0.490  1.00  0.00     0.134 A 
HETATM    5  N1  UNL     1      -1.042  -0.681  -0.621  1.00  0.00    -0.336 N 
HETATM    6  C9  UNL     1      -1.632  -1.942  -1.068  1.00  0.00     0.158 C 
HETATM    7  N2  UNL     1       1.383  -1.572  -0.630  1.00  0.00    -0.248 N 
HETATM    8  C10 UNL     1       1.455  -2.746  -1.072  1.00  0.00     0.202 A 
HETATM    9  N3  UNL     1       2.607  -2.064  -0.603  1.00  0.00    -0.158 NA
HETATM   10  C11 UNL     1       3.768  -2.617  -0.769  1.00  0.00     0.093 C 
HETATM   11  C12 UNL     1       4.530  -1.523  -0.128  1.00  0.00     0.048 C 
HETATM   12  C13 UNL     1       4.159  -0.354   0.434  1.00  0.00     0.071 C 
HETATM   13  O2  UNL     1       2.814  -0.183   0.380  1.00  0.00    -0.349 OA
HETATM   14  C16 UNL     1       2.060   0.972   0.189  1.00  0.00     0.218 C 
ENDROOT
BRANCH   1  15
HETATM   15  C4  UNL     1      -2.955   0.846  -0.394  1.00  0.00     0.038 C 
HETATM   16  C3  UNL     1      -4.148   0.375   0.018  1.00  0.00    -0.015 C 
BRANCH  16  17
HETATM   17  C2  UNL     1      -5.404   1.126  -0.339  1.00  0.00     0.035 C 
HETATM   18  C1  UNL     1      -6.175   1.595   0.848  1.00  0.00     0.010 C 
ENDBRANCH  16  17
BRANCH  16  19
HETATM   19  C17 UNL     1      -4.616  -0.778   0.820  1.00  0.00     0.382 C 
HETATM   20  F1  UNL     1      -3.623  -1.583   1.304  1.00  0.00    -0.209 F 
HETATM   21  F2  UNL     1      -5.319  -0.345   1.937  1.00  0.00    -0.209 F 
ENDBRANCH  16  19
ENDBRANCH   1  15
BRANCH  12  22
HETATM   22  C14 UNL     1       5.048   0.677   1.056  1.00  0.00     0.231 C 
BRANCH  22  23
HETATM   23  O1  UNL     1       4.975   1.908   0.452  1.00  0.00    -0.390 OA
HETATM   24  C15 UNL     1       5.327   1.896  -0.883  1.00  0.00     0.201 C 
ENDBRANCH  22  23
ENDBRANCH  12  22
TORSDOF 5
