REMARK  5 active torsions:
REMARK  status: ('A' for Active; 'I' for Inactive)
REMARK    1  A    between atoms: O1_2  and  C2_3 
REMARK    2  A    between atoms: C6_9  and  N3_10 
REMARK    3  A    between atoms: N3_10  and  C8_12 
REMARK    4  A    between atoms: C11_15  and  C12_16 
REMARK    5  A    between atoms: P1_21  and  O2_22 
ROOT
HETATM    1  C2  UNL     1      -2.826  -0.356  -1.532  1.00  0.00     0.095 A 
HETATM    2  C3  UNL     1      -2.247  -1.525  -1.641  1.00  0.00     0.072 A 
HETATM    3  C4  UNL     1      -1.030  -1.874  -0.923  1.00  0.00     0.075 A 
HETATM    4  N1  UNL     1      -0.609  -3.124  -1.182  1.00  0.00    -0.241 NA
HETATM    5  C5  UNL     1       0.501  -3.623  -0.608  1.00  0.00     0.236 A 
HETATM    6  N2  UNL     1       1.193  -2.820   0.251  1.00  0.00    -0.224 NA
HETATM    7  C6  UNL     1       0.767  -1.565   0.509  1.00  0.00     0.140 A 
HETATM    8  C14 UNL     1      -0.368  -1.033  -0.068  1.00  0.00     0.041 A 
HETATM    9  C15 UNL     1      -0.825   0.304   0.205  1.00  0.00     0.050 A 
HETATM   10  P1  UNL     1      -2.158   0.918  -0.478  1.00  0.00     0.043 P 
HETATM   11  H16 UNL     1      -1.896   2.106  -1.175  1.00  0.00     0.092 HD
ENDROOT
BRANCH   7  12
HETATM   12  N3  UNL     1       1.547  -0.789   1.419  1.00  0.00    -0.358 N 
HETATM   13  C7  UNL     1       1.182  -0.177   2.700  1.00  0.00     0.152 C 
BRANCH  12  14
HETATM   14  C8  UNL     1       2.950  -0.498   1.123  1.00  0.00     0.132 A 
HETATM   15  C9  UNL     1       3.121   0.968   1.048  1.00  0.00     0.003 A 
HETATM   16  C10 UNL     1       3.451   1.361  -0.189  1.00  0.00     0.007 A 
HETATM   17  C11 UNL     1       3.516   0.141  -1.012  1.00  0.00    -0.032 A 
HETATM   18  C13 UNL     1       3.233  -0.930  -0.284  1.00  0.00     0.012 A 
BRANCH  17  19
HETATM   19  C12 UNL     1       3.863   0.208  -2.469  1.00  0.00     0.260 C 
HETATM   20  F1  UNL     1       5.106   0.754  -2.634  1.00  0.00    -0.251 F 
ENDBRANCH  17  19
ENDBRANCH  12  14
ENDBRANCH   7  12
BRANCH  10  21
HETATM   21  O2  UNL     1      -3.252   1.197   0.808  1.00  0.00    -0.367 OA
HETATM   22  C16 UNL     1      -3.079   2.503   1.286  1.00  0.00     0.207 C 
ENDBRANCH  10  21
BRANCH   1  23
HETATM   23  O1  UNL     1      -3.957   0.141  -2.121  1.00  0.00    -0.353 OA
HETATM   24  C1  UNL     1      -4.975   0.877  -1.520  1.00  0.00     0.210 C 
ENDBRANCH   1  23
TORSDOF 5
