REMARK  5 active torsions:
REMARK  status: ('A' for Active; 'I' for Inactive)
REMARK    1  A    between atoms: C7_7  and  C8_8 
REMARK    2  A    between atoms: C8_8  and  O1_9 
REMARK    3  A    between atoms: N2_11  and  O2_12 
REMARK    4  A    between atoms: N3_14  and  C10_15 
REMARK    5  A    between atoms: C14_19  and  C15_20 
ROOT
HETATM    1  C1  UNL     1      -4.303   2.378  -0.620  1.00  0.00     0.049 C 
HETATM    2  C2  UNL     1      -3.487   1.181  -0.290  1.00  0.00    -0.053 A 
HETATM    3  C3  UNL     1      -2.114   1.248  -0.400  1.00  0.00     0.022 A 
HETATM    4  C4  UNL     1      -1.301   0.173  -0.108  1.00  0.00     0.011 A 
HETATM    5  C5  UNL     1      -1.893  -0.998   0.304  1.00  0.00     0.091 A 
HETATM    6  C6  UNL     1      -3.268  -1.088   0.421  1.00  0.00     0.044 A 
HETATM    7  C7  UNL     1      -4.073   0.017   0.120  1.00  0.00    -0.026 A 
HETATM    8  N1  UNL     1      -1.350  -2.125   0.624  1.00  0.00    -0.149 NA
HETATM    9  N2  UNL     1       0.025  -2.372   0.607  1.00  0.00    -0.159 N 
HETATM   10  C9  UNL     1       1.233  -1.718   0.255  1.00  0.00     0.308 A 
HETATM   11  N3  UNL     1       1.159  -0.341  -0.096  1.00  0.00    -0.335 N 
HETATM   12  C17 UNL     1      -0.013   0.398  -0.259  1.00  0.00     0.107 A 
ENDROOT
BRANCH  11  13
HETATM   13  C10 UNL     1       2.436   0.250  -0.274  1.00  0.00     0.036 A 
HETATM   14  C11 UNL     1       2.699   1.567  -0.571  1.00  0.00     0.029 A 
HETATM   15  C12 UNL     1       3.932   2.124  -0.739  1.00  0.00     0.003 A 
HETATM   16  C13 UNL     1       5.043   1.325  -0.609  1.00  0.00     0.016 A 
HETATM   17  C14 UNL     1       4.856  -0.001  -0.313  1.00  0.00     0.050 A 
HETATM   18  C16 UNL     1       3.594  -0.488  -0.158  1.00  0.00     0.045 A 
BRANCH  17  19
HETATM   19  C15 UNL     1       6.079  -0.835  -0.176  1.00  0.00     0.417 C 
HETATM   20  F1  UNL     1       7.108  -0.041   0.287  1.00  0.00    -0.166 F 
HETATM   21  F2  UNL     1       5.915  -1.832   0.767  1.00  0.00    -0.166 F 
HETATM   22  F3  UNL     1       6.351  -1.412  -1.378  1.00  0.00    -0.166 F 
ENDBRANCH  17  19
ENDBRANCH  11  13
BRANCH   9  23
HETATM   23  O2  UNL     1       0.339  -3.608   1.061  1.00  0.00    -0.269 OA
HETATM   24  H9  UNL     1      -0.200  -3.933   1.798  1.00  0.00     0.246 HD
ENDBRANCH   9  23
BRANCH   7  25
HETATM   25  C8  UNL     1      -5.533  -0.023   0.230  1.00  0.00     0.203 C 
BRANCH  25  26
HETATM   26  O1  UNL     1      -6.171  -0.120  -1.017  1.00  0.00    -0.396 OA
HETATM   27  H8  UNL     1      -5.804  -0.831  -1.568  1.00  0.00     0.209 HD
ENDBRANCH  25  26
ENDBRANCH   7  25
TORSDOF 5
