REMARK  9 active torsions:
REMARK  status: ('A' for Active; 'I' for Inactive)
REMARK    1  A    between atoms: O1_2  and  C2_3 
REMARK    2  A    between atoms: C2_3  and  O2_4 
REMARK    3  A    between atoms: O2_4  and  N1_5 
REMARK    4  A    between atoms: C9_14  and  N3_15 
REMARK    5  A    between atoms: N3_15  and  C10_16 
REMARK    6  A    between atoms: C11_17  and  C12_18 
REMARK    7  A    between atoms: C13_19  and  C14_20 
REMARK    8  A    between atoms: C14_20  and  C15_22 
REMARK    9  A    between atoms: C15_22  and  C16_23 
ROOT
HETATM    1  N1  UNL     1       2.460  -1.170   0.479  1.00  0.00    -0.139 N 
HETATM    2  N2  UNL     1       2.178  -1.274  -0.886  1.00  0.00    -0.151 NA
HETATM    3  C3  UNL     1       1.059  -1.711  -1.344  1.00  0.00     0.077 A 
HETATM    4  C4  UNL     1       0.838  -1.790  -2.829  1.00  0.00     0.089 A 
HETATM    5  C5  UNL     1      -0.501  -2.314  -3.143  1.00  0.00    -0.020 A 
HETATM    6  C6  UNL     1      -1.448  -2.689  -2.278  1.00  0.00    -0.002 A 
HETATM    7  C7  UNL     1      -1.150  -2.579  -0.851  1.00  0.00     0.020 A 
HETATM    8  C8  UNL     1       0.008  -2.127  -0.424  1.00  0.00     0.031 A 
HETATM    9  S1  UNL     1       0.138  -2.083   1.356  1.00  0.00    -0.078 SA
HETATM   10  C9  UNL     1       1.734  -1.301   1.727  1.00  0.00     0.302 C 
ENDROOT
BRANCH  10  11
HETATM   11  N3  UNL     1       1.479  -0.008   2.361  1.00  0.00    -0.367 N 
HETATM   12  H12 UNL     1       1.808   0.301   3.312  1.00  0.00     0.161 HD
BRANCH  11  13
HETATM   13  C10 UNL     1       0.726   0.968   1.690  1.00  0.00     0.085 C 
HETATM   14  C11 UNL     1      -0.586   1.083   1.566  1.00  0.00     0.017 C 
BRANCH  14  15
HETATM   15  C12 UNL     1      -1.220   2.157   0.835  1.00  0.00     0.000 C 
HETATM   16  C13 UNL     1      -2.532   2.263   0.717  1.00  0.00     0.010 C 
BRANCH  16  17
HETATM   17  C14 UNL     1      -3.498   1.308   1.310  1.00  0.00     0.195 C 
HETATM   18  F1  UNL     1      -3.157   1.014   2.612  1.00  0.00    -0.245 F 
BRANCH  17  19
HETATM   19  C15 UNL     1      -3.630   0.050   0.473  1.00  0.00     0.072 C 
BRANCH  19  20
HETATM   20  C16 UNL     1      -4.114   0.380  -0.930  1.00  0.00     0.225 C 
HETATM   21  F2  UNL     1      -4.204  -0.835  -1.617  1.00  0.00    -0.255 F 
ENDBRANCH  19  20
ENDBRANCH  17  19
ENDBRANCH  16  17
ENDBRANCH  14  15
ENDBRANCH  11  13
ENDBRANCH  10  11
BRANCH   1  22
HETATM   22  O2  UNL     1       3.753  -0.869   0.742  1.00  0.00    -0.232 OA
BRANCH  22  23
HETATM   23  C2  UNL     1       4.033   0.475   0.780  1.00  0.00     0.371 C 
BRANCH  23  24
HETATM   24  O1  UNL     1       3.755   1.127  -0.414  1.00  0.00    -0.369 OA
HETATM   25  C1  UNL     1       4.078   2.478  -0.251  1.00  0.00     0.204 C 
ENDBRANCH  23  24
ENDBRANCH  22  23
ENDBRANCH   1  22
TORSDOF 9
