REMARK  6 active torsions:
REMARK  status: ('A' for Active; 'I' for Inactive)
REMARK    1  A    between atoms: O1_2  and  C2_3 
REMARK    2  A    between atoms: C6_9  and  N3_10 
REMARK    3  A    between atoms: N3_10  and  C7_11 
REMARK    4  A    between atoms: C9_13  and  O2_14 
REMARK    5  A    between atoms: O2_14  and  C10_15 
REMARK    6  A    between atoms: C18_25  and  O3_26 
ROOT
HETATM    1  C2  UNL     1       4.402   0.412  -0.135  1.00  0.00     0.103 A 
HETATM    2  C3  UNL     1       3.705   1.469  -0.674  1.00  0.00     0.072 A 
HETATM    3  C4  UNL     1       2.330   1.532  -0.746  1.00  0.00     0.075 A 
HETATM    4  N1  UNL     1       1.731   2.601  -1.288  1.00  0.00    -0.241 NA
HETATM    5  C5  UNL     1       0.393   2.605  -1.329  1.00  0.00     0.236 A 
HETATM    6  N2  UNL     1      -0.307   1.571  -0.842  1.00  0.00    -0.224 NA
HETATM    7  C6  UNL     1       0.253   0.485  -0.293  1.00  0.00     0.142 A 
HETATM    8  C16 UNL     1       1.606   0.470  -0.246  1.00  0.00     0.042 A 
HETATM    9  C17 UNL     1       2.272  -0.588   0.293  1.00  0.00     0.057 A 
HETATM   10  C18 UNL     1       3.647  -0.633   0.356  1.00  0.00     0.102 A 
ENDROOT
BRANCH   7  11
HETATM   11  N3  UNL     1      -0.554  -0.574   0.203  1.00  0.00    -0.340 N 
HETATM   12  H6  UNL     1      -0.229  -1.447   0.645  1.00  0.00     0.167 HD
BRANCH  11  13
HETATM   13  C7  UNL     1      -2.012  -0.481   0.114  1.00  0.00     0.032 C 
HETATM   14  C8  UNL     1      -2.245   0.056   1.291  1.00  0.00     0.038 C 
HETATM   15  C9  UNL     1      -3.666   0.235   1.485  1.00  0.00     0.169 C 
HETATM   16  C11 UNL     1      -4.358   1.496   1.396  1.00  0.00     0.003 C 
HETATM   17  C12 UNL     1      -5.564   1.351   0.831  1.00  0.00    -0.113 C 
HETATM   18  B1  UNL     1      -5.264   0.075  -0.752  1.00  0.00     0.185 B 
HETATM   19  C13 UNL     1      -3.674   0.309  -1.302  1.00  0.00    -0.025 C 
HETATM   20  C14 UNL     1      -2.929  -0.567  -2.136  1.00  0.00    -0.034 C 
HETATM   21  C15 UNL     1      -1.997  -0.949  -1.263  1.00  0.00     0.024 C 
BRANCH  15  22
HETATM   22  O2  UNL     1      -4.430  -0.864   1.030  1.00  0.00    -0.368 OA
BRANCH  22  23
HETATM   23  C10 UNL     1      -4.905  -1.645   2.068  1.00  0.00     0.253 C 
HETATM   24 BR1  UNL     1      -5.925  -3.099   1.291  1.00  0.00    -0.068 Br
ENDBRANCH  22  23
ENDBRANCH  15  22
ENDBRANCH  11  13
ENDBRANCH   7  11
BRANCH  10  25
HETATM   25  O3  UNL     1       4.307  -1.710   0.904  1.00  0.00    -0.353 OA
HETATM   26  C19 UNL     1       3.725  -2.854   1.449  1.00  0.00     0.210 C 
ENDBRANCH  10  25
BRANCH   1  27
HETATM   27  O1  UNL     1       5.782   0.342  -0.060  1.00  0.00    -0.353 OA
HETATM   28  C1  UNL     1       6.650   1.332  -0.520  1.00  0.00     0.210 C 
ENDBRANCH   1  27
TORSDOF 6
