REMARK  5 active torsions:
REMARK  status: ('A' for Active; 'I' for Inactive)
REMARK    1  A    between atoms: O1_2  and  C2_3 
REMARK    2  A    between atoms: C6_9  and  N3_10 
REMARK    3  A    between atoms: N3_10  and  C8_12 
REMARK    4  A    between atoms: C12_16  and  C13_17 
REMARK    5  A    between atoms: C17_24  and  O2_25 
ROOT
HETATM    1  C2  UNL     1      -3.401   0.210  -0.183  1.00  0.00     0.102 C 
HETATM    2  C3  UNL     1      -2.838   1.329   0.393  1.00  0.00     0.059 C 
HETATM    3  C4  UNL     1      -2.045   2.389   0.004  1.00  0.00     0.121 C 
HETATM    4  N1  UNL     1      -0.723   2.468   0.309  1.00  0.00    -0.254 NA
HETATM    5  C5  UNL     1      -0.233   1.596   1.226  1.00  0.00     0.234 C 
HETATM    6  N2  UNL     1      -0.614   0.337   0.980  1.00  0.00    -0.224 NA
HETATM    7  C6  UNL     1       0.031  -0.528   0.179  1.00  0.00     0.131 C 
HETATM    8  C15 UNL     1      -0.584  -1.079  -0.926  1.00  0.00     0.053 C 
HETATM    9  C16 UNL     1      -1.870  -1.565  -1.030  1.00  0.00     0.043 C 
HETATM   10  C17 UNL     1      -3.059  -1.075  -0.536  1.00  0.00     0.101 C 
ENDROOT
BRANCH   7  11
HETATM   11  N3  UNL     1       1.368  -0.801   0.577  1.00  0.00    -0.336 N 
HETATM   12  C7  UNL     1       1.366  -1.879   1.515  1.00  0.00     0.158 C 
BRANCH  11  13
HETATM   13  C8  UNL     1       2.442  -0.038   0.043  1.00  0.00     0.036 A 
HETATM   14  C9  UNL     1       2.244   0.981  -0.875  1.00  0.00     0.029 A 
HETATM   15  C10 UNL     1       3.356   1.660  -1.330  1.00  0.00     0.003 A 
HETATM   16  C11 UNL     1       4.657   1.408  -0.944  1.00  0.00     0.016 A 
HETATM   17  C12 UNL     1       4.856   0.379  -0.017  1.00  0.00     0.050 A 
HETATM   18  C14 UNL     1       3.741  -0.295   0.433  1.00  0.00     0.045 A 
BRANCH  17  19
HETATM   19  C13 UNL     1       6.229   0.023   0.470  1.00  0.00     0.417 C 
HETATM   20  F1  UNL     1       6.240   0.008   1.854  1.00  0.00    -0.166 F 
HETATM   21  F2  UNL     1       7.145   0.907  -0.042  1.00  0.00    -0.166 F 
HETATM   22  F3  UNL     1       6.528  -1.246   0.011  1.00  0.00    -0.166 F 
ENDBRANCH  17  19
ENDBRANCH  11  13
ENDBRANCH   7  11
BRANCH  10  23
HETATM   23  O2  UNL     1      -4.096  -1.955  -0.345  1.00  0.00    -0.353 OA
HETATM   24  C18 UNL     1      -3.980  -3.327  -0.639  1.00  0.00     0.210 C 
ENDBRANCH  10  23
BRANCH   1  25
HETATM   25  O1  UNL     1      -4.654   0.690  -0.403  1.00  0.00    -0.353 OA
HETATM   26  C1  UNL     1      -5.136   1.957  -0.100  1.00  0.00     0.210 C 
ENDBRANCH   1  25
TORSDOF 5
