REMARK  8 active torsions:
REMARK  status: ('A' for Active; 'I' for Inactive)
REMARK    1  A    between atoms: O1_2  and  C2_3 
REMARK    2  A    between atoms: C3_4  and  O2_5 
REMARK    3  A    between atoms: C5_7  and  O3_8 
REMARK    4  A    between atoms: O3_8  and  C6_9 
REMARK    5  A    between atoms: C6_9  and  N1_10 
REMARK    6  A    between atoms: N1_10  and  C7_11 
REMARK    7  A    between atoms: C11_17  and  O4_18 
REMARK    8  A    between atoms: C13_20  and  O5_21 
ROOT
HETATM    1  C7  UNL     1       0.896  -0.529  -0.280  1.00  0.00     0.139 A 
HETATM    2  N2  UNL     1       0.545  -1.812  -0.199  1.00  0.00    -0.224 NA
HETATM    3  C8  UNL     1       1.390  -2.832  -0.002  1.00  0.00     0.235 A 
HETATM    4  N3  UNL     1       2.704  -2.615   0.133  1.00  0.00    -0.241 NA
HETATM    5  C9  UNL     1       3.158  -1.351   0.066  1.00  0.00     0.075 A 
HETATM    6  C10 UNL     1       4.518  -1.102   0.203  1.00  0.00     0.072 A 
HETATM    7  C11 UNL     1       5.015   0.198   0.138  1.00  0.00     0.103 A 
HETATM    8  C13 UNL     1       4.105   1.217  -0.067  1.00  0.00     0.102 A 
HETATM    9  C15 UNL     1       2.759   0.948  -0.200  1.00  0.00     0.057 A 
HETATM   10  C16 UNL     1       2.255  -0.330  -0.138  1.00  0.00     0.041 A 
ENDROOT
BRANCH   1  11
HETATM   11  N1  UNL     1      -0.047   0.513  -0.491  1.00  0.00    -0.352 N 
HETATM   12  H9  UNL     1       0.156   1.511  -0.562  1.00  0.00     0.163 HD
BRANCH  11  13
HETATM   13  C6  UNL     1      -1.444   0.114  -0.618  1.00  0.00     0.299 C 
BRANCH  13  14
HETATM   14  O3  UNL     1      -1.759  -0.532   0.608  1.00  0.00    -0.328 OA
BRANCH  14  15
HETATM   15  C5  UNL     1      -3.045  -1.019   0.756  1.00  0.00     0.118 C 
HETATM   16  C3  UNL     1      -4.265  -0.437   0.234  1.00  0.00     0.136 C 
HETATM   17  C2  UNL     1      -5.304  -0.974   0.891  1.00  0.00     0.105 C 
HETATM   18  C18 UNL     1      -4.720  -1.925   1.859  1.00  0.00     0.055 C 
HETATM   19  C17 UNL     1      -3.497  -2.093   1.383  1.00  0.00     0.016 C 
BRANCH  16  20
HETATM   20  O2  UNL     1      -4.379   0.525  -0.784  1.00  0.00    -0.351 OA
HETATM   21  C4  UNL     1      -4.582   0.042  -2.107  1.00  0.00     0.210 C 
ENDBRANCH  16  20
BRANCH  17  22
HETATM   22  O1  UNL     1      -6.588  -0.599   0.594  1.00  0.00    -0.353 OA
HETATM   23  C1  UNL     1      -6.973   0.733   0.870  1.00  0.00     0.210 C 
ENDBRANCH  17  22
ENDBRANCH  14  15
ENDBRANCH  13  14
ENDBRANCH  11  13
ENDBRANCH   1  11
BRANCH   8  24
HETATM   24  O5  UNL     1       4.599   2.496  -0.130  1.00  0.00    -0.353 OA
HETATM   25  C14 UNL     1       3.773   3.608  -0.334  1.00  0.00     0.210 C 
ENDBRANCH   8  24
BRANCH   7  26
HETATM   26  O4  UNL     1       6.367   0.484   0.271  1.00  0.00    -0.353 OA
HETATM   27  C12 UNL     1       7.260  -0.589   0.479  1.00  0.00     0.210 C 
ENDBRANCH   7  26
TORSDOF 8
