REMARK  9 active torsions:
REMARK  status: ('A' for Active; 'I' for Inactive)
REMARK    1  A    between atoms: O1_2  and  C2_3 
REMARK    2  A    between atoms: C3_4  and  C4_5 
REMARK    3  A    between atoms: C4_5  and  N1_6 
REMARK    4  A    between atoms: C4_5  and  C5_7 
REMARK    5  A    between atoms: C6_8  and  N2_9 
REMARK    6  A    between atoms: N2_9  and  C7_10 
REMARK    7  A    between atoms: C9_12  and  O2_13 
REMARK    8  A    between atoms: C11_15  and  O3_16 
REMARK    9  A    between atoms: C13_18  and  O4_19 
ROOT
HETATM    1  C7  UNL     1      -1.126   0.939  -0.271  1.00  0.00     0.037 A 
HETATM    2  C8  UNL     1      -2.062   1.929  -0.390  1.00  0.00     0.069 A 
HETATM    3  C9  UNL     1      -3.368   1.620  -0.045  1.00  0.00     0.106 A 
HETATM    4  C11 UNL     1      -3.719   0.372   0.400  1.00  0.00     0.135 A 
HETATM    5  C13 UNL     1      -2.726  -0.606   0.504  1.00  0.00     0.106 A 
HETATM    6  C15 UNL     1      -1.401  -0.339   0.168  1.00  0.00     0.069 A 
ENDROOT
BRANCH   1   7
HETATM    7  N2  UNL     1       0.198   1.269  -0.626  1.00  0.00    -0.366 N 
HETATM    8  H11 UNL     1       0.511   2.190  -0.965  1.00  0.00     0.165 HD
BRANCH   7   9
HETATM    9  C6  UNL     1       1.403   0.513  -0.631  1.00  0.00     0.086 C 
HETATM   10  C5  UNL     1       2.229   0.325   0.391  1.00  0.00     0.029 C 
BRANCH  10  11
HETATM   11  C4  UNL     1       3.480  -0.496   0.276  1.00  0.00     0.266 C 
BRANCH  11  12
HETATM   12  C3  UNL     1       4.267   0.027  -0.867  1.00  0.00     0.036 C 
HETATM   13  C2  UNL     1       5.569  -0.194  -0.793  1.00  0.00     0.132 C 
BRANCH  13  14
HETATM   14  O1  UNL     1       6.777  -0.641  -0.285  1.00  0.00    -0.368 OA
HETATM   15  C1  UNL     1       6.866  -1.461   0.871  1.00  0.00     0.208 C 
ENDBRANCH  13  14
ENDBRANCH  11  12
BRANCH  11  16
HETATM   16  N1  UNL     1       3.170  -1.882  -0.016  1.00  0.00     0.090 N 
HETATM   17  H7  UNL     1       2.358  -2.221   0.547  1.00  0.00     0.314 HD
HETATM   18  H8  UNL     1       2.935  -1.887  -1.052  1.00  0.00     0.314 HD
ENDBRANCH  11  16
ENDBRANCH  10  11
ENDBRANCH   7   9
ENDBRANCH   1   7
BRANCH   3  19
HETATM   19  O2  UNL     1      -4.375   2.589  -0.143  1.00  0.00    -0.353 OA
HETATM   20  C10 UNL     1      -3.959   3.862  -0.608  1.00  0.00     0.210 C 
ENDBRANCH   3  19
BRANCH   5  21
HETATM   21  O4  UNL     1      -3.170  -1.839   0.962  1.00  0.00    -0.353 OA
HETATM   22  C14 UNL     1      -2.396  -2.977   1.157  1.00  0.00     0.210 C 
ENDBRANCH   5  21
BRANCH   4  23
HETATM   23  O3  UNL     1      -5.047   0.114   0.735  1.00  0.00    -0.351 OA
HETATM   24  C12 UNL     1      -5.901  -0.362  -0.283  1.00  0.00     0.210 C 
ENDBRANCH   4  23
TORSDOF 9
