REMARK  6 active torsions:
REMARK  status: ('A' for Active; 'I' for Inactive)
REMARK    1  A    between atoms: C2_2  and  C3_3 
REMARK       I    between atoms: C3_3  and  N1_5 
REMARK    2  A    between atoms: N1_5  and  C4_6 
REMARK    3  A    between atoms: C12_15  and  N3_16 
REMARK    4  A    between atoms: N3_16  and  C13_17 
REMARK    5  A    between atoms: C13_17  and  C14_18 
REMARK    6  A    between atoms: C14_18  and  C15_19 
ROOT
HETATM    1  C4  UNL     1      -3.215  -1.165   0.319  1.00  0.00     0.035 A 
HETATM    2  C5  UNL     1      -3.102  -1.232   1.696  1.00  0.00     0.032 A 
HETATM    3  C6  UNL     1      -1.879  -1.046   2.311  1.00  0.00     0.040 A 
HETATM    4  C7  UNL     1      -0.776  -0.792   1.512  1.00  0.00     0.086 A 
HETATM    5  C8  UNL     1      -0.819  -0.713   0.135  1.00  0.00    -0.004 A 
HETATM    6  C9  UNL     1      -2.075  -0.907  -0.453  1.00  0.00     0.041 A 
HETATM    7  C10 UNL     1       0.115  -0.472  -0.956  1.00  0.00     0.161 C 
HETATM    8  N2  UNL     1       1.500  -0.719  -0.632  1.00  0.00    -0.379 N 
HETATM    9  C11 UNL     1       2.181  -0.356   0.561  1.00  0.00     0.128 A 
HETATM   10  C12 UNL     1       3.513  -0.020   0.288  1.00  0.00     0.156 A 
HETATM   11  N4  UNL     1       4.256   0.329   1.350  1.00  0.00    -0.222 NA
HETATM   12  C16 UNL     1       3.766   0.359   2.599  1.00  0.00     0.238 A 
HETATM   13  N5  UNL     1       2.487   0.042   2.897  1.00  0.00    -0.215 NA
HETATM   14  C17 UNL     1       1.669  -0.324   1.866  1.00  0.00     0.202 A 
HETATM   15  O3  UNL     1       0.365  -0.632   2.287  1.00  0.00    -0.289 OA
HETATM   16  H10 UNL     1       2.186  -1.222  -1.271  1.00  0.00     0.160 HD
ENDROOT
BRANCH   1  17
HETATM   17  N1  UNL     1      -4.481  -1.355  -0.353  1.00  0.00    -0.324 N 
HETATM   18  C3  UNL     1      -5.163  -0.117  -0.506  1.00  0.00     0.241 C 
HETATM   19  O1  UNL     1      -4.916   1.082  -0.193  1.00  0.00    -0.269 OA
HETATM   20  H4  UNL     1      -5.002  -2.185  -0.747  1.00  0.00     0.169 HD
BRANCH  18  21
HETATM   21  C2  UNL     1      -6.455  -0.022  -1.147  1.00  0.00     0.048 C 
HETATM   22  C1  UNL     1      -7.036   1.163  -1.257  1.00  0.00     0.037 C 
ENDBRANCH  18  21
ENDBRANCH   1  17
BRANCH  10  23
HETATM   23  N3  UNL     1       4.074  -0.018  -1.025  1.00  0.00    -0.369 N 
HETATM   24  H11 UNL     1       3.653  -0.229  -1.948  1.00  0.00     0.161 HD
BRANCH  23  25
HETATM   25  C13 UNL     1       5.474   0.350  -1.109  1.00  0.00     0.152 C 
BRANCH  25  26
HETATM   26  C14 UNL     1       5.659   1.736  -0.583  1.00  0.00     0.051 C 
BRANCH  26  27
HETATM   27  C15 UNL     1       5.391   2.834  -1.259  1.00  0.00     0.219 C 
HETATM   28  O2  UNL     1       4.715   3.669  -1.894  1.00  0.00    -0.284 OA
ENDBRANCH  26  27
ENDBRANCH  25  26
ENDBRANCH  23  25
ENDBRANCH  10  23
TORSDOF 6
