REMARK  6 active torsions:
REMARK  status: ('A' for Active; 'I' for Inactive)
REMARK    1  A    between atoms: O1_2  and  C2_3 
REMARK    2  A    between atoms: C2_3  and  C3_4 
REMARK    3  A    between atoms: C4_5  and  O2_6 
REMARK    4  A    between atoms: C11_14  and  O4_15 
REMARK    5  A    between atoms: O4_15  and  C12_16 
REMARK    6  A    between atoms: C12_16  and  O5_17 
ROOT
HETATM    1  C3  UNL     1       2.114   0.560   0.246  1.00  0.00     0.032 A 
HETATM    2  C4  UNL     1       2.495  -0.787   0.214  1.00  0.00     0.081 A 
HETATM    3  C6  UNL     1       1.599  -1.678  -0.353  1.00  0.00     0.067 A 
HETATM    4  C7  UNL     1       0.424  -1.146  -0.832  1.00  0.00     0.038 A 
HETATM    5  C8  UNL     1       0.038   0.172  -0.817  1.00  0.00     0.067 A 
HETATM    6  C9  UNL     1       0.927   1.053  -0.244  1.00  0.00     0.082 A 
HETATM    7  O3  UNL     1       0.733   2.473  -0.077  1.00  0.00    -0.347 OA
HETATM    8  C10 UNL     1      -0.212   2.544   1.091  1.00  0.00     0.216 C 
HETATM    9  C11 UNL     1      -1.429   1.831   0.543  1.00  0.00     0.113 C 
HETATM   10  C13 UNL     1      -1.852   0.694   1.129  1.00  0.00    -0.014 C 
HETATM   11  B1  UNL     1      -2.721  -0.572   1.398  1.00  0.00     0.208 B 
HETATM   12  C14 UNL     1      -2.538  -1.873   0.465  1.00  0.00    -0.040 A 
HETATM   13  C15 UNL     1      -3.613  -2.714   0.792  1.00  0.00     0.116 A 
HETATM   14  N1  UNL     1      -3.935  -3.945   0.279  1.00  0.00    -0.254 NA
HETATM   15  C16 UNL     1      -3.101  -4.409  -0.670  1.00  0.00     0.234 A 
HETATM   16  N2  UNL     1      -2.065  -3.636  -1.008  1.00  0.00    -0.225 NA
HETATM   17  C17 UNL     1      -1.736  -2.442  -0.525  1.00  0.00     0.125 A 
HETATM   18  N3  UNL     1      -0.553  -2.104  -1.264  1.00  0.00    -0.341 N 
HETATM   19  H17 UNL     1      -2.719  -0.870   2.573  1.00  0.00    -0.020 HD
HETATM   20  H20 UNL     1      -0.166  -2.422  -2.155  1.00  0.00     0.167 HD
ENDROOT
BRANCH   9  21
HETATM   21  O4  UNL     1      -1.781   2.689  -0.538  1.00  0.00    -0.351 OA
BRANCH  21  22
HETATM   22  C12 UNL     1      -3.136   3.107  -0.544  1.00  0.00     0.336 C 
BRANCH  22  23
HETATM   23  O5  UNL     1      -3.387   3.941  -1.639  1.00  0.00    -0.377 OA
HETATM   24  H15 UNL     1      -4.376   3.999  -1.718  1.00  0.00     0.212 HD
ENDBRANCH  22  23
ENDBRANCH  21  22
ENDBRANCH   9  21
BRANCH   1  25
HETATM   25  C2  UNL     1       3.115   1.491   0.873  1.00  0.00     0.211 C 
BRANCH  25  26
HETATM   26  O1  UNL     1       4.178   1.748   0.034  1.00  0.00    -0.391 OA
HETATM   27  C1  UNL     1       3.725   2.337  -1.143  1.00  0.00     0.201 C 
ENDBRANCH  25  26
ENDBRANCH   1  25
BRANCH   2  28
HETATM   28  O2  UNL     1       3.704  -1.235   0.718  1.00  0.00    -0.355 OA
HETATM   29  C5  UNL     1       4.005  -2.611   0.644  1.00  0.00     0.210 C 
ENDBRANCH   2  28
TORSDOF 6
