REMARK  6 active torsions:
REMARK  status: ('A' for Active; 'I' for Inactive)
REMARK    1  A    between atoms: C5_6  and  N1_7 
REMARK    2  A    between atoms: N1_7  and  C6_8 
REMARK    3  A    between atoms: C8_10  and  O2_11 
REMARK    4  A    between atoms: C10_13  and  O3_14 
REMARK    5  A    between atoms: C12_16  and  O4_17 
REMARK    6  A    between atoms: C18_25  and  O5_26 
ROOT
HETATM    1  C1  UNL     1      -4.684   0.715  -2.003  1.00  0.00     0.000 C 
HETATM    2  O1  UNL     1      -3.630  -0.166  -1.612  1.00  0.00     0.000 OA
HETATM    3  C2  UNL     1      -3.442  -0.476  -0.245  1.00  0.00     0.002 A 
HETATM    4  C3  UNL     1      -3.403  -1.376  -1.250  1.00  0.00     0.057 A 
HETATM    5  C4  UNL     1      -2.004  -1.571  -1.316  1.00  0.00     0.015 C 
HETATM    6  C5  UNL     1      -1.488  -0.399  -0.791  1.00  0.00     0.137 C 
HETATM    7  N2  UNL     1      -1.787   0.715  -0.081  1.00  0.00    -0.224 NA
HETATM    8  C15 UNL     1      -2.185   1.862  -0.022  1.00  0.00     0.234 C 
HETATM    9  N3  UNL     1      -2.149   2.276   1.369  1.00  0.00    -0.254 NA
HETATM   10  C16 UNL     1      -2.465   1.404   2.272  1.00  0.00     0.120 C 
HETATM   11  C17 UNL     1      -2.872   0.052   2.088  1.00  0.00     0.056 C 
HETATM   12  C18 UNL     1      -3.251  -0.758   1.146  1.00  0.00     0.077 C 
ENDROOT
BRANCH   6  13
HETATM   13  N1  UNL     1      -0.137  -0.181  -1.012  1.00  0.00    -0.340 N 
HETATM   14  H4  UNL     1      -0.001  -0.219  -2.042  1.00  0.00     0.167 HD
BRANCH  13  15
HETATM   15  C6  UNL     1       1.187   0.074  -0.602  1.00  0.00     0.039 A 
HETATM   16  C7  UNL     1       1.848  -1.066  -0.127  1.00  0.00     0.069 A 
HETATM   17  C8  UNL     1       3.166  -0.954   0.287  1.00  0.00     0.106 A 
HETATM   18  C10 UNL     1       3.720   0.305   0.190  1.00  0.00     0.135 A 
HETATM   19  C12 UNL     1       3.086   1.432  -0.271  1.00  0.00     0.106 A 
HETATM   20  C14 UNL     1       1.770   1.320  -0.685  1.00  0.00     0.069 A 
BRANCH  17  21
HETATM   21  O2  UNL     1       3.903  -2.025   0.775  1.00  0.00    -0.353 OA
HETATM   22  C9  UNL     1       3.358  -3.327   0.883  1.00  0.00     0.210 C 
ENDBRANCH  17  21
BRANCH  18  23
HETATM   23  O3  UNL     1       5.045   0.418   0.606  1.00  0.00    -0.351 OA
HETATM   24  C11 UNL     1       6.101   0.222  -0.292  1.00  0.00     0.210 C 
ENDBRANCH  18  23
BRANCH  19  25
HETATM   25  O4  UNL     1       3.750   2.649  -0.322  1.00  0.00    -0.353 OA
HETATM   26  C13 UNL     1       3.064   3.779  -0.802  1.00  0.00     0.210 C 
ENDBRANCH  19  25
ENDBRANCH  13  15
ENDBRANCH   6  13
BRANCH  12  27
HETATM   27  O5  UNL     1      -3.599  -2.073   1.054  1.00  0.00    -0.355 OA
HETATM   28  C19 UNL     1      -4.805  -2.639   1.510  1.00  0.00     0.210 C 
ENDBRANCH  12  27
TORSDOF 6
