REMARK  6 active torsions:
REMARK  status: ('A' for Active; 'I' for Inactive)
REMARK    1  A    between atoms: O1_2  and  C2_3 
REMARK    2  A    between atoms: C2_3  and  O2_4 
REMARK    3  A    between atoms: O2_4  and  C3_5 
REMARK    4  A    between atoms: C6_8  and  N1_9 
REMARK    5  A    between atoms: N1_9  and  C7_10 
REMARK    6  A    between atoms: C16_24  and  O5_25 
ROOT
HETATM    1  C3  UNL     1       3.064   0.828   0.027  1.00  0.00     0.105 A 
HETATM    2  C4  UNL     1       1.839   0.179  -0.175  1.00  0.00     0.057 A 
HETATM    3  C5  UNL     1       0.793   0.935   0.130  1.00  0.00     0.041 A 
HETATM    4  C6  UNL     1      -0.523   0.607   0.089  1.00  0.00     0.138 A 
HETATM    5  N2  UNL     1      -1.455   1.382   0.444  1.00  0.00    -0.224 NA
HETATM    6  C13 UNL     1      -1.579   2.586   0.906  1.00  0.00     0.235 A 
HETATM    7  N3  UNL     1      -0.240   2.942   0.942  1.00  0.00    -0.241 NA
HETATM    8  C14 UNL     1       0.784   2.178   0.589  1.00  0.00     0.075 A 
HETATM    9  C15 UNL     1       1.889   2.991   0.856  1.00  0.00     0.072 A 
HETATM   10  C16 UNL     1       3.092   2.171   0.517  1.00  0.00     0.103 A 
ENDROOT
BRANCH   4  11
HETATM   11  N1  UNL     1      -0.880  -0.599  -0.553  1.00  0.00    -0.361 N 
HETATM   12  H7  UNL     1      -0.230  -1.199  -1.078  1.00  0.00     0.162 HD
BRANCH  11  13
HETATM   13  C7  UNL     1      -1.717  -1.824  -1.122  1.00  0.00     0.138 A 
HETATM   14  C8  UNL     1      -1.682  -2.670   0.155  1.00  0.00     0.043 C 
HETATM   15  S1  UNL     1      -3.322  -0.529   0.927  1.00  0.00    -0.141 SA
HETATM   16  O3  UNL     1      -2.495  -1.196  -0.128  1.00  0.00     0.000 OA
HETATM   17  C10 UNL     1      -3.810  -0.129   1.577  1.00  0.00     0.004 A 
HETATM   18  C12 UNL     1      -3.313  -0.536   0.915  1.00  0.00     0.246 A 
HETATM   19  C9  UNL     1      -3.660  -2.125  -0.802  1.00  0.00     0.000 C 
HETATM   20  C11 UNL     1      -4.506   0.448   2.469  1.00  0.00     0.212 A 
HETATM   21  O4  UNL     1      -4.678   1.144   0.987  1.00  0.00    -0.375 OA
ENDBRANCH  11  13
ENDBRANCH   4  11
BRANCH   1  22
HETATM   22  O2  UNL     1       4.141   0.015  -0.300  1.00  0.00    -0.323 OA
BRANCH  22  23
HETATM   23  C2  UNL     1       3.995  -1.280  -0.806  1.00  0.00     0.344 C 
BRANCH  23  24
HETATM   24  O1  UNL     1       3.306  -1.200  -2.002  1.00  0.00    -0.371 OA
HETATM   25  C1  UNL     1       3.076  -2.382  -2.636  1.00  0.00     0.204 C 
ENDBRANCH  23  24
ENDBRANCH  22  23
ENDBRANCH   1  22
BRANCH  10  26
HETATM   26  O5  UNL     1       4.512   2.374   0.547  1.00  0.00    -0.353 OA
HETATM   27  C17 UNL     1       5.061   3.611   0.977  1.00  0.00     0.210 C 
ENDBRANCH  10  26
TORSDOF 6
