REMARK  2 active torsions:
REMARK  status: ('A' for Active; 'I' for Inactive)
REMARK    1  A    between atoms: B1_1  and  C1_2 
REMARK    2  A    between atoms: C10_14  and  O1_15 
ROOT
HETATM    1  C1  UNL     1       2.574  -0.608   0.402  1.00  0.00     0.192 C 
HETATM    2  N1  UNL     1       1.227  -0.474   0.708  1.00  0.00     0.086 N 
HETATM    3  C2  UNL     1       0.424  -1.656   0.966  1.00  0.00     0.310 C 
HETATM    4  C3  UNL     1      -0.992  -1.092   0.935  1.00  0.00     0.004 A 
HETATM    5  C4  UNL     1      -1.038   0.128   0.297  1.00  0.00     0.028 A 
HETATM    6  C5  UNL     1      -1.764   1.178  -0.120  1.00  0.00     0.022 A 
HETATM    7  C6  UNL     1      -1.404   2.300  -0.773  1.00  0.00     0.067 A 
HETATM    8  N2  UNL     1      -2.378   3.136  -1.025  1.00  0.00    -0.242 NA
HETATM    9  C7  UNL     1      -3.638   2.820  -0.620  1.00  0.00     0.234 A 
HETATM   10  N3  UNL     1      -4.018   1.679   0.049  1.00  0.00    -0.241 NA
HETATM   11  C8  UNL     1      -3.007   0.801   0.315  1.00  0.00     0.073 A 
HETATM   12  C9  UNL     1      -3.270  -0.381   0.992  1.00  0.00     0.070 A 
HETATM   13  C10 UNL     1      -2.296  -1.289   1.288  1.00  0.00     0.078 A 
HETATM   14  C12 UNL     1       0.001   2.549  -1.119  1.00  0.00     0.015 C 
HETATM   15  C13 UNL     1       1.290   2.627  -1.344  1.00  0.00     0.044 C 
HETATM   16  C14 UNL     1       2.392   1.671  -0.915  1.00  0.00    -0.014 C 
HETATM   17  C15 UNL     1       3.079   0.619  -0.378  1.00  0.00    -0.065 C 
HETATM   18  C16 UNL     1       4.546   0.555  -0.532  1.00  0.00     0.044 C 
HETATM   19  H4  UNL     1       1.126   0.110   1.580  1.00  0.00     0.316 HD
ENDROOT
BRANCH   1  20
HETATM   20  B1  UNL     1       2.941  -1.872  -0.471  1.00  0.00     0.182 B 
HETATM   21  H1  UNL     1       2.367  -2.163  -1.485  1.00  0.00    -0.029 HD
HETATM   22  H2  UNL     1       3.997  -2.425  -0.331  1.00  0.00    -0.029 HD
ENDBRANCH   1  20
BRANCH  13  23
HETATM   23  O1  UNL     1      -2.223  -2.511   1.925  1.00  0.00    -0.355 OA
HETATM   24  C11 UNL     1      -3.367  -3.103   2.461  1.00  0.00     0.210 C 
ENDBRANCH  13  23
TORSDOF 2
