REMARK  3 active torsions:
REMARK  status: ('A' for Active; 'I' for Inactive)
REMARK    1  A    between atoms: C7_8  and  C8_9 
REMARK    2  A    between atoms: C8_9  and  C9_10 
REMARK    3  A    between atoms: C9_10  and  C10_11 
ROOT
HETATM    1  C10 UNL     1      -1.073   0.767   0.002  1.00  0.00     0.245 C 
HETATM    2  N1  UNL     1      -1.914   1.830  -0.620  1.00  0.00    -0.251 NA
HETATM    3  C11 UNL     1      -3.095   1.494  -1.104  1.00  0.00     0.229 C 
HETATM    4  N2  UNL     1      -3.744   0.248  -1.148  1.00  0.00    -0.258 NA
HETATM    5  C12 UNL     1      -4.416  -0.166  -0.097  1.00  0.00     0.094 C 
HETATM    6  C13 UNL     1      -4.911  -1.496  -0.569  1.00  0.00     0.073 C 
HETATM    7  C14 UNL     1      -3.752  -2.438  -0.826  1.00  0.00    -0.024 C 
HETATM    8  C15 UNL     1      -2.397  -2.565  -0.706  1.00  0.00    -0.005 C 
HETATM    9  C16 UNL     1      -2.005  -1.304  -0.075  1.00  0.00     0.197 C 
HETATM   10  O1  UNL     1      -1.191  -0.427  -0.735  1.00  0.00    -0.361 OA
ENDROOT
BRANCH   1  11
HETATM   11  C9  UNL     1       0.341   1.155   0.094  1.00  0.00     0.060 C 
BRANCH  11  12
HETATM   12  C8  UNL     1       1.140   0.032   0.733  1.00  0.00     0.043 C 
BRANCH  12  13
HETATM   13  C7  UNL     1       2.552   0.461   0.809  1.00  0.00    -0.052 A 
HETATM   14  C2  UNL     1       3.353   0.422  -0.327  1.00  0.00    -0.054 A 
HETATM   15  C1  UNL     1       2.937  -0.037  -1.655  1.00  0.00     0.049 C 
HETATM   16  C3  UNL     1       4.646   0.868  -0.080  1.00  0.00     0.031 A 
HETATM   17  C4  UNL     1       5.182   1.321   1.115  1.00  0.00     0.034 A 
HETATM   18 CL1  UNL     1       6.841   1.838   1.204  1.00  0.00    -0.084 Cl
HETATM   19  C5  UNL     1       4.301   1.319   2.181  1.00  0.00     0.024 A 
HETATM   20  C6  UNL     1       2.991   0.893   2.039  1.00  0.00     0.009 A 
ENDBRANCH  12  13
ENDBRANCH  11  12
ENDBRANCH   1  11
TORSDOF 3
