REMARK  6 active torsions:
REMARK  status: ('A' for Active; 'I' for Inactive)
REMARK    1  A    between atoms: O1_2  and  C2_3 
REMARK    2  A    between atoms: N1_6  and  C5_7 
REMARK    3  A    between atoms: C5_7  and  N2_8 
REMARK    4  A    between atoms: N2_8  and  C6_9 
REMARK    5  A    between atoms: C10_13  and  O2_14 
REMARK    6  A    between atoms: C12_16  and  O3_17 
ROOT
HETATM    1  N2  UNL     1       0.012  -0.536  -1.272  1.00  0.00    -0.365 N 
HETATM    2  H9  UNL     1      -0.275  -1.310  -1.942  1.00  0.00     0.161 HD
ENDROOT
BRANCH   1   3
HETATM    3  C5  UNL     1      -0.920   0.497  -0.876  1.00  0.00     0.396 C 
BRANCH   3   4
HETATM    4  N1  UNL     1      -1.106   0.479   0.538  1.00  0.00     0.112 N 
HETATM    5  C4  UNL     1      -2.015   1.471   1.027  1.00  0.00     0.304 C 
HETATM    6  C3  UNL     1      -3.118   1.572   0.007  1.00  0.00     0.035 C 
HETATM    7  C2  UNL     1      -4.202   0.896  -0.351  1.00  0.00     0.047 C 
HETATM    8  C18 UNL     1      -4.850  -0.343   0.127  1.00  0.00     0.091 C 
HETATM    9  C17 UNL     1      -3.915  -1.340   0.678  1.00  0.00    -0.022 C 
HETATM   10  C16 UNL     1      -2.623  -1.403   0.975  1.00  0.00    -0.001 C 
HETATM   11  C15 UNL     1      -1.283  -0.826   1.057  1.00  0.00     0.302 C 
BRANCH   7  12
HETATM   12  O1  UNL     1      -4.933   1.444  -1.426  1.00  0.00    -0.360 OA
HETATM   13  C1  UNL     1      -6.332   1.585  -1.154  1.00  0.00     0.209 C 
ENDBRANCH   7  12
ENDBRANCH   3   4
ENDBRANCH   1   3
BRANCH   1  14
HETATM   14  C6  UNL     1       1.346  -0.584  -0.800  1.00  0.00     0.032 A 
HETATM   15  C7  UNL     1       2.249  -1.579  -1.179  1.00  0.00     0.039 A 
HETATM   16  C8  UNL     1       3.542  -1.656  -0.743  1.00  0.00    -0.024 A 
HETATM   17  C9  UNL     1       4.390  -2.785  -1.241  1.00  0.00     0.051 C 
HETATM   18  C10 UNL     1       4.018  -0.690   0.138  1.00  0.00     0.107 A 
HETATM   19  C12 UNL     1       3.159   0.320   0.544  1.00  0.00     0.104 A 
HETATM   20  C14 UNL     1       1.863   0.342   0.068  1.00  0.00     0.068 A 
BRANCH  18  21
HETATM   21  O2  UNL     1       5.341  -0.861   0.516  1.00  0.00    -0.353 OA
HETATM   22  C11 UNL     1       6.437  -0.302  -0.174  1.00  0.00     0.210 C 
ENDBRANCH  18  21
BRANCH  19  23
HETATM   23  O3  UNL     1       3.706   1.239   1.418  1.00  0.00    -0.353 OA
HETATM   24  C13 UNL     1       2.996   2.343   1.948  1.00  0.00     0.210 C 
ENDBRANCH  19  23
ENDBRANCH   1  14
TORSDOF 6
