REMARK  5 active torsions:
REMARK  status: ('A' for Active; 'I' for Inactive)
REMARK    1  A    between atoms: N1_6  and  C6_7 
REMARK    2  A    between atoms: C10_13  and  O1_14 
REMARK    3  A    between atoms: O1_14  and  O2_15 
REMARK    4  A    between atoms: C11_16  and  C12_17 
REMARK    5  A    between atoms: C12_17  and  N4_18 
ROOT
HETATM    1  C6  UNL     1      -0.327  -1.417   0.310  1.00  0.00     0.144 A 
HETATM    2  N2  UNL     1      -0.643  -2.637   0.837  1.00  0.00    -0.223 NA
HETATM    3  C7  UNL     1       0.335  -3.398   1.405  1.00  0.00     0.236 A 
HETATM    4  N3  UNL     1       1.630  -3.017   1.484  1.00  0.00    -0.241 NA
HETATM    5  C8  UNL     1       1.929  -1.821   0.965  1.00  0.00     0.075 A 
HETATM    6  C9  UNL     1       3.215  -1.276   0.953  1.00  0.00     0.073 A 
HETATM    7  C10 UNL     1       3.499  -0.039   0.403  1.00  0.00     0.116 A 
HETATM    8  C11 UNL     1       2.483   0.720  -0.172  1.00  0.00     0.007 A 
HETATM    9  C13 UNL     1       1.200   0.217  -0.181  1.00  0.00     0.029 A 
HETATM   10  C14 UNL     1       0.985  -1.008   0.378  1.00  0.00     0.040 A 
ENDROOT
BRANCH   1  11
HETATM   11  N1  UNL     1      -1.494  -0.776  -0.199  1.00  0.00    -0.333 N 
HETATM   12  C5  UNL     1      -1.892  -1.449  -1.409  1.00  0.00     0.093 A 
HETATM   13  C4  UNL     1      -2.945  -1.045  -2.104  1.00  0.00     0.018 A 
HETATM   14  C3  UNL     1      -3.756   0.093  -1.691  1.00  0.00     0.006 A 
HETATM   15  C2  UNL     1      -3.338   0.664  -0.573  1.00  0.00    -0.061 A 
HETATM   16  C1  UNL     1      -4.062   1.835  -0.027  1.00  0.00     0.045 C 
HETATM   17  C15 UNL     1      -2.216   0.361   0.332  1.00  0.00     0.115 A 
HETATM   18  C16 UNL     1      -2.708   0.062   1.744  1.00  0.00     0.037 C 
ENDBRANCH   1  11
BRANCH   8  19
HETATM   19  C12 UNL     1       2.837   2.041  -0.751  1.00  0.00     0.308 C 
BRANCH  19  20
HETATM   20  N4  UNL     1       3.053   3.065   0.225  1.00  0.00     0.082 N 
HETATM   21  H12 UNL     1       3.357   2.660   1.123  1.00  0.00     0.313 HD
HETATM   22  H13 UNL     1       3.833   3.680  -0.128  1.00  0.00     0.313 HD
ENDBRANCH  19  20
ENDBRANCH   8  19
BRANCH   7  23
HETATM   23  O1  UNL     1       4.776   0.463   0.411  1.00  0.00    -0.199 OA
BRANCH  23  24
HETATM   24  O2  UNL     1       5.856  -0.117   0.912  1.00  0.00    -0.245 OA
HETATM   25  H9  UNL     1       5.867  -1.087   0.870  1.00  0.00     0.254 HD
ENDBRANCH  23  24
ENDBRANCH   7  23
TORSDOF 5
