REMARK  2 active torsions:
REMARK  status: ('A' for Active; 'I' for Inactive)
REMARK    1  A    between atoms: C2_2  and  C3_3 
REMARK    2  A    between atoms: C8_10  and  N3_11 
ROOT
HETATM    1  C3  UNL     1       2.826  -0.304  -0.824  1.00  0.00    -0.055 A 
HETATM    2  C4  UNL     1       1.543  -0.221  -0.471  1.00  0.00     0.025 A 
HETATM    3  C5  UNL     1       1.029  -1.186   0.492  1.00  0.00     0.063 A 
HETATM    4  C6  UNL     1       1.792  -2.176   1.056  1.00  0.00     0.180 A 
HETATM    5  N1  UNL     1       1.237  -3.023   1.936  1.00  0.00    -0.217 NA
HETATM    6  C7  UNL     1      -0.084  -2.884   2.255  1.00  0.00     0.238 A 
HETATM    7  N2  UNL     1      -0.839  -1.911   1.702  1.00  0.00    -0.224 NA
HETATM    8  C8  UNL     1      -0.290  -1.044   0.807  1.00  0.00     0.142 A 
HETATM    9  O1  UNL     1       3.110  -2.205   0.648  1.00  0.00    -0.329 OA
HETATM   10  C16 UNL     1       3.718  -1.340  -0.263  1.00  0.00     0.211 A 
ENDROOT
BRANCH   8  11
HETATM   11  N3  UNL     1      -1.228  -0.075   0.311  1.00  0.00    -0.358 N 
HETATM   12  C9  UNL     1      -1.511  -0.074  -1.131  1.00  0.00     0.153 C 
HETATM   13  C10 UNL     1      -2.926  -0.518  -1.399  1.00  0.00     0.017 C 
HETATM   14  C11 UNL     1      -4.037  -0.055  -0.799  1.00  0.00     0.032 C 
HETATM   15 CL1  UNL     1      -5.580  -0.757  -1.310  1.00  0.00    -0.085 Cl
HETATM   16  C12 UNL     1      -4.123   0.970   0.235  1.00  0.00     0.027 C 
HETATM   17  C13 UNL     1      -3.142   1.256   1.077  1.00  0.00    -0.064 C 
HETATM   18  C14 UNL     1      -3.578   2.348   1.990  1.00  0.00     0.045 C 
HETATM   19  C15 UNL     1      -1.776   0.789   1.335  1.00  0.00     0.158 C 
ENDBRANCH   8  11
BRANCH   1  20
HETATM   20  C2  UNL     1       3.449   0.634  -1.800  1.00  0.00     0.032 C 
HETATM   21  C1  UNL     1       4.590   1.383  -1.145  1.00  0.00     0.010 C 
ENDBRANCH   1  20
TORSDOF 2
