REMARK  5 active torsions:
REMARK  status: ('A' for Active; 'I' for Inactive)
REMARK    1  A    between atoms: C2_2  and  C3_3 
REMARK    2  A    between atoms: N1_9  and  C9_10 
REMARK    3  A    between atoms: C11_12  and  C12_13 
REMARK    4  A    between atoms: C13_15  and  O1_16 
REMARK    5  A    between atoms: C15_18  and  O2_19 
ROOT
HETATM    1  C9  UNL     1      -0.070  -0.485   0.432  1.00  0.00     0.032 A 
HETATM    2  C10 UNL     1      -0.457  -0.655  -0.846  1.00  0.00     0.016 A 
HETATM    3  C11 UNL     1      -1.321  -0.021  -1.874  1.00  0.00     0.084 A 
HETATM    4  C13 UNL     1      -1.966   1.200  -1.221  1.00  0.00     0.167 A 
HETATM    5  C15 UNL     1      -1.511   1.339   0.174  1.00  0.00    -0.017 A 
HETATM    6  C17 UNL     1      -0.718   0.695   0.975  1.00  0.00     0.039 A 
ENDROOT
BRANCH   1   7
HETATM    7  N1  UNL     1       0.812  -1.328   1.121  1.00  0.00    -0.347 N 
HETATM    8  C4  UNL     1       2.188  -1.354   0.767  1.00  0.00     0.034 C 
HETATM    9  C3  UNL     1       2.582  -1.054  -0.447  1.00  0.00     0.025 C 
HETATM   10  C5  UNL     1       3.208  -1.723   1.732  1.00  0.00     0.025 C 
HETATM   11  C6  UNL     1       2.775  -2.035   2.968  1.00  0.00    -0.023 C 
HETATM   12  C7  UNL     1       1.358  -2.031   3.403  1.00  0.00     0.047 C 
HETATM   13  C8  UNL     1       0.432  -2.223   2.221  1.00  0.00     0.133 C 
BRANCH   9  14
HETATM   14  C2  UNL     1       4.011  -1.124  -0.720  1.00  0.00    -0.024 C 
HETATM   15  C1  UNL     1       4.721  -0.867  -1.835  1.00  0.00     0.031 C 
ENDBRANCH   9  14
ENDBRANCH   1   7
BRANCH   3  16
HETATM   16  C12 UNL     1      -2.382  -0.949  -2.354  1.00  0.00     0.091 C 
HETATM   17  N2  UNL     1      -2.957  -1.336  -1.273  1.00  0.00    -0.316 NA
HETATM   18  H14 UNL     1      -3.747  -2.008  -1.415  1.00  0.00     0.185 HD
ENDBRANCH   3  16
BRANCH   5  19
HETATM   19  O2  UNL     1      -2.131   2.475   0.711  1.00  0.00     0.000 OA
HETATM   20  C16 UNL     1      -1.595   3.715   0.397  1.00  0.00     0.125 A 
HETATM   21  N3  UNL     1      -2.609   3.540   1.162  1.00  0.00    -0.311 N 
HETATM   22  H20 UNL     1      -3.077   4.360   1.587  1.00  0.00     0.186 HD
ENDBRANCH   5  19
BRANCH   4  23
HETATM   23  O1  UNL     1      -1.686   2.362  -1.964  1.00  0.00    -0.385 OA
HETATM   24  C14 UNL     1      -2.907   2.879  -2.438  1.00  0.00     0.202 C 
ENDBRANCH   4  23
TORSDOF 5
