REMARK  5 active torsions:
REMARK  status: ('A' for Active; 'I' for Inactive)
REMARK    1  A    between atoms: N1_2  and  C2_3 
REMARK    2  A    between atoms: C2_3  and  N3_15 
REMARK    3  A    between atoms: C5_6  and  O1_7 
REMARK    4  A    between atoms: C7_9  and  O2_10 
REMARK    5  A    between atoms: N3_15  and  C12_17 
ROOT
HETATM    1  C2  UNL     1       0.660   0.538   0.614  1.00  0.00     0.110 C 
HETATM    2  C3  UNL     1      -0.583   0.640   0.200  1.00  0.00     0.038 A 
HETATM    3  C4  UNL     1      -1.554  -0.139   0.954  1.00  0.00     0.057 A 
HETATM    4  C5  UNL     1      -2.808  -0.028   0.525  1.00  0.00     0.102 A 
HETATM    5  C7  UNL     1      -3.199   0.803  -0.609  1.00  0.00     0.103 A 
HETATM    6  C9  UNL     1      -2.329   1.532  -1.323  1.00  0.00     0.071 A 
HETATM    7  C10 UNL     1      -0.928   1.481  -0.936  1.00  0.00     0.065 A 
HETATM    8  N2  UNL     1      -0.068   2.171  -1.599  1.00  0.00    -0.299 NA
HETATM    9  H11 UNL     1       0.950   2.191  -1.386  1.00  0.00     0.187 HD
ENDROOT
BRANCH   1  10
HETATM   10  N1  UNL     1       1.084  -0.250   1.700  1.00  0.00    -0.383 NA
HETATM   11  C1  UNL     1       1.019  -1.526   1.774  1.00  0.00     0.317 C 
ENDBRANCH   1  10
BRANCH   1  12
HETATM   12  N3  UNL     1       1.991   0.946   0.405  1.00  0.00    -0.338 N 
HETATM   13  C11 UNL     1       2.523   2.131   1.097  1.00  0.00     0.158 C 
BRANCH  12  14
HETATM   14  C12 UNL     1       2.856   0.227  -0.472  1.00  0.00     0.035 A 
HETATM   15  C13 UNL     1       2.451  -0.892  -1.169  1.00  0.00     0.031 A 
HETATM   16  C14 UNL     1       3.258  -1.614  -2.026  1.00  0.00     0.026 A 
HETATM   17  C15 UNL     1       4.569  -1.188  -2.201  1.00  0.00     0.034 A 
HETATM   18 CL1  UNL     1       5.606  -2.093  -3.283  1.00  0.00    -0.084 Cl
HETATM   19  C16 UNL     1       4.992  -0.070  -1.511  1.00  0.00     0.026 A 
HETATM   20  C17 UNL     1       4.161   0.631  -0.662  1.00  0.00     0.031 A 
ENDBRANCH  12  14
ENDBRANCH   1  12
BRANCH   4  21
HETATM   21  O1  UNL     1      -3.790  -0.760   1.218  1.00  0.00    -0.353 OA
HETATM   22  C6  UNL     1      -3.555  -2.170   1.278  1.00  0.00     0.210 C 
ENDBRANCH   4  21
BRANCH   5  23
HETATM   23  O2  UNL     1      -4.511   0.913  -1.050  1.00  0.00    -0.353 OA
HETATM   24  C8  UNL     1      -5.624   0.305  -0.476  1.00  0.00     0.210 C 
ENDBRANCH   5  23
TORSDOF 5
