REMARK  3 active torsions:
REMARK  status: ('A' for Active; 'I' for Inactive)
REMARK    1  A    between atoms: O1_2  and  C2_3 
REMARK    2  A    between atoms: C6_9  and  N3_10 
REMARK    3  A    between atoms: C16_21  and  O2_22 
ROOT
HETATM    1  C2  UNL     1       2.995  -0.596   0.193  1.00  0.00     0.103 A 
HETATM    2  C3  UNL     1       2.765   0.461   1.157  1.00  0.00     0.072 A 
HETATM    3  C4  UNL     1       1.479   0.960   1.394  1.00  0.00     0.075 A 
HETATM    4  N1  UNL     1       1.105   1.897   2.241  1.00  0.00    -0.241 NA
HETATM    5  C5  UNL     1      -0.168   2.263   2.383  1.00  0.00     0.236 A 
HETATM    6  N2  UNL     1      -1.107   1.677   1.652  1.00  0.00    -0.224 NA
HETATM    7  C6  UNL     1      -0.778   0.714   0.769  1.00  0.00     0.140 A 
HETATM    8  C14 UNL     1       0.485   0.385   0.661  1.00  0.00     0.041 A 
HETATM    9  C15 UNL     1       0.850  -0.559  -0.175  1.00  0.00     0.057 A 
HETATM   10  C16 UNL     1       1.938  -1.286  -0.673  1.00  0.00     0.102 A 
ENDROOT
BRANCH   7  11
HETATM   11  N3  UNL     1      -1.840   0.139   0.001  1.00  0.00    -0.351 N 
HETATM   12  C7  UNL     1      -3.090   0.054   0.879  1.00  0.00     0.130 C 
HETATM   13  C8  UNL     1      -4.039   1.109   0.373  1.00  0.00     0.055 A 
HETATM   14  C9  UNL     1      -5.079   0.696  -0.804  1.00  0.00    -0.001 A 
HETATM   15  P1  UNL     1      -4.614   0.547  -0.907  1.00  0.00    -0.132 P 
HETATM   16  C10 UNL     1      -4.572   0.069  -2.185  1.00  0.00     0.034 A 
HETATM   17  C11 UNL     1      -3.033  -0.393  -2.404  1.00  0.00     0.042 A 
HETATM   18  C13 UNL     1      -3.242   0.107  -1.182  1.00  0.00     0.018 A 
HETATM   19  C12 UNL     1      -2.035  -0.290  -1.403  1.00  0.00     0.078 A 
HETATM   20  H12 UNL     1      -6.992   1.282  -0.479  1.00  0.00     0.052 HD
ENDBRANCH   7  11
BRANCH  10  21
HETATM   21  O2  UNL     1       2.903  -1.930  -1.114  1.00  0.00    -0.353 OA
HETATM   22  C17 UNL     1       4.058  -2.474  -1.419  1.00  0.00     0.210 C 
ENDBRANCH  10  21
BRANCH   1  23
HETATM   23  O1  UNL     1       4.350  -0.808   0.268  1.00  0.00    -0.353 OA
HETATM   24  C1  UNL     1       5.331  -0.255   0.994  1.00  0.00     0.210 C 
ENDBRANCH   1  23
TORSDOF 3
