REMARK  4 active torsions:
REMARK  status: ('A' for Active; 'I' for Inactive)
REMARK    1  A    between atoms: N1_2  and  C2_3 
REMARK    2  A    between atoms: C6_9  and  O2_10 
REMARK    3  A    between atoms: C8_13  and  C9_14 
REMARK    4  A    between atoms: C11_16  and  O3_17 
ROOT
HETATM    1  C2  UNL     1      -2.594  -0.830  -0.185  1.00  0.00     0.386 C 
HETATM    2  O1  UNL     1      -2.207   0.384  -1.004  1.00  0.00    -0.335 OA
HETATM    3  C3  UNL     1      -1.062   1.063  -0.395  1.00  0.00     0.128 A 
HETATM    4  C4  UNL     1       0.275   0.881  -0.150  1.00  0.00     0.119 A 
HETATM    5  C5  UNL     1       1.709   0.413  -0.028  1.00  0.00     0.393 A 
HETATM    6  N2  UNL     1       2.618  -0.528  -0.136  1.00  0.00     0.247 N 
HETATM    7  C6  UNL     1       3.764   0.029  -0.779  1.00  0.00     0.564 A 
HETATM    8  N3  UNL     1       2.766  -0.551  -0.191  1.00  0.00     0.247 N 
HETATM    9  C8  UNL     1       1.550  -0.277   0.237  1.00  0.00     0.389 A 
HETATM   10  C9  UNL     1       0.863   1.125   0.120  1.00  0.00     0.117 A 
HETATM   11  C10 UNL     1      -0.122   1.853   0.241  1.00  0.00     0.100 A 
HETATM   12  C11 UNL     1      -1.335   2.282   0.153  1.00  0.00     0.068 A 
HETATM   13  C13 UNL     1       0.830  -1.659   0.836  1.00  0.00     0.105 C 
HETATM   14  C14 UNL     1      -0.548  -1.326   0.474  1.00  0.00    -0.015 C 
HETATM   15  C15 UNL     1      -1.423  -1.738  -0.464  1.00  0.00    -0.029 C 
HETATM   16  C16 UNL     1      -1.278  -2.771  -1.504  1.00  0.00     0.048 C 
ENDROOT
BRANCH   1  17
HETATM   17  N1  UNL     1      -3.860  -1.302  -0.435  1.00  0.00     0.112 N 
HETATM   18  C1  UNL     1      -4.123  -2.517   0.361  1.00  0.00     0.310 C 
HETATM   19  H4  UNL     1      -4.545  -0.602   0.039  1.00  0.00     0.319 HD
ENDBRANCH   1  17
BRANCH  12  20
HETATM   20  O3  UNL     1      -1.643   3.507   0.695  1.00  0.00    -0.361 OA
HETATM   21  C12 UNL     1      -0.553   4.237   1.282  1.00  0.00     0.209 C 
ENDBRANCH  12  20
BRANCH   7  22
HETATM   22  O2  UNL     1       4.469   1.028  -1.371  1.00  0.00    -0.328 OA
HETATM   23  C7  UNL     1       5.726   1.019  -1.903  1.00  0.00     0.207 C 
ENDBRANCH   7  22
TORSDOF 4
