REMARK  4 active torsions:
REMARK  status: ('A' for Active; 'I' for Inactive)
REMARK    1  A    between atoms: O1_2  and  C2_3 
REMARK    2  A    between atoms: C2_3  and  C4_5 
REMARK    3  A    between atoms: C4_5  and  C5_6 
REMARK    4  A    between atoms: C8_11  and  O2_12 
ROOT
HETATM    1  C5  UNL     1       1.439   0.587   0.674  1.00  0.00     0.020 C 
HETATM    2  N1  UNL     1       2.413   0.602  -0.177  1.00  0.00    -0.292 NA
HETATM    3  C6  UNL     1       2.634   0.122  -1.525  1.00  0.00     0.195 C 
HETATM    4  C7  UNL     1       1.653  -0.940  -1.924  1.00  0.00     0.110 C 
HETATM    5  N2  UNL     1       0.403  -0.796  -2.288  1.00  0.00    -0.246 NA
HETATM    6  C8  UNL     1      -0.804  -0.333  -1.738  1.00  0.00     0.233 C 
HETATM    7  C10 UNL     1      -0.750   0.242  -0.376  1.00  0.00     0.099 C 
HETATM    8  C11 UNL     1       0.182  -0.263   0.655  1.00  0.00     0.048 C 
HETATM    9  C12 UNL     1       0.463  -1.740   0.575  1.00  0.00     0.026 C 
HETATM   10  C13 UNL     1       1.049  -2.875   0.723  1.00  0.00    -0.021 C 
HETATM   11  C14 UNL     1      -0.005  -3.594   0.019  1.00  0.00    -0.006 C 
HETATM   12  C15 UNL     1      -1.188  -3.552  -0.604  1.00  0.00    -0.008 C 
HETATM   13  C16 UNL     1      -1.748  -2.218  -0.608  1.00  0.00     0.148 C 
HETATM   14  N3  UNL     1      -1.750  -1.406  -1.724  1.00  0.00    -0.365 N 
HETATM   15  C17 UNL     1      -2.499  -1.740  -2.834  1.00  0.00     0.148 C 
ENDROOT
BRANCH   1  16
HETATM   16  C4  UNL     1       1.750   1.608   1.695  1.00  0.00     0.083 C 
BRANCH  16  17
HETATM   17  C2  UNL     1       1.811   2.458   2.725  1.00  0.00     0.097 C 
HETATM   18  C3  UNL     1       3.002   3.324   2.773  1.00  0.00     0.050 C 
BRANCH  17  19
HETATM   19  O1  UNL     1       1.016   2.788   3.860  1.00  0.00    -0.381 OA
HETATM   20  C1  UNL     1      -0.333   3.187   3.605  1.00  0.00     0.202 C 
ENDBRANCH  17  19
ENDBRANCH  16  17
ENDBRANCH   1  16
BRANCH   6  21
HETATM   21  O2  UNL     1      -1.286   0.631  -2.615  1.00  0.00    -0.347 OA
HETATM   22  C9  UNL     1      -2.458   1.224  -2.286  1.00  0.00     0.206 C 
ENDBRANCH   6  21
TORSDOF 4
