REMARK  2 active torsions:
REMARK  status: ('A' for Active; 'I' for Inactive)
REMARK    1  A    between atoms: O1_2  and  C2_3 
REMARK    2  A    between atoms: C6_9  and  N3_10 
ROOT
HETATM    1  C2  UNL     1      -3.111  -0.190  -0.905  1.00  0.00     0.103 A 
HETATM    2  C3  UNL     1      -2.750  -1.539  -1.000  1.00  0.00     0.072 A 
HETATM    3  C4  UNL     1      -1.521  -1.870  -0.472  1.00  0.00     0.075 A 
HETATM    4  N1  UNL     1      -1.145  -3.156  -0.551  1.00  0.00    -0.241 NA
HETATM    5  C5  UNL     1       0.049  -3.520  -0.049  1.00  0.00     0.236 A 
HETATM    6  N2  UNL     1       0.891  -2.621   0.540  1.00  0.00    -0.223 NA
HETATM    7  C6  UNL     1       0.532  -1.328   0.628  1.00  0.00     0.144 A 
HETATM    8  C15 UNL     1      -0.682  -0.952   0.119  1.00  0.00     0.042 A 
HETATM    9  C16 UNL     1      -1.054   0.377   0.205  1.00  0.00     0.057 A 
HETATM   10  C17 UNL     1      -2.291   0.769  -0.315  1.00  0.00     0.102 A 
HETATM   11  O2  UNL     1      -2.710   1.968  -0.278  1.00  0.00    -0.353 OA
HETATM   12  C18 UNL     1      -3.128   3.204  -0.233  1.00  0.00     0.210 C 
ENDROOT
BRANCH   1  13
HETATM   13  O1  UNL     1      -4.340   0.148  -1.432  1.00  0.00    -0.353 OA
HETATM   14  C1  UNL     1      -5.158  -0.842  -2.025  1.00  0.00     0.210 C 
ENDBRANCH   1  13
BRANCH   7  15
HETATM   15  N3  UNL     1       1.455  -0.436   1.261  1.00  0.00    -0.330 N 
HETATM   16  C7  UNL     1       1.469   0.412   2.439  1.00  0.00     0.135 C 
HETATM   17  C8  UNL     1       2.265   1.603   1.950  1.00  0.00     0.061 C 
HETATM   18  C9  UNL     1       3.247   0.963   1.039  1.00  0.00    -0.030 A 
HETATM   19  C10 UNL     1       4.474   1.405   0.595  1.00  0.00     0.009 A 
HETATM   20  C14 UNL     1       2.725  -0.274   0.636  1.00  0.00     0.042 A 
HETATM   21  C11 UNL     1       5.222   0.630  -0.265  1.00  0.00     0.001 A 
HETATM   22  C12 UNL     1       4.752  -0.616  -0.703  1.00  0.00     0.002 A 
HETATM   23  C13 UNL     1       3.518  -1.005  -0.224  1.00  0.00     0.030 A 
ENDBRANCH   7  15
TORSDOF 2
