REMARK  5 active torsions:
REMARK  status: ('A' for Active; 'I' for Inactive)
REMARK    1  A    between atoms: O1_2  and  C2_3 
REMARK    2  A    between atoms: C7_8  and  O2_9 
REMARK    3  A    between atoms: C9_11  and  N1_12 
REMARK    4  A    between atoms: N1_12  and  C11_14 
REMARK    5  A    between atoms: N2_21  and  O3_22 
ROOT
HETATM    1  C2  UNL     1       3.097  -0.934  -1.054  1.00  0.00     0.103 A 
HETATM    2  C3  UNL     1       3.125  -0.234   0.135  1.00  0.00     0.074 A 
HETATM    3  C4  UNL     1       1.955   0.005   0.828  1.00  0.00     0.091 A 
HETATM    4  C5  UNL     1       0.775  -0.452   0.335  1.00  0.00     0.011 A 
HETATM    5  C6  UNL     1       0.725  -1.160  -0.864  1.00  0.00     0.054 A 
HETATM    6  C7  UNL     1       1.889  -1.409  -1.574  1.00  0.00     0.102 A 
HETATM    7  C9  UNL     1      -0.409  -0.287   0.906  1.00  0.00     0.009 A 
HETATM    8  B1  UNL     1      -0.381   0.512   2.266  1.00  0.00     0.387 B 
HETATM    9  N2  UNL     1       0.996   0.991   2.749  1.00  0.00    -0.233 N 
HETATM   10  N3  UNL     1       2.085   0.667   1.929  1.00  0.00    -0.167 NA
HETATM   11  H17 UNL     1      -1.271   0.489   3.013  1.00  0.00     0.011 HD
ENDROOT
BRANCH   7  12
HETATM   12  N1  UNL     1      -1.686  -0.729   0.460  1.00  0.00    -0.362 N 
HETATM   13  C10 UNL     1      -2.122  -2.127   0.458  1.00  0.00     0.155 C 
BRANCH  12  14
HETATM   14  C11 UNL     1      -2.588   0.264  -0.013  1.00  0.00     0.033 A 
HETATM   15  C12 UNL     1      -2.279   1.600  -0.052  1.00  0.00     0.029 A 
HETATM   16  C13 UNL     1      -3.135   2.585  -0.506  1.00  0.00     0.002 A 
HETATM   17  C14 UNL     1      -4.384   2.203  -0.949  1.00  0.00     0.000 A 
HETATM   18  C15 UNL     1      -4.763   0.877  -0.937  1.00  0.00     0.002 A 
HETATM   19  C16 UNL     1      -3.858  -0.081  -0.468  1.00  0.00     0.029 A 
ENDBRANCH  12  14
ENDBRANCH   7  12
BRANCH   9  20
HETATM   20  O3  UNL     1       1.104   1.683   3.907  1.00  0.00    -0.282 OA
HETATM   21  C17 UNL     1       0.642   2.989   3.784  1.00  0.00     0.237 C 
ENDBRANCH   9  20
BRANCH   6  22
HETATM   22  O2  UNL     1       1.869  -2.119  -2.783  1.00  0.00    -0.353 OA
HETATM   23  C8  UNL     1       0.607  -2.562  -3.234  1.00  0.00     0.210 C 
ENDBRANCH   6  22
BRANCH   1  24
HETATM   24  O1  UNL     1       4.237  -1.222  -1.826  1.00  0.00    -0.353 OA
HETATM   25  C1  UNL     1       5.490  -0.771  -1.358  1.00  0.00     0.210 C 
ENDBRANCH   1  24
TORSDOF 5
