REMARK  7 active torsions:
REMARK  status: ('A' for Active; 'I' for Inactive)
REMARK    1  A    between atoms: O1_2  and  C2_3 
REMARK    2  A    between atoms: C4_5  and  O2_6 
REMARK    3  A    between atoms: C9_11  and  N1_12 
REMARK    4  A    between atoms: C9_11  and  N3_17 
REMARK    5  A    between atoms: C10_13  and  N2_14 
REMARK    6  A    between atoms: C10_13  and  O3_15 
REMARK    7  A    between atoms: N3_17  and  C13_19 
ROOT
HETATM    1  C2  UNL     1      -2.827   0.653  -1.349  1.00  0.00     0.052 A 
HETATM    2  C3  UNL     1      -3.142  -0.579  -1.683  1.00  0.00     0.069 A 
HETATM    3  C4  UNL     1      -2.278  -1.619  -1.186  1.00  0.00     0.077 A 
HETATM    4  C6  UNL     1      -1.219  -1.351  -0.432  1.00  0.00    -0.018 A 
HETATM    5  C7  UNL     1      -0.407  -2.478   0.022  1.00  0.00     0.052 C 
HETATM    6  C8  UNL     1      -0.838   0.003  -0.047  1.00  0.00     0.003 A 
HETATM    7  C9  UNL     1       0.194   0.357   0.683  1.00  0.00     0.141 C 
HETATM    8  C19 UNL     1      -1.708   1.102  -0.536  1.00  0.00     0.107 A 
ENDROOT
BRANCH   7   9
HETATM    9  N1  UNL     1       0.430   1.726   0.972  1.00  0.00    -0.191 NA
HETATM   10  C10 UNL     1       1.532   2.341   1.020  1.00  0.00     0.240 C 
BRANCH  10  11
HETATM   11  N2  UNL     1       2.941   2.075   0.845  1.00  0.00    -0.364 N 
HETATM   12  H11 UNL     1       3.572   1.956   0.032  1.00  0.00     0.159 HD
HETATM   13  H12 UNL     1       3.621   1.946   1.649  1.00  0.00     0.159 HD
ENDBRANCH  10  11
BRANCH  10  14
HETATM   14  O3  UNL     1       1.323   3.689   1.341  1.00  0.00    -0.326 OA
HETATM   15  C11 UNL     1       0.120   4.384   1.000  1.00  0.00     0.213 C 
ENDBRANCH  10  14
ENDBRANCH   7   9
BRANCH   7  16
HETATM   16  N3  UNL     1       1.227  -0.334   1.315  1.00  0.00    -0.336 N 
HETATM   17  C12 UNL     1       1.206  -0.538   2.775  1.00  0.00     0.158 C 
BRANCH  16  18
HETATM   18  C13 UNL     1       2.328  -0.846   0.535  1.00  0.00     0.035 A 
HETATM   19  C14 UNL     1       2.441  -0.699  -0.855  1.00  0.00     0.029 A 
HETATM   20  C15 UNL     1       3.537  -1.226  -1.511  1.00  0.00     0.002 A 
HETATM   21  C16 UNL     1       4.530  -1.898  -0.831  1.00  0.00     0.000 A 
HETATM   22  C17 UNL     1       4.436  -2.052   0.535  1.00  0.00     0.002 A 
HETATM   23  C18 UNL     1       3.340  -1.524   1.186  1.00  0.00     0.029 A 
ENDBRANCH  16  18
ENDBRANCH   7  16
BRANCH   3  24
HETATM   24  O2  UNL     1      -2.567  -2.961  -1.511  1.00  0.00    -0.355 OA
HETATM   25  C5  UNL     1      -3.851  -3.421  -1.105  1.00  0.00     0.210 C 
ENDBRANCH   3  24
BRANCH   1  26
HETATM   26  O1  UNL     1      -3.696   1.605  -1.857  1.00  0.00    -0.360 OA
HETATM   27  C1  UNL     1      -3.875   2.800  -1.136  1.00  0.00     0.209 C 
ENDBRANCH   1  26
TORSDOF 7
