REMARK  7 active torsions:
REMARK  status: ('A' for Active; 'I' for Inactive)
REMARK    1  A    between atoms: O1_2  and  C2_3 
REMARK    2  A    between atoms: C2_3  and  N1_4 
REMARK    3  A    between atoms: N1_4  and  C3_5 
REMARK    4  A    between atoms: N1_4  and  C7_10 
REMARK    5  A    between atoms: C4_6  and  C5_7 
REMARK    6  A    between atoms: C5_7  and  C6_8 
REMARK    7  A    between atoms: C12_17  and  O4_18 
ROOT
HETATM    1  C7  UNL     1      -0.794  -0.429  -0.652  1.00  0.00     0.138 C 
HETATM    2  C8  UNL     1      -1.277  -0.455  -1.894  1.00  0.00    -0.013 C 
HETATM    3  C9  UNL     1      -0.263  -0.774  -2.930  1.00  0.00     0.050 C 
HETATM    4  C10 UNL     1      -2.661  -0.214  -2.383  1.00  0.00     0.215 C 
HETATM    5  O3  UNL     1      -3.294   0.885  -1.762  1.00  0.00    -0.327 OA
HETATM    6  C11 UNL     1      -3.381   1.239  -0.411  1.00  0.00     0.212 C 
HETATM    7  N2  UNL     1      -4.151   2.217  -0.063  1.00  0.00    -0.274 NA
HETATM    8  C12 UNL     1      -2.643   0.567   0.676  1.00  0.00     0.220 C 
HETATM    9  N3  UNL     1      -1.547  -0.137   0.551  1.00  0.00    -0.203 NA
HETATM   10  H16 UNL     1      -4.205   2.469   0.943  1.00  0.00     0.189 HD
ENDROOT
BRANCH   1  11
HETATM   11  N1  UNL     1       0.564  -0.687  -0.362  1.00  0.00    -0.320 N 
BRANCH  11  12
HETATM   12  C2  UNL     1       0.969  -2.046  -0.051  1.00  0.00     0.299 C 
BRANCH  12  13
HETATM   13  O1  UNL     1       1.549  -2.170   1.213  1.00  0.00    -0.377 OA
HETATM   14  C1  UNL     1       1.903  -3.526   1.366  1.00  0.00     0.203 C 
ENDBRANCH  12  13
ENDBRANCH  11  12
BRANCH  11  15
HETATM   15  C3  UNL     1       1.491   0.349  -0.382  1.00  0.00     0.091 C 
HETATM   16  C4  UNL     1       1.844   1.456   0.241  1.00  0.00    -0.003 C 
BRANCH  16  17
HETATM   17  C5  UNL     1       2.972   2.374  -0.085  1.00  0.00     0.097 C 
BRANCH  17  18
HETATM   18  C6  UNL     1       3.948   2.484   1.050  1.00  0.00     0.234 C 
HETATM   19  O2  UNL     1       4.740   2.101   1.884  1.00  0.00    -0.307 OA
ENDBRANCH  17  18
ENDBRANCH  16  17
ENDBRANCH  11  15
ENDBRANCH   1  11
BRANCH   8  20
HETATM   20  O4  UNL     1      -3.123   0.675   1.942  1.00  0.00    -0.336 OA
HETATM   21  C13 UNL     1      -2.205   0.736   3.036  1.00  0.00     0.212 C 
ENDBRANCH   8  20
TORSDOF 7
