REMARK  4 active torsions:
REMARK  status: ('A' for Active; 'I' for Inactive)
REMARK    1  A    between atoms: O1_2  and  C2_3 
REMARK    2  A    between atoms: C8_10  and  O2_11 
REMARK    3  A    between atoms: C10_13  and  N2_14 
REMARK    4  A    between atoms: C15_19  and  N3_20 
ROOT
HETATM    1  C2  UNL     1       3.618  -1.315  -0.208  1.00  0.00     0.070 A 
HETATM    2  C3  UNL     1       2.583  -2.109  -0.671  1.00  0.00     0.038 A 
HETATM    3  C4  UNL     1       1.298  -1.612  -0.694  1.00  0.00     0.018 A 
HETATM    4  C5  UNL     1       0.970  -0.340  -0.274  1.00  0.00     0.019 A 
HETATM    5  C6  UNL     1       2.021   0.445   0.187  1.00  0.00     0.069 A 
HETATM    6  C7  UNL     1       3.316  -0.028   0.221  1.00  0.00     0.069 A 
HETATM    7  N1  UNL     1       1.675   1.612   0.565  1.00  0.00    -0.251 NA
HETATM    8  C8  UNL     1       0.233   1.719   0.371  1.00  0.00     0.295 A 
HETATM    9  C10 UNL     1      -0.122   0.406  -0.174  1.00  0.00     0.071 A 
ENDROOT
BRANCH   9  10
HETATM   10  N2  UNL     1      -1.378  -0.119  -0.572  1.00  0.00    -0.371 N 
HETATM   11  C11 UNL     1      -2.196   0.611  -1.522  1.00  0.00     0.150 C 
HETATM   12  C12 UNL     1      -3.200   1.381  -0.719  1.00  0.00    -0.007 C 
HETATM   13  C13 UNL     1      -3.917   0.858   0.269  1.00  0.00    -0.000 C 
HETATM   14  C14 UNL     1      -4.007  -0.464   0.879  1.00  0.00     0.026 C 
HETATM   15  C15 UNL     1      -3.041  -1.360   0.735  1.00  0.00     0.020 C 
HETATM   16  C16 UNL     1      -1.732  -1.369   0.026  1.00  0.00     0.179 C 
BRANCH  15  17
HETATM   17  N3  UNL     1      -3.277  -2.603   1.391  1.00  0.00    -0.401 N 
HETATM   18  H16 UNL     1      -3.644  -3.168   0.571  1.00  0.00     0.156 HD
HETATM   19  H17 UNL     1      -3.169  -2.984   2.369  1.00  0.00     0.156 HD
ENDBRANCH  15  17
ENDBRANCH   9  10
BRANCH   8  20
HETATM   20  O2  UNL     1       0.054   2.780  -0.509  1.00  0.00    -0.364 OA
HETATM   21  C9  UNL     1      -0.603   3.829   0.101  1.00  0.00     0.204 C 
ENDBRANCH   8  20
BRANCH   1  22
HETATM   22  O1  UNL     1       4.862  -1.915  -0.230  1.00  0.00    -0.356 OA
HETATM   23  C1  UNL     1       6.039  -1.255   0.206  1.00  0.00     0.210 C 
ENDBRANCH   1  22
TORSDOF 4
