REMARK  6 active torsions:
REMARK  status: ('A' for Active; 'I' for Inactive)
REMARK    1  A    between atoms: O1_2  and  C2_3 
REMARK    2  A    between atoms: C9_11  and  O2_12 
REMARK    3  A    between atoms: O2_12  and  C10_13 
REMARK    4  A    between atoms: C10_13  and  O3_14 
REMARK    5  A    between atoms: C11_15  and  N2_16 
REMARK    6  A    between atoms: N2_16  and  C13_18 
ROOT
HETATM    1  C2  UNL     1      -2.794  -1.157   0.181  1.00  0.00     0.075 A 
HETATM    2  C3  UNL     1      -1.522  -0.848  -0.256  1.00  0.00     0.053 A 
HETATM    3  C4  UNL     1      -1.004   0.417  -0.058  1.00  0.00     0.022 A 
HETATM    4  C5  UNL     1      -1.762   1.382   0.583  1.00  0.00     0.067 A 
HETATM    5  C6  UNL     1      -3.035   1.078   1.022  1.00  0.00     0.041 A 
HETATM    6  C7  UNL     1      -3.564  -0.187   0.829  1.00  0.00    -0.026 A 
HETATM    7  C8  UNL     1      -4.958  -0.443   1.336  1.00  0.00     0.051 C 
HETATM    8  N1  UNL     1      -1.141   2.486   0.684  1.00  0.00    -0.251 NA
HETATM    9  C9  UNL     1       0.172   2.352   0.083  1.00  0.00     0.299 A 
HETATM   10  C11 UNL     1       0.172   0.955  -0.379  1.00  0.00     0.075 A 
ENDROOT
BRANCH  10  11
HETATM   11  N2  UNL     1       1.197   0.211  -1.060  1.00  0.00    -0.350 N 
HETATM   12  C12 UNL     1       1.398   0.113  -2.483  1.00  0.00     0.156 C 
BRANCH  11  13
HETATM   13  C13 UNL     1       2.108  -0.502  -0.228  1.00  0.00     0.034 A 
HETATM   14  C14 UNL     1       3.127  -1.245  -0.790  1.00  0.00     0.029 A 
HETATM   15  C15 UNL     1       4.034  -1.952  -0.045  1.00  0.00     0.002 A 
HETATM   16  C16 UNL     1       3.947  -1.937   1.320  1.00  0.00     0.000 A 
HETATM   17  C17 UNL     1       2.947  -1.210   1.923  1.00  0.00     0.002 A 
HETATM   18  C18 UNL     1       2.044  -0.505   1.155  1.00  0.00     0.029 A 
ENDBRANCH  11  13
ENDBRANCH  10  11
BRANCH   9  19
HETATM   19  O2  UNL     1       0.404   3.285  -0.920  1.00  0.00    -0.335 OA
BRANCH  19  20
HETATM   20  C10 UNL     1       1.473   4.068  -0.485  1.00  0.00     0.337 C 
BRANCH  20  21
HETATM   21  O3  UNL     1       2.613   3.273  -0.276  1.00  0.00    -0.377 OA
HETATM   22  H12 UNL     1       3.432   3.803  -0.281  1.00  0.00     0.212 HD
ENDBRANCH  20  21
ENDBRANCH  19  20
ENDBRANCH   9  19
BRANCH   1  23
HETATM   23  O1  UNL     1      -3.444  -2.379   0.053  1.00  0.00    -0.355 OA
HETATM   24  C1  UNL     1      -2.715  -3.420  -0.601  1.00  0.00     0.210 C 
ENDBRANCH   1  23
TORSDOF 6
