REMARK  1 active torsions:
REMARK  status: ('A' for Active; 'I' for Inactive)
REMARK    1  A    between atoms: O1_2  and  C2_3 
ROOT
HETATM    1  C2  UNL     1       2.080  -0.350  -1.754  1.00  0.00     0.066 C 
HETATM    2  C3  UNL     1       1.685   0.788  -1.253  1.00  0.00     0.012 C 
HETATM    3  C4  UNL     1       1.837   0.812   0.193  1.00  0.00     0.069 C 
HETATM    4  C5  UNL     1       0.840   1.451   1.031  1.00  0.00    -0.042 A 
HETATM    5  C6  UNL     1       1.479   2.511   1.728  1.00  0.00     0.008 A 
HETATM    6  C7  UNL     1       1.114   3.499   2.720  1.00  0.00     0.001 A 
HETATM    7  C8  UNL     1      -0.281   3.260   3.007  1.00  0.00     0.001 A 
HETATM    8  C9  UNL     1      -1.130   2.256   2.421  1.00  0.00     0.014 A 
HETATM    9  C10 UNL     1      -0.388   1.592   1.580  1.00  0.00    -0.001 A 
HETATM   10  C11 UNL     1      -1.471   0.773   1.007  1.00  0.00     0.074 A 
HETATM   11  C12 UNL     1      -1.405  -0.431   0.223  1.00  0.00     0.064 A 
HETATM   12  C13 UNL     1      -1.535  -1.546  -0.521  1.00  0.00     0.065 A 
HETATM   13  N1  UNL     1      -2.839  -1.306  -0.512  1.00  0.00    -0.207 NA
HETATM   14  C14 UNL     1      -3.421  -0.268   0.104  1.00  0.00     0.269 A 
HETATM   15  O2  UNL     1      -4.682  -0.515  -0.216  1.00  0.00    -0.324 OA
HETATM   16  C15 UNL     1      -5.915  -0.695  -0.488  1.00  0.00     0.213 C 
HETATM   17  N2  UNL     1      -2.820   0.713   0.820  1.00  0.00    -0.206 NA
HETATM   18  C16 UNL     1      -0.413  -2.338  -0.805  1.00  0.00     0.056 C 
HETATM   19  C17 UNL     1       0.487  -2.328  -1.691  1.00  0.00     0.137 C 
HETATM   20  O3  UNL     1       1.501  -2.430  -2.568  1.00  0.00    -0.357 OA
HETATM   21  C18 UNL     1       2.278  -1.259  -2.918  1.00  0.00     0.238 C 
ENDROOT
BRANCH   1  22
HETATM   22  O1  UNL     1       2.553  -1.167  -0.700  1.00  0.00    -0.358 OA
HETATM   23  C1  UNL     1       3.891  -1.592  -0.657  1.00  0.00     0.209 C 
ENDBRANCH   1  22
TORSDOF 1
