REMARK  6 active torsions:
REMARK  status: ('A' for Active; 'I' for Inactive)
REMARK    1  A    between atoms: C4_4  and  C5_5 
REMARK    2  A    between atoms: C6_6  and  N1_7 
REMARK    3  A    between atoms: N1_7  and  C7_8 
REMARK    4  A    between atoms: C8_10  and  O1_11 
REMARK    5  A    between atoms: O1_11  and  P1_12 
REMARK    6  A    between atoms: C12_17  and  O2_18 
ROOT
HETATM    1  C1  UNL     1       7.002  -1.012  -0.880  1.00  0.00     0.017 C 
HETATM    2  C2  UNL     1       6.272  -0.212  -0.337  1.00  0.00    -0.089 C 
HETATM    3  C3  UNL     1       5.413   0.719   0.325  1.00  0.00     0.063 C 
HETATM    4  C4  UNL     1       4.113   0.447   0.373  1.00  0.00     0.010 C 
ENDROOT
BRANCH   4   5
HETATM    5  C5  UNL     1       3.588  -0.770  -0.236  1.00  0.00     0.018 C 
HETATM    6  C6  UNL     1       2.284  -1.036  -0.184  1.00  0.00     0.090 C 
BRANCH   6   7
HETATM    7  N1  UNL     1       1.431  -0.132   0.461  1.00  0.00    -0.350 N 
HETATM    8  H6  UNL     1       1.599   0.071   1.469  1.00  0.00     0.166 HD
BRANCH   7   9
HETATM    9  C7  UNL     1       0.302   0.712   0.266  1.00  0.00     0.140 A 
HETATM   10  N2  UNL     1       0.570   1.974  -0.121  1.00  0.00    -0.188 NA
HETATM   11  C8  UNL     1      -0.387   2.888  -0.345  1.00  0.00     0.274 A 
HETATM   12  N3  UNL     1      -1.665   2.507  -0.169  1.00  0.00    -0.206 NA
HETATM   13  C9  UNL     1      -2.020   1.267   0.215  1.00  0.00     0.071 A 
HETATM   14  C10 UNL     1      -1.033   0.326   0.446  1.00  0.00     0.023 A 
HETATM   15  C16 UNL     1      -3.464   1.095   0.337  1.00  0.00     0.032 C 
HETATM   16  C11 UNL     1      -1.069  -1.064   0.859  1.00  0.00     0.109 C 
HETATM   17  C12 UNL     1      -2.305  -1.810   0.555  1.00  0.00     0.050 C 
HETATM   18  C14 UNL     1      -3.556  -1.406   0.367  1.00  0.00     0.032 C 
HETATM   19  C15 UNL     1      -4.121  -0.056   0.402  1.00  0.00     0.005 C 
BRANCH  11  20
HETATM   20  O1  UNL     1      -0.162   4.198  -0.745  1.00  0.00    -0.297 OA
BRANCH  20  21
HETATM   21  P1  UNL     1      -1.468   5.336  -1.018  1.00  0.00     0.012 P 
HETATM   22  H7  UNL     1      -1.231   6.495  -0.164  1.00  0.00     0.085 HD
HETATM   23  H8  UNL     1      -2.722   4.743  -0.547  1.00  0.00     0.085 HD
ENDBRANCH  20  21
ENDBRANCH  11  20
BRANCH  17  24
HETATM   24  O2  UNL     1      -2.128  -3.184   0.446  1.00  0.00    -0.360 OA
HETATM   25  C13 UNL     1      -3.177  -4.039   0.035  1.00  0.00     0.209 C 
ENDBRANCH  17  24
ENDBRANCH   7   9
ENDBRANCH   6   7
ENDBRANCH   4   5
TORSDOF 6
