REMARK  6 active torsions:
REMARK  status: ('A' for Active; 'I' for Inactive)
REMARK    1  A    between atoms: O1_2  and  C2_3 
REMARK    2  A    between atoms: C3_4  and  C4_5 
REMARK    3  A    between atoms: C6_7  and  C7_8 
REMARK    4  A    between atoms: C7_8  and  C8_9 
REMARK    5  A    between atoms: C8_9  and  C9_10 
REMARK    6  A    between atoms: C15_17  and  O2_18 
ROOT
HETATM    1  C4  UNL     1       2.786  -0.316   0.599  1.00  0.00     0.065 A 
HETATM    2  C5  UNL     1       1.593   0.304   0.348  1.00  0.00     0.059 A 
HETATM    3  C6  UNL     1       0.397  -0.356   0.167  1.00  0.00     0.041 A 
HETATM    4  N1  UNL     1       0.415  -1.711   0.244  1.00  0.00    -0.212 NA
HETATM    5  C15 UNL     1       1.589  -2.328   0.491  1.00  0.00     0.268 A 
HETATM    6  N2  UNL     1       2.742  -1.656   0.664  1.00  0.00    -0.207 NA
ENDROOT
BRANCH   3   7
HETATM    7  C7  UNL     1      -0.886   0.340  -0.104  1.00  0.00     0.064 C 
BRANCH   7   8
HETATM    8  C8  UNL     1      -1.955  -0.748  -0.239  1.00  0.00     0.044 C 
BRANCH   8   9
HETATM    9  C9  UNL     1      -3.238  -0.090  -0.508  1.00  0.00    -0.058 A 
HETATM   10  C10 UNL     1      -3.620   0.151  -1.809  1.00  0.00     0.007 A 
HETATM   11  C11 UNL     1      -4.836   0.774  -2.067  1.00  0.00     0.001 A 
HETATM   12  C12 UNL     1      -5.697   1.171  -1.044  1.00  0.00     0.000 A 
HETATM   13  C13 UNL     1      -5.329   0.936   0.282  1.00  0.00     0.001 A 
HETATM   14  C14 UNL     1      -4.103   0.309   0.507  1.00  0.00     0.007 A 
ENDBRANCH   8   9
ENDBRANCH   7   8
ENDBRANCH   3   7
BRANCH   1  15
HETATM   15  C3  UNL     1       4.046   0.361   0.790  1.00  0.00     0.055 C 
HETATM   16  C2  UNL     1       4.179   1.673   0.741  1.00  0.00     0.136 C 
BRANCH  16  17
HETATM   17  O1  UNL     1       3.391   2.792   0.534  1.00  0.00    -0.368 OA
HETATM   18  C1  UNL     1       3.370   3.389  -0.740  1.00  0.00     0.208 C 
ENDBRANCH  16  17
ENDBRANCH   1  15
BRANCH   5  19
HETATM   19  O2  UNL     1       1.583  -3.734   0.567  1.00  0.00    -0.324 OA
HETATM   20  C16 UNL     1       2.762  -4.462   0.821  1.00  0.00     0.213 C 
ENDBRANCH   5  19
TORSDOF 6
