REMARK  3 active torsions:
REMARK  status: ('A' for Active; 'I' for Inactive)
REMARK    1  A    between atoms: C2_2  and  C3_3 
REMARK    2  A    between atoms: C8_10  and  N3_11 
REMARK    3  A    between atoms: N3_11  and  C10_13 
ROOT
HETATM    1  C3  UNL     1       2.698  -0.588   0.658  1.00  0.00    -0.058 A 
HETATM    2  C4  UNL     1       3.600  -0.709  -0.369  1.00  0.00     0.009 A 
HETATM    3  C5  UNL     1       3.108  -0.886  -1.649  1.00  0.00     0.033 A 
HETATM    4  C6  UNL     1       1.747  -0.938  -1.876  1.00  0.00     0.072 A 
HETATM    5  N1  UNL     1       1.321  -1.111  -3.138  1.00  0.00    -0.241 NA
HETATM    6  C7  UNL     1      -0.020  -1.161  -3.350  1.00  0.00     0.236 A 
HETATM    7  N2  UNL     1      -0.891  -1.037  -2.306  1.00  0.00    -0.223 NA
HETATM    8  C8  UNL     1      -0.457  -0.861  -1.031  1.00  0.00     0.143 A 
HETATM    9  C16 UNL     1       0.906  -0.810  -0.804  1.00  0.00     0.039 A 
HETATM   10  C17 UNL     1       1.321  -0.630   0.507  1.00  0.00     0.024 A 
ENDROOT
BRANCH   8  11
HETATM   11  N3  UNL     1      -1.438  -0.746  -0.039  1.00  0.00    -0.335 N 
HETATM   12  C9  UNL     1      -1.555  -1.665   1.099  1.00  0.00     0.158 C 
BRANCH  11  13
HETATM   13  C10 UNL     1      -2.380   0.300  -0.107  1.00  0.00     0.035 A 
HETATM   14  C11 UNL     1      -2.385   1.239  -1.128  1.00  0.00     0.029 A 
HETATM   15  C12 UNL     1      -3.289   2.279  -1.233  1.00  0.00     0.002 A 
HETATM   16  C13 UNL     1      -4.262   2.401  -0.257  1.00  0.00     0.000 A 
HETATM   17  C14 UNL     1      -4.308   1.499   0.782  1.00  0.00     0.002 A 
HETATM   18  C15 UNL     1      -3.383   0.492   0.826  1.00  0.00     0.029 A 
ENDBRANCH  11  13
ENDBRANCH   8  11
BRANCH   1  19
HETATM   19  C2  UNL     1       3.299  -0.401   2.004  1.00  0.00     0.034 C 
HETATM   20  C1  UNL     1       3.486   1.094   2.284  1.00  0.00     0.010 C 
ENDBRANCH   1  19
TORSDOF 3
