REMARK  3 active torsions:
REMARK  status: ('A' for Active; 'I' for Inactive)
REMARK    1  A    between atoms: C3_3  and  N1_6 
REMARK    2  A    between atoms: N1_6  and  C7_8 
REMARK    3  A    between atoms: C13_16  and  O1_17 
ROOT
HETATM    1  C1  UNL     1      -2.647  -2.745   1.368  1.00  0.00     0.019 C 
HETATM    2  C2  UNL     1      -2.791  -1.728   0.758  1.00  0.00    -0.060 C 
HETATM    3  C3  UNL     1      -2.946  -0.512   0.010  1.00  0.00     0.085 C 
HETATM    4  C4  UNL     1      -4.071  -0.237  -0.662  1.00  0.00     0.008 C 
HETATM    5  C5  UNL     1      -4.307   0.988  -1.452  1.00  0.00     0.039 C 
ENDROOT
BRANCH   3   6
HETATM    6  N1  UNL     1      -1.841   0.403   0.009  1.00  0.00    -0.330 N 
HETATM    7  C6  UNL     1      -2.006   1.629   0.804  1.00  0.00     0.158 C 
BRANCH   6   8
HETATM    8  C7  UNL     1      -0.704  -0.004  -0.779  1.00  0.00     0.145 A 
HETATM    9  N2  UNL     1      -1.051  -0.295  -2.013  1.00  0.00    -0.226 NA
HETATM   10  C8  UNL     1      -0.035  -0.718  -2.928  1.00  0.00     0.228 A 
HETATM   11  N3  UNL     1       1.112  -0.762  -2.424  1.00  0.00    -0.279 NA
HETATM   12  C9  UNL     1       1.642  -0.488  -1.148  1.00  0.00     0.196 A 
HETATM   13  C10 UNL     1       0.632  -0.052  -0.160  1.00  0.00     0.142 A 
HETATM   14  C11 UNL     1       0.662  -0.813   1.134  1.00  0.00     0.078 C 
HETATM   15  O2  UNL     1       0.947   1.294   0.164  1.00  0.00    -0.364 OA
HETATM   16  C12 UNL     1       2.084  -0.933   1.546  1.00  0.00     0.011 C 
HETATM   17  C13 UNL     1       2.690   0.188   1.264  1.00  0.00     0.065 C 
HETATM   18  C15 UNL     1       2.226   1.436   0.659  1.00  0.00     0.233 C 
BRANCH  17  19
HETATM   19  O1  UNL     1       4.055   0.257   1.588  1.00  0.00    -0.358 OA
HETATM   20  C14 UNL     1       4.955   0.049   0.515  1.00  0.00     0.209 C 
ENDBRANCH  17  19
ENDBRANCH   6   8
ENDBRANCH   3   6
TORSDOF 3
