REMARK  5 active torsions:
REMARK  status: ('A' for Active; 'I' for Inactive)
REMARK    1  A    between atoms: C3_3  and  N1_4 
REMARK    2  A    between atoms: N1_4  and  C4_5 
REMARK    3  A    between atoms: C4_5  and  N2_6 
REMARK    4  A    between atoms: C5_7  and  N3_8 
REMARK    5  A    between atoms: C14_18  and  O1_19 
ROOT
HETATM    1  N1  UNL     1       1.061  -0.671  -1.086  1.00  0.00    -0.241 NA
ENDROOT
BRANCH   1   2
HETATM    2  C3  UNL     1       2.215  -0.586  -0.260  1.00  0.00     0.073 A 
HETATM    3  C2  UNL     1       3.352   0.181  -0.676  1.00  0.00     0.005 A 
HETATM    4  C1  UNL     1       3.279   0.797  -1.844  1.00  0.00     0.048 C 
HETATM    5  C14 UNL     1       4.549   0.295   0.131  1.00  0.00     0.083 A 
HETATM    6  C13 UNL     1       4.749  -0.259   1.294  1.00  0.00     0.087 A 
HETATM    7  S1  UNL     1       3.460  -1.265   2.010  1.00  0.00    -0.109 SA
HETATM    8  C12 UNL     1       2.107  -1.264   0.865  1.00  0.00     0.081 A 
BRANCH   5   9
HETATM    9  O1  UNL     1       5.578   1.066  -0.385  1.00  0.00    -0.355 OA
HETATM   10  C15 UNL     1       6.662   1.486   0.403  1.00  0.00     0.210 C 
ENDBRANCH   5   9
ENDBRANCH   1   2
BRANCH   1  11
HETATM   11  C4  UNL     1      -0.115  -0.525  -0.627  1.00  0.00     0.234 C 
BRANCH  11  12
HETATM   12  N2  UNL     1      -1.486  -0.384  -0.262  1.00  0.00    -0.237 NA
HETATM   13  C5  UNL     1      -2.118  -1.440   0.122  1.00  0.00     0.214 C 
BRANCH  13  14
HETATM   14  N3  UNL     1      -3.307  -0.678   0.315  1.00  0.00    -0.327 N 
HETATM   15  C6  UNL     1      -4.112  -0.378  -0.839  1.00  0.00     0.097 C 
HETATM   16  C7  UNL     1      -5.326   0.142  -0.875  1.00  0.00     0.018 C 
HETATM   17  C8  UNL     1      -6.214   0.566   0.207  1.00  0.00     0.001 C 
HETATM   18  C9  UNL     1      -5.898   0.596   1.493  1.00  0.00     0.001 C 
HETATM   19  C10 UNL     1      -4.640   0.234   2.176  1.00  0.00     0.018 C 
HETATM   20  C11 UNL     1      -3.543  -0.307   1.668  1.00  0.00     0.097 C 
ENDBRANCH  13  14
ENDBRANCH  11  12
ENDBRANCH   1  11
TORSDOF 5
