REMARK  4 active torsions:
REMARK  status: ('A' for Active; 'I' for Inactive)
REMARK    1  A    between atoms: S1_2  and  O1_3 
REMARK    2  A    between atoms: O1_3  and  C2_4 
REMARK    3  A    between atoms: C7_11  and  N3_12 
REMARK    4  A    between atoms: N3_12  and  C9_14 
ROOT
HETATM    1  C2  UNL     1       2.706   0.432   0.952  1.00  0.00     0.085 A 
HETATM    2  C3  UNL     1       3.364  -0.729   1.349  1.00  0.00     0.040 A 
HETATM    3  C4  UNL     1       2.778  -1.973   1.159  1.00  0.00     0.035 A 
HETATM    4  C5  UNL     1       1.535  -2.101   0.575  1.00  0.00     0.072 A 
HETATM    5  N1  UNL     1       0.900  -3.263   0.356  1.00  0.00    -0.241 NA
HETATM    6  C6  UNL     1      -0.313  -3.336  -0.218  1.00  0.00     0.236 A 
HETATM    7  N2  UNL     1      -0.903  -2.184  -0.582  1.00  0.00    -0.223 NA
HETATM    8  C7  UNL     1      -0.346  -0.970  -0.403  1.00  0.00     0.144 A 
HETATM    9  C15 UNL     1       0.899  -0.939   0.189  1.00  0.00     0.042 A 
HETATM   10  C16 UNL     1       1.455   0.306   0.364  1.00  0.00     0.055 A 
ENDROOT
BRANCH   8  11
HETATM   11  N3  UNL     1      -1.110   0.145  -0.848  1.00  0.00    -0.335 N 
HETATM   12  C8  UNL     1      -0.659   1.089  -1.871  1.00  0.00     0.158 C 
BRANCH  11  13
HETATM   13  C9  UNL     1      -2.392   0.364  -0.269  1.00  0.00     0.035 A 
HETATM   14  C10 UNL     1      -2.933  -0.450   0.704  1.00  0.00     0.029 A 
HETATM   15  C11 UNL     1      -4.170  -0.260   1.280  1.00  0.00     0.002 A 
HETATM   16  C12 UNL     1      -4.937   0.794   0.884  1.00  0.00     0.000 A 
HETATM   17  C13 UNL     1      -4.445   1.636  -0.082  1.00  0.00     0.002 A 
HETATM   18  C14 UNL     1      -3.194   1.418  -0.643  1.00  0.00     0.029 A 
ENDBRANCH  11  13
ENDBRANCH   8  11
BRANCH   1  19
HETATM   19  O1  UNL     1       3.250   1.696   1.121  1.00  0.00    -0.280 OA
BRANCH  19  20
HETATM   20  S1  UNL     1       4.241   2.521  -0.011  1.00  0.00    -0.009 SA
HETATM   21  C1  UNL     1       4.649   1.454  -1.427  1.00  0.00     0.123 C 
ENDBRANCH  19  20
ENDBRANCH   1  19
TORSDOF 4
