REMARK  5 active torsions:
REMARK  status: ('A' for Active; 'I' for Inactive)
REMARK    1  A    between atoms: O1_2  and  C2_3 
REMARK    2  A    between atoms: C6_9  and  N3_10 
REMARK    3  A    between atoms: N3_10  and  S1_12 
REMARK    4  A    between atoms: S1_12  and  C8_13 
REMARK    5  A    between atoms: C16_21  and  O2_22 
ROOT
HETATM    1  C2  UNL     1      -3.566   0.707  -0.375  1.00  0.00     0.103 A 
HETATM    2  C3  UNL     1      -3.655  -0.636  -0.674  1.00  0.00     0.072 A 
HETATM    3  C4  UNL     1      -2.604  -1.507  -0.503  1.00  0.00     0.075 A 
HETATM    4  N1  UNL     1      -2.618  -2.821  -0.772  1.00  0.00    -0.241 NA
HETATM    5  C5  UNL     1      -1.548  -3.609  -0.577  1.00  0.00     0.236 A 
HETATM    6  N2  UNL     1      -0.398  -3.116  -0.099  1.00  0.00    -0.223 NA
HETATM    7  C6  UNL     1      -0.276  -1.814   0.202  1.00  0.00     0.149 A 
HETATM    8  C14 UNL     1      -1.401  -1.056  -0.016  1.00  0.00     0.042 A 
HETATM    9  C15 UNL     1      -1.296   0.281   0.287  1.00  0.00     0.057 A 
HETATM   10  C16 UNL     1      -2.354   1.143   0.112  1.00  0.00     0.102 A 
ENDROOT
BRANCH   7  11
HETATM   11  N3  UNL     1       0.989  -1.410   0.700  1.00  0.00    -0.305 N 
HETATM   12  C7  UNL     1       2.050  -2.411   0.849  1.00  0.00     0.167 C 
BRANCH  11  13
HETATM   13  S1  UNL     1       1.797   0.045   1.259  1.00  0.00    -0.011 SA
BRANCH  13  14
HETATM   14  C8  UNL     1       3.152   0.426   0.194  1.00  0.00     0.021 A 
HETATM   15  C9  UNL     1       4.392  -0.101   0.486  1.00  0.00     0.020 A 
HETATM   16  C10 UNL     1       5.475   0.187  -0.341  1.00  0.00     0.001 A 
HETATM   17  C11 UNL     1       5.333   0.994  -1.453  1.00  0.00     0.000 A 
HETATM   18  C12 UNL     1       4.109   1.529  -1.762  1.00  0.00     0.001 A 
HETATM   19  C13 UNL     1       3.053   1.226  -0.924  1.00  0.00     0.020 A 
ENDBRANCH  13  14
ENDBRANCH  11  13
ENDBRANCH   7  11
BRANCH  10  20
HETATM   20  O2  UNL     1      -2.255   2.501   0.418  1.00  0.00    -0.353 OA
HETATM   21  C17 UNL     1      -1.008   2.973   0.923  1.00  0.00     0.210 C 
ENDBRANCH  10  20
BRANCH   1  22
HETATM   22  O1  UNL     1      -4.611   1.580  -0.544  1.00  0.00    -0.353 OA
HETATM   23  C1  UNL     1      -5.872   1.242  -1.028  1.00  0.00     0.210 C 
ENDBRANCH   1  22
TORSDOF 5
