REMARK  2 active torsions:
REMARK  status: ('A' for Active; 'I' for Inactive)
REMARK    1  A    between atoms: O1_2  and  C2_3 
REMARK    2  A    between atoms: C15_19  and  O2_20 
ROOT
HETATM    1  C2  UNL     1      -1.062  -1.437   0.855  1.00  0.00     0.088 A 
HETATM    2  C3  UNL     1      -0.015  -2.275   1.017  1.00  0.00     0.164 A 
HETATM    3  C4  UNL     1       1.430  -2.018   0.757  1.00  0.00     0.046 A 
HETATM    4  C5  UNL     1       2.367  -1.062   0.309  1.00  0.00     0.059 A 
HETATM    5  C6  UNL     1       3.704  -1.130   0.179  1.00  0.00     0.059 A 
HETATM    6  N1  UNL     1       4.193  -2.307   0.542  1.00  0.00    -0.242 NA
HETATM    7  C7  UNL     1       3.393  -3.293   0.986  1.00  0.00     0.233 A 
HETATM    8  N2  UNL     1       2.038  -3.181   1.102  1.00  0.00    -0.246 NA
HETATM    9  C8  UNL     1       4.007   0.166  -0.316  1.00  0.00     0.028 A 
HETATM   10  C9  UNL     1       3.606   1.351  -0.683  1.00  0.00    -0.019 A 
HETATM   11  C10 UNL     1       2.129   1.671  -0.610  1.00  0.00     0.022 A 
HETATM   12  C11 UNL     1       1.413   2.794  -0.915  1.00  0.00     0.018 A 
HETATM   13  C12 UNL     1       0.030   3.189  -0.881  1.00  0.00     0.122 A 
HETATM   14  N3  UNL     1      -0.984   2.272  -0.430  1.00  0.00    -0.407 N 
HETATM   15  C13 UNL     1      -2.296   2.927  -0.478  1.00  0.00     0.143 C 
HETATM   16  C14 UNL     1      -1.491   1.055   0.050  1.00  0.00     0.145 A 
HETATM   17  C15 UNL     1      -1.687  -0.140   0.485  1.00  0.00     0.145 A 
ENDROOT
BRANCH   1  18
HETATM   18  O1  UNL     1      -2.090  -2.262   1.259  1.00  0.00    -0.386 OA
HETATM   19  C1  UNL     1      -2.426  -3.501   0.699  1.00  0.00     0.202 C 
ENDBRANCH   1  18
BRANCH  17  20
HETATM   20  O2  UNL     1      -3.010   0.183   0.535  1.00  0.00    -0.377 OA
HETATM   21  C16 UNL     1      -3.991  -0.264  -0.373  1.00  0.00     0.202 C 
ENDBRANCH  17  20
TORSDOF 2
