REMARK  6 active torsions:
REMARK  status: ('A' for Active; 'I' for Inactive)
REMARK    1  A    between atoms: C2_2  and  C3_3 
REMARK    2  A    between atoms: C4_4  and  C5_5 
REMARK    3  A    between atoms: C6_6  and  N1_7 
REMARK    4  A    between atoms: N1_7  and  C8_9 
REMARK    5  A    between atoms: C12_15  and  O1_16 
REMARK    6  A    between atoms: C14_18  and  O2_19 
ROOT
HETATM    1  C8  UNL     1       0.860  -0.935  -0.387  1.00  0.00     0.143 A 
HETATM    2  N2  UNL     1       0.762  -1.956  -1.280  1.00  0.00    -0.223 NA
HETATM    3  C9  UNL     1       1.838  -2.316  -2.001  1.00  0.00     0.236 A 
HETATM    4  N3  UNL     1       3.013  -1.663  -1.836  1.00  0.00    -0.241 NA
HETATM    5  C10 UNL     1       3.142  -0.649  -0.962  1.00  0.00     0.075 A 
HETATM    6  C11 UNL     1       4.301   0.067  -0.740  1.00  0.00     0.072 A 
HETATM    7  C12 UNL     1       4.318   1.108   0.194  1.00  0.00     0.103 A 
HETATM    8  C14 UNL     1       3.186   1.459   0.925  1.00  0.00     0.100 A 
HETATM    9  C15 UNL     1       2.016   0.745   0.710  1.00  0.00     0.057 A 
HETATM   10  C16 UNL     1       2.053  -0.268  -0.217  1.00  0.00     0.042 A 
ENDROOT
BRANCH   1  11
HETATM   11  N1  UNL     1      -0.391  -0.713   0.300  1.00  0.00    -0.345 N 
HETATM   12  C7  UNL     1      -0.433  -0.996   1.721  1.00  0.00     0.157 C 
BRANCH  11  13
HETATM   13  C6  UNL     1      -1.476  -0.231  -0.476  1.00  0.00     0.092 C 
HETATM   14  C5  UNL     1      -2.760  -0.210  -0.180  1.00  0.00     0.017 C 
BRANCH  14  15
HETATM   15  C4  UNL     1      -3.778  -0.529   0.793  1.00  0.00    -0.003 C 
HETATM   16  C3  UNL     1      -5.056  -0.517   1.104  1.00  0.00    -0.027 C 
BRANCH  16  17
HETATM   17  C2  UNL     1      -6.279  -0.071   0.443  1.00  0.00     0.022 C 
HETATM   18  C1  UNL     1      -6.091   0.522  -0.920  1.00  0.00     0.009 C 
ENDBRANCH  16  17
ENDBRANCH  14  15
ENDBRANCH  11  13
ENDBRANCH   1  11
BRANCH   8  19
HETATM   19  O2  UNL     1       3.206   2.493   1.852  1.00  0.00    -0.358 OA
HETATM   20  H18 UNL     1       2.883   2.388   2.807  1.00  0.00     0.217 HD
ENDBRANCH   8  19
BRANCH   7  21
HETATM   21  O1  UNL     1       5.483   1.824   0.414  1.00  0.00    -0.353 OA
HETATM   22  C13 UNL     1       6.658   1.500  -0.310  1.00  0.00     0.210 C 
ENDBRANCH   7  21
TORSDOF 6
