REMARK  4 active torsions:
REMARK  status: ('A' for Active; 'I' for Inactive)
REMARK    1  A    between atoms: O1_2  and  C2_3 
REMARK    2  A    between atoms: C5_6  and  N1_7 
REMARK    3  A    between atoms: N1_7  and  C7_9 
REMARK    4  A    between atoms: C15_20  and  O2_21 
ROOT
HETATM    1  C2  UNL     1       2.112  -1.063   0.038  1.00  0.00     0.103 A 
HETATM    2  C3  UNL     1       0.977  -0.424  -0.163  1.00  0.00     0.062 A 
HETATM    3  C4  UNL     1       0.334   0.477   0.738  1.00  0.00     0.050 A 
HETATM    4  C5  UNL     1      -0.795   1.063   0.523  1.00  0.00     0.148 C 
HETATM    5  N2  UNL     1      -1.568   1.806   1.458  1.00  0.00    -0.224 NA
HETATM    6  C13 UNL     1      -1.170   1.952   2.700  1.00  0.00     0.215 C 
HETATM    7  N3  UNL     1       0.043   1.398   3.258  1.00  0.00    -0.337 N 
HETATM    8  S1  UNL     1       1.203   0.905   2.265  1.00  0.00    -0.130 SA
HETATM    9  C14 UNL     1       2.546  -0.054   2.261  1.00  0.00     0.086 A 
HETATM   10  C15 UNL     1       2.868  -0.864   1.266  1.00  0.00     0.107 A 
HETATM   11  H14 UNL     1       0.035   1.375   4.297  1.00  0.00     0.173 HD
HETATM   12  H15 UNL     1       1.901   2.605   1.597  1.00  0.00     0.112 HD
ENDROOT
BRANCH   4  13
HETATM   13  N1  UNL     1      -1.522   0.855  -0.711  1.00  0.00    -0.335 N 
HETATM   14  C6  UNL     1      -1.061   1.411  -1.970  1.00  0.00     0.158 C 
BRANCH  13  15
HETATM   15  C7  UNL     1      -2.721   0.087  -0.710  1.00  0.00     0.035 A 
HETATM   16  C8  UNL     1      -3.362  -0.072  -1.922  1.00  0.00     0.029 A 
HETATM   17  C9  UNL     1      -4.543  -0.823  -1.947  1.00  0.00     0.002 A 
HETATM   18  C10 UNL     1      -5.034  -1.376  -0.800  1.00  0.00     0.000 A 
HETATM   19  C11 UNL     1      -4.397  -1.221   0.417  1.00  0.00     0.002 A 
HETATM   20  C12 UNL     1      -3.219  -0.473   0.448  1.00  0.00     0.029 A 
ENDBRANCH  13  15
ENDBRANCH   4  13
BRANCH   1  21
HETATM   21  O1  UNL     1       2.555  -1.909  -0.967  1.00  0.00    -0.353 OA
HETATM   22  C1  UNL     1       2.822  -1.351  -2.243  1.00  0.00     0.210 C 
ENDBRANCH   1  21
BRANCH  10  23
HETATM   23  O2  UNL     1       4.041  -1.621   1.362  1.00  0.00    -0.353 OA
HETATM   24  C16 UNL     1       5.234  -1.307   0.696  1.00  0.00     0.210 C 
ENDBRANCH  10  23
TORSDOF 4
