REMARK  3 active torsions:
REMARK  status: ('A' for Active; 'I' for Inactive)
REMARK    1  A    between atoms: O1_2  and  C2_3 
REMARK    2  A    between atoms: N3_10  and  C7_11 
REMARK    3  A    between atoms: C15_19  and  O2_20 
ROOT
HETATM    1  C2  UNL     1       2.574  -0.123   0.279  1.00  0.00     0.103 A 
HETATM    2  C3  UNL     1       2.358  -0.215  -1.024  1.00  0.00     0.069 A 
HETATM    3  C4  UNL     1       0.968  -0.055  -1.535  1.00  0.00     0.065 A 
HETATM    4  N1  UNL     1       0.978  -0.285  -2.797  1.00  0.00    -0.244 NA
HETATM    5  C5  UNL     1      -0.078  -0.266  -3.742  1.00  0.00     0.229 C 
HETATM    6  N2  UNL     1      -1.204  -0.793  -3.340  1.00  0.00    -0.263 NA
HETATM    7  C6  UNL     1      -1.500  -1.393  -2.044  1.00  0.00     0.275 C 
HETATM    8  N3  UNL     1      -1.412  -0.400  -0.986  1.00  0.00    -0.349 N 
HETATM    9  C13 UNL     1      -0.204   0.283  -0.714  1.00  0.00     0.164 A 
HETATM   10  C14 UNL     1       0.211   0.326   0.707  1.00  0.00     0.044 A 
HETATM   11  C15 UNL     1       1.440   0.152   1.154  1.00  0.00     0.100 A 
ENDROOT
BRANCH   8  12
HETATM   12  C7  UNL     1      -2.546  -0.087  -0.186  1.00  0.00     0.032 A 
HETATM   13  C8  UNL     1      -2.690   1.130   0.448  1.00  0.00     0.029 A 
HETATM   14  C9  UNL     1      -3.770   1.456   1.242  1.00  0.00     0.002 A 
HETATM   15  C10 UNL     1      -4.777   0.548   1.438  1.00  0.00     0.000 A 
HETATM   16  C11 UNL     1      -4.673  -0.681   0.823  1.00  0.00     0.002 A 
HETATM   17  C12 UNL     1      -3.581  -0.969   0.039  1.00  0.00     0.029 A 
ENDBRANCH   8  12
BRANCH  11  18
HETATM   18  O2  UNL     1       1.721   0.223   2.509  1.00  0.00    -0.353 OA
HETATM   19  C16 UNL     1       3.001   0.098   3.068  1.00  0.00     0.210 C 
ENDBRANCH  11  18
BRANCH   1  20
HETATM   20  O1  UNL     1       3.884  -0.294   0.651  1.00  0.00    -0.353 OA
HETATM   21  C1  UNL     1       4.989   0.283  -0.000  1.00  0.00     0.210 C 
ENDBRANCH   1  20
TORSDOF 3
