REMARK  5 active torsions:
REMARK  status: ('A' for Active; 'I' for Inactive)
REMARK    1  A    between atoms: C2_2  and  C3_3 
REMARK    2  A    between atoms: C4_4  and  C5_5 
REMARK    3  A    between atoms: C5_5  and  N1_6 
REMARK    4  A    between atoms: N1_6  and  C7_8 
REMARK    5  A    between atoms: C12_15  and  O1_16 
ROOT
HETATM    1  C7  UNL     1      -0.196  -1.112   1.045  1.00  0.00     0.139 A 
HETATM    2  N2  UNL     1      -0.038  -2.419   1.410  1.00  0.00    -0.224 NA
HETATM    3  C8  UNL     1      -1.032  -3.305   1.107  1.00  0.00     0.235 A 
HETATM    4  N3  UNL     1      -2.136  -2.890   0.465  1.00  0.00    -0.243 NA
HETATM    5  C9  UNL     1      -2.336  -1.623   0.089  1.00  0.00     0.071 A 
HETATM    6  C10 UNL     1      -1.341  -0.737   0.393  1.00  0.00     0.038 A 
HETATM    7  C11 UNL     1      -1.254   0.695   0.140  1.00  0.00     0.039 C 
HETATM    8  C12 UNL     1      -2.101   1.356  -0.665  1.00  0.00     0.034 C 
HETATM    9  B1  UNL     1      -3.328   0.802  -1.489  1.00  0.00     0.371 B 
HETATM   10  O2  UNL     1      -3.482  -0.624  -1.776  1.00  0.00    -0.444 OA
HETATM   11  C14 UNL     1      -3.624  -1.371  -0.608  1.00  0.00     0.203 C 
HETATM   12  H16 UNL     1      -3.886   1.603  -2.124  1.00  0.00     0.015 HD
ENDROOT
BRANCH   1  13
HETATM   13  N1  UNL     1       0.926  -0.280   1.406  1.00  0.00    -0.366 N 
HETATM   14  C6  UNL     1       1.057  -0.094   2.861  1.00  0.00     0.151 C 
BRANCH  13  15
HETATM   15  C5  UNL     1       1.997   0.471   0.793  1.00  0.00     0.151 C 
BRANCH  15  16
HETATM   16  C4  UNL     1       2.081   0.390  -0.661  1.00  0.00    -0.007 C 
HETATM   17  C3  UNL     1       3.109  -0.070  -1.358  1.00  0.00    -0.003 C 
BRANCH  17  18
HETATM   18  C2  UNL     1       4.320  -0.568  -0.744  1.00  0.00    -0.011 C 
HETATM   19  C1  UNL     1       5.350  -1.028  -1.428  1.00  0.00     0.011 C 
ENDBRANCH  17  18
ENDBRANCH  15  16
ENDBRANCH  13  15
ENDBRANCH   1  13
BRANCH   8  20
HETATM   20  O1  UNL     1      -1.826   2.711  -0.755  1.00  0.00    -0.369 OA
HETATM   21  C13 UNL     1      -2.744   3.697  -0.299  1.00  0.00     0.208 C 
ENDBRANCH   8  20
TORSDOF 5
