REMARK  4 active torsions:
REMARK  status: ('A' for Active; 'I' for Inactive)
REMARK    1  A    between atoms: O1_2  and  O2_3 
REMARK    2  A    between atoms: O2_3  and  C2_4 
REMARK    3  A    between atoms: C7_11  and  N3_12 
REMARK    4  A    between atoms: N3_12  and  C9_14 
ROOT
HETATM    1  C2  UNL     1      -2.363   0.592   0.048  1.00  0.00     0.102 A 
HETATM    2  C3  UNL     1      -1.897  -0.558   0.447  1.00  0.00     0.055 A 
HETATM    3  C4  UNL     1      -2.509  -1.461   1.274  1.00  0.00     0.073 A 
HETATM    4  N1  UNL     1      -1.916  -2.596   1.598  1.00  0.00    -0.241 NA
HETATM    5  C5  UNL     1      -0.701  -2.932   1.146  1.00  0.00     0.234 A 
HETATM    6  N2  UNL     1      -0.079  -2.064   0.333  1.00  0.00    -0.240 NA
HETATM    7  C6  UNL     1      -0.650  -0.898  -0.019  1.00  0.00     0.088 A 
HETATM    8  C7  UNL     1       0.137  -0.202  -0.821  1.00  0.00     0.123 C 
HETATM    9  C15 UNL     1      -3.846  -1.079   1.764  1.00  0.00     0.029 A 
HETATM   10  C16 UNL     1      -4.376   0.082   1.393  1.00  0.00    -0.018 A 
HETATM   11  C17 UNL     1      -3.699   1.050   0.494  1.00  0.00     0.096 A 
ENDROOT
BRANCH   8  12
HETATM   12  N3  UNL     1       1.449  -0.597  -1.291  1.00  0.00    -0.359 N 
HETATM   13  C8  UNL     1       1.892  -1.169  -2.572  1.00  0.00     0.156 C 
BRANCH  12  14
HETATM   14  C9  UNL     1       2.534  -0.422  -0.385  1.00  0.00     0.033 A 
HETATM   15  C10 UNL     1       3.829  -0.750  -0.681  1.00  0.00     0.029 A 
HETATM   16  C11 UNL     1       4.873  -0.570   0.225  1.00  0.00     0.002 A 
HETATM   17  C12 UNL     1       4.631  -0.043   1.474  1.00  0.00     0.000 A 
HETATM   18  C13 UNL     1       3.342   0.304   1.821  1.00  0.00     0.002 A 
HETATM   19  C14 UNL     1       2.359   0.102   0.888  1.00  0.00     0.029 A 
ENDBRANCH  12  14
ENDBRANCH   8  12
BRANCH   1  20
HETATM   20  O2  UNL     1      -1.707   1.456  -0.780  1.00  0.00    -0.201 OA
BRANCH  20  21
HETATM   21  O1  UNL     1      -1.475   2.734  -0.452  1.00  0.00    -0.241 OA
HETATM   22  C1  UNL     1      -1.951   3.615  -1.431  1.00  0.00     0.247 C 
ENDBRANCH  20  21
ENDBRANCH   1  20
TORSDOF 4
