REMARK  2 active torsions:
REMARK  status: ('A' for Active; 'I' for Inactive)
REMARK    1  A    between atoms: C2_2  and  C3_3 
REMARK       I    between atoms: C3_3  and  N1_5 
REMARK    2  A    between atoms: N1_5  and  C4_6 
ROOT
HETATM    1  C4  UNL     1       1.639   0.567  -1.471  1.00  0.00     0.014 C 
HETATM    2  C5  UNL     1       1.003   1.290  -2.387  1.00  0.00     0.027 C 
HETATM    3  C6  UNL     1      -0.305   1.758  -2.737  1.00  0.00     0.026 C 
HETATM    4  C7  UNL     1      -1.484   1.631  -2.150  1.00  0.00     0.135 C 
HETATM    5  O2  UNL     1      -1.844   1.021  -1.011  1.00  0.00    -0.359 OA
HETATM    6  C8  UNL     1      -2.373  -0.159  -0.602  1.00  0.00     0.231 C 
HETATM    7  C9  UNL     1      -2.069  -0.495   0.852  1.00  0.00     0.159 A 
HETATM    8  N2  UNL     1      -3.046   0.269   1.625  1.00  0.00    -0.266 NA
HETATM    9  C10 UNL     1      -3.997  -0.171   2.315  1.00  0.00     0.113 A 
HETATM   10  C11 UNL     1      -4.318  -1.580   2.483  1.00  0.00     0.016 A 
HETATM   11  C12 UNL     1      -3.473  -2.340   1.811  1.00  0.00    -0.005 A 
HETATM   12  C13 UNL     1      -2.317  -1.989   0.963  1.00  0.00     0.133 A 
HETATM   13 BR1  UNL     1      -0.740  -2.788   1.802  1.00  0.00    -0.082 Br
HETATM   14  N3  UNL     1      -0.770  -0.220   1.313  1.00  0.00    -0.392 N 
HETATM   15  C14 UNL     1       0.170   0.523   0.578  1.00  0.00     0.122 C 
HETATM   16  C15 UNL     1       0.674  -0.164  -0.640  1.00  0.00     0.076 C 
HETATM   17  H14 UNL     1      -0.835   0.068   2.320  1.00  0.00     0.155 HD
ENDROOT
BRANCH   1  18
HETATM   18  N1  UNL     1       3.043   0.263  -1.353  1.00  0.00    -0.327 N 
HETATM   19  C3  UNL     1       3.884   0.621  -0.297  1.00  0.00     0.244 C 
HETATM   20  O1  UNL     1       3.668   1.252   0.748  1.00  0.00    -0.268 OA
HETATM   21  H4  UNL     1       3.378  -0.280  -2.182  1.00  0.00     0.169 HD
BRANCH  19  22
HETATM   22  C2  UNL     1       5.257   0.200  -0.397  1.00  0.00     0.064 C 
HETATM   23  C1  UNL     1       6.059   0.534   0.598  1.00  0.00     0.017 C 
ENDBRANCH  19  22
ENDBRANCH   1  18
TORSDOF 2
