REMARK  5 active torsions:
REMARK  status: ('A' for Active; 'I' for Inactive)
REMARK    1  A    between atoms: C3_3  and  C4_4 
REMARK    2  A    between atoms: C5_5  and  N1_6 
REMARK    3  A    between atoms: N1_6  and  C7_8 
REMARK    4  A    between atoms: C11_14  and  O1_15 
REMARK    5  A    between atoms: C13_17  and  O2_18 
ROOT
HETATM    1  C7  UNL     1       0.492   0.071  -0.558  1.00  0.00     0.143 A 
HETATM    2  N2  UNL     1       1.147   0.536  -1.660  1.00  0.00    -0.223 NA
HETATM    3  C8  UNL     1       0.461   1.183  -2.625  1.00  0.00     0.236 A 
HETATM    4  N3  UNL     1      -0.884   1.401  -2.553  1.00  0.00    -0.241 NA
HETATM    5  C9  UNL     1      -1.589   0.959  -1.476  1.00  0.00     0.075 A 
HETATM    6  C10 UNL     1      -2.951   1.168  -1.383  1.00  0.00     0.072 A 
HETATM    7  C11 UNL     1      -3.655   0.715  -0.285  1.00  0.00     0.103 A 
HETATM    8  C13 UNL     1      -2.978   0.040   0.736  1.00  0.00     0.102 A 
HETATM    9  C15 UNL     1      -1.625  -0.129   0.571  1.00  0.00     0.057 A 
HETATM   10  C16 UNL     1      -0.868   0.300  -0.501  1.00  0.00     0.042 A 
ENDROOT
BRANCH   1  11
HETATM   11  N1  UNL     1       1.149  -0.619   0.499  1.00  0.00    -0.345 N 
HETATM   12  C6  UNL     1       1.335  -0.410   1.922  1.00  0.00     0.157 C 
BRANCH  11  13
HETATM   13  C5  UNL     1       1.810  -1.825   0.136  1.00  0.00     0.092 C 
HETATM   14  C4  UNL     1       3.088  -1.849  -0.208  1.00  0.00     0.017 C 
BRANCH  14  15
HETATM   15  C3  UNL     1       3.863  -0.638  -0.227  1.00  0.00    -0.003 C 
HETATM   16  C2  UNL     1       5.153  -0.656  -0.574  1.00  0.00    -0.031 C 
HETATM   17  C1  UNL     1       6.019   0.552  -0.617  1.00  0.00     0.036 C 
ENDBRANCH  14  15
ENDBRANCH  11  13
ENDBRANCH   1  11
BRANCH   8  18
HETATM   18  O2  UNL     1      -3.653  -0.425   1.846  1.00  0.00    -0.353 OA
HETATM   19  C14 UNL     1      -2.891  -1.098   2.834  1.00  0.00     0.210 C 
ENDBRANCH   8  18
BRANCH   7  20
HETATM   20  O1  UNL     1      -5.022   0.879  -0.104  1.00  0.00    -0.353 OA
HETATM   21  C12 UNL     1      -5.738   1.558  -1.119  1.00  0.00     0.210 C 
ENDBRANCH   7  20
TORSDOF 5
