REMARK  1 active torsions:
REMARK  status: ('A' for Active; 'I' for Inactive)
REMARK    1  A    between atoms: C2_2  and  N1_3 
ROOT
HETATM    1  N1  UNL     1       3.229  -0.333   0.023  1.00  0.00     0.089 N 
HETATM    2  C3  UNL     1       2.525   0.744  -0.685  1.00  0.00     0.302 C 
HETATM    3  C4  UNL     1       2.350   2.021   0.031  1.00  0.00     0.299 C 
HETATM    4  N2  UNL     1       1.443   2.822  -0.808  1.00  0.00     0.085 N 
HETATM    5  C5  UNL     1       0.100   2.346  -0.862  1.00  0.00     0.271 C 
HETATM    6  C6  UNL     1      -0.752   2.556   0.365  1.00  0.00     0.050 C 
HETATM    7  C7  UNL     1      -2.098   1.939   0.174  1.00  0.00     0.124 C 
HETATM    8  N3  UNL     1      -2.195   0.564   0.703  1.00  0.00    -0.389 N 
HETATM    9  C8  UNL     1      -1.229   0.496   1.794  1.00  0.00     0.095 C 
HETATM   10  C9  UNL     1      -0.441   0.495   2.883  1.00  0.00    -0.009 C 
HETATM   11  C10 UNL     1      -0.886   1.038   4.240  1.00  0.00     0.052 C 
HETATM   12  C11 UNL     1       0.933  -0.071   2.759  1.00  0.00     0.120 C 
HETATM   13  F1  UNL     1       1.541   0.147   3.969  1.00  0.00    -0.206 F 
HETATM   14  C12 UNL     1       1.433  -0.666   1.654  1.00  0.00     0.021 C 
HETATM   15  C13 UNL     1       0.560  -0.832   0.425  1.00  0.00     0.043 C 
HETATM   16  C14 UNL     1       1.321  -1.422  -0.591  1.00  0.00    -0.017 C 
HETATM   17  B1  UNL     1       0.490  -1.697  -1.915  1.00  0.00     0.317 B 
HETATM   18  O1  UNL     1      -0.956  -1.972  -1.735  1.00  0.00    -0.454 OA
HETATM   19  C15 UNL     1      -1.601  -1.190  -2.687  1.00  0.00     0.174 C 
HETATM   20  C16 UNL     1      -2.923  -0.673  -2.091  1.00  0.00     0.148 C 
HETATM   21  O2  UNL     1      -3.925  -1.160  -2.981  1.00  0.00    -0.383 OA
HETATM   22  C17 UNL     1      -4.409  -2.333  -2.411  1.00  0.00     0.168 C 
HETATM   23  C18 UNL     1      -4.582  -1.870  -0.975  1.00  0.00     0.035 C 
HETATM   24  C19 UNL     1      -3.157  -1.277  -0.766  1.00  0.00     0.036 C 
HETATM   25  C20 UNL     1      -3.079  -0.522   0.470  1.00  0.00     0.129 C 
HETATM   26  C21 UNL     1       2.883  -1.489  -0.869  1.00  0.00     0.270 C 
HETATM   27  H10 UNL     1       1.442   3.816  -0.563  1.00  0.00     0.315 HD
HETATM   28  H23 UNL     1       1.070  -2.192  -2.808  1.00  0.00     0.008 HD
ENDROOT
BRANCH   1  29
HETATM   29  C2  UNL     1       4.602  -0.053   0.127  1.00  0.00     0.268 C 
HETATM   30  C1  UNL     1       5.418  -1.072   0.874  1.00  0.00     0.037 C 
ENDBRANCH   1  29
TORSDOF 1
