REMARK  4 active torsions:
REMARK  status: ('A' for Active; 'I' for Inactive)
REMARK    1  A    between atoms: O1_2  and  C2_3 
REMARK    2  A    between atoms: C6_9  and  N3_10 
REMARK    3  A    between atoms: N3_10  and  C8_12 
REMARK    4  A    between atoms: C15_20  and  O2_21 
ROOT
HETATM    1  C2  UNL     1      -3.199   0.049  -0.315  1.00  0.00     0.103 A 
HETATM    2  C3  UNL     1      -2.855   1.365  -0.475  1.00  0.00     0.072 A 
HETATM    3  C4  UNL     1      -1.566   1.752  -0.198  1.00  0.00     0.075 A 
HETATM    4  N1  UNL     1      -1.204   3.038  -0.348  1.00  0.00    -0.241 NA
HETATM    5  C5  UNL     1       0.040   3.404  -0.079  1.00  0.00     0.236 A 
HETATM    6  N2  UNL     1       0.922   2.504   0.336  1.00  0.00    -0.223 NA
HETATM    7  C6  UNL     1       0.654   1.182   0.518  1.00  0.00     0.144 A 
HETATM    8  C13 UNL     1      -0.646   0.810   0.235  1.00  0.00     0.042 A 
HETATM    9  C14 UNL     1      -0.982  -0.497   0.395  1.00  0.00     0.057 A 
HETATM   10  C15 UNL     1      -2.283  -0.891   0.116  1.00  0.00     0.102 A 
ENDROOT
BRANCH   7  11
HETATM   11  N3  UNL     1       1.681   0.314   0.967  1.00  0.00    -0.335 N 
HETATM   12  C7  UNL     1       1.497  -0.400   2.230  1.00  0.00     0.158 C 
BRANCH  11  13
HETATM   13  C8  UNL     1       2.883   0.112   0.232  1.00  0.00     0.036 A 
HETATM   14  C9  UNL     1       3.848  -0.729   0.694  1.00  0.00     0.030 A 
HETATM   15  C10 UNL     1       5.046  -1.043   0.137  1.00  0.00     0.004 A 
HETATM   16  C11 UNL     1       5.559  -0.556  -1.064  1.00  0.00     0.016 A 
HETATM   17  P1  UNL     1       4.497   0.573  -1.888  1.00  0.00    -0.032 P 
HETATM   18  C12 UNL     1       3.018   0.815  -0.973  1.00  0.00     0.045 A 
ENDBRANCH  11  13
ENDBRANCH   7  11
BRANCH  10  19
HETATM   19  O2  UNL     1      -2.694  -2.207   0.258  1.00  0.00    -0.353 OA
HETATM   20  C16 UNL     1      -1.735  -3.148   0.701  1.00  0.00     0.210 C 
ENDBRANCH  10  19
BRANCH   1  21
HETATM   21  O1  UNL     1      -4.480  -0.355  -0.587  1.00  0.00    -0.353 OA
HETATM   22  C1  UNL     1      -5.495   0.513  -1.031  1.00  0.00     0.210 C 
ENDBRANCH   1  21
TORSDOF 4
