REMARK  7 active torsions:
REMARK  status: ('A' for Active; 'I' for Inactive)
REMARK    1  A    between atoms: N1_3  and  C2_4 
REMARK    2  A    between atoms: C6_8  and  C7_9 
REMARK    3  A    between atoms: C7_9  and  C9_11 
REMARK    4  A    between atoms: C11_13  and  O1_14 
REMARK    5  A    between atoms: O1_14  and  C12_15 
REMARK    6  A    between atoms: C12_15  and  C13_16 
REMARK    7  A    between atoms: C20_25  and  N2_26 
ROOT
HETATM    1  B1  UNL     1       5.049  -0.214   4.349  1.00  0.00     0.221 B 
HETATM    2  C1  UNL     1       5.924   0.045   2.507  1.00  0.00    -0.162 C 
HETATM    3  N1  UNL     1       6.496   0.232   1.254  1.00  0.00    -0.358 N 
HETATM    4  H1  UNL     1       7.507   0.205   1.407  1.00  0.00     0.169 HD
ENDROOT
BRANCH   3   5
HETATM    5  C2  UNL     1       5.487   0.394   0.199  1.00  0.00     0.082 A 
HETATM    6  C3  UNL     1       6.000   0.682  -1.168  1.00  0.00     0.046 A 
HETATM    7  C4  UNL     1       5.303   1.755  -0.349  1.00  0.00     0.027 A 
HETATM    8  C5  UNL     1       3.863   1.919  -0.605  1.00  0.00     0.049 C 
HETATM    9  C6  UNL     1       3.206   0.702  -0.017  1.00  0.00    -0.023 C 
HETATM   10  C20 UNL     1       4.150  -0.128   0.419  1.00  0.00     0.039 C 
BRANCH   9  11
HETATM   11  C7  UNL     1       1.855   0.319   0.155  1.00  0.00    -0.024 C 
HETATM   12  C8  UNL     1       1.450   1.426  -0.415  1.00  0.00     0.025 C 
BRANCH  11  13
HETATM   13  C9  UNL     1       0.588  -0.237   0.417  1.00  0.00     0.015 A 
HETATM   14  C10 UNL     1      -0.601   0.371   0.082  1.00  0.00     0.052 A 
HETATM   15  C11 UNL     1      -1.826  -0.245   0.380  1.00  0.00     0.069 A 
HETATM   16  C17 UNL     1      -1.751  -1.458   1.008  1.00  0.00     0.040 A 
HETATM   17  C18 UNL     1      -0.618  -2.140   1.380  1.00  0.00     0.046 A 
HETATM   18  C19 UNL     1       0.529  -1.456   1.046  1.00  0.00     0.127 A 
HETATM   19  F1  UNL     1       1.574  -2.178   1.438  1.00  0.00    -0.205 F 
BRANCH  15  20
HETATM   20  O1  UNL     1      -3.025   0.370   0.041  1.00  0.00    -0.349 OA
BRANCH  20  21
HETATM   21  C12 UNL     1      -4.217  -0.293   0.364  1.00  0.00     0.207 C 
BRANCH  21  22
HETATM   22  C13 UNL     1      -5.445   0.506  -0.070  1.00  0.00     0.145 C 
HETATM   23  C14 UNL     1      -5.431   0.710  -1.555  1.00  0.00     0.036 C 
HETATM   24  C15 UNL     1      -6.244  -0.498  -2.021  1.00  0.00     0.029 C 
HETATM   25  C16 UNL     1      -7.175  -0.683  -0.858  1.00  0.00     0.168 C 
HETATM   26  O2  UNL     1      -6.568  -0.196   0.274  1.00  0.00    -0.384 OA
ENDBRANCH  21  22
ENDBRANCH  20  21
ENDBRANCH  15  20
ENDBRANCH  11  13
ENDBRANCH   9  11
BRANCH  10  27
HETATM   27  N2  UNL     1       4.261  -1.393   1.021  1.00  0.00    -0.400 N 
HETATM   28  H21 UNL     1       4.178  -1.774   1.965  1.00  0.00     0.156 HD
HETATM   29  H22 UNL     1       4.476  -2.334   0.594  1.00  0.00     0.156 HD
ENDBRANCH  10  27
ENDBRANCH   3   5
TORSDOF 7
