REMARK  2 active torsions:
REMARK  status: ('A' for Active; 'I' for Inactive)
REMARK    1  A    between atoms: O1_2  and  C2_3 
REMARK    2  A    between atoms: C14_18  and  O2_19 
ROOT
HETATM    1  C2  UNL     1      -2.114   0.590   0.235  1.00  0.00     0.115 C 
HETATM    2  C3  UNL     1      -0.864   1.022   0.183  1.00  0.00     0.045 C 
HETATM    3  C4  UNL     1       0.015   0.119  -0.155  1.00  0.00     0.076 C 
HETATM    4  N1  UNL     1       1.252   0.510   0.409  1.00  0.00    -0.352 N 
HETATM    5  C5  UNL     1       2.617   0.268   0.071  1.00  0.00     0.061 A 
HETATM    6  C6  UNL     1       3.321   1.243   0.773  1.00  0.00     0.032 A 
HETATM    7  C7  UNL     1       4.704   1.240   0.624  1.00  0.00     0.002 A 
HETATM    8  C8  UNL     1       5.323   0.304  -0.188  1.00  0.00     0.002 A 
HETATM    9  C9  UNL     1       4.584  -0.641  -0.862  1.00  0.00     0.034 A 
HETATM   10  C10 UNL     1       3.209  -0.674  -0.742  1.00  0.00     0.084 A 
HETATM   11  N2  UNL     1       2.754  -1.756  -1.557  1.00  0.00    -0.240 NA
HETATM   12  C11 UNL     1       1.593  -2.216  -1.887  1.00  0.00     0.234 C 
HETATM   13  N3  UNL     1       0.215  -1.947  -1.660  1.00  0.00    -0.240 NA
HETATM   14  C12 UNL     1      -0.393  -1.033  -0.982  1.00  0.00     0.088 C 
HETATM   15  C13 UNL     1      -1.800  -1.348  -1.178  1.00  0.00     0.073 C 
HETATM   16  C14 UNL     1      -2.629  -0.522  -0.559  1.00  0.00     0.104 C 
HETATM   17  H4  UNL     1       1.106   1.093   1.241  1.00  0.00     0.166 HD
ENDROOT
BRANCH   1  18
HETATM   18  O1  UNL     1      -2.832   1.350   1.149  1.00  0.00    -0.352 OA
HETATM   19  C1  UNL     1      -3.582   0.835   2.218  1.00  0.00     0.210 C 
ENDBRANCH   1  18
BRANCH  16  20
HETATM   20  O2  UNL     1      -3.991  -0.641  -0.615  1.00  0.00    -0.353 OA
HETATM   21  C15 UNL     1      -4.829   0.400  -1.034  1.00  0.00     0.210 C 
ENDBRANCH  16  20
TORSDOF 2
