REMARK  7 active torsions:
REMARK  status: ('A' for Active; 'I' for Inactive)
REMARK    1  A    between atoms: O1_2  and  C2_3 
REMARK    2  A    between atoms: C4_5  and  C5_6 
REMARK    3  A    between atoms: C13_15  and  C14_16 
REMARK    4  A    between atoms: C14_16  and  C15_17 
REMARK    5  A    between atoms: C15_17  and  O2_18 
REMARK    6  A    between atoms: O2_18  and  C16_19 
REMARK    7  A    between atoms: C16_19  and  N2_20 
ROOT
HETATM    1  C2  UNL     1       0.795  -0.855  -1.618  1.00  0.00     0.181 C 
HETATM    2  C3  UNL     1      -0.795  -0.280  -1.231  1.00  0.00     0.042 C 
HETATM    3  C4  UNL     1      -1.526  -0.726  -0.230  1.00  0.00     0.067 C 
HETATM    4  N1  UNL     1      -1.005  -1.755   0.597  1.00  0.00    -0.245 NA
HETATM    5  C12 UNL     1       0.253  -1.870   0.827  1.00  0.00     0.096 C 
HETATM    6  C13 UNL     1       1.101  -1.256   0.041  1.00  0.00     0.007 C 
ENDROOT
BRANCH   3   7
HETATM    7  C5  UNL     1      -2.825  -0.132  -0.053  1.00  0.00    -0.002 A 
HETATM    8  C6  UNL     1      -3.316   0.871  -0.848  1.00  0.00     0.014 A 
HETATM    9  C7  UNL     1      -4.560   1.446  -0.690  1.00  0.00     0.001 A 
HETATM   10  C8  UNL     1      -5.337   0.948   0.354  1.00  0.00     0.001 A 
HETATM   11  C9  UNL     1      -4.824  -0.053   1.132  1.00  0.00     0.007 A 
HETATM   12  C10 UNL     1      -3.566  -0.638   0.977  1.00  0.00    -0.050 A 
HETATM   13  C11 UNL     1      -3.212  -1.715   1.933  1.00  0.00     0.049 C 
ENDBRANCH   3   7
BRANCH   1  14
HETATM   14  O1  UNL     1       1.347   0.309  -1.548  1.00  0.00    -0.382 OA
HETATM   15  C1  UNL     1       0.699   1.496  -1.549  1.00  0.00     0.202 C 
ENDBRANCH   1  14
BRANCH   6  16
HETATM   16  C14 UNL     1       2.388  -0.871   0.549  1.00  0.00     0.036 C 
BRANCH  16  17
HETATM   17  C15 UNL     1       3.553  -0.778   1.094  1.00  0.00     0.137 C 
BRANCH  17  18
HETATM   18  O2  UNL     1       4.691  -0.061   1.416  1.00  0.00    -0.344 OA
BRANCH  18  19
HETATM   19  C16 UNL     1       5.664   0.262   0.430  1.00  0.00     0.289 C 
BRANCH  19  20
HETATM   20  N2  UNL     1       6.671   1.130   0.836  1.00  0.00    -0.410 N 
HETATM   21  H17 UNL     1       6.949   1.216   1.812  1.00  0.00     0.151 HD
HETATM   22  H18 UNL     1       6.973   1.876   0.197  1.00  0.00     0.151 HD
ENDBRANCH  19  20
ENDBRANCH  18  19
ENDBRANCH  17  18
ENDBRANCH  16  17
ENDBRANCH   6  16
TORSDOF 7
