REMARK  6 active torsions:
REMARK  status: ('A' for Active; 'I' for Inactive)
REMARK       I    between atoms: C2_2  and  N1_4 
REMARK    1  A    between atoms: N2_7  and  C5_8 
REMARK    2  A    between atoms: C7_10  and  N3_11 
REMARK    3  A    between atoms: C9_13  and  C10_14 
REMARK    4  A    between atoms: C10_14  and  C11_15 
REMARK    5  A    between atoms: C13_19  and  C14_20 
REMARK    6  A    between atoms: C14_20  and  N4_21 
ROOT
HETATM    1  N3  UNL     1      -1.679  -0.336  -0.279  1.00  0.00    -0.336 N 
HETATM    2  C8  UNL     1      -2.150   0.894  -0.103  1.00  0.00     0.101 A 
HETATM    3  C9  UNL     1      -3.494   0.934   0.323  1.00  0.00    -0.017 A 
HETATM    4  C12 UNL     1      -3.770  -0.415   0.379  1.00  0.00     0.045 A 
HETATM    5  C13 UNL     1      -4.939  -1.021   0.756  1.00  0.00     0.078 A 
HETATM    6  N5  UNL     1      -5.003  -2.387   0.769  1.00  0.00    -0.244 NA
HETATM    7  C15 UNL     1      -3.958  -3.158   0.423  1.00  0.00     0.235 A 
HETATM    8  N6  UNL     1      -2.817  -2.551   0.053  1.00  0.00    -0.223 NA
HETATM    9  C16 UNL     1      -2.693  -1.191   0.023  1.00  0.00     0.144 A 
ENDROOT
BRANCH   1  10
HETATM   10  C7  UNL     1      -0.423  -0.858  -0.689  1.00  0.00     0.095 C 
HETATM   11  C6  UNL     1       0.598  -1.095   0.437  1.00  0.00     0.061 C 
HETATM   12  C5  UNL     1       1.629  -0.848  -0.674  1.00  0.00     0.227 C 
HETATM   13  C17 UNL     1       0.603   0.117  -1.229  1.00  0.00     0.061 C 
BRANCH  12  14
HETATM   14  N2  UNL     1       2.891  -0.335  -0.261  1.00  0.00     0.096 N 
HETATM   15  C4  UNL     1       3.716  -0.234  -1.482  1.00  0.00     0.292 C 
HETATM   16  C3  UNL     1       5.146  -0.322  -0.957  1.00  0.00     0.156 C 
HETATM   17  N1  UNL     1       5.276   0.484   0.249  1.00  0.00    -0.349 N 
HETATM   18  C2  UNL     1       6.387   0.300   1.123  1.00  0.00     0.215 C 
HETATM   19  C19 UNL     1       4.263   1.460   0.520  1.00  0.00     0.156 C 
HETATM   20  C1  UNL     1       7.425  -0.716   0.809  1.00  0.00     0.117 C 
HETATM   21  O1  UNL     1       6.629   0.912   2.188  1.00  0.00    -0.274 OA
HETATM   22  C18 UNL     1       2.852   1.000   0.272  1.00  0.00     0.292 C 
ENDBRANCH  12  14
ENDBRANCH   1  10
BRANCH   3  23
HETATM   23  C10 UNL     1      -4.271   2.157   0.605  1.00  0.00     0.157 C 
BRANCH  23  24
HETATM   24  C11 UNL     1      -5.208   2.600  -0.421  1.00  0.00     0.302 C 
HETATM   25  O2  UNL     1      -5.681   2.404  -1.520  1.00  0.00    -0.260 OA
HETATM   26  F1  UNL     1      -5.932   3.707  -0.150  1.00  0.00    -0.164 F 
ENDBRANCH  23  24
ENDBRANCH   3  23
BRANCH   5  27
HETATM   27  C14 UNL     1      -6.198  -0.368   1.108  1.00  0.00     0.326 C 
BRANCH  27  28
HETATM   28  N4  UNL     1      -6.907  -0.078  -0.130  1.00  0.00     0.084 N 
HETATM   29  H17 UNL     1      -6.268  -0.211  -0.945  1.00  0.00     0.313 HD
HETATM   30  H18 UNL     1      -7.664  -0.809  -0.286  1.00  0.00     0.313 HD
ENDBRANCH  27  28
ENDBRANCH   5  27
TORSDOF 6
