REMARK  3 active torsions:
REMARK  status: ('A' for Active; 'I' for Inactive)
REMARK    1  A    between atoms: O1_1  and  C1_2 
REMARK    2  A    between atoms: C6_8  and  N1_9 
REMARK    3  A    between atoms: N1_9  and  C7_10 
ROOT
HETATM    1  C7  UNL     1      -1.155  -1.569  -0.114  1.00  0.00     0.304 C 
HETATM    2  N2  UNL     1      -1.546  -2.336  -1.339  1.00  0.00    -0.273 N 
HETATM    3  N3  UNL     1      -1.238  -1.391  -2.412  1.00  0.00    -0.179 NA
HETATM    4  C8  UNL     1      -1.545  -0.155  -2.046  1.00  0.00     0.071 C 
HETATM    5  C9  UNL     1      -0.658   0.924  -2.470  1.00  0.00     0.030 C 
HETATM    6  C10 UNL     1      -0.349   2.044  -1.771  1.00  0.00     0.002 C 
HETATM    7  C11 UNL     1      -0.509   2.384  -0.332  1.00  0.00    -0.002 C 
HETATM    8  C12 UNL     1      -1.121   1.656   0.609  1.00  0.00    -0.007 C 
HETATM    9  C13 UNL     1      -2.002   0.531   0.912  1.00  0.00     0.148 C 
HETATM   10  N4  UNL     1      -2.119  -0.560   0.073  1.00  0.00    -0.367 N 
HETATM   11  C14 UNL     1      -2.798  -0.305  -1.191  1.00  0.00     0.182 C 
HETATM   12  H7  UNL     1      -1.932  -3.235  -1.717  1.00  0.00     0.186 HD
ENDROOT
BRANCH   1  13
HETATM   13  N1  UNL     1       0.220  -1.189  -0.191  1.00  0.00    -0.349 N 
HETATM   14  H5  UNL     1       0.618  -1.319  -1.176  1.00  0.00     0.163 HD
BRANCH  13  15
HETATM   15  C6  UNL     1       1.261  -0.680   0.647  1.00  0.00     0.065 A 
HETATM   16  C1  UNL     1       2.531  -0.288   0.202  1.00  0.00     0.109 A 
HETATM   17  C2  UNL     1       3.412   0.149   1.157  1.00  0.00     0.046 A 
HETATM   18 BR1  UNL     1       5.106   0.653   0.416  1.00  0.00    -0.048 Br
HETATM   19  C3  UNL     1       3.127   0.224   2.499  1.00  0.00     0.022 A 
HETATM   20  C4  UNL     1       1.888  -0.158   2.935  1.00  0.00     0.004 A 
HETATM   21  C5  UNL     1       0.983  -0.601   2.005  1.00  0.00     0.032 A 
BRANCH  16  22
HETATM   22  O1  UNL     1       2.779  -0.378  -1.161  1.00  0.00    -0.357 OA
HETATM   23  H1  UNL     1       3.411  -1.091  -1.532  1.00  0.00     0.217 HD
ENDBRANCH  16  22
ENDBRANCH  13  15
ENDBRANCH   1  13
TORSDOF 3
