REMARK  10 active torsions:
REMARK  status: ('A' for Active; 'I' for Inactive)
REMARK    1  A    between atoms: C2_2  and  C3_3 
REMARK    2  A    between atoms: C3_3  and  C4_4 
REMARK    3  A    between atoms: C4_4  and  C5_5 
REMARK    4  A    between atoms: C5_5  and  C6_6 
REMARK    5  A    between atoms: C6_6  and  N1_7 
REMARK       I    between atoms: N1_7  and  C7_8 
REMARK    6  A    between atoms: C7_8  and  C8_10 
REMARK    7  A    between atoms: C10_13  and  C11_14 
REMARK    8  A    between atoms: C11_14  and  C12_15 
REMARK    9  A    between atoms: C17_20  and  O3_21 
REMARK   10  A    between atoms: C20_24  and  O4_25 
ROOT
HETATM    1  C8  UNL     1       0.157  -0.545   0.640  1.00  0.00     0.087 C 
HETATM    2  C9  UNL     1       0.492  -1.252  -0.455  1.00  0.00     0.162 C 
HETATM    3  O2  UNL     1       1.751  -1.819  -0.747  1.00  0.00    -0.326 OA
HETATM    4  C10 UNL     1       3.005  -1.264  -0.488  1.00  0.00     0.057 C 
HETATM    5  C18 UNL     1       3.266  -0.576   0.634  1.00  0.00     0.036 C 
HETATM    6  C19 UNL     1       2.391  -0.267   1.753  1.00  0.00     0.040 C 
HETATM    7  C20 UNL     1       1.071  -0.261   1.733  1.00  0.00     0.083 C 
ENDROOT
BRANCH   1   8
HETATM    8  C7  UNL     1      -1.219  -0.098   0.639  1.00  0.00     0.256 C 
HETATM    9  N1  UNL     1      -1.981   0.658   1.547  1.00  0.00    -0.357 N 
HETATM   10  H14 UNL     1      -1.468   0.972   2.388  1.00  0.00     0.162 HD
HETATM   11  O1  UNL     1      -1.964  -0.400  -0.332  1.00  0.00    -0.268 OA
BRANCH   9  12
HETATM   12  C6  UNL     1      -3.356   0.997   1.361  1.00  0.00     0.123 C 
BRANCH  12  13
HETATM   13  C5  UNL     1      -4.306  -0.137   1.241  1.00  0.00     0.020 C 
BRANCH  13  14
HETATM   14  C4  UNL     1      -5.707   0.405   1.058  1.00  0.00     0.002 C 
BRANCH  14  15
HETATM   15  C3  UNL     1      -5.894   1.261  -0.145  1.00  0.00    -0.000 C 
BRANCH  15  16
HETATM   16  C2  UNL     1      -5.596   0.592  -1.454  1.00  0.00    -0.005 C 
HETATM   17  C1  UNL     1      -6.429  -0.608  -1.754  1.00  0.00     0.005 C 
ENDBRANCH  15  16
ENDBRANCH  14  15
ENDBRANCH  13  14
ENDBRANCH  12  13
ENDBRANCH   9  12
ENDBRANCH   1   8
BRANCH   7  18
HETATM   18  O4  UNL     1       0.461   0.062   2.921  1.00  0.00    -0.360 OA
HETATM   19  H25 UNL     1       0.738   0.901   3.424  1.00  0.00     0.217 HD
ENDBRANCH   7  18
BRANCH   4  20
HETATM   20  C11 UNL     1       4.053  -1.461  -1.507  1.00  0.00     0.106 C 
BRANCH  20  21
HETATM   21  C12 UNL     1       5.285  -0.763  -1.110  1.00  0.00    -0.019 A 
HETATM   22  C13 UNL     1       6.408  -1.365  -0.568  1.00  0.00     0.010 A 
HETATM   23  C14 UNL     1       7.535  -0.653  -0.215  1.00  0.00     0.001 A 
HETATM   24  C15 UNL     1       7.586   0.721  -0.395  1.00  0.00     0.003 A 
HETATM   25  C16 UNL     1       6.486   1.360  -0.934  1.00  0.00     0.037 A 
HETATM   26  C17 UNL     1       5.386   0.616  -1.271  1.00  0.00     0.072 A 
BRANCH  26  27
HETATM   27  O3  UNL     1       4.300   1.291  -1.810  1.00  0.00    -0.360 OA
HETATM   28  H22 UNL     1       3.541   1.679  -1.235  1.00  0.00     0.217 HD
ENDBRANCH  26  27
ENDBRANCH  20  21
ENDBRANCH   4  20
TORSDOF 10
