REMARK  9 active torsions:
REMARK  status: ('A' for Active; 'I' for Inactive)
REMARK    1  A    between atoms: C1_2  and  O2_3 
REMARK    2  A    between atoms: C1_2  and  C2_4 
REMARK    3  A    between atoms: C4_6  and  N1_7 
REMARK    4  A    between atoms: N1_7  and  C5_8 
REMARK    5  A    between atoms: C5_8  and  C6_9 
REMARK    6  A    between atoms: C6_9  and  C7_10 
REMARK    7  A    between atoms: C9_12  and  O3_13 
REMARK    8  A    between atoms: C12_16  and  O4_17 
REMARK    9  A    between atoms: C15_20  and  O5_21 
ROOT
HETATM    1  N1  UNL     1      -0.591  -1.573  -0.484  1.00  0.00    -0.390 N 
HETATM    2  H3  UNL     1      -0.363  -2.526  -0.882  1.00  0.00     0.159 HD
ENDROOT
BRANCH   1   3
HETATM    3  C4  UNL     1      -1.956  -1.298  -0.174  1.00  0.00     0.029 A 
HETATM    4  C3  UNL     1      -2.304  -0.063   0.350  1.00  0.00     0.050 A 
HETATM    5  C2  UNL     1      -3.628   0.183   0.643  1.00  0.00     0.072 A 
HETATM    6  C15 UNL     1      -4.647  -0.726   0.449  1.00  0.00     0.082 A 
HETATM    7  C14 UNL     1      -4.267  -1.966  -0.081  1.00  0.00     0.040 A 
HETATM    8  C13 UNL     1      -2.949  -2.236  -0.383  1.00  0.00     0.032 A 
BRANCH   5   9
HETATM    9  C1  UNL     1      -4.053   1.463   1.196  1.00  0.00     0.179 C 
HETATM   10  O1  UNL     1      -5.265   1.670   1.457  1.00  0.00    -0.646 OA
BRANCH   9  11
HETATM   11  O2  UNL     1      -3.314   2.592   1.516  1.00  0.00    -0.773 OA
HETATM   12  H1  UNL     1      -3.584   3.505   1.121  1.00  0.00     0.167 HD
ENDBRANCH   9  11
ENDBRANCH   5   9
BRANCH   6  13
HETATM   13  O5  UNL     1      -5.981  -0.481   0.744  1.00  0.00    -0.360 OA
HETATM   14  H15 UNL     1      -6.598  -1.179   1.140  1.00  0.00     0.217 HD
ENDBRANCH   6  13
ENDBRANCH   1   3
BRANCH   1  15
HETATM   15  C5  UNL     1       0.420  -0.593  -0.261  1.00  0.00     0.124 C 
BRANCH  15  16
HETATM   16  C6  UNL     1       1.755  -1.156  -0.668  1.00  0.00     0.061 C 
BRANCH  16  17
HETATM   17  C7  UNL     1       2.832  -0.157  -0.448  1.00  0.00    -0.021 A 
HETATM   18  C8  UNL     1       3.668  -0.289   0.621  1.00  0.00     0.046 A 
HETATM   19  C9  UNL     1       4.645   0.675   0.764  1.00  0.00     0.066 A 
HETATM   20  C10 UNL     1       4.843   1.755  -0.080  1.00  0.00     0.039 A 
HETATM   21  C11 UNL     1       3.962   1.827  -1.139  1.00  0.00     0.040 A 
HETATM   22  C12 UNL     1       2.975   0.903  -1.334  1.00  0.00     0.072 A 
BRANCH  19  23
HETATM   23  O3  UNL     1       5.502   0.533   1.866  1.00  0.00    -0.361 OA
HETATM   24  H9  UNL     1       6.285   1.168   2.011  1.00  0.00     0.217 HD
ENDBRANCH  19  23
BRANCH  22  25
HETATM   25  O4  UNL     1       2.098   0.995  -2.409  1.00  0.00    -0.360 OA
HETATM   26  H12 UNL     1       2.163   1.789  -3.039  1.00  0.00     0.217 HD
ENDBRANCH  22  25
ENDBRANCH  16  17
ENDBRANCH  15  16
ENDBRANCH   1  15
TORSDOF 9
