REMARK  8 active torsions:
REMARK  status: ('A' for Active; 'I' for Inactive)
REMARK    1  A    between atoms: C2_2  and  C3_3 
REMARK       I    between atoms: C3_3  and  N1_5 
REMARK    2  A    between atoms: N1_5  and  C4_6 
REMARK    3  A    between atoms: C4_6  and  C5_7 
REMARK    4  A    between atoms: C5_7  and  C6_8 
REMARK    5  A    between atoms: C6_8  and  C7_9 
REMARK    6  A    between atoms: C13_17  and  C14_18 
REMARK    7  A    between atoms: C14_18  and  C15_19 
REMARK    8  A    between atoms: C16_21  and  C17_22 
ROOT
HETATM    1  C7  UNL     1       1.356  -1.268   0.433  1.00  0.00     0.110 A 
HETATM    2  O2  UNL     1       0.612  -2.310   0.299  1.00  0.00    -0.320 OA
HETATM    3  C8  UNL     1      -0.577  -2.177   0.904  1.00  0.00     0.146 A 
HETATM    4  C9  UNL     1      -0.180  -0.970   1.278  1.00  0.00     0.116 A 
HETATM    5  C10 UNL     1       0.967  -0.185   1.099  1.00  0.00     0.039 A 
HETATM    6  C11 UNL     1       0.747   1.117   1.811  1.00  0.00     0.133 C 
HETATM    7  N2  UNL     1      -0.698   1.321   1.965  1.00  0.00    -0.399 N 
HETATM    8  C12 UNL     1      -1.711   1.344   0.961  1.00  0.00     0.155 C 
HETATM    9  C13 UNL     1      -2.895   0.726   0.784  1.00  0.00     0.066 C 
HETATM   10  N3  UNL     1      -2.781  -0.348   1.842  1.00  0.00    -0.392 N 
HETATM   11  C19 UNL     1      -2.688  -1.793   2.045  1.00  0.00     0.268 C 
HETATM   12  N4  UNL     1      -1.720  -2.457   1.288  1.00  0.00    -0.251 NA
HETATM   13  H11 UNL     1      -1.433   1.517   2.681  1.00  0.00     0.158 HD
HETATM   14  H19 UNL     1      -2.835   0.151   2.814  1.00  0.00     0.155 HD
ENDROOT
BRANCH   1  15
HETATM   15  C6  UNL     1       2.588  -1.034  -0.015  1.00  0.00     0.014 C 
BRANCH  15  16
HETATM   16  C5  UNL     1       3.457   0.070   0.086  1.00  0.00     0.016 C 
BRANCH  16  17
HETATM   17  C4  UNL     1       4.644   0.389  -0.265  1.00  0.00     0.091 C 
BRANCH  17  18
HETATM   18  N1  UNL     1       5.872   0.117  -0.874  1.00  0.00    -0.334 N 
HETATM   19  C3  UNL     1       6.836   0.317  -1.855  1.00  0.00     0.241 C 
HETATM   20  O1  UNL     1       6.390   1.200  -2.671  1.00  0.00    -0.269 OA
HETATM   21  H4  UNL     1       5.965  -0.616  -0.097  1.00  0.00     0.168 HD
BRANCH  19  22
HETATM   22  C2  UNL     1       8.112  -0.426  -1.816  1.00  0.00     0.048 C 
HETATM   23  C1  UNL     1       8.579  -1.375  -0.951  1.00  0.00     0.037 C 
ENDBRANCH  19  22
ENDBRANCH  17  18
ENDBRANCH  16  17
ENDBRANCH  15  16
ENDBRANCH   1  15
BRANCH   9  24
HETATM   24  C14 UNL     1      -4.201   0.001   0.657  1.00  0.00     0.019 C 
BRANCH  24  25
HETATM   25  C15 UNL     1      -4.779   0.357  -0.467  1.00  0.00    -0.008 A 
HETATM   26 BR1  UNL     1      -6.485  -0.417  -0.862  1.00  0.00    -0.122 Br
HETATM   27  C16 UNL     1      -4.936   0.905  -1.685  1.00  0.00     0.095 A 
BRANCH  27  28
HETATM   28  C17 UNL     1      -5.261   1.431  -2.958  1.00  0.00     0.005 C 
HETATM   29  C18 UNL     1      -6.702   1.194  -3.313  1.00  0.00     0.012 C 
ENDBRANCH  27  28
ENDBRANCH  24  25
ENDBRANCH   9  24
TORSDOF 8
