REMARK  8 active torsions:
REMARK  status: ('A' for Active; 'I' for Inactive)
REMARK    1  A    between atoms: C2_2  and  O1_3 
REMARK    2  A    between atoms: O1_3  and  C3_4 
REMARK    3  A    between atoms: C3_4  and  C4_5 
REMARK    4  A    between atoms: C4_5  and  N1_6 
REMARK    5  A    between atoms: C7_10  and  N3_11 
REMARK    6  A    between atoms: N3_11  and  C8_12 
REMARK    7  A    between atoms: C10_14  and  O2_15 
REMARK    8  A    between atoms: C13_18  and  O3_19 
ROOT
HETATM    1  C4  UNL     1       1.479  -0.969   0.312  1.00  0.00     0.294 A 
HETATM    2  N2  UNL     1       1.337  -2.101   1.238  1.00  0.00    -0.356 N 
HETATM    3  C6  UNL     1      -0.031  -1.814   1.504  1.00  0.00     0.115 A 
HETATM    4  C7  UNL     1       0.074  -0.788   0.674  1.00  0.00     0.083 A 
HETATM    5  H12 UNL     1       2.136  -2.761   1.462  1.00  0.00     0.162 HD
ENDROOT
BRANCH   4   6
HETATM    6  N3  UNL     1      -0.983   0.105   0.360  1.00  0.00    -0.378 N 
HETATM    7  H14 UNL     1      -1.070   0.982   0.904  1.00  0.00     0.160 HD
BRANCH   6   8
HETATM    8  C8  UNL     1      -1.926  -0.195  -0.697  1.00  0.00     0.144 A 
HETATM    9  C9  UNL     1      -2.652  -1.464  -0.421  1.00  0.00     0.096 A 
HETATM   10  C10 UNL     1      -4.117  -1.271  -0.355  1.00  0.00     0.045 A 
HETATM   11  C11 UNL     1      -4.909  -0.223  -0.487  1.00  0.00     0.034 A 
HETATM   12  C12 UNL     1      -4.214   1.027  -0.757  1.00  0.00     0.037 A 
HETATM   13  C13 UNL     1      -2.901   0.911  -0.827  1.00  0.00     0.069 A 
BRANCH  10  14
HETATM   14  O2  UNL     1      -4.773  -2.492  -0.092  1.00  0.00    -0.365 OA
HETATM   15  H18 UNL     1      -4.754  -2.775   0.885  1.00  0.00     0.217 HD
ENDBRANCH  10  14
BRANCH  13  16
HETATM   16  O3  UNL     1      -2.198   2.104  -1.087  1.00  0.00    -0.358 OA
HETATM   17  C14 UNL     1      -2.527   3.330  -0.487  1.00  0.00     0.209 C 
ENDBRANCH  13  16
ENDBRANCH   6   8
ENDBRANCH   4   6
BRANCH   1  18
HETATM   18  C3  UNL     1       2.462   0.018   0.890  1.00  0.00     0.238 C 
BRANCH  18  19
HETATM   19  O1  UNL     1       3.700  -0.623   0.956  1.00  0.00    -0.387 OA
BRANCH  19  20
HETATM   20  C2  UNL     1       4.698   0.172   1.470  1.00  0.00     0.163 C 
HETATM   21  C1  UNL     1       4.930   1.422   0.654  1.00  0.00     0.033 C 
ENDBRANCH  19  20
ENDBRANCH  18  19
ENDBRANCH   1  18
BRANCH   1  22
HETATM   22  N1  UNL     1       1.767  -1.470  -1.002  1.00  0.00     0.116 N 
HETATM   23  C5  UNL     1       1.835  -0.451  -2.007  1.00  0.00     0.310 C 
HETATM   24  H8  UNL     1       2.598  -2.100  -0.970  1.00  0.00     0.319 HD
ENDBRANCH   1  22
TORSDOF 8
