REMARK  2 active torsions:
REMARK  status: ('A' for Active; 'I' for Inactive)
REMARK       I    between atoms: N1_2  and  C2_3 
REMARK    1  A    between atoms: C2_3  and  C3_5 
REMARK    2  A    between atoms: C15_19  and  O3_20 
ROOT
HETATM    1  C3  UNL     1       1.642   0.877  -0.095  1.00  0.00     0.062 C 
HETATM    2  C4  UNL     1       1.679  -0.276  -0.651  1.00  0.00     0.022 C 
HETATM    3  C5  UNL     1       1.982  -1.632  -1.103  1.00  0.00     0.298 C 
HETATM    4  N2  UNL     1       0.828  -2.502  -0.881  1.00  0.00     0.087 N 
HETATM    5  C6  UNL     1       0.514  -2.724   0.495  1.00  0.00     0.273 C 
HETATM    6  C7  UNL     1      -0.760  -3.489   0.754  1.00  0.00     0.056 C 
HETATM    7  C8  UNL     1      -2.031  -2.809   0.438  1.00  0.00    -0.028 C 
HETATM    8  C9  UNL     1      -2.905  -1.826   0.048  1.00  0.00    -0.025 C 
HETATM    9  C10 UNL     1      -2.502  -0.425  -0.384  1.00  0.00     0.047 C 
HETATM   10  C11 UNL     1      -3.711   0.266  -0.693  1.00  0.00     0.004 C 
HETATM   11  C12 UNL     1      -3.749   1.677  -1.145  1.00  0.00     0.169 C 
HETATM   12  O2  UNL     1      -2.619   2.314  -1.218  1.00  0.00    -0.387 OA
HETATM   13  C13 UNL     1      -1.549   2.811  -1.348  1.00  0.00     0.197 C 
HETATM   14  C14 UNL     1      -0.233   2.143  -0.766  1.00  0.00     0.036 C 
HETATM   15  C15 UNL     1       0.770   1.954  -0.161  1.00  0.00     0.079 C 
HETATM   16  H8  UNL     1       0.832  -3.319  -1.499  1.00  0.00     0.316 HD
ENDROOT
BRANCH   1  17
HETATM   17  C2  UNL     1       2.764   0.816   0.730  1.00  0.00     0.253 C 
HETATM   18  N1  UNL     1       3.073   1.910   1.556  1.00  0.00    -0.361 N 
HETATM   19  C1  UNL     1       4.273   1.646   2.335  1.00  0.00     0.149 C 
HETATM   20  H4  UNL     1       2.618   2.833   1.709  1.00  0.00     0.162 HD
HETATM   21  O1  UNL     1       3.659  -0.012   0.965  1.00  0.00    -0.268 OA
ENDBRANCH   1  17
BRANCH  15  22
HETATM   22  O3  UNL     1       0.789   3.129   0.441  1.00  0.00    -0.360 OA
HETATM   23  H22 UNL     1       1.331   3.928   0.087  1.00  0.00     0.217 HD
ENDBRANCH  15  22
TORSDOF 2
