REMARK  5 active torsions:
REMARK  status: ('A' for Active; 'I' for Inactive)
REMARK    1  A    between atoms: C7_8  and  C8_9 
REMARK    2  A    between atoms: C7_8  and  C9_12 
REMARK    3  A    between atoms: C8_9  and  O2_11 
REMARK    4  A    between atoms: C11_15  and  O4_16 
REMARK    5  A    between atoms: C14_19  and  O5_20 
ROOT
HETATM    1  C1  UNL     1      -2.701  -2.185   0.942  1.00  0.00     0.039 C 
HETATM    2  C2  UNL     1      -1.304  -2.450   0.704  1.00  0.00     0.130 C 
HETATM    3  N1  UNL     1      -0.973  -2.182  -0.864  1.00  0.00    -0.400 N 
HETATM    4  C3  UNL     1       0.301  -1.722  -1.632  1.00  0.00     0.062 A 
HETATM    5  C4  UNL     1      -0.065  -0.361  -1.339  1.00  0.00     0.033 A 
HETATM    6  C5  UNL     1       0.597   0.909  -1.138  1.00  0.00     0.054 A 
HETATM    7  C6  UNL     1       1.178   2.150  -0.938  1.00  0.00     0.118 A 
HETATM    8  C7  UNL     1       1.664   0.802  -1.269  1.00  0.00     0.093 A 
HETATM    9  C9  UNL     1       0.999  -0.456  -1.452  1.00  0.00     0.046 A 
HETATM   10  O3  UNL     1       0.194   3.227  -0.584  1.00  0.00    -0.369 OA
HETATM   11  C10 UNL     1      -0.038   3.051   1.021  1.00  0.00     0.233 C 
HETATM   12  C11 UNL     1      -0.432   1.636   1.023  1.00  0.00     0.067 C 
HETATM   13  C12 UNL     1       0.205   0.594   1.617  1.00  0.00     0.036 C 
HETATM   14  C13 UNL     1      -0.667  -0.524   1.130  1.00  0.00     0.036 C 
HETATM   15  C14 UNL     1      -0.252  -1.747   1.417  1.00  0.00     0.065 C 
HETATM   16  H5  UNL     1      -1.706  -2.337  -1.629  1.00  0.00     0.154 HD
ENDROOT
BRANCH   8  17
HETATM   17  C8  UNL     1       3.087   0.981  -1.382  1.00  0.00     0.152 C 
HETATM   18  O1  UNL     1       3.080   2.211  -1.122  1.00  0.00    -0.649 OA
BRANCH  17  19
HETATM   19  O2  UNL     1       4.437   0.778  -1.568  1.00  0.00    -0.776 OA
HETATM   20  H8  UNL     1       4.953   0.445  -0.740  1.00  0.00     0.167 HD
ENDBRANCH  17  19
ENDBRANCH   8  17
BRANCH  12  21
HETATM   21  O4  UNL     1      -1.674   1.654   0.284  1.00  0.00    -0.363 OA
HETATM   22  H12 UNL     1      -2.045   2.411  -0.195  1.00  0.00     0.217 HD
ENDBRANCH  12  21
BRANCH  15  23
HETATM   23  O5  UNL     1       0.853  -2.059   2.174  1.00  0.00    -0.363 OA
HETATM   24  H15 UNL     1       0.941  -2.752   2.890  1.00  0.00     0.217 HD
ENDBRANCH  15  23
TORSDOF 5
