REMARK  2 active torsions:
REMARK  status: ('A' for Active; 'I' for Inactive)
REMARK    1  A    between atoms: C14_17  and  C15_18 
REMARK    2  A    between atoms: C15_18  and  N3_19 
ROOT
HETATM    1  C1  UNL     1       3.353   4.281  -0.036  1.00  0.00     0.044 C 
HETATM    2  C2  UNL     1       2.101   3.518   0.166  1.00  0.00    -0.072 C 
HETATM    3  C3  UNL     1       1.206   4.387   0.604  1.00  0.00     0.054 C 
HETATM    4  C4  UNL     1      -0.095   4.033   0.907  1.00  0.00    -0.148 C 
HETATM    5  C5  UNL     1      -1.201   3.716   1.151  1.00  0.00     0.022 C 
HETATM    6  C6  UNL     1      -2.525   3.323   1.422  1.00  0.00     0.068 C 
HETATM    7  C7  UNL     1      -2.619   2.131   2.087  1.00  0.00     0.022 C 
HETATM    8  C8  UNL     1      -3.987   1.557   2.442  1.00  0.00     0.173 C 
HETATM    9  O1  UNL     1      -4.007   0.279   1.751  1.00  0.00    -0.383 OA
HETATM   10  C9  UNL     1      -3.926   0.629   0.372  1.00  0.00     0.255 C 
HETATM   11  C10 UNL     1      -3.447  -0.544  -0.373  1.00  0.00     0.184 C 
HETATM   12  N1  UNL     1      -2.315   0.078  -0.387  1.00  0.00    -0.150 NA
HETATM   13  N2  UNL     1      -1.108  -0.214  -0.892  1.00  0.00    -0.261 N 
HETATM   14  C11 UNL     1       0.183  -0.512  -1.346  1.00  0.00     0.114 C 
HETATM   15  C12 UNL     1       1.314   0.033  -1.002  1.00  0.00     0.028 C 
HETATM   16  C13 UNL     1       1.251   1.142   0.023  1.00  0.00     0.026 C 
HETATM   17  C14 UNL     1       2.051   0.679   1.261  1.00  0.00     0.023 C 
HETATM   18  C19 UNL     1       3.237   1.432   0.831  1.00  0.00     0.016 C 
HETATM   19  C20 UNL     1       2.335   2.128  -0.204  1.00  0.00     0.023 C 
HETATM   20  N4  UNL     1      -0.325  -1.509  -2.197  1.00  0.00    -0.375 N 
HETATM   21  C21 UNL     1      -1.041  -2.812  -2.056  1.00  0.00     0.123 C 
HETATM   22  C22 UNL     1      -2.281  -2.383  -1.494  1.00  0.00     0.051 C 
HETATM   23  C23 UNL     1      -3.567  -2.899  -1.126  1.00  0.00     0.128 C 
HETATM   24  C24 UNL     1      -4.315  -3.435  -2.317  1.00  0.00     0.040 C 
HETATM   25  O2  UNL     1      -4.249  -1.671  -0.715  1.00  0.00    -0.330 OA
HETATM   26  H11 UNL     1      -1.007  -0.056   0.159  1.00  0.00     0.191 HD
HETATM   27  H26 UNL     1      -0.020  -1.051  -3.089  1.00  0.00     0.161 HD
ENDROOT
BRANCH  17  28
HETATM   28  C15 UNL     1       2.125  -0.785   1.418  1.00  0.00     0.277 C 
BRANCH  28  29
HETATM   29  N3  UNL     1       2.707  -1.541   0.374  1.00  0.00     0.088 N 
HETATM   30  C16 UNL     1       4.105  -1.480   0.139  1.00  0.00     0.274 C 
HETATM   31  C17 UNL     1       4.145  -3.004  -0.070  1.00  0.00     0.060 C 
HETATM   32  C18 UNL     1       2.810  -2.957   0.634  1.00  0.00     0.274 C 
ENDBRANCH  28  29
ENDBRANCH  17  28
TORSDOF 2
