REMARK  5 active torsions:
REMARK  status: ('A' for Active; 'I' for Inactive)
REMARK    1  A    between atoms: C11_12  and  C12_13 
REMARK    2  A    between atoms: N1_15  and  C14_16 
REMARK    3  A    between atoms: C16_18  and  C17_19 
REMARK    4  A    between atoms: C17_19  and  N2_20 
REMARK    5  A    between atoms: C24_29  and  N5_30 
ROOT
HETATM    1  C12 UNL     1      -0.897  -0.978   0.328  1.00  0.00    -0.009 A 
HETATM    2  C13 UNL     1       0.001  -0.009  -0.012  1.00  0.00     0.102 A 
HETATM    3  N1  UNL     1       1.259  -0.444   0.184  1.00  0.00    -0.336 N 
HETATM    4  C22 UNL     1       1.280  -1.721   0.662  1.00  0.00     0.145 A 
HETATM    5  N3  UNL     1       2.239  -2.563   1.001  1.00  0.00    -0.223 NA
HETATM    6  C23 UNL     1       1.945  -3.793   1.452  1.00  0.00     0.237 A 
HETATM    7  N4  UNL     1       0.661  -4.177   1.563  1.00  0.00    -0.229 NA
HETATM    8  C24 UNL     1      -0.338  -3.319   1.217  1.00  0.00     0.116 A 
HETATM    9  C25 UNL     1      -0.082  -2.039   0.746  1.00  0.00     0.059 A 
ENDROOT
BRANCH   1  10
HETATM   10  C11 UNL     1      -2.316  -1.136   0.342  1.00  0.00     0.053 A 
HETATM   11  C10 UNL     1      -3.327  -0.986   1.215  1.00  0.00     0.025 A 
HETATM   12  C2  UNL     1      -2.870   0.352   1.725  1.00  0.00    -0.002 C 
HETATM   13  C9  UNL     1      -4.429  -0.855   2.066  1.00  0.00    -0.030 A 
HETATM   14  C8  UNL     1      -4.709  -1.269   0.810  1.00  0.00     0.059 A 
HETATM   15  C7  UNL     1      -3.683  -1.420  -0.062  1.00  0.00     0.081 A 
HETATM   16  C1  UNL     1      -2.661   0.430   3.203  1.00  0.00     0.011 C 
HETATM   17  C3  UNL     1      -3.892   1.392   1.303  1.00  0.00     0.005 C 
HETATM   18  C4  UNL     1      -4.387   1.559  -0.050  1.00  0.00     0.002 C 
HETATM   19  C5  UNL     1      -5.266   0.783  -0.893  1.00  0.00     0.026 C 
HETATM   20  C6  UNL     1      -5.025  -0.438  -1.632  1.00  0.00     0.169 C 
HETATM   21  O1  UNL     1      -4.799  -1.669  -0.893  1.00  0.00    -0.376 OA
HETATM   22  C26 UNL     1      -2.611  -1.555  -0.900  1.00  0.00     0.003 A 
ENDBRANCH   1  10
BRANCH   3  23
HETATM   23  C14 UNL     1       2.403   0.397  -0.099  1.00  0.00     0.092 C 
HETATM   24  C15 UNL     1       3.679   0.093   0.586  1.00  0.00     0.032 C 
HETATM   25  C16 UNL     1       4.413   0.444  -0.717  1.00  0.00     0.018 C 
HETATM   26  C21 UNL     1       3.098   0.165  -1.413  1.00  0.00     0.032 C 
BRANCH  25  27
HETATM   27  C17 UNL     1       4.853   1.868  -0.639  1.00  0.00     0.277 C 
BRANCH  27  28
HETATM   28  N2  UNL     1       5.573   2.394  -1.725  1.00  0.00     0.088 N 
HETATM   29  C18 UNL     1       5.008   2.613  -2.999  1.00  0.00     0.274 C 
HETATM   30  C19 UNL     1       6.432   2.489  -3.574  1.00  0.00     0.060 C 
HETATM   31  C20 UNL     1       6.663   1.669  -2.292  1.00  0.00     0.274 C 
ENDBRANCH  27  28
ENDBRANCH  25  27
ENDBRANCH   3  23
BRANCH   8  32
HETATM   32  N5  UNL     1      -1.676  -3.779   1.353  1.00  0.00    -0.286 NA
HETATM   33  H31 UNL     1      -2.429  -3.741   2.080  1.00  0.00     0.125 HD
HETATM   34  H32 UNL     1      -2.491  -3.809   1.984  1.00  0.00     0.125 HD
ENDBRANCH   8  32
TORSDOF 5
