REMARK  5 active torsions:
REMARK  status: ('A' for Active; 'I' for Inactive)
REMARK    1  A    between atoms: N1_2  and  C1_3 
REMARK    2  A    between atoms: C4_6  and  O1_7 
REMARK    3  A    between atoms: O1_7  and  C5_8 
REMARK    4  A    between atoms: C10_14  and  N2_15 
REMARK    5  A    between atoms: N2_15  and  C11_16 
ROOT
HETATM    1  C5  UNL     1      -0.162  -1.819  -0.628  1.00  0.00     0.120 A 
HETATM    2  C6  UNL     1      -0.010  -3.198  -0.474  1.00  0.00     0.047 A 
HETATM    3 BR2  UNL     1       1.678  -4.021  -0.774  1.00  0.00    -0.048 Br
HETATM    4  C7  UNL     1      -1.082  -3.984  -0.094  1.00  0.00     0.022 A 
HETATM    5  C8  UNL     1      -2.303  -3.384   0.134  1.00  0.00     0.004 A 
HETATM    6  C9  UNL     1      -2.517  -2.013   0.001  1.00  0.00     0.032 A 
HETATM    7  C10 UNL     1      -1.420  -1.274  -0.383  1.00  0.00     0.069 A 
ENDROOT
BRANCH   1   8
HETATM    8  O1  UNL     1       0.854  -1.006  -1.009  1.00  0.00    -0.307 OA
BRANCH   8   9
HETATM    9  C4  UNL     1       1.849  -0.377  -0.358  1.00  0.00     0.076 A 
HETATM   10  C3  UNL     1       2.478   0.440  -1.317  1.00  0.00     0.039 A 
HETATM   11  C2  UNL     1       3.569   1.253  -1.001  1.00  0.00     0.033 A 
HETATM   12  C1  UNL     1       4.037   1.252   0.279  1.00  0.00     0.038 A 
HETATM   13  C15 UNL     1       3.436   0.460   1.233  1.00  0.00     0.033 A 
HETATM   14  C14 UNL     1       2.360  -0.340   0.917  1.00  0.00     0.039 A 
BRANCH  12  15
HETATM   15  N1  UNL     1       5.156   2.013   0.776  1.00  0.00    -0.323 N 
HETATM   16 BR1  UNL     1       4.468   3.773   1.006  1.00  0.00     0.047 Br
HETATM   17  H1  UNL     1       6.139   1.765   1.002  1.00  0.00     0.174 HD
ENDBRANCH  12  15
ENDBRANCH   8   9
ENDBRANCH   1   8
BRANCH   7  18
HETATM   18  N2  UNL     1      -1.547   0.115  -0.541  1.00  0.00    -0.337 N 
HETATM   19  H7  UNL     1      -0.763   0.716  -0.895  1.00  0.00     0.167 HD
BRANCH  18  20
HETATM   20  C11 UNL     1      -2.637   0.981  -0.301  1.00  0.00     0.162 C 
HETATM   21  C12 UNL     1      -3.469   0.669   0.664  1.00  0.00     0.157 C 
HETATM   22  N3  UNL     1      -4.024   1.518   1.428  1.00  0.00    -0.168 NA
HETATM   23  N4  UNL     1      -4.418   2.747   0.855  1.00  0.00    -0.271 N 
HETATM   24  C13 UNL     1      -3.821   3.036  -0.402  1.00  0.00     0.228 C 
HETATM   25  H8  UNL     1      -5.095   3.359   1.346  1.00  0.00     0.190 HD
HETATM   26  N5  UNL     1      -2.970   2.209  -0.974  1.00  0.00    -0.222 NA
ENDBRANCH  18  20
ENDBRANCH   7  18
TORSDOF 5
