REMARK  7 active torsions:
REMARK  status: ('A' for Active; 'I' for Inactive)
REMARK    1  A    between atoms: N1_1  and  C1_2 
REMARK    2  A    between atoms: C5_8  and  C6_9 
REMARK    3  A    between atoms: C10_13  and  O1_14 
REMARK    4  A    between atoms: O1_14  and  C11_15 
REMARK    5  A    between atoms: C11_15  and  C12_16 
REMARK    6  A    between atoms: N4_25  and  C20_26 
REMARK    7  A    between atoms: C22_28  and  N5_29 
ROOT
HETATM    1  C1  UNL     1       1.743  -3.951   0.012  1.00  0.00     0.137 A 
HETATM    2  N2  UNL     1       2.868  -4.448   0.574  1.00  0.00    -0.224 NA
HETATM    3  C2  UNL     1       3.975  -3.686   0.629  1.00  0.00     0.237 A 
HETATM    4  N3  UNL     1       3.995  -2.429   0.136  1.00  0.00    -0.223 NA
HETATM    5  C3  UNL     1       2.917  -1.859  -0.439  1.00  0.00     0.146 A 
HETATM    6  C4  UNL     1       1.800  -2.664  -0.481  1.00  0.00     0.068 A 
HETATM    7  C5  UNL     1       0.750  -2.002  -1.080  1.00  0.00     0.008 A 
HETATM    8  C19 UNL     1       1.296  -0.753  -1.396  1.00  0.00     0.106 A 
HETATM    9  N4  UNL     1       2.580  -0.687  -1.009  1.00  0.00    -0.335 N 
ENDROOT
BRANCH   7  10
HETATM   10  C6  UNL     1      -0.632  -2.290  -1.436  1.00  0.00    -0.021 A 
HETATM   11  C7  UNL     1      -1.154  -3.354  -2.138  1.00  0.00     0.012 A 
HETATM   12  C8  UNL     1      -2.509  -3.464  -2.364  1.00  0.00     0.004 A 
HETATM   13  C9  UNL     1      -3.403  -2.522  -1.903  1.00  0.00     0.037 A 
HETATM   14  C10 UNL     1      -2.919  -1.441  -1.196  1.00  0.00     0.069 A 
HETATM   15  C18 UNL     1      -1.560  -1.349  -0.979  1.00  0.00     0.049 A 
BRANCH  14  16
HETATM   16  O1  UNL     1      -3.831  -0.512  -0.745  1.00  0.00    -0.348 OA
BRANCH  16  17
HETATM   17  C11 UNL     1      -3.571   0.642  -0.019  1.00  0.00     0.213 C 
BRANCH  17  18
HETATM   18  C12 UNL     1      -4.828   1.394   0.285  1.00  0.00     0.083 C 
HETATM   19  C13 UNL     1      -5.619   1.771  -0.931  1.00  0.00     0.043 C 
HETATM   20  C14 UNL     1      -7.023   1.888  -0.375  1.00  0.00     0.035 C 
HETATM   21  C15 UNL     1      -6.774   1.633   1.093  1.00  0.00     0.122 C 
HETATM   22  C16 UNL     1      -6.048   2.818   1.671  1.00  0.00     0.035 C 
HETATM   23  O2  UNL     1      -5.748   0.667   1.032  1.00  0.00    -0.373 OA
HETATM   24  C17 UNL     1      -4.626   2.597   1.138  1.00  0.00     0.043 C 
ENDBRANCH  17  18
ENDBRANCH  16  17
ENDBRANCH  14  16
ENDBRANCH   7  10
BRANCH   1  25
HETATM   25  N1  UNL     1       0.581  -4.764  -0.028  1.00  0.00    -0.383 N 
HETATM   26  H1  UNL     1       0.649  -5.679  -0.563  1.00  0.00     0.157 HD
HETATM   27  H2  UNL     1      -0.122  -4.221   0.524  1.00  0.00     0.157 HD
ENDBRANCH   1  25
BRANCH   9  28
HETATM   28  C20 UNL     1       3.490   0.416  -1.151  1.00  0.00     0.095 C 
HETATM   29  C21 UNL     1       3.113   1.664  -0.343  1.00  0.00     0.061 C 
HETATM   30  C22 UNL     1       4.630   1.849  -0.203  1.00  0.00     0.227 C 
HETATM   31  C26 UNL     1       4.692   0.335  -0.221  1.00  0.00     0.061 C 
BRANCH  30  32
HETATM   32  N5  UNL     1       5.081   2.523   0.959  1.00  0.00     0.093 N 
HETATM   33  C23 UNL     1       6.533   2.618   0.944  1.00  0.00     0.274 C 
HETATM   34  C24 UNL     1       6.573   1.433   1.886  1.00  0.00     0.060 C 
HETATM   35  C25 UNL     1       5.169   1.823   2.198  1.00  0.00     0.274 C 
ENDBRANCH  30  32
ENDBRANCH   9  28
TORSDOF 7
