REMARK  2 active torsions:
REMARK  status: ('A' for Active; 'I' for Inactive)
REMARK    1  A    between atoms: C4_5  and  N1_6 
REMARK    2  A    between atoms: N1_6  and  C5_7 
ROOT
HETATM    1  C5  UNL     1       0.333  -0.774  -1.157  1.00  0.00     0.707 A 
HETATM    2  N2  UNL     1       0.632  -1.988  -1.476  1.00  0.00    -0.058 NA
HETATM    3  C6  UNL     1      -0.474  -2.890  -1.505  1.00  0.00     0.251 A 
HETATM    4  N3  UNL     1      -1.713  -2.667  -1.259  1.00  0.00    -0.230 NA
HETATM    5  C7  UNL     1      -2.155  -1.374  -0.898  1.00  0.00     0.377 A 
HETATM    6  O1  UNL     1      -2.856  -1.320   0.328  1.00  0.00    -0.305 OA
HETATM    7  C8  UNL     1      -3.237  -0.100   0.865  1.00  0.00     0.081 A 
HETATM    8  C9  UNL     1      -4.241   0.104   1.756  1.00  0.00     0.037 A 
HETATM    9  C10 UNL     1      -4.472   1.398   2.179  1.00  0.00     0.003 A 
HETATM   10  C11 UNL     1      -3.742   2.486   1.746  1.00  0.00     0.001 A 
HETATM   11  C12 UNL     1      -2.715   2.238   0.828  1.00  0.00     0.011 A 
HETATM   12  C13 UNL     1      -2.464   0.938   0.388  1.00  0.00    -0.006 A 
HETATM   13  C14 UNL     1      -1.336   0.916  -0.578  1.00  0.00     0.187 C 
HETATM   14  N4  UNL     1      -1.041  -0.458  -0.886  1.00  0.00    -0.165 N 
ENDROOT
BRANCH   1  15
HETATM   15  N1  UNL     1       1.368   0.165  -1.107  1.00  0.00    -0.190 N 
HETATM   16  H3  UNL     1       1.124   1.171  -1.356  1.00  0.00     0.184 HD
BRANCH  15  17
HETATM   17  C4  UNL     1       2.710  -0.110  -0.747  1.00  0.00     0.051 A 
HETATM   18  C3  UNL     1       3.229  -1.300  -0.299  1.00  0.00     0.033 A 
HETATM   19  C2  UNL     1       4.526  -1.533   0.034  1.00  0.00     0.046 A 
HETATM   20  C1  UNL     1       5.441  -0.506  -0.072  1.00  0.00     0.138 A 
HETATM   21  F1  UNL     1       6.730  -0.705   0.250  1.00  0.00    -0.204 F 
HETATM   22  C16 UNL     1       4.997   0.723  -0.515  1.00  0.00     0.074 A 
HETATM   23  C15 UNL     1       3.669   0.898  -0.838  1.00  0.00     0.057 A 
HETATM   24 CL1  UNL     1       6.151   2.033  -0.652  1.00  0.00    -0.081 Cl
ENDBRANCH  15  17
ENDBRANCH   1  15
TORSDOF 2
