REMARK  6 active torsions:
REMARK  status: ('A' for Active; 'I' for Inactive)
REMARK    1  A    between atoms: N1_2  and  C2_3 
REMARK    2  A    between atoms: C3_4  and  C4_5 
REMARK    3  A    between atoms: C5_6  and  C6_7 
REMARK    4  A    between atoms: C9_11  and  N3_12 
REMARK    5  A    between atoms: N3_12  and  C10_13 
REMARK    6  A    between atoms: C14_17  and  N4_18 
ROOT
HETATM    1  N3  UNL     1      -1.161   0.018  -0.519  1.00  0.00    -0.188 N 
HETATM    2  H9  UNL     1      -1.094   0.989  -0.945  1.00  0.00     0.184 HD
ENDROOT
BRANCH   1   3
HETATM    3  C9  UNL     1       0.195  -0.303  -0.732  1.00  0.00     0.727 A 
HETATM    4  N2  UNL     1       0.342  -1.113  -1.822  1.00  0.00    -0.075 NA
HETATM    5  C8  UNL     1       1.559  -1.515  -2.211  1.00  0.00     0.139 A 
HETATM    6  C7  UNL     1       2.614  -1.060  -1.450  1.00  0.00     0.052 A 
HETATM    7  C6  UNL     1       2.513  -0.246  -0.346  1.00  0.00     0.077 A 
HETATM    8  N6  UNL     1       1.254   0.106  -0.030  1.00  0.00    -0.063 NA
BRANCH   7   9
HETATM    9  C5  UNL     1       3.587   0.287   0.472  1.00  0.00     0.032 C 
HETATM   10  C4  UNL     1       4.894   0.216   0.414  1.00  0.00     0.004 C 
BRANCH  10  11
HETATM   11  C3  UNL     1       6.051  -0.296  -0.298  1.00  0.00     0.019 C 
HETATM   12  C2  UNL     1       7.359  -0.225  -0.142  1.00  0.00     0.115 C 
BRANCH  12  13
HETATM   13  N1  UNL     1       8.225   0.382   0.789  1.00  0.00    -0.284 NA
HETATM   14  C1  UNL     1       8.661   1.595   0.644  1.00  0.00     0.148 C 
ENDBRANCH  12  13
ENDBRANCH  10  11
ENDBRANCH   7   9
ENDBRANCH   1   3
BRANCH   1  15
HETATM   15  C10 UNL     1      -2.364  -0.496   0.015  1.00  0.00     0.051 A 
HETATM   16  C11 UNL     1      -2.397  -1.750   0.584  1.00  0.00     0.030 A 
HETATM   17  C12 UNL     1      -3.648  -2.117   1.031  1.00  0.00     0.004 A 
HETATM   18  C13 UNL     1      -4.771  -1.325   0.932  1.00  0.00     0.030 A 
HETATM   19  C14 UNL     1      -4.669  -0.078   0.352  1.00  0.00     0.042 A 
HETATM   20  C18 UNL     1      -3.451   0.356  -0.119  1.00  0.00     0.060 A 
BRANCH  19  21
HETATM   21  N4  UNL     1      -5.799   0.779   0.221  1.00  0.00    -0.315 N 
HETATM   22  C15 UNL     1      -6.793   0.894   1.120  1.00  0.00     0.117 A 
HETATM   23  C16 UNL     1      -7.712   1.811   0.663  1.00  0.00     0.135 A 
HETATM   24  N5  UNL     1      -7.274   2.261  -0.527  1.00  0.00    -0.254 NA
HETATM   25  C17 UNL     1      -6.116   1.635  -0.792  1.00  0.00     0.214 A 
ENDBRANCH  19  21
ENDBRANCH   1  15
TORSDOF 6
