REMARK  2 active torsions:
REMARK  status: ('A' for Active; 'I' for Inactive)
REMARK       I    between atoms: C6_8  and  N3_9 
REMARK    1  A    between atoms: N3_9  and  C7_10 
REMARK    2  A    between atoms: C11_14  and  N4_15 
ROOT
HETATM    1  C1  UNL     1      -3.888  -2.084   0.185  1.00  0.00     0.014 C 
HETATM    2  C2  UNL     1      -5.017  -1.832  -0.586  1.00  0.00     0.113 C 
HETATM    3  N1  UNL     1      -4.604  -0.463  -0.628  1.00  0.00    -0.277 NA
HETATM    4  C3  UNL     1      -5.101   0.464   0.136  1.00  0.00     0.094 C 
HETATM    5  C4  UNL     1      -4.523   1.810  -0.068  1.00  0.00     0.094 C 
HETATM    6  C5  UNL     1      -3.057   1.821  -0.298  1.00  0.00     0.114 C 
HETATM    7  N2  UNL     1      -2.602   0.866   0.395  1.00  0.00    -0.079 NA
HETATM    8  C6  UNL     1      -1.291   0.376   0.578  1.00  0.00     0.722 C 
HETATM    9  N3  UNL     1       0.037   0.828   0.646  1.00  0.00    -0.188 N 
HETATM   10  N6  UNL     1      -1.550  -0.948   0.708  1.00  0.00    -0.102 NA
HETATM   11  C16 UNL     1      -2.885  -1.208   0.616  1.00  0.00     0.197 C 
HETATM   12  H7  UNL     1      -0.007   1.712   1.173  1.00  0.00     0.184 HD
ENDROOT
BRANCH   9  13
HETATM   13  C7  UNL     1       1.032   0.064   0.037  1.00  0.00     0.051 A 
HETATM   14  C8  UNL     1       0.922  -1.021  -0.772  1.00  0.00     0.030 A 
HETATM   15  C9  UNL     1       2.059  -1.628  -1.253  1.00  0.00     0.004 A 
HETATM   16  C10 UNL     1       3.352  -1.200  -0.965  1.00  0.00     0.030 A 
HETATM   17  C11 UNL     1       3.447  -0.087  -0.136  1.00  0.00     0.042 A 
HETATM   18  C15 UNL     1       2.290   0.511   0.339  1.00  0.00     0.060 A 
BRANCH  17  19
HETATM   19  N4  UNL     1       4.774   0.338   0.148  1.00  0.00    -0.315 N 
HETATM   20  C12 UNL     1       5.126   0.583   1.428  1.00  0.00     0.117 A 
HETATM   21  C13 UNL     1       6.462   0.973   1.377  1.00  0.00     0.135 A 
HETATM   22  N5  UNL     1       6.895   0.961   0.105  1.00  0.00    -0.254 NA
HETATM   23  C14 UNL     1       5.844   0.568  -0.637  1.00  0.00     0.214 A 
ENDBRANCH  17  19
ENDBRANCH   9  13
TORSDOF 2
