REMARK  4 active torsions:
REMARK  status: ('A' for Active; 'I' for Inactive)
REMARK    1  A    between atoms: N1_1  and  C1_2 
REMARK    2  A    between atoms: N2_6  and  C5_7 
REMARK    3  A    between atoms: C7_9  and  C8_10 
REMARK    4  A    between atoms: C8_10  and  N3_11 
ROOT
HETATM    1  C1  UNL     1      -2.185   2.182   1.985  1.00  0.00     0.123 C 
HETATM    2  C2  UNL     1      -2.514   0.856   1.988  1.00  0.00     0.059 C 
HETATM    3  C3  UNL     1      -1.831  -0.188   1.407  1.00  0.00    -0.025 C 
HETATM    4  C4  UNL     1      -0.457  -0.110   1.367  1.00  0.00     0.101 C 
HETATM    5  N2  UNL     1       0.119   0.856   0.635  1.00  0.00    -0.336 N 
HETATM    6  C13 UNL     1      -0.619   1.647  -0.161  1.00  0.00     0.140 C 
HETATM    7  N4  UNL     1      -0.565   2.984  -0.041  1.00  0.00    -0.224 NA
HETATM    8  C14 UNL     1      -0.391   3.450   1.214  1.00  0.00     0.237 C 
HETATM    9  N5  UNL     1      -1.220   3.073   2.228  1.00  0.00    -0.225 NA
HETATM   10  C15 UNL     1      -1.562   1.354  -1.265  1.00  0.00     0.020 A 
HETATM   11  C16 UNL     1      -0.985   1.355  -2.489  1.00  0.00     0.014 A 
HETATM   12  C17 UNL     1      -1.982   1.054  -3.549  1.00  0.00    -0.000 A 
HETATM   13  C18 UNL     1      -3.113   0.893  -2.886  1.00  0.00     0.010 A 
HETATM   14  C19 UNL     1      -3.000   1.063  -1.413  1.00  0.00     0.181 A 
HETATM   15  O1  UNL     1      -3.510   0.059  -0.662  1.00  0.00    -0.371 OA
HETATM   16  C20 UNL     1      -2.858  -1.137  -0.629  1.00  0.00     0.138 C 
HETATM   17  C21 UNL     1      -3.711  -2.298  -1.091  1.00  0.00     0.033 C 
HETATM   18  C22 UNL     1      -3.696  -3.465  -0.136  1.00  0.00     0.010 C 
HETATM   19  C23 UNL     1      -4.338  -3.099   1.194  1.00  0.00     0.079 C 
HETATM   20  C24 UNL     1      -3.615  -1.861   1.649  1.00  0.00     0.138 C 
HETATM   21  O2  UNL     1      -4.237  -1.567   2.681  1.00  0.00    -0.297 OA
HETATM   22  C25 UNL     1      -2.475  -1.384   0.825  1.00  0.00     0.118 C 
ENDROOT
BRANCH   5  23
HETATM   23  C5  UNL     1       1.516   1.149   0.606  1.00  0.00     0.092 C 
HETATM   24  C6  UNL     1       2.347   0.368  -0.419  1.00  0.00     0.032 C 
HETATM   25  C7  UNL     1       2.967  -0.441   0.650  1.00  0.00     0.018 C 
HETATM   26  C12 UNL     1       2.366   0.542   1.673  1.00  0.00     0.032 C 
BRANCH  25  27
HETATM   27  C8  UNL     1       4.445  -0.541   0.817  1.00  0.00     0.277 C 
BRANCH  27  28
HETATM   28  N3  UNL     1       5.134  -1.069  -0.305  1.00  0.00     0.088 N 
HETATM   29  C9  UNL     1       6.519  -1.431   0.033  1.00  0.00     0.274 C 
HETATM   30  C10 UNL     1       6.918  -0.007  -0.198  1.00  0.00     0.060 C 
HETATM   31  C11 UNL     1       5.718  -0.012  -1.127  1.00  0.00     0.274 C 
ENDBRANCH  27  28
ENDBRANCH  25  27
ENDBRANCH   5  23
BRANCH   1  32
HETATM   32  N1  UNL     1      -3.282   3.018   1.559  1.00  0.00    -0.384 N 
HETATM   33  H1  UNL     1      -4.074   3.662   1.673  1.00  0.00     0.157 HD
HETATM   34  H2  UNL     1      -3.886   3.428   0.815  1.00  0.00     0.157 HD
ENDBRANCH   1  32
TORSDOF 4
