REMARK  4 active torsions:
REMARK  status: ('A' for Active; 'I' for Inactive)
REMARK    1  A    between atoms: C3_3  and  C4_4 
REMARK    2  A    between atoms: C7_7  and  N1_8 
REMARK    3  A    between atoms: N1_8  and  C8_9 
REMARK    4  A    between atoms: C11_13  and  C12_14 
ROOT
HETATM    1  N1  UNL     1      -0.277  -0.485   0.021  1.00  0.00    -0.192 N 
HETATM    2  H6  UNL     1      -0.271  -1.449   0.421  1.00  0.00     0.184 HD
ENDROOT
BRANCH   1   3
HETATM    3  C7  UNL     1      -1.532   0.173  -0.092  1.00  0.00     0.030 A 
HETATM    4  C6  UNL     1      -1.693   1.481  -0.228  1.00  0.00     0.026 A 
HETATM    5  C5  UNL     1      -3.117   1.801  -0.314  1.00  0.00     0.007 A 
HETATM    6  C4  UNL     1      -3.789   0.650  -0.224  1.00  0.00    -0.048 A 
HETATM    7  C17 UNL     1      -2.868  -0.484  -0.079  1.00  0.00     0.094 A 
BRANCH   6   8
HETATM    8  C3  UNL     1      -5.259   0.555  -0.270  1.00  0.00     0.136 A 
HETATM    9  C2  UNL     1      -5.792  -0.255  -1.367  1.00  0.00     0.022 A 
HETATM   10  C1  UNL     1      -6.624  -1.272  -1.147  1.00  0.00     0.116 A 
HETATM   11  N6  UNL     1      -7.106  -1.715   0.115  1.00  0.00    -0.257 NA
HETATM   12  C18 UNL     1      -6.715  -1.089   1.186  1.00  0.00     0.203 A 
HETATM   13  N5  UNL     1      -5.814   0.012   0.965  1.00  0.00    -0.373 N 
HETATM   14  H15 UNL     1      -5.452   0.566   1.787  1.00  0.00     0.161 HD
ENDBRANCH   6   8
ENDBRANCH   1   3
BRANCH   1  15
HETATM   15  C8  UNL     1       0.952   0.092  -0.375  1.00  0.00     0.727 A 
HETATM   16  N2  UNL     1       1.091   1.312  -0.910  1.00  0.00    -0.075 NA
HETATM   17  C9  UNL     1       2.241   1.854  -1.275  1.00  0.00     0.139 A 
HETATM   18  C10 UNL     1       3.385   1.115  -1.094  1.00  0.00     0.052 A 
HETATM   19  C11 UNL     1       3.319  -0.131  -0.556  1.00  0.00     0.078 A 
HETATM   20  N4  UNL     1       2.098  -0.578  -0.224  1.00  0.00    -0.063 NA
BRANCH  19  21
HETATM   21  C12 UNL     1       4.502  -0.931  -0.331  1.00  0.00     0.045 C 
HETATM   22  C13 UNL     1       5.685  -0.639   0.176  1.00  0.00    -0.010 A 
HETATM   23  C14 UNL     1       6.672  -1.701   0.260  1.00  0.00     0.128 A 
HETATM   24  C16 UNL     1       6.110   0.657   0.686  1.00  0.00     0.064 A 
HETATM   25  N3  UNL     1       7.860  -1.705   0.707  1.00  0.00    -0.265 NA
HETATM   26  C15 UNL     1       8.521  -0.552   1.268  1.00  0.00     0.165 A 
HETATM   27  S1  UNL     1       7.635   0.817   1.305  1.00  0.00    -0.094 SA
ENDBRANCH  19  21
ENDBRANCH   1  15
TORSDOF 4
