REMARK  6 active torsions:
REMARK  status: ('A' for Active; 'I' for Inactive)
REMARK    1  A    between atoms: N1_2  and  C2_3 
REMARK    2  A    between atoms: C4_5  and  N2_6 
REMARK    3  A    between atoms: N2_6  and  C5_7 
REMARK    4  A    between atoms: C5_7  and  N3_8 
REMARK    5  A    between atoms: C6_9  and  C7_10 
REMARK    6  A    between atoms: C11_15  and  O1_16 
ROOT
HETATM    1  N3  UNL     1      -0.548  -0.502   1.218  1.00  0.00    -0.282 NA
HETATM    2  C6  UNL     1      -1.580   0.093   0.745  1.00  0.00     0.114 C 
ENDROOT
BRANCH   1   3
HETATM    3  C5  UNL     1       0.608  -0.929   0.534  1.00  0.00     0.270 C 
BRANCH   3   4
HETATM    4  N2  UNL     1       1.656   0.081   0.417  1.00  0.00    -0.372 N 
HETATM    5  H6  UNL     1       1.910   1.065   0.654  1.00  0.00     0.161 HD
BRANCH   4   6
HETATM    6  C4  UNL     1       2.819  -0.361  -0.276  1.00  0.00     0.027 A 
HETATM    7  C3  UNL     1       4.181  -0.688   0.121  1.00  0.00     0.053 A 
HETATM    8  C2  UNL     1       4.886  -1.056  -0.933  1.00  0.00     0.010 A 
HETATM    9  C14 UNL     1       4.052  -1.013  -2.165  1.00  0.00     0.086 A 
HETATM   10  C13 UNL     1       2.753  -0.553  -1.603  1.00  0.00     0.008 A 
BRANCH   8  11
HETATM   11  N1  UNL     1       6.263  -1.412  -0.691  1.00  0.00    -0.397 N 
HETATM   12  C1  UNL     1       6.459  -2.842  -0.524  1.00  0.00     0.146 C 
HETATM   13  H4  UNL     1       7.067  -0.722  -0.636  1.00  0.00     0.158 HD
ENDBRANCH   8  11
ENDBRANCH   4   6
ENDBRANCH   3   4
ENDBRANCH   1   3
BRANCH   2  14
HETATM   14  C7  UNL     1      -2.677   0.460   1.588  1.00  0.00     0.048 C 
HETATM   15  C8  UNL     1      -3.848   1.050   1.480  1.00  0.00     0.040 A 
HETATM   16  C9  UNL     1      -4.729   1.247   2.655  1.00  0.00     0.049 A 
HETATM   17  N5  UNL     1      -4.429   1.566   0.289  1.00  0.00    -0.316 N 
HETATM   18  C10 UNL     1      -5.885   1.826   2.563  1.00  0.00     0.123 A 
HETATM   19  N4  UNL     1      -6.366   2.304   1.322  1.00  0.00    -0.221 NA
HETATM   20  C11 UNL     1      -5.703   2.194   0.243  1.00  0.00     0.245 A 
HETATM   21  C12 UNL     1      -3.715   1.461  -0.946  1.00  0.00     0.160 C 
BRANCH  20  22
HETATM   22  O1  UNL     1      -6.226   2.682  -0.947  1.00  0.00    -0.331 OA
HETATM   23  H13 UNL     1      -7.249   2.775  -1.052  1.00  0.00     0.221 HD
ENDBRANCH  20  22
ENDBRANCH   2  14
TORSDOF 6
