REMARK  7 active torsions:
REMARK  status: ('A' for Active; 'I' for Inactive)
REMARK    1  A    between atoms: B1_1  and  C1_2 
REMARK    2  A    between atoms: C1_2  and  N1_3 
REMARK    3  A    between atoms: N1_3  and  C2_4 
REMARK    4  A    between atoms: N2_5  and  C3_6 
REMARK    5  A    between atoms: C7_10  and  N3_11 
REMARK    6  A    between atoms: N3_11  and  C8_12 
REMARK    7  A    between atoms: C11_16  and  C12_17 
ROOT
HETATM    1  C3  UNL     1       1.799   1.934   2.273  1.00  0.00     0.061 A 
HETATM    2  C4  UNL     1       1.867   3.260   1.897  1.00  0.00     0.032 A 
HETATM    3  C5  UNL     1       1.138   3.638   0.788  1.00  0.00     0.005 A 
HETATM    4  C6  UNL     1       0.342   2.771   0.027  1.00  0.00     0.029 A 
HETATM    5  C7  UNL     1       0.297   1.454   0.431  1.00  0.00     0.032 A 
HETATM    6  C17 UNL     1       1.022   1.061   1.541  1.00  0.00     0.060 A 
ENDROOT
BRANCH   5   7
HETATM    7  N3  UNL     1      -0.474   0.517  -0.271  1.00  0.00    -0.363 N 
HETATM    8  H8  UNL     1      -0.510  -0.488   0.035  1.00  0.00     0.162 HD
BRANCH   7   9
HETATM    9  C8  UNL     1      -1.249   0.876  -1.437  1.00  0.00     0.240 A 
HETATM   10  N4  UNL     1      -0.297   1.383  -2.413  1.00  0.00    -0.271 NA
HETATM   11  C9  UNL     1      -0.278   0.625  -3.458  1.00  0.00     0.114 A 
HETATM   12  C10 UNL     1      -1.209  -0.492  -3.326  1.00  0.00     0.031 A 
HETATM   13  C11 UNL     1      -1.769  -0.329  -2.137  1.00  0.00    -0.002 A 
BRANCH  13  14
HETATM   14  C12 UNL     1      -2.784  -1.245  -1.595  1.00  0.00    -0.009 A 
HETATM   15  C13 UNL     1      -3.165  -2.333  -2.383  1.00  0.00     0.015 A 
HETATM   16  C14 UNL     1      -4.132  -3.202  -1.862  1.00  0.00     0.020 A 
HETATM   17  C15 UNL     1      -4.659  -2.949  -0.612  1.00  0.00     0.116 A 
HETATM   18  N5  UNL     1      -4.266  -1.881   0.129  1.00  0.00    -0.272 NA
HETATM   19  C16 UNL     1      -3.332  -1.018  -0.342  1.00  0.00     0.128 A 
ENDBRANCH  13  14
ENDBRANCH   7   9
ENDBRANCH   5   7
BRANCH   1  20
HETATM   20  N2  UNL     1       2.560   1.572   3.419  1.00  0.00    -0.231 NA
HETATM   21  C2  UNL     1       3.390   0.614   3.484  1.00  0.00     0.297 C 
BRANCH  21  22
HETATM   22  N1  UNL     1       3.750  -0.253   2.559  1.00  0.00    -0.428 NA
BRANCH  22  23
HETATM   23  C1  UNL     1       4.111  -1.090   1.814  1.00  0.00     0.085 C 
BRANCH  23  24
HETATM   24  B1  UNL     1       4.671  -1.958   3.004  1.00  0.00     0.200 B 
HETATM   25  H1  UNL     1       5.857  -2.021   3.046  1.00  0.00    -0.024 HD
HETATM   26  H2  UNL     1       4.051  -2.896   3.406  1.00  0.00    -0.024 HD
ENDBRANCH  23  24
ENDBRANCH  22  23
ENDBRANCH  21  22
ENDBRANCH   1  20
TORSDOF 7
