REMARK  0 active torsions:
REMARK  status: ('A' for Active; 'I' for Inactive)
REMARK       I    between atoms: N1_3  and  C3_4 
ROOT
HETATM    1  C1  UNL     1       3.885   3.075   2.252  1.00  0.00     0.037 C 
HETATM    2  C2  UNL     1       3.944   1.953   1.848  1.00  0.00     0.015 C 
HETATM    3  N1  UNL     1       4.023   0.641   1.399  1.00  0.00    -0.147 N 
HETATM    4  C3  UNL     1       3.468   0.275   0.147  1.00  0.00     0.711 C 
HETATM    5  N2  UNL     1       2.961   1.066  -0.690  1.00  0.00    -0.080 NA
HETATM    6  C4  UNL     1       2.788   2.444  -0.671  1.00  0.00     0.120 C 
HETATM    7  C5  UNL     1       1.492   2.258  -0.787  1.00  0.00     0.081 C 
HETATM    8  C6  UNL     1       0.257   3.011  -0.875  1.00  0.00     0.100 C 
HETATM    9  N3  UNL     1      -0.388   1.873  -0.975  1.00  0.00    -0.276 NA
HETATM   10  C7  UNL     1      -1.790   1.836  -1.107  1.00  0.00     0.116 C 
HETATM   11  C8  UNL     1      -3.024   1.562  -0.751  1.00  0.00     0.031 C 
HETATM   12  C9  UNL     1      -3.816   0.957   0.312  1.00  0.00    -0.020 A 
HETATM   13  C10 UNL     1      -4.569   1.713   1.182  1.00  0.00     0.012 A 
HETATM   14  C11 UNL     1      -5.346   1.235   2.213  1.00  0.00     0.001 A 
HETATM   15  C12 UNL     1      -5.341  -0.132   2.349  1.00  0.00     0.001 A 
HETATM   16  C13 UNL     1      -4.609  -0.946   1.511  1.00  0.00     0.017 A 
HETATM   17  C14 UNL     1      -3.839  -0.434   0.488  1.00  0.00     0.032 A 
HETATM   18  C15 UNL     1      -3.058  -1.348  -0.379  1.00  0.00     0.224 C 
HETATM   19  O1  UNL     1      -4.034  -1.737  -1.074  1.00  0.00    -0.279 OA
HETATM   20  S1  UNL     1      -1.521  -0.974   0.442  1.00  0.00    -0.048 SA
HETATM   21  C16 UNL     1      -0.122  -1.791  -0.251  1.00  0.00     0.010 A 
HETATM   22  C17 UNL     1      -0.061  -2.909  -1.050  1.00  0.00     0.019 A 
HETATM   23  C18 UNL     1       1.122  -3.423  -1.516  1.00  0.00     0.010 A 
HETATM   24  C19 UNL     1       2.348  -2.830  -1.200  1.00  0.00    -0.035 A 
HETATM   25  C20 UNL     1       3.646  -3.363  -1.692  1.00  0.00     0.050 C 
HETATM   26  C21 UNL     1       2.277  -1.717  -0.404  1.00  0.00     0.056 A 
HETATM   27  C22 UNL     1       1.094  -1.187   0.074  1.00  0.00     0.049 A 
HETATM   28  N4  UNL     1       3.530  -1.126  -0.091  1.00  0.00    -0.189 N 
HETATM   29  H2  UNL     1       4.509  -0.047   2.057  1.00  0.00     0.195 HD
HETATM   30  H18 UNL     1       4.454  -1.595  -0.017  1.00  0.00     0.184 HD
ENDROOT
TORSDOF 0
