REMARK  2 active torsions:
REMARK  status: ('A' for Active; 'I' for Inactive)
REMARK    1  A    between atoms: C3_3  and  C4_4 
REMARK    2  A    between atoms: C7_8  and  C8_9 
ROOT
HETATM    1  C8  UNL     1      -0.281  -0.906   0.199  1.00  0.00     0.036 C 
HETATM    2  C9  UNL     1      -0.859  -1.742  -0.680  1.00  0.00     0.021 C 
HETATM    3  C10 UNL     1      -2.276  -1.773  -0.970  1.00  0.00    -0.001 C 
HETATM    4  C11 UNL     1      -3.492  -1.348  -0.742  1.00  0.00    -0.007 C 
HETATM    5  C12 UNL     1      -4.950  -0.974  -0.620  1.00  0.00     0.146 C 
HETATM    6  N2  UNL     1      -4.848   0.504  -0.523  1.00  0.00    -0.394 N 
HETATM    7  C13 UNL     1      -4.747   1.896  -0.443  1.00  0.00     0.102 C 
HETATM    8  C14 UNL     1      -3.573   2.345   0.042  1.00  0.00     0.133 C 
HETATM    9  N3  UNL     1      -2.449   1.673   0.467  1.00  0.00    -0.265 NA
HETATM   10  C15 UNL     1      -2.114   1.077   1.520  1.00  0.00     0.267 C 
HETATM   11  S1  UNL     1      -0.480   0.431   1.342  1.00  0.00    -0.160 SA
HETATM   12  H13 UNL     1      -5.259   0.602   0.461  1.00  0.00     0.159 HD
ENDROOT
BRANCH   1  13
HETATM   13  C7  UNL     1       1.151  -1.304   0.118  1.00  0.00     0.165 A 
HETATM   14  N1  UNL     1       1.620  -2.515  -0.145  1.00  0.00    -0.240 NA
HETATM   15  C6  UNL     1       2.897  -2.863  -0.330  1.00  0.00     0.121 A 
HETATM   16  C5  UNL     1       3.838  -1.882  -0.250  1.00  0.00     0.051 A 
HETATM   17  C4  UNL     1       3.433  -0.602   0.016  1.00  0.00     0.060 A 
HETATM   18  N4  UNL     1       2.129  -0.354   0.194  1.00  0.00    -0.228 NA
BRANCH  17  19
HETATM   19  C3  UNL     1       4.480   0.433   0.012  1.00  0.00     0.027 C 
HETATM   20  C2  UNL     1       4.253   1.747   0.135  1.00  0.00    -0.029 C 
HETATM   21  C1  UNL     1       5.436   2.662   0.108  1.00  0.00     0.036 C 
ENDBRANCH  17  19
ENDBRANCH   1  13
TORSDOF 2
