REMARK  4 active torsions:
REMARK  status: ('A' for Active; 'I' for Inactive)
REMARK    1  A    between atoms: B1_1  and  C1_2 
REMARK    2  A    between atoms: C7_9  and  C8_10 
REMARK    3  A    between atoms: N2_11  and  C9_12 
REMARK       I    between atoms: N5_22  and  C17_23 
REMARK    4  A    between atoms: C17_23  and  C18_25 
ROOT
HETATM    1  C1  UNL     1       0.868  -3.084   0.959  1.00  0.00    -0.083 A 
HETATM    2  C2  UNL     1      -0.377  -3.675   0.933  1.00  0.00    -0.001 A 
HETATM    3  C3  UNL     1      -1.512  -2.913   0.754  1.00  0.00     0.030 A 
HETATM    4  C4  UNL     1      -1.363  -1.566   0.606  1.00  0.00     0.044 A 
HETATM    5  C5  UNL     1      -0.084  -1.037   0.643  1.00  0.00     0.058 A 
HETATM    6  C6  UNL     1       1.086  -1.739   0.816  1.00  0.00     0.027 A 
HETATM    7  N1  UNL     1       2.355  -1.136   0.832  1.00  0.00    -0.355 N 
HETATM    8  C7  UNL     1       3.340  -0.378   0.053  1.00  0.00     0.297 C 
HETATM    9  N3  UNL     1       2.952   0.761  -0.549  1.00  0.00    -0.450 NA
HETATM   10  C11 UNL     1       2.530   1.772  -1.037  1.00  0.00     0.201 C 
HETATM   11  C12 UNL     1       1.207   2.503  -0.769  1.00  0.00     0.011 C 
HETATM   12  C13 UNL     1       1.584   3.535  -1.605  1.00  0.00     0.011 C 
HETATM   13  C14 UNL     1      -0.042   3.214  -0.523  1.00  0.00     0.178 C 
HETATM   14  N4  UNL     1      -1.296   3.116  -0.072  1.00  0.00    -0.292 NA
HETATM   15  C15 UNL     1      -1.730   1.818   0.392  1.00  0.00     0.128 C 
HETATM   16  C16 UNL     1      -2.127   0.693   0.915  1.00  0.00     0.119 C 
HETATM   17  N5  UNL     1      -2.387  -0.603   0.376  1.00  0.00    -0.288 N 
HETATM   18  C17 UNL     1      -3.435  -1.023  -0.447  1.00  0.00     0.262 C 
HETATM   19  O1  UNL     1      -3.569  -2.117  -1.035  1.00  0.00    -0.267 OA
HETATM   20  H6  UNL     1       2.599  -1.395   1.838  1.00  0.00     0.163 HD
ENDROOT
BRANCH  18  21
HETATM   21  C18 UNL     1      -4.517  -0.095  -0.663  1.00  0.00     0.032 A 
HETATM   22  C19 UNL     1      -5.292   0.153   0.474  1.00  0.00     0.017 A 
HETATM   23  C20 UNL     1      -6.368   1.028   0.377  1.00  0.00     0.001 A 
HETATM   24  C21 UNL     1      -6.622   1.615  -0.846  1.00  0.00     0.000 A 
HETATM   25  C22 UNL     1      -5.831   1.351  -1.965  1.00  0.00     0.001 A 
HETATM   26  C23 UNL     1      -4.764   0.488  -1.886  1.00  0.00     0.017 A 
ENDBRANCH  18  21
BRANCH   1  27
HETATM   27  B1  UNL     1       2.165  -3.902   1.170  1.00  0.00     0.177 B 
HETATM   28  H1  UNL     1       2.992  -3.771   0.299  1.00  0.00    -0.026 HD
HETATM   29  H2  UNL     1       2.161  -4.973   1.672  1.00  0.00    -0.026 HD
ENDBRANCH   1  27
BRANCH   8  30
HETATM   30  C8  UNL     1       4.510  -0.096   0.979  1.00  0.00     0.149 C 
HETATM   31  N2  UNL     1       5.726   0.247   0.885  1.00  0.00    -0.273 NA
BRANCH  31  32
HETATM   32  C9  UNL     1       6.329   0.474  -0.377  1.00  0.00     0.106 C 
HETATM   33  C10 UNL     1       7.647   0.455  -0.480  1.00  0.00     0.032 C 
ENDBRANCH  31  32
ENDBRANCH   8  30
TORSDOF 4
