REMARK  5 active torsions:
REMARK  status: ('A' for Active; 'I' for Inactive)
REMARK       I    between atoms: N1_3  and  C3_4 
REMARK       I    between atoms: C3_4  and  N4_13 
REMARK    1  A    between atoms: N2_5  and  C4_6 
REMARK    2  A    between atoms: C4_6  and  C5_7 
REMARK    3  A    between atoms: C8_10  and  N3_11 
REMARK    4  A    between atoms: N4_13  and  C10_14 
REMARK    5  A    between atoms: C14_19  and  N5_20 
ROOT
HETATM    1  C1  UNL     1      -3.384  -4.211   2.977  1.00  0.00     0.057 C 
HETATM    2  C2  UNL     1      -2.109  -3.571   2.511  1.00  0.00     0.105 C 
HETATM    3  N1  UNL     1      -2.303  -2.992   1.365  1.00  0.00    -0.080 NA
HETATM    4  C3  UNL     1      -1.218  -2.304   0.712  1.00  0.00     0.721 C 
HETATM    5  N2  UNL     1      -2.075  -1.532   0.171  1.00  0.00    -0.101 NA
HETATM    6  N4  UNL     1       0.163  -2.600   0.821  1.00  0.00    -0.199 N 
HETATM    7  H13 UNL     1       0.417  -3.295   1.549  1.00  0.00     0.183 HD
ENDROOT
BRANCH   6   8
HETATM    8  C10 UNL     1       0.829  -1.814  -0.155  1.00  0.00     0.101 C 
HETATM    9  C11 UNL     1       1.808  -1.019   0.312  1.00  0.00    -0.080 A 
HETATM   10  B1  UNL     1       2.123  -1.028   1.849  1.00  0.00     0.220 B 
HETATM   11  C18 UNL     1       2.605  -0.140  -0.537  1.00  0.00     0.026 A 
HETATM   12  C12 UNL     1       3.280  -0.081   2.356  1.00  0.00    -0.075 A 
HETATM   13  H15 UNL     1       1.293  -1.393   2.610  1.00  0.00    -0.016 HD
HETATM   14  C13 UNL     1       3.895   0.653   1.412  1.00  0.00     0.014 A 
HETATM   15  C14 UNL     1       3.552   0.612   0.003  1.00  0.00     0.038 A 
BRANCH  15  16
HETATM   16  N5  UNL     1       4.299   1.455  -0.889  1.00  0.00    -0.315 N 
HETATM   17  C15 UNL     1       4.155   1.580  -2.225  1.00  0.00     0.117 A 
HETATM   18  C16 UNL     1       5.064   2.495  -2.729  1.00  0.00     0.135 A 
HETATM   19  N6  UNL     1       5.768   2.929  -1.670  1.00  0.00    -0.254 NA
HETATM   20  C17 UNL     1       5.300   2.300  -0.585  1.00  0.00     0.214 A 
ENDBRANCH  15  16
ENDBRANCH   6   8
BRANCH   5  21
HETATM   21  C4  UNL     1      -1.700  -0.478  -0.710  1.00  0.00     0.203 C 
BRANCH  21  22
HETATM   22  C5  UNL     1      -2.751   0.594  -0.785  1.00  0.00    -0.054 A 
HETATM   23  C6  UNL     1      -3.942   0.754  -0.205  1.00  0.00     0.007 A 
HETATM   24  C7  UNL     1      -4.499   2.014  -0.682  1.00  0.00     0.025 A 
HETATM   25  C8  UNL     1      -3.648   2.588  -1.531  1.00  0.00     0.006 A 
HETATM   26  C9  UNL     1      -2.431   1.749  -1.698  1.00  0.00     0.092 A 
BRANCH  25  27
HETATM   27  N3  UNL     1      -3.912   3.829  -2.163  1.00  0.00    -0.402 N 
HETATM   28  H9  UNL     1      -3.697   4.679  -1.617  1.00  0.00     0.156 HD
HETATM   29  H10 UNL     1      -4.285   4.150  -3.080  1.00  0.00     0.156 HD
ENDBRANCH  25  27
ENDBRANCH  21  22
ENDBRANCH   5  21
TORSDOF 5
