REMARK  0 active torsions:
REMARK  status: ('A' for Active; 'I' for Inactive)
ROOT
HETATM    1  C1  UNL     1       4.780  -0.901   1.190  1.00  0.00     0.155 C 
HETATM    2  N1  UNL     1       4.253  -0.019   0.169  1.00  0.00    -0.355 N 
HETATM    3  C2  UNL     1       4.964   0.678  -0.849  1.00  0.00     0.107 C 
HETATM    4  C3  UNL     1       4.304   1.580  -1.515  1.00  0.00     0.105 C 
HETATM    5  N2  UNL     1       2.940   1.780  -1.158  1.00  0.00    -0.359 N 
HETATM    6  P1  UNL     1       2.570   0.422  -0.074  1.00  0.00     0.051 P 
HETATM    7  C4  UNL     1       1.710  -0.720  -0.796  1.00  0.00     0.042 C 
HETATM    8  C5  UNL     1       0.241  -0.826  -0.598  1.00  0.00     0.133 C 
HETATM    9  C6  UNL     1      -0.153  -2.274  -0.417  1.00  0.00     0.076 C 
HETATM   10  C7  UNL     1      -1.591  -2.319  -0.024  1.00  0.00     0.091 C 
HETATM   11  N3  UNL     1      -2.347  -2.009  -1.038  1.00  0.00    -0.277 NA
HETATM   12  C8  UNL     1      -3.750  -1.979  -0.917  1.00  0.00     0.112 C 
HETATM   13  C9  UNL     1      -4.701  -1.170  -0.496  1.00  0.00    -0.002 C 
HETATM   14  C10 UNL     1      -5.024   0.140   0.092  1.00  0.00     0.088 C 
HETATM   15  C11 UNL     1      -3.763   0.891   0.326  1.00  0.00     0.058 A 
HETATM   16  C12 UNL     1      -3.695   2.252   0.573  1.00  0.00     0.048 A 
HETATM   17  C13 UNL     1      -2.477   2.905   0.785  1.00  0.00     0.138 A 
HETATM   18  N4  UNL     1      -1.316   2.184   0.750  1.00  0.00    -0.075 NA
HETATM   19  C14 UNL     1      -1.426   0.865   0.507  1.00  0.00     0.725 A 
HETATM   20  N5  UNL     1      -2.594   0.249   0.305  1.00  0.00    -0.067 NA
HETATM   21  N6  UNL     1      -0.238   0.042   0.454  1.00  0.00    -0.205 N 
HETATM   22  C15 UNL     1       0.548   0.139   1.641  1.00  0.00     0.150 C 
HETATM   23  C16 UNL     1       1.785   1.001   1.449  1.00  0.00     0.096 C 
HETATM   24  H6  UNL     1       2.290   2.527  -1.444  1.00  0.00     0.165 HD
ENDROOT
TORSDOF 0
