REMARK  5 active torsions:
REMARK  status: ('A' for Active; 'I' for Inactive)
REMARK    1  A    between atoms: C3_3  and  N1_4 
REMARK       I    between atoms: N1_4  and  C4_5 
REMARK    2  A    between atoms: C4_5  and  C5_7 
REMARK    3  A    between atoms: C12_14  and  N2_15 
REMARK    4  A    between atoms: C16_20  and  C17_21 
REMARK    5  A    between atoms: C17_21  and  C18_22 
ROOT
HETATM    1  C1  UNL     1       3.112   3.315  -1.054  1.00  0.00     0.046 C 
HETATM    2  C2  UNL     1       1.863   2.514  -1.033  1.00  0.00    -0.051 A 
HETATM    3  C3  UNL     1       1.802   1.197  -0.933  1.00  0.00     0.039 A 
HETATM    4  C11 UNL     1       0.376   0.898  -0.956  1.00  0.00     0.055 A 
HETATM    5  C12 UNL     1      -0.382   1.976  -1.065  1.00  0.00     0.019 A 
HETATM    6  C23 UNL     1       0.526   3.151  -1.127  1.00  0.00     0.093 A 
ENDROOT
BRANCH   5   7
HETATM    7  N2  UNL     1      -1.818   2.086  -1.122  1.00  0.00    -0.336 N 
HETATM    8  C13 UNL     1      -2.408   3.212  -1.777  1.00  0.00     0.210 A 
HETATM    9  N3  UNL     1      -3.670   3.431  -1.900  1.00  0.00    -0.256 NA
HETATM   10  C14 UNL     1      -4.558   2.469  -1.333  1.00  0.00     0.116 A 
HETATM   11  C15 UNL     1      -4.045   1.410  -0.716  1.00  0.00     0.018 A 
HETATM   12  C16 UNL     1      -2.618   1.040  -0.505  1.00  0.00     0.120 A 
BRANCH  12  13
HETATM   13  C17 UNL     1      -2.304   1.055   0.995  1.00  0.00     0.084 C 
BRANCH  13  14
HETATM   14  C18 UNL     1      -3.095  -0.000   1.697  1.00  0.00     0.009 A 
HETATM   15  N4  UNL     1      -3.896   0.393   2.608  1.00  0.00    -0.271 NA
HETATM   16  C19 UNL     1      -4.735  -0.410   3.396  1.00  0.00     0.101 A 
HETATM   17  C20 UNL     1      -4.679  -1.706   3.157  1.00  0.00    -0.063 A 
HETATM   18  B1  UNL     1      -3.762  -2.359   2.085  1.00  0.00     0.193 B 
HETATM   19  C21 UNL     1      -2.832  -1.389   1.225  1.00  0.00    -0.010 A 
HETATM   20  H19 UNL     1      -4.054  -3.437   1.661  1.00  0.00    -0.021 HD
HETATM   21  C22 UNL     1      -1.392  -1.749   1.589  1.00  0.00     0.005 C 
ENDBRANCH  13  14
ENDBRANCH  12  13
ENDBRANCH   5   7
BRANCH   3  22
HETATM   22  N1  UNL     1       2.889   0.308  -0.828  1.00  0.00    -0.323 N 
HETATM   23  C4  UNL     1       2.725  -1.098  -0.724  1.00  0.00     0.256 C 
HETATM   24  O1  UNL     1       1.586  -1.631  -0.719  1.00  0.00    -0.267 OA
HETATM   25  H4  UNL     1       3.862   0.685  -0.825  1.00  0.00     0.169 HD
BRANCH  23  26
HETATM   26  C5  UNL     1       3.852  -2.017  -0.615  1.00  0.00     0.032 A 
HETATM   27  C6  UNL     1       3.603  -3.371  -0.521  1.00  0.00     0.017 A 
HETATM   28  C7  UNL     1       4.614  -4.332  -0.414  1.00  0.00     0.001 A 
HETATM   29  C8  UNL     1       5.911  -3.874  -0.404  1.00  0.00     0.000 A 
HETATM   30  C9  UNL     1       6.220  -2.532  -0.496  1.00  0.00     0.001 A 
HETATM   31  C10 UNL     1       5.184  -1.659  -0.597  1.00  0.00     0.017 A 
ENDBRANCH  23  26
ENDBRANCH   3  22
TORSDOF 5
