REMARK  8 active torsions:
REMARK  status: ('A' for Active; 'I' for Inactive)
REMARK    1  A    between atoms: C2_2  and  C3_3 
REMARK    2  A    between atoms: C3_3  and  C15_17 
REMARK    3  A    between atoms: C4_4  and  C5_5 
REMARK    4  A    between atoms: C6_6  and  N1_8 
REMARK       I    between atoms: N1_8  and  C8_9 
REMARK    5  A    between atoms: C8_9  and  C9_11 
REMARK    6  A    between atoms: C15_17  and  N2_18 
REMARK    7  A    between atoms: N2_18  and  C16_19 
REMARK    8  A    between atoms: C19_23  and  C20_24 
ROOT
HETATM    1  C3  UNL     1       0.571   0.274  -2.564  1.00  0.00    -0.062 C 
HETATM    2  C4  UNL     1      -0.174  -0.257  -1.631  1.00  0.00     0.006 C 
ENDROOT
BRANCH   1   3
HETATM    3  C2  UNL     1       0.316   1.064  -3.784  1.00  0.00     0.031 C 
HETATM    4  C1  UNL     1      -1.161   1.275  -3.947  1.00  0.00     0.010 C 
ENDBRANCH   1   3
BRANCH   1   5
HETATM    5  C15 UNL     1       2.038   0.117  -2.492  1.00  0.00     0.172 C 
BRANCH   5   6
HETATM    6  N2  UNL     1       2.423  -0.598  -1.299  1.00  0.00    -0.218 N 
HETATM    7  H19 UNL     1       2.627  -1.633  -1.399  1.00  0.00     0.178 HD
BRANCH   6   8
HETATM    8  C16 UNL     1       2.594  -0.190   0.079  1.00  0.00     0.723 A 
HETATM    9  N3  UNL     1       1.832   0.117   1.128  1.00  0.00    -0.075 NA
HETATM   10  C17 UNL     1       2.312   0.449   2.317  1.00  0.00     0.139 A 
HETATM   11  C18 UNL     1       3.663   0.499   2.554  1.00  0.00     0.053 A 
HETATM   12  C19 UNL     1       4.462   0.187   1.490  1.00  0.00     0.089 A 
HETATM   13  N5  UNL     1       3.927  -0.140   0.313  1.00  0.00    -0.062 NA
BRANCH  12  14
HETATM   14  C20 UNL     1       5.907   0.211   1.699  1.00  0.00     0.011 A 
HETATM   15  C21 UNL     1       6.693  -0.130   0.613  1.00  0.00     0.017 A 
HETATM   16  C22 UNL     1       8.072  -0.170   0.605  1.00  0.00     0.020 A 
HETATM   17  C23 UNL     1       8.656   0.174   1.830  1.00  0.00     0.116 A 
HETATM   18  N4  UNL     1       7.894   0.507   2.891  1.00  0.00    -0.272 NA
HETATM   19  C24 UNL     1       6.554   0.534   2.856  1.00  0.00     0.130 A 
ENDBRANCH  12  14
ENDBRANCH   6   8
ENDBRANCH   5   6
ENDBRANCH   1   5
BRANCH   2  20
HETATM   20  C5  UNL     1      -1.413  -0.578  -0.964  1.00  0.00     0.025 C 
HETATM   21  C6  UNL     1      -2.112  -1.129  -0.005  1.00  0.00     0.008 C 
HETATM   22  C7  UNL     1      -1.456  -1.890   1.110  1.00  0.00     0.068 C 
BRANCH  21  23
HETATM   23  N1  UNL     1      -3.515  -0.972  -0.068  1.00  0.00    -0.327 N 
HETATM   24  C8  UNL     1      -4.306  -0.323   0.937  1.00  0.00     0.255 C 
HETATM   25  O1  UNL     1      -3.607   0.098   1.897  1.00  0.00    -0.267 OA
HETATM   26  H11 UNL     1      -4.027  -1.360  -0.917  1.00  0.00     0.169 HD
BRANCH  24  27
HETATM   27  C9  UNL     1      -5.754  -0.171   0.851  1.00  0.00     0.032 A 
HETATM   28  C10 UNL     1      -6.564  -0.639  -0.172  1.00  0.00     0.017 A 
HETATM   29  C11 UNL     1      -7.922  -0.423  -0.135  1.00  0.00     0.001 A 
HETATM   30  C12 UNL     1      -8.529   0.266   0.920  1.00  0.00     0.000 A 
HETATM   31  C13 UNL     1      -7.715   0.735   1.946  1.00  0.00     0.001 A 
HETATM   32  C14 UNL     1      -6.355   0.508   1.890  1.00  0.00     0.017 A 
ENDBRANCH  24  27
ENDBRANCH  21  23
ENDBRANCH   2  20
TORSDOF 8
