REMARK  11 active torsions:
REMARK  status: ('A' for Active; 'I' for Inactive)
REMARK    1  A    between atoms: O1_2  and  C2_3 
REMARK    2  A    between atoms: C7_8  and  C8_9 
REMARK       I    between atoms: C8_9  and  N1_11 
REMARK    3  A    between atoms: C10_13  and  N2_14 
REMARK    4  A    between atoms: C11_15  and  C12_16 
REMARK    5  A    between atoms: C12_16  and  N3_17 
REMARK    6  A    between atoms: N3_17  and  C13_18 
REMARK    7  A    between atoms: C13_18  and  C14_19 
REMARK    8  A    between atoms: C14_19  and  C15_20 
REMARK    9  A    between atoms: C16_21  and  C17_22 
REMARK   10  A    between atoms: C17_22  and  C18_23 
REMARK   11  A    between atoms: C18_23  and  N4_24 
ROOT
HETATM    1  C8  UNL     1      -3.905  -0.767  -0.546  1.00  0.00     0.260 C 
HETATM    2  O2  UNL     1      -4.155  -1.102  -1.753  1.00  0.00    -0.267 OA
HETATM    3  N1  UNL     1      -2.647  -0.212  -0.176  1.00  0.00    -0.318 N 
HETATM    4  C9  UNL     1      -1.718  -0.071  -1.244  1.00  0.00     0.124 A 
HETATM    5  C10 UNL     1      -0.522   0.435  -0.906  1.00  0.00     0.050 A 
HETATM    6  C11 UNL     1      -0.226   0.812   0.463  1.00  0.00    -0.003 A 
HETATM    7  C19 UNL     1      -1.130   0.665   1.417  1.00  0.00     0.005 A 
HETATM    8  C20 UNL     1      -2.479   0.131   1.222  1.00  0.00     0.160 A 
ENDROOT
BRANCH   6   9
HETATM    9  C12 UNL     1       1.158   1.374   0.746  1.00  0.00     0.257 C 
BRANCH   9  10
HETATM   10  N3  UNL     1       2.169   0.554   0.460  1.00  0.00    -0.460 NA
BRANCH  10  11
HETATM   11  C13 UNL     1       2.990  -0.200   0.273  1.00  0.00     0.151 C 
BRANCH  11  12
HETATM   12  C14 UNL     1       4.018   0.254  -0.703  1.00  0.00     0.085 C 
BRANCH  12  13
HETATM   13  C15 UNL     1       4.997  -0.843  -0.854  1.00  0.00    -0.025 C 
HETATM   14  C16 UNL     1       6.278  -0.727  -0.568  1.00  0.00    -0.029 C 
BRANCH  14  15
HETATM   15  C17 UNL     1       7.119   0.383  -0.057  1.00  0.00     0.056 C 
BRANCH  15  16
HETATM   16  C18 UNL     1       8.213   0.727  -1.031  1.00  0.00     0.270 C 
BRANCH  16  17
HETATM   17  N4  UNL     1       9.043  -0.424  -1.235  1.00  0.00     0.078 N 
HETATM   18  H22 UNL     1       9.297  -0.528  -2.262  1.00  0.00     0.312 HD
HETATM   19  H23 UNL     1       9.971  -0.196  -0.766  1.00  0.00     0.312 HD
ENDBRANCH  16  17
ENDBRANCH  15  16
ENDBRANCH  14  15
ENDBRANCH  12  13
ENDBRANCH  11  12
ENDBRANCH  10  11
ENDBRANCH   9  10
ENDBRANCH   6   9
BRANCH   5  20
HETATM   20  N2  UNL     1       0.445   0.603  -1.904  1.00  0.00    -0.397 N 
HETATM   21  H9  UNL     1       1.118   1.419  -1.798  1.00  0.00     0.156 HD
HETATM   22  H10 UNL     1       0.620   0.041  -2.760  1.00  0.00     0.156 HD
ENDBRANCH   5  20
BRANCH   1  23
HETATM   23  C7  UNL     1      -5.052  -1.037   0.306  1.00  0.00     0.065 A 
HETATM   24  C2  UNL     1      -6.122  -0.233   0.637  1.00  0.00     0.084 A 
HETATM   25  C3  UNL     1      -7.087  -0.749   1.481  1.00  0.00     0.038 A 
HETATM   26  C4  UNL     1      -7.016  -2.026   1.997  1.00  0.00     0.003 A 
HETATM   27  C5  UNL     1      -5.951  -2.836   1.672  1.00  0.00     0.001 A 
HETATM   28  C6  UNL     1      -4.964  -2.332   0.820  1.00  0.00     0.020 A 
BRANCH  24  29
HETATM   29  O1  UNL     1      -6.071   1.005   0.060  1.00  0.00    -0.355 OA
HETATM   30  C1  UNL     1      -7.032   2.023   0.227  1.00  0.00     0.210 C 
ENDBRANCH  24  29
ENDBRANCH   1  23
TORSDOF 11
