REMARK  6 active torsions:
REMARK  status: ('A' for Active; 'I' for Inactive)
REMARK    1  A    between atoms: C5_5  and  O1_6 
REMARK    2  A    between atoms: C7_8  and  N1_9 
REMARK    3  A    between atoms: N1_9  and  C8_10 
REMARK    4  A    between atoms: N4_21  and  N5_22 
REMARK    5  A    between atoms: N5_22  and  C17_23 
REMARK    6  A    between atoms: C17_23  and  C18_24 
ROOT
HETATM    1  C8  UNL     1      -1.063   0.876  -0.158  1.00  0.00     0.726 C 
HETATM    2  N2  UNL     1      -1.614   1.104  -1.299  1.00  0.00    -0.075 NA
HETATM    3  C9  UNL     1      -1.353   1.821  -2.514  1.00  0.00     0.132 C 
HETATM    4  C10 UNL     1      -0.171   2.322  -2.918  1.00  0.00    -0.002 C 
HETATM    5  C11 UNL     1       1.256   2.523  -2.657  1.00  0.00     0.071 C 
HETATM    6  C12 UNL     1       1.636   2.501  -1.232  1.00  0.00    -0.008 A 
HETATM    7  C13 UNL     1       2.822   3.243  -1.260  1.00  0.00     0.126 A 
HETATM    8  N3  UNL     1       3.587   3.521  -0.167  1.00  0.00    -0.272 NA
HETATM    9  C14 UNL     1       3.140   3.030   1.013  1.00  0.00     0.118 A 
HETATM   10  C15 UNL     1       1.997   2.292   1.172  1.00  0.00     0.052 A 
HETATM   11  C16 UNL     1       1.282   2.055   0.024  1.00  0.00     0.083 A 
HETATM   12  N4  UNL     1       0.161   1.283   0.441  1.00  0.00    -0.088 N 
ENDROOT
BRANCH   1  13
HETATM   13  N1  UNL     1      -1.895   0.049   0.609  1.00  0.00    -0.188 N 
HETATM   14  H8  UNL     1      -1.857   0.231   1.639  1.00  0.00     0.184 HD
BRANCH  13  15
HETATM   15  C7  UNL     1      -2.740  -0.977   0.126  1.00  0.00     0.058 A 
HETATM   16  C2  UNL     1      -3.552  -1.660   1.035  1.00  0.00    -0.035 A 
HETATM   17  C1  UNL     1      -3.503  -1.264   2.481  1.00  0.00     0.050 C 
HETATM   18  C3  UNL     1      -4.405  -2.681   0.692  1.00  0.00     0.012 A 
HETATM   19  C4  UNL     1      -4.494  -3.087  -0.620  1.00  0.00     0.037 A 
HETATM   20  C5  UNL     1      -3.718  -2.452  -1.562  1.00  0.00     0.067 A 
HETATM   21  C6  UNL     1      -2.889  -1.442  -1.152  1.00  0.00     0.067 A 
BRANCH  20  22
HETATM   22  O1  UNL     1      -3.779  -2.833  -2.895  1.00  0.00    -0.361 OA
HETATM   23  H6  UNL     1      -3.843  -3.823  -3.175  1.00  0.00     0.217 HD
ENDBRANCH  20  22
ENDBRANCH  13  15
ENDBRANCH   1  13
BRANCH  12  24
HETATM   24  N5  UNL     1       0.233   0.794   1.722  1.00  0.00    -0.311 N 
HETATM   25  H16 UNL     1      -0.286   1.247   2.460  1.00  0.00     0.181 HD
BRANCH  24  26
HETATM   26  C17 UNL     1       0.629  -0.559   1.858  1.00  0.00     0.179 C 
BRANCH  26  27
HETATM   27  C18 UNL     1       1.982  -0.861   1.304  1.00  0.00    -0.039 A 
HETATM   28  C19 UNL     1       2.041  -1.248  -0.040  1.00  0.00     0.009 A 
HETATM   29  C20 UNL     1       3.243  -1.555  -0.667  1.00  0.00     0.001 A 
HETATM   30  C21 UNL     1       4.407  -1.471   0.070  1.00  0.00     0.000 A 
HETATM   31  C22 UNL     1       4.377  -1.091   1.402  1.00  0.00     0.001 A 
HETATM   32  C23 UNL     1       3.168  -0.793   1.994  1.00  0.00     0.009 A 
ENDBRANCH  26  27
ENDBRANCH  24  26
ENDBRANCH  12  24
TORSDOF 6
