REMARK  5 active torsions:
REMARK  status: ('A' for Active; 'I' for Inactive)
REMARK    1  A    between atoms: C3_3  and  C4_4 
REMARK    2  A    between atoms: C11_14  and  N3_15 
REMARK    3  A    between atoms: C12_16  and  C13_17 
REMARK    4  A    between atoms: C18_23  and  O2_24 
REMARK    5  A    between atoms: C21_27  and  N5_28 
ROOT
HETATM    1  C4  UNL     1      -1.478   1.736   0.679  1.00  0.00     0.033 A 
HETATM    2  C5  UNL     1      -1.428   0.462   0.365  1.00  0.00     0.040 A 
HETATM    3  C6  UNL     1      -2.300  -0.371   1.209  1.00  0.00    -0.053 A 
HETATM    4  O1  UNL     1      -2.106   0.843   1.224  1.00  0.00     0.000 OA
HETATM    5  C7  UNL     1      -2.883  -1.661   1.628  1.00  0.00     0.064 A 
HETATM    6  C8  UNL     1      -2.086  -2.326   2.717  1.00  0.00     0.001 C 
HETATM    7  C9  UNL     1      -0.802  -2.538   2.573  1.00  0.00     0.085 C 
HETATM    8  N1  UNL     1      -0.532  -2.862   1.216  1.00  0.00    -0.360 N 
HETATM    9  C10 UNL     1       0.677  -3.120   0.473  1.00  0.00     0.275 C 
HETATM   10  N2  UNL     1       1.333  -1.835   0.176  1.00  0.00    -0.253 NA
HETATM   11  C11 UNL     1       0.595  -0.848  -0.288  1.00  0.00     0.152 C 
HETATM   12  C18 UNL     1      -0.537  -0.033  -0.769  1.00  0.00     0.206 C 
HETATM   13  C20 UNL     1      -1.895  -2.737   0.910  1.00  0.00     0.060 A 
HETATM   14  C21 UNL     1      -1.927  -3.281  -0.501  1.00  0.00     0.109 A 
HETATM   15  C22 UNL     1      -3.091  -2.650   0.536  1.00  0.00     0.043 A 
ENDROOT
BRANCH  11  16
HETATM   16  N3  UNL     1       1.929  -0.302  -0.209  1.00  0.00    -0.242 NA
HETATM   17  C12 UNL     1       2.477  -0.005  -1.353  1.00  0.00     0.131 C 
BRANCH  17  18
HETATM   18  C13 UNL     1       3.805   0.541  -1.355  1.00  0.00    -0.001 A 
HETATM   19  C14 UNL     1       4.553   0.769  -0.199  1.00  0.00     0.016 A 
HETATM   20  C15 UNL     1       5.820   1.294  -0.247  1.00  0.00     0.020 A 
HETATM   21  C16 UNL     1       6.399   1.617  -1.466  1.00  0.00     0.116 A 
HETATM   22  N4  UNL     1       5.718   1.418  -2.634  1.00  0.00    -0.272 NA
HETATM   23  C17 UNL     1       4.477   0.898  -2.503  1.00  0.00     0.129 A 
ENDBRANCH  17  18
ENDBRANCH  11  16
BRANCH  12  24
HETATM   24  O2  UNL     1       0.014   1.119  -1.380  1.00  0.00    -0.382 OA
HETATM   25  C19 UNL     1      -0.467   1.243  -2.684  1.00  0.00     0.202 C 
ENDBRANCH  12  24
BRANCH   1  26
HETATM   26  C3  UNL     1      -1.749   3.044   1.259  1.00  0.00    -0.024 C 
HETATM   27  C2  UNL     1      -1.479   4.361   1.207  1.00  0.00    -0.034 C 
HETATM   28  C1  UNL     1      -2.163   5.236   2.183  1.00  0.00     0.036 C 
ENDBRANCH   1  26
BRANCH  14  29
HETATM   29  N5  UNL     1      -3.247  -3.248  -1.084  1.00  0.00    -0.332 N 
HETATM   30  H23 UNL     1      -3.132  -2.974  -2.094  1.00  0.00     0.118 HD
HETATM   31  H24 UNL     1      -3.638  -4.238  -1.088  1.00  0.00     0.118 HD
ENDBRANCH  14  29
TORSDOF 5
