REMARK  0 active torsions:
REMARK  status: ('A' for Active; 'I' for Inactive)
ROOT
HETATM    1  C1  UNL     1       4.819   1.270  -0.702  1.00  0.00     0.085 C 
HETATM    2  C2  UNL     1       3.444   0.668  -0.811  1.00  0.00     0.090 C 
HETATM    3  N1  UNL     1       2.579   1.425  -0.592  1.00  0.00    -0.422 NA
HETATM    4  C3  UNL     1       1.537   2.230  -0.355  1.00  0.00     0.486 C 
HETATM    5  N2  UNL     1       0.447   2.155  -1.349  1.00  0.00     0.116 NA
HETATM    6  C4  UNL     1      -0.609   3.085  -0.935  1.00  0.00     0.300 C 
HETATM    7  C5  UNL     1      -1.169   2.499   0.313  1.00  0.00     0.003 C 
HETATM    8  C6  UNL     1      -1.490   2.450   1.589  1.00  0.00    -0.002 C 
HETATM    9  C7  UNL     1      -2.071   1.735   2.670  1.00  0.00     0.000 C 
HETATM   10  C8  UNL     1      -2.612   0.540   2.640  1.00  0.00     0.010 C 
HETATM   11  C9  UNL     1      -2.848  -0.486   1.632  1.00  0.00    -0.024 A 
HETATM   12  C10 UNL     1      -1.907  -1.186   1.023  1.00  0.00     0.082 A 
HETATM   13  C11 UNL     1      -2.274  -2.187   0.031  1.00  0.00     0.034 A 
HETATM   14  C12 UNL     1      -3.580  -2.264  -0.132  1.00  0.00    -0.024 A 
HETATM   15  C13 UNL     1      -4.761  -1.590   0.437  1.00  0.00     0.032 A 
HETATM   16  C14 UNL     1      -4.315  -0.574   1.435  1.00  0.00     0.045 A 
HETATM   17  O1  UNL     1      -0.597  -0.925   1.365  1.00  0.00    -0.304 OA
HETATM   18  C15 UNL     1       0.397  -1.576   0.636  1.00  0.00     0.259 C 
HETATM   19  N3  UNL     1       1.176  -0.829  -0.059  1.00  0.00    -0.236 NA
HETATM   20  C16 UNL     1       2.205  -1.501  -0.813  1.00  0.00     0.074 A 
HETATM   21  C17 UNL     1       2.173  -2.813  -1.196  1.00  0.00     0.052 A 
HETATM   22  C18 UNL     1       3.224  -3.362  -1.925  1.00  0.00     0.118 A 
HETATM   23  N4  UNL     1       4.284  -2.580  -2.252  1.00  0.00    -0.272 NA
HETATM   24  C19 UNL     1       4.328  -1.280  -1.879  1.00  0.00     0.133 A 
HETATM   25  C20 UNL     1       3.285  -0.740  -1.157  1.00  0.00     0.046 A 
HETATM   26  H6  UNL     1       0.793   2.362  -2.295  1.00  0.00     0.319 HD
ENDROOT
TORSDOF 0
