REMARK  3 active torsions:
REMARK  status: ('A' for Active; 'I' for Inactive)
REMARK    1  A    between atoms: O1_2  and  C2_3 
REMARK    2  A    between atoms: C7_8  and  N1_9 
REMARK    3  A    between atoms: C12_17  and  C13_18 
ROOT
HETATM    1  N1  UNL     1       1.952  -0.523  -0.486  1.00  0.00    -0.221 N 
HETATM    2  O2  UNL     1       1.318  -0.684  -1.671  1.00  0.00    -0.253 OA
HETATM    3  C8  UNL     1       1.053  -1.994  -2.001  1.00  0.00     0.325 C 
HETATM    4  N2  UNL     1       0.372  -2.005  -3.296  1.00  0.00    -0.361 N 
HETATM    5  C9  UNL     1      -0.810  -1.242  -3.066  1.00  0.00     0.203 C 
HETATM    6  N3  UNL     1      -1.199  -0.017  -2.947  1.00  0.00    -0.256 NA
HETATM    7  C10 UNL     1      -2.549   0.348  -2.708  1.00  0.00     0.120 C 
HETATM    8  C11 UNL     1      -3.407   0.448  -1.722  1.00  0.00     0.051 C 
HETATM    9  C12 UNL     1      -3.204   0.166  -0.310  1.00  0.00     0.065 C 
HETATM   10  N5  UNL     1      -1.994  -0.213  -0.204  1.00  0.00    -0.273 NA
HETATM   11  C18 UNL     1      -1.422  -0.573   1.001  1.00  0.00     0.113 A 
HETATM   12  C19 UNL     1      -0.578  -0.935   2.111  1.00  0.00     0.041 A 
HETATM   13  C20 UNL     1       0.570  -1.225   2.818  1.00  0.00    -0.010 A 
HETATM   14  C21 UNL     1       1.705  -1.132   2.016  1.00  0.00     0.025 A 
HETATM   15  C22 UNL     1       1.274  -0.767   0.738  1.00  0.00     0.054 A 
HETATM   16  C23 UNL     1      -0.087  -0.643   0.769  1.00  0.00     0.068 A 
HETATM   17  H10 UNL     1       0.514  -2.391  -4.261  1.00  0.00     0.162 HD
ENDROOT
BRANCH   1  18
HETATM   18  C7  UNL     1       3.303  -0.111  -0.318  1.00  0.00     0.096 A 
HETATM   19  C2  UNL     1       3.662   1.024   0.370  1.00  0.00     0.097 A 
HETATM   20  C3  UNL     1       5.006   1.336   0.477  1.00  0.00     0.039 A 
HETATM   21  C4  UNL     1       5.995   0.555  -0.079  1.00  0.00     0.003 A 
HETATM   22  C5  UNL     1       5.644  -0.586  -0.772  1.00  0.00     0.002 A 
HETATM   23  C6  UNL     1       4.285  -0.901  -0.879  1.00  0.00     0.035 A 
BRANCH  19  24
HETATM   24  O1  UNL     1       2.628   1.772   0.909  1.00  0.00    -0.354 OA
HETATM   25  C1  UNL     1       3.006   2.951   1.623  1.00  0.00     0.210 C 
ENDBRANCH  19  24
ENDBRANCH   1  18
BRANCH   9  26
HETATM   26  C13 UNL     1      -4.334   0.363   0.578  1.00  0.00     0.010 A 
HETATM   27  C14 UNL     1      -5.564   0.800   0.144  1.00  0.00     0.017 A 
HETATM   28  C15 UNL     1      -6.589   0.964   1.045  1.00  0.00     0.020 A 
HETATM   29  C16 UNL     1      -6.463   0.713   2.392  1.00  0.00     0.116 A 
HETATM   30  N4  UNL     1      -5.263   0.290   2.798  1.00  0.00    -0.272 NA
HETATM   31  C17 UNL     1      -4.277   0.133   1.927  1.00  0.00     0.130 A 
ENDBRANCH   9  26
TORSDOF 3
