REMARK  7 active torsions:
REMARK  status: ('A' for Active; 'I' for Inactive)
REMARK    1  A    between atoms: C2_2  and  N1_3 
REMARK    2  A    between atoms: C2_2  and  C20_25 
REMARK    3  A    between atoms: N1_3  and  C3_4 
REMARK    4  A    between atoms: C9_10  and  N2_11 
REMARK    5  A    between atoms: N2_11  and  C10_12 
REMARK    6  A    between atoms: C13_16  and  C14_17 
REMARK    7  A    between atoms: C25_30  and  O1_31 
ROOT
HETATM    1  C3  UNL     1       2.003  -1.235   0.053  1.00  0.00     0.198 C 
HETATM    2  C4  UNL     1       1.192  -0.302   0.485  1.00  0.00    -0.012 A 
HETATM    3  C5  UNL     1       1.629   0.551   1.586  1.00  0.00     0.015 A 
HETATM    4  C6  UNL     1       0.754   1.467   1.963  1.00  0.00    -0.077 A 
HETATM    5  C7  UNL     1       1.109   2.389   3.082  1.00  0.00     0.044 C 
HETATM    6  C8  UNL     1      -0.604   1.759   1.438  1.00  0.00     0.091 A 
HETATM    7  C9  UNL     1      -0.876   0.802   0.335  1.00  0.00     0.031 A 
HETATM    8  C19 UNL     1      -0.112  -0.161  -0.156  1.00  0.00     0.038 A 
ENDROOT
BRANCH   7   9
HETATM    9  N2  UNL     1      -2.169   1.036  -0.208  1.00  0.00    -0.192 N 
HETATM   10  H11 UNL     1      -2.314   1.821  -0.894  1.00  0.00     0.184 HD
BRANCH   9  11
HETATM   11  C10 UNL     1      -3.229   0.209   0.188  1.00  0.00     0.727 A 
HETATM   12  N3  UNL     1      -2.988  -0.784   1.072  1.00  0.00    -0.075 NA
HETATM   13  C11 UNL     1      -4.021  -1.561   1.434  1.00  0.00     0.139 A 
HETATM   14  C12 UNL     1      -5.281  -1.343   0.912  1.00  0.00     0.053 A 
HETATM   15  C13 UNL     1      -5.521  -0.328   0.010  1.00  0.00     0.089 A 
HETATM   16  N5  UNL     1      -4.475   0.425  -0.327  1.00  0.00    -0.062 NA
BRANCH  15  17
HETATM   17  C14 UNL     1      -6.819  -0.033  -0.585  1.00  0.00     0.011 A 
HETATM   18  C15 UNL     1      -6.872   1.023  -1.469  1.00  0.00     0.017 A 
HETATM   19  C16 UNL     1      -8.085   1.358  -2.075  1.00  0.00     0.020 A 
HETATM   20  C17 UNL     1      -9.215   0.599  -1.754  1.00  0.00     0.116 A 
HETATM   21  N4  UNL     1      -9.158  -0.443  -0.880  1.00  0.00    -0.272 NA
HETATM   22  C18 UNL     1      -7.966  -0.743  -0.309  1.00  0.00     0.130 A 
ENDBRANCH  15  17
ENDBRANCH   9  11
ENDBRANCH   7   9
BRANCH   1  23
HETATM   23  N1  UNL     1       3.291  -1.449   0.612  1.00  0.00    -0.080 N 
HETATM   24  H3  UNL     1       3.655  -1.136   1.534  1.00  0.00     0.271 HD
BRANCH  23  25
HETATM   25  C2  UNL     1       4.312  -2.169  -0.066  1.00  0.00     0.115 C 
HETATM   26  C1  UNL     1       4.084  -3.412   0.322  1.00  0.00     0.465 C 
BRANCH  25  27
HETATM   27  C20 UNL     1       5.304  -1.570  -0.944  1.00  0.00     0.027 A 
HETATM   28  C21 UNL     1       6.235  -2.397  -1.534  1.00  0.00     0.016 A 
HETATM   29  C22 UNL     1       7.139  -1.738  -2.354  1.00  0.00     0.001 A 
HETATM   30  C23 UNL     1       7.111  -0.366  -2.563  1.00  0.00     0.003 A 
HETATM   31  C24 UNL     1       6.143   0.394  -1.933  1.00  0.00     0.037 A 
HETATM   32  C25 UNL     1       5.215  -0.223  -1.102  1.00  0.00     0.080 A 
BRANCH  32  33
HETATM   33  O1  UNL     1       4.261   0.563  -0.487  1.00  0.00    -0.355 OA
HETATM   34  C26 UNL     1       4.191   1.962  -0.668  1.00  0.00     0.210 C 
ENDBRANCH  32  33
ENDBRANCH  25  27
ENDBRANCH  23  25
ENDBRANCH   1  23
TORSDOF 7
