REMARK  5 active torsions:
REMARK  status: ('A' for Active; 'I' for Inactive)
REMARK    1  A    between atoms: C5_5  and  N1_6 
REMARK       I    between atoms: N1_6  and  C6_7 
REMARK    2  A    between atoms: C6_7  and  C7_9 
REMARK    3  A    between atoms: C13_15  and  N2_16 
REMARK    4  A    between atoms: N2_16  and  C14_17 
REMARK    5  A    between atoms: C17_21  and  C18_22 
ROOT
HETATM    1  C1  UNL     1      -0.744  -1.789   3.781  1.00  0.00     0.050 C 
HETATM    2  C2  UNL     1       0.355  -1.213   2.949  1.00  0.00    -0.035 A 
HETATM    3  C3  UNL     1       1.652  -1.319   3.394  1.00  0.00     0.011 A 
HETATM    4  C4  UNL     1       2.707  -0.806   2.669  1.00  0.00     0.030 A 
HETATM    5  C5  UNL     1       2.431  -0.178   1.474  1.00  0.00     0.037 A 
HETATM    6  C12 UNL     1       1.115  -0.100   1.077  1.00  0.00     0.060 A 
HETATM    7  C13 UNL     1       0.021  -0.590   1.754  1.00  0.00     0.057 A 
ENDROOT
BRANCH   7   8
HETATM    8  N2  UNL     1      -1.323  -0.497   1.323  1.00  0.00    -0.188 N 
HETATM    9  H13 UNL     1      -2.025  -0.929   1.972  1.00  0.00     0.184 HD
BRANCH   8  10
HETATM   10  C14 UNL     1      -1.816   0.103   0.138  1.00  0.00     0.727 A 
HETATM   11  N3  UNL     1      -1.110   0.707  -0.823  1.00  0.00    -0.075 NA
HETATM   12  C15 UNL     1      -1.596   1.265  -1.933  1.00  0.00     0.139 A 
HETATM   13  C16 UNL     1      -2.948   1.219  -2.110  1.00  0.00     0.053 A 
HETATM   14  C17 UNL     1      -3.738   0.613  -1.162  1.00  0.00     0.089 A 
HETATM   15  N5  UNL     1      -3.139   0.085  -0.087  1.00  0.00    -0.062 NA
BRANCH  14  16
HETATM   16  C18 UNL     1      -5.187   0.513  -1.261  1.00  0.00     0.011 A 
HETATM   17  C19 UNL     1      -5.874  -0.118  -0.249  1.00  0.00     0.017 A 
HETATM   18  C20 UNL     1      -7.258  -0.265  -0.250  1.00  0.00     0.020 A 
HETATM   19  C21 UNL     1      -7.905   0.266  -1.340  1.00  0.00     0.116 A 
HETATM   20  N4  UNL     1      -7.242   0.885  -2.337  1.00  0.00    -0.272 NA
HETATM   21  C22 UNL     1      -5.917   1.013  -2.312  1.00  0.00     0.130 A 
ENDBRANCH  14  16
ENDBRANCH   8  10
ENDBRANCH   7   8
BRANCH   5  22
HETATM   22  N1  UNL     1       3.500   0.361   0.705  1.00  0.00    -0.323 N 
HETATM   23  C6  UNL     1       4.137  -0.458  -0.265  1.00  0.00     0.252 C 
HETATM   24  O1  UNL     1       3.693  -1.642  -0.377  1.00  0.00    -0.268 OA
HETATM   25  H6  UNL     1       3.887   1.335   0.777  1.00  0.00     0.169 HD
BRANCH  23  26
HETATM   26  C7  UNL     1       5.248  -0.039  -1.128  1.00  0.00     0.013 A 
HETATM   27  C8  UNL     1       5.935  -0.691  -2.070  1.00  0.00     0.013 A 
HETATM   28  C9  UNL     1       6.933   0.198  -2.614  1.00  0.00    -0.003 A 
HETATM   29  C10 UNL     1       6.890   1.370  -2.047  1.00  0.00    -0.022 A 
HETATM   30  C11 UNL     1       5.802   1.338  -1.033  1.00  0.00     0.071 A 
ENDBRANCH  23  26
ENDBRANCH   5  22
TORSDOF 5
