REMARK  1 active torsions:
REMARK  status: ('A' for Active; 'I' for Inactive)
REMARK    1  A    between atoms: C4_5  and  N1_6 
ROOT
HETATM    1  N1  UNL     1      -1.699  -0.793   0.437  1.00  0.00    -0.254 N 
HETATM    2  N2  UNL     1      -2.155  -1.870   1.204  1.00  0.00    -0.287 N 
HETATM    3  C5  UNL     1      -1.341  -2.958   1.662  1.00  0.00     0.227 A 
HETATM    4  N3  UNL     1      -0.101  -2.951   1.350  1.00  0.00    -0.216 NA
HETATM    5  C6  UNL     1       0.467  -1.886   0.561  1.00  0.00     0.197 A 
HETATM    6  C7  UNL     1      -0.324  -0.889   0.151  1.00  0.00     0.115 A 
HETATM    7  C8  UNL     1       0.151   0.228  -0.693  1.00  0.00     0.334 C 
HETATM    8  N4  UNL     1       1.087   0.984   0.084  1.00  0.00     0.103 N 
HETATM    9  C9  UNL     1       2.428   0.550  -0.146  1.00  0.00     0.300 C 
HETATM   10  C10 UNL     1       3.390   1.334   0.681  1.00  0.00     0.011 C 
HETATM   11  C11 UNL     1       4.657   0.979   0.856  1.00  0.00    -0.024 C 
HETATM   12  C12 UNL     1       5.030  -0.279   0.148  1.00  0.00     0.056 C 
HETATM   13  C13 UNL     1       3.929  -1.287   0.278  1.00  0.00     0.012 C 
HETATM   14  C14 UNL     1       2.667  -0.888   0.136  1.00  0.00     0.089 C 
HETATM   15  O1  UNL     1       1.851  -2.028   0.305  1.00  0.00    -0.292 OA
HETATM   16  H3  UNL     1      -3.170  -1.952   1.506  1.00  0.00     0.188 HD
HETATM   17  H7  UNL     1       1.009   1.973  -0.173  1.00  0.00     0.317 HD
ENDROOT
BRANCH   1  18
HETATM   18  C4  UNL     1      -2.602   0.200   0.058  1.00  0.00     0.058 A 
HETATM   19  C3  UNL     1      -3.812  -0.337  -0.401  1.00  0.00     0.034 A 
HETATM   20  C2  UNL     1      -4.870   0.455  -0.813  1.00  0.00     0.046 A 
HETATM   21  C1  UNL     1      -4.762   1.828  -0.784  1.00  0.00     0.138 A 
HETATM   22  F1  UNL     1      -5.719   2.711  -1.158  1.00  0.00    -0.204 F 
HETATM   23  C16 UNL     1      -3.579   2.374  -0.334  1.00  0.00     0.074 A 
HETATM   24  C15 UNL     1      -2.531   1.578   0.075  1.00  0.00     0.058 A 
HETATM   25 CL1  UNL     1      -3.346   4.110  -0.260  1.00  0.00    -0.081 Cl
ENDBRANCH   1  18
TORSDOF 1
