REMARK  6 active torsions:
REMARK  status: ('A' for Active; 'I' for Inactive)
REMARK    1  A    between atoms: O1_2  and  C2_3 
REMARK    2  A    between atoms: C7_8  and  C8_9 
REMARK       I    between atoms: C8_9  and  N1_11 
REMARK    3  A    between atoms: N1_11  and  C9_12 
REMARK    4  A    between atoms: C9_12  and  C10_13 
REMARK    5  A    between atoms: C15_18  and  N2_19 
REMARK    6  A    between atoms: N2_19  and  C16_20 
ROOT
HETATM    1  C10 UNL     1      -0.898  -2.613  -0.352  1.00  0.00    -0.038 A 
HETATM    2  C11 UNL     1      -0.496  -3.156  -1.533  1.00  0.00     0.009 A 
HETATM    3  C12 UNL     1       0.780  -2.868  -1.987  1.00  0.00     0.009 A 
HETATM    4  C13 UNL     1       1.651  -2.063  -1.306  1.00  0.00    -0.035 A 
HETATM    5  C14 UNL     1       2.984  -1.805  -1.920  1.00  0.00     0.050 C 
HETATM    6  C15 UNL     1       1.254  -1.500  -0.088  1.00  0.00     0.039 A 
HETATM    7  C25 UNL     1      -0.049  -1.801   0.365  1.00  0.00     0.038 A 
ENDROOT
BRANCH   6   8
HETATM    8  N2  UNL     1       2.124  -0.641   0.687  1.00  0.00    -0.354 N 
HETATM    9  H16 UNL     1       1.547   0.253   0.873  1.00  0.00     0.166 HD
BRANCH   8  10
HETATM   10  C16 UNL     1       3.439  -0.825   1.139  1.00  0.00     0.066 A 
HETATM   11  C17 UNL     1       3.730  -1.962   1.735  1.00  0.00     0.083 A 
HETATM   12  C18 UNL     1       5.141  -1.764   2.037  1.00  0.00     0.145 A 
HETATM   13  N3  UNL     1       5.980  -2.576   2.646  1.00  0.00    -0.282 NA
HETATM   14  N4  UNL     1       5.523  -0.492   1.572  1.00  0.00    -0.227 NA
HETATM   15  H18 UNL     1       6.966  -2.291   2.791  1.00  0.00     0.188 HD
HETATM   16  C19 UNL     1       4.534   0.114   1.019  1.00  0.00     0.097 A 
HETATM   17  C20 UNL     1       4.651   1.428   0.430  1.00  0.00     0.013 A 
HETATM   18  C21 UNL     1       5.841   2.086   0.462  1.00  0.00     0.017 A 
HETATM   19  C24 UNL     1       3.705   2.162  -0.225  1.00  0.00     0.130 A 
HETATM   20  C22 UNL     1       6.151   3.315  -0.056  1.00  0.00     0.020 A 
HETATM   21  C23 UNL     1       5.101   3.941  -0.693  1.00  0.00     0.116 A 
HETATM   22  N5  UNL     1       3.913   3.350  -0.758  1.00  0.00    -0.272 NA
ENDBRANCH   8  10
ENDBRANCH   6   8
BRANCH   1  23
HETATM   23  C9  UNL     1      -2.237  -2.602   0.383  1.00  0.00     0.161 C 
BRANCH  23  24
HETATM   24  N1  UNL     1      -2.755  -1.308   0.075  1.00  0.00    -0.353 N 
HETATM   25  C8  UNL     1      -3.975  -0.707   0.317  1.00  0.00     0.254 C 
HETATM   26  O2  UNL     1      -4.870  -1.407   0.928  1.00  0.00    -0.268 OA
HETATM   27  H8  UNL     1      -2.209  -0.579  -0.402  1.00  0.00     0.163 HD
BRANCH  25  28
HETATM   28  C7  UNL     1      -4.881   0.346   0.275  1.00  0.00     0.065 A 
HETATM   29  C2  UNL     1      -5.710   1.341   0.225  1.00  0.00     0.084 A 
HETATM   30  C3  UNL     1      -6.020   2.605  -0.075  1.00  0.00     0.038 A 
HETATM   31  C4  UNL     1      -4.952   3.260  -0.623  1.00  0.00     0.003 A 
HETATM   32  C5  UNL     1      -3.736   2.570  -0.800  1.00  0.00     0.001 A 
HETATM   33  C6  UNL     1      -3.773   1.199  -0.354  1.00  0.00     0.020 A 
BRANCH  29  34
HETATM   34  O1  UNL     1      -6.654   0.417   0.800  1.00  0.00    -0.355 OA
HETATM   35  C1  UNL     1      -7.968   0.764   1.074  1.00  0.00     0.210 C 
ENDBRANCH  29  34
ENDBRANCH  25  28
ENDBRANCH  23  24
ENDBRANCH   1  23
TORSDOF 6
