REMARK  4 active torsions:
REMARK  status: ('A' for Active; 'I' for Inactive)
REMARK    1  A    between atoms: C4_5  and  N1_6 
REMARK    2  A    between atoms: N1_6  and  C5_7 
REMARK    3  A    between atoms: N2_8  and  C6_9 
REMARK    4  A    between atoms: N3_10  and  C7_11 
ROOT
HETATM    1  C6  UNL     1       1.240   0.580  -0.578  1.00  0.00     0.237 C 
HETATM    2  N3  UNL     1       0.191   0.285  -1.307  1.00  0.00    -0.216 NA
ENDROOT
BRANCH   2   3
HETATM    3  C7  UNL     1      -1.020   0.105  -0.617  1.00  0.00     0.186 C 
HETATM    4  C8  UNL     1      -0.960  -1.072   0.028  1.00  0.00     0.142 C 
HETATM    5  N4  UNL     1      -1.925  -1.719   0.865  1.00  0.00    -0.391 N 
HETATM    6  C9  UNL     1      -3.184  -1.252   1.346  1.00  0.00     0.160 C 
HETATM    7  H7  UNL     1      -1.683  -2.703   1.190  1.00  0.00     0.159 HD
HETATM    8  C10 UNL     1      -3.908  -0.337   0.461  1.00  0.00    -0.005 A 
HETATM    9  C11 UNL     1      -5.272  -0.544   0.538  1.00  0.00     0.035 A 
HETATM   10  C15 UNL     1      -3.478   0.663  -0.406  1.00  0.00     0.086 A 
HETATM   11  C12 UNL     1      -6.241   0.156  -0.171  1.00  0.00     0.034 A 
HETATM   12 CL1  UNL     1      -7.937  -0.184  -0.002  1.00  0.00    -0.084 Cl
HETATM   13  C13 UNL     1      -5.730   1.134  -1.011  1.00  0.00     0.026 A 
HETATM   14  C14 UNL     1      -4.381   1.392  -1.135  1.00  0.00     0.039 A 
HETATM   15  O1  UNL     1      -2.130   0.973  -0.578  1.00  0.00    -0.290 OA
ENDBRANCH   2   3
BRANCH   1  16
HETATM   16  N2  UNL     1       1.036   0.683   0.805  1.00  0.00    -0.237 NA
HETATM   17  C5  UNL     1       1.843   1.111   1.683  1.00  0.00     0.208 C 
BRANCH  17  18
HETATM   18  N1  UNL     1       3.126   1.554   1.283  1.00  0.00    -0.351 N 
HETATM   19  H3  UNL     1       3.446   2.534   1.529  1.00  0.00     0.166 HD
BRANCH  18  20
HETATM   20  C4  UNL     1       4.013   0.705   0.576  1.00  0.00     0.034 A 
HETATM   21  C3  UNL     1       5.175   1.240   0.039  1.00  0.00     0.032 A 
HETATM   22  C2  UNL     1       6.124   0.519  -0.650  1.00  0.00     0.046 A 
HETATM   23  C1  UNL     1       5.941  -0.829  -0.838  1.00  0.00     0.138 A 
HETATM   24  F1  UNL     1       6.843  -1.577  -1.507  1.00  0.00    -0.204 F 
HETATM   25  C17 UNL     1       4.810  -1.422  -0.331  1.00  0.00     0.074 A 
HETATM   26  C16 UNL     1       3.903  -0.642   0.347  1.00  0.00     0.056 A 
HETATM   27 CL2  UNL     1       4.500  -3.134  -0.527  1.00  0.00    -0.081 Cl
ENDBRANCH  18  20
ENDBRANCH  17  18
ENDBRANCH   1  16
TORSDOF 4
