REMARK  5 active torsions:
REMARK  status: ('A' for Active; 'I' for Inactive)
REMARK       I    between atoms: C1_2  and  N1_3 
REMARK    1  A    between atoms: C1_2  and  C17_23 
REMARK    2  A    between atoms: N1_3  and  C2_4 
REMARK    3  A    between atoms: C6_8  and  N2_9 
REMARK    4  A    between atoms: N2_9  and  C7_10 
REMARK    5  A    between atoms: C10_14  and  C11_15 
ROOT
HETATM    1  C2  UNL     1       2.439   1.392  -0.465  1.00  0.00     0.037 A 
HETATM    2  C3  UNL     1       2.702   2.648  -0.975  1.00  0.00     0.029 A 
HETATM    3  C4  UNL     1       1.639   3.386  -1.449  1.00  0.00     0.004 A 
HETATM    4  C5  UNL     1       0.344   2.916  -1.431  1.00  0.00     0.029 A 
HETATM    5  C6  UNL     1       0.069   1.643  -0.915  1.00  0.00     0.031 A 
HETATM    6  C16 UNL     1       1.155   0.932  -0.449  1.00  0.00     0.058 A 
ENDROOT
BRANCH   5   7
HETATM    7  N2  UNL     1      -1.253   1.133  -0.875  1.00  0.00    -0.375 N 
HETATM    8  H5  UNL     1      -2.009   1.786  -1.246  1.00  0.00     0.161 HD
BRANCH   7   9
HETATM    9  C7  UNL     1      -1.738  -0.136  -0.410  1.00  0.00     0.158 A 
HETATM   10  B1  UNL     1      -1.221  -1.374  -1.240  1.00  0.00     0.235 B 
HETATM   11  C8  UNL     1      -2.349  -2.376  -1.714  1.00  0.00    -0.076 A 
HETATM   12  H7  UNL     1      -0.149  -1.828  -1.020  1.00  0.00    -0.018 HD
HETATM   13  C9  UNL     1      -3.625  -2.180  -1.426  1.00  0.00     0.016 A 
HETATM   14  C10 UNL     1      -3.988  -1.010  -0.655  1.00  0.00     0.062 A 
HETATM   15  N4  UNL     1      -3.170  -0.140  -0.224  1.00  0.00    -0.274 NA
BRANCH  14  16
HETATM   16  C11 UNL     1      -5.385  -0.765  -0.320  1.00  0.00     0.010 A 
HETATM   17  C12 UNL     1      -5.784   0.337   0.413  1.00  0.00     0.017 A 
HETATM   18  C13 UNL     1      -7.112   0.550   0.719  1.00  0.00     0.020 A 
HETATM   19  C14 UNL     1      -8.108  -0.316   0.314  1.00  0.00     0.116 A 
HETATM   20  N3  UNL     1      -7.716  -1.384  -0.397  1.00  0.00    -0.272 NA
HETATM   21  C15 UNL     1      -6.431  -1.584  -0.689  1.00  0.00     0.130 A 
ENDBRANCH  14  16
ENDBRANCH   7   9
ENDBRANCH   5   7
BRANCH   1  22
HETATM   22  N1  UNL     1       3.571   0.673   0.010  1.00  0.00    -0.323 N 
HETATM   23  C1  UNL     1       4.160   0.638   1.301  1.00  0.00     0.257 C 
HETATM   24  O1  UNL     1       3.591   1.360   2.172  1.00  0.00    -0.267 OA
HETATM   25  H1  UNL     1       3.911   0.144  -0.812  1.00  0.00     0.169 HD
BRANCH  23  26
HETATM   26  C17 UNL     1       5.336  -0.196   1.524  1.00  0.00     0.049 A 
HETATM   27  C18 UNL     1       5.994  -1.001   0.609  1.00  0.00     0.020 A 
HETATM   28  C19 UNL     1       7.100  -1.725   1.005  1.00  0.00     0.020 A 
HETATM   29  C20 UNL     1       7.583  -1.679   2.293  1.00  0.00     0.116 A 
HETATM   30  N5  UNL     1       6.935  -0.888   3.186  1.00  0.00    -0.272 NA
HETATM   31  C21 UNL     1       5.843  -0.163   2.827  1.00  0.00     0.133 A 
ENDBRANCH  23  26
ENDBRANCH   1  22
TORSDOF 5
