REMARK  8 active torsions:
REMARK  status: ('A' for Active; 'I' for Inactive)
REMARK    1  A    between atoms: O1_2  and  C2_3 
REMARK    2  A    between atoms: C8_9  and  N1_10 
REMARK    3  A    between atoms: N1_10  and  C9_11 
REMARK    4  A    between atoms: C9_11  and  C10_12 
REMARK    5  A    between atoms: C10_12  and  C11_13 
REMARK    6  A    between atoms: C12_14  and  N2_15 
REMARK       I    between atoms: N2_15  and  C13_16 
REMARK       I    between atoms: C13_16  and  N3_18 
REMARK    7  A    between atoms: C14_19  and  C15_20 
REMARK    8  A    between atoms: C20_26  and  C21_27 
ROOT
HETATM    1  C10 UNL     1      -0.717   1.080   1.132  1.00  0.00    -0.031 C 
HETATM    2  C20 UNL     1      -0.866   2.415   1.235  1.00  0.00     0.013 C 
ENDROOT
BRANCH   1   3
HETATM    3  C9  UNL     1      -1.656   0.222   1.924  1.00  0.00     0.309 C 
BRANCH   3   4
HETATM    4  N1  UNL     1      -2.459  -0.626   1.084  1.00  0.00     0.102 N 
HETATM    5  H10 UNL     1      -1.841  -1.112   0.413  1.00  0.00     0.317 HD
BRANCH   4   6
HETATM    6  C8  UNL     1      -3.397   0.164   0.314  1.00  0.00     0.300 C 
HETATM    7  C2  UNL     1      -4.104  -0.756  -0.600  1.00  0.00     0.082 C 
HETATM    8  C3  UNL     1      -5.228  -0.786  -1.296  1.00  0.00     0.035 C 
HETATM    9  C4  UNL     1      -6.188   0.321  -1.288  1.00  0.00     0.002 C 
HETATM   10  C5  UNL     1      -6.346   1.293  -0.371  1.00  0.00    -0.000 C 
HETATM   11  C6  UNL     1      -5.531   1.416   0.858  1.00  0.00    -0.002 C 
HETATM   12  C7  UNL     1      -4.313   0.958   1.160  1.00  0.00     0.015 C 
BRANCH   7  13
HETATM   13  O1  UNL     1      -3.446  -1.978  -0.852  1.00  0.00    -0.358 OA
HETATM   14  C1  UNL     1      -3.847  -3.073  -0.052  1.00  0.00     0.209 C 
ENDBRANCH   7  13
ENDBRANCH   4   6
ENDBRANCH   3   4
ENDBRANCH   1   3
BRANCH   1  15
HETATM   15  C11 UNL     1       0.335   0.562   0.278  1.00  0.00     0.025 C 
HETATM   16  C12 UNL     1       0.727  -0.674  -0.018  1.00  0.00     0.093 C 
BRANCH  16  17
HETATM   17  N2  UNL     1       1.794  -1.032  -0.888  1.00  0.00    -0.317 N 
HETATM   18  C13 UNL     1       2.979  -1.778  -0.589  1.00  0.00     0.345 C 
HETATM   19  O2  UNL     1       2.943  -2.095   0.631  1.00  0.00    -0.245 OA
HETATM   20  N3  UNL     1       3.924  -2.012  -1.654  1.00  0.00    -0.206 NA
HETATM   21  C14 UNL     1       5.098  -1.525  -1.541  1.00  0.00     0.135 C 
HETATM   22  H15 UNL     1       1.560  -0.639  -1.842  1.00  0.00     0.170 HD
BRANCH  21  23
HETATM   23  C15 UNL     1       6.190  -0.792  -0.918  1.00  0.00    -0.001 A 
HETATM   24  C16 UNL     1       7.361  -0.766  -1.642  1.00  0.00     0.016 A 
HETATM   25  C17 UNL     1       8.380  -0.070  -1.039  1.00  0.00     0.020 A 
HETATM   26  C18 UNL     1       8.167   0.521   0.187  1.00  0.00     0.116 A 
HETATM   27  N4  UNL     1       6.988   0.459   0.851  1.00  0.00    -0.272 NA
HETATM   28  C19 UNL     1       5.941  -0.215   0.306  1.00  0.00     0.129 A 
ENDBRANCH  21  23
ENDBRANCH  16  17
ENDBRANCH   1  15
BRANCH   2  29
HETATM   29  C21 UNL     1      -0.192   3.611   0.659  1.00  0.00     0.250 C 
HETATM   30  F1  UNL     1      -1.053   4.405  -0.073  1.00  0.00    -0.251 F 
ENDBRANCH   2  29
TORSDOF 8
