REMARK  5 active torsions:
REMARK  status: ('A' for Active; 'I' for Inactive)
REMARK    1  A    between atoms: N1_1  and  C1_2 
REMARK    2  A    between atoms: C6_7  and  C7_8 
REMARK    3  A    between atoms: C7_8  and  C8_9 
REMARK    4  A    between atoms: C8_9  and  C9_10 
REMARK    5  A    between atoms: C16_21  and  C17_22 
ROOT
HETATM    1  C1  UNL     1      -3.693  -0.829  -2.052  1.00  0.00     0.344 C 
HETATM    2  C2  UNL     1      -2.379  -0.981  -2.784  1.00  0.00     0.086 C 
HETATM    3  C3  UNL     1      -1.570  -2.112  -2.291  1.00  0.00    -0.023 C 
HETATM    4  C4  UNL     1      -0.469  -2.554  -1.717  1.00  0.00    -0.001 C 
HETATM    5  C5  UNL     1       0.674  -1.817  -1.214  1.00  0.00     0.034 C 
HETATM    6  C6  UNL     1       1.361  -0.751  -0.946  1.00  0.00     0.076 C 
HETATM    7  O1  UNL     1       0.342   0.054  -1.440  1.00  0.00    -0.243 OA
HETATM    8  N3  UNL     1      -0.616   0.582  -0.534  1.00  0.00    -0.270 N 
HETATM    9  C14 UNL     1      -0.897   1.973  -0.606  1.00  0.00     0.148 C 
HETATM   10  C15 UNL     1      -1.959   2.334  -1.268  1.00  0.00     0.106 C 
HETATM   11  N4  UNL     1      -2.938   1.532  -1.316  1.00  0.00    -0.225 NA
HETATM   12  C16 UNL     1      -3.159   0.677  -0.219  1.00  0.00     0.159 C 
HETATM   13  N6  UNL     1      -3.532  -0.483  -0.680  1.00  0.00    -0.234 NA
HETATM   14  H17 UNL     1      -0.874  -0.275  -0.006  1.00  0.00     0.194 HD
ENDROOT
BRANCH   6  15
HETATM   15  C7  UNL     1       2.451   0.087  -0.479  1.00  0.00     0.072 C 
BRANCH  15  16
HETATM   16  C8  UNL     1       3.608  -0.697   0.104  1.00  0.00     0.046 C 
BRANCH  16  17
HETATM   17  C9  UNL     1       4.613   0.311   0.523  1.00  0.00    -0.040 A 
HETATM   18  C10 UNL     1       4.651   0.889   1.779  1.00  0.00     0.010 A 
HETATM   19  C11 UNL     1       5.588   1.811   2.129  1.00  0.00     0.020 A 
HETATM   20  C12 UNL     1       6.557   2.200   1.199  1.00  0.00     0.116 A 
HETATM   21  N2  UNL     1       6.550   1.655  -0.039  1.00  0.00    -0.273 NA
HETATM   22  C13 UNL     1       5.598   0.739  -0.349  1.00  0.00     0.123 A 
ENDBRANCH  16  17
ENDBRANCH  15  16
ENDBRANCH   6  15
BRANCH   1  23
HETATM   23  N1  UNL     1      -4.428  -2.065  -2.211  1.00  0.00     0.103 N 
HETATM   24  H1  UNL     1      -4.298  -2.631  -1.332  1.00  0.00     0.315 HD
HETATM   25  H2  UNL     1      -4.139  -2.600  -3.056  1.00  0.00     0.315 HD
ENDBRANCH   1  23
BRANCH  12  26
HETATM   26  C17 UNL     1      -3.123   0.759   1.253  1.00  0.00     0.029 A 
HETATM   27  C18 UNL     1      -3.447  -0.392   1.935  1.00  0.00     0.018 A 
HETATM   28  C19 UNL     1      -3.428  -0.279   3.331  1.00  0.00     0.020 A 
HETATM   29  C20 UNL     1      -3.119   0.860   4.023  1.00  0.00     0.116 A 
HETATM   30  N5  UNL     1      -2.811   1.954   3.305  1.00  0.00    -0.272 NA
HETATM   31  C21 UNL     1      -2.816   1.895   1.962  1.00  0.00     0.131 A 
ENDBRANCH  12  26
TORSDOF 5
