REMARK  6 active torsions:
REMARK  status: ('A' for Active; 'I' for Inactive)
REMARK    1  A    between atoms: O1_2  and  C2_3 
REMARK    2  A    between atoms: C7_8  and  C8_9 
REMARK       I    between atoms: C8_9  and  N1_11 
REMARK    3  A    between atoms: N1_11  and  C9_12 
REMARK    4  A    between atoms: C13_16  and  N2_17 
REMARK    5  A    between atoms: N2_17  and  C14_18 
REMARK    6  A    between atoms: C17_22  and  C18_23 
ROOT
HETATM    1  C9  UNL     1      -1.336   0.942   0.620  1.00  0.00     0.049 C 
HETATM    2  C10 UNL     1      -0.698   0.642   1.715  1.00  0.00     0.012 C 
HETATM    3  C11 UNL     1       0.544   1.098   1.744  1.00  0.00    -0.021 C 
HETATM    4  C12 UNL     1       1.707   0.877   2.658  1.00  0.00     0.051 C 
HETATM    5  C13 UNL     1       0.686   2.002   0.583  1.00  0.00     0.058 C 
HETATM    6  C23 UNL     1      -0.475   1.885  -0.083  1.00  0.00     0.061 C 
ENDROOT
BRANCH   5   7
HETATM    7  N2  UNL     1       1.709   2.859   0.116  1.00  0.00    -0.188 N 
HETATM    8  H12 UNL     1       1.390   3.872   0.079  1.00  0.00     0.184 HD
BRANCH   7   9
HETATM    9  C14 UNL     1       3.047   2.504  -0.283  1.00  0.00     0.727 A 
HETATM   10  N3  UNL     1       3.872   3.482  -0.700  1.00  0.00    -0.075 NA
HETATM   11  C15 UNL     1       5.126   3.140  -1.073  1.00  0.00     0.139 A 
HETATM   12  C16 UNL     1       5.478   1.809  -1.001  1.00  0.00     0.053 A 
HETATM   13  C17 UNL     1       4.609   0.829  -0.569  1.00  0.00     0.089 A 
HETATM   14  N5  UNL     1       3.360   1.198  -0.202  1.00  0.00    -0.062 NA
BRANCH  13  15
HETATM   15  C18 UNL     1       5.024  -0.550  -0.512  1.00  0.00     0.011 A 
HETATM   16  C19 UNL     1       6.258  -1.058  -0.854  1.00  0.00     0.017 A 
HETATM   17  C20 UNL     1       6.567  -2.401  -0.767  1.00  0.00     0.020 A 
HETATM   18  C21 UNL     1       5.623  -3.308  -0.320  1.00  0.00     0.116 A 
HETATM   19  N4  UNL     1       4.422  -2.819   0.014  1.00  0.00    -0.272 NA
HETATM   20  C22 UNL     1       4.112  -1.513  -0.068  1.00  0.00     0.130 A 
ENDBRANCH  13  15
ENDBRANCH   7   9
ENDBRANCH   5   7
BRANCH   1  21
HETATM   21  N1  UNL     1      -2.595   0.476   0.169  1.00  0.00    -0.322 N 
HETATM   22  C8  UNL     1      -3.369  -0.443   0.916  1.00  0.00     0.259 C 
HETATM   23  O2  UNL     1      -2.776  -0.751   1.982  1.00  0.00    -0.267 OA
HETATM   24  H8  UNL     1      -2.985   0.803  -0.733  1.00  0.00     0.169 HD
BRANCH  22  25
HETATM   25  C7  UNL     1      -4.664  -1.020   0.611  1.00  0.00     0.065 A 
HETATM   26  C2  UNL     1      -5.450  -0.804  -0.489  1.00  0.00     0.084 A 
HETATM   27  C3  UNL     1      -6.674  -1.406  -0.687  1.00  0.00     0.038 A 
HETATM   28  C4  UNL     1      -7.172  -2.278   0.249  1.00  0.00     0.003 A 
HETATM   29  C5  UNL     1      -6.409  -2.507   1.349  1.00  0.00     0.001 A 
HETATM   30  C6  UNL     1      -5.203  -1.903   1.525  1.00  0.00     0.020 A 
BRANCH  26  31
HETATM   31  O1  UNL     1      -4.993   0.058  -1.447  1.00  0.00    -0.355 OA
HETATM   32  C1  UNL     1      -5.658   0.397  -2.631  1.00  0.00     0.210 C 
ENDBRANCH  26  31
ENDBRANCH  22  25
ENDBRANCH   1  21
TORSDOF 6
