REMARK  8 active torsions:
REMARK  status: ('A' for Active; 'I' for Inactive)
REMARK    1  A    between atoms: C2_2  and  N1_3 
REMARK    2  A    between atoms: N2_5  and  C4_6 
REMARK    3  A    between atoms: C8_11  and  N4_12 
REMARK    4  A    between atoms: C13_17  and  N5_18 
REMARK       I    between atoms: N5_18  and  C14_19 
REMARK    5  A    between atoms: C14_19  and  C15_21 
REMARK    6  A    between atoms: C15_21  and  C16_22 
REMARK    7  A    between atoms: N6_23  and  C17_24 
REMARK    8  A    between atoms: C17_24  and  C18_25 
ROOT
HETATM    1  N1  UNL     1      -3.314   0.928   2.135  1.00  0.00    -0.281 N 
HETATM    2  C3  UNL     1      -2.182   0.707   1.654  1.00  0.00     0.130 A 
HETATM    3  N2  UNL     1      -2.568  -0.449   2.284  1.00  0.00    -0.140 NA
HETATM    4  C9  UNL     1      -1.153   1.362   0.884  1.00  0.00     0.008 A 
HETATM    5  C10 UNL     1      -1.371   2.661   0.489  1.00  0.00     0.015 A 
HETATM    6  C11 UNL     1      -0.347   3.178  -0.266  1.00  0.00     0.003 A 
HETATM    7  C12 UNL     1       0.817   2.552  -0.645  1.00  0.00     0.029 A 
HETATM    8  C13 UNL     1       0.949   1.265  -0.207  1.00  0.00     0.035 A 
HETATM    9  C19 UNL     1      -0.023   0.648   0.559  1.00  0.00     0.044 A 
ENDROOT
BRANCH   1  10
HETATM   10  C2  UNL     1      -4.245   1.948   2.214  1.00  0.00     0.129 C 
HETATM   11  C1  UNL     1      -4.478   1.604   0.933  1.00  0.00     0.031 C 
ENDBRANCH   1  10
BRANCH   3  12
HETATM   12  C4  UNL     1      -2.734  -1.643   1.979  1.00  0.00     0.070 A 
HETATM   13  C5  UNL     1      -2.418  -1.811   0.549  1.00  0.00     0.140 A 
HETATM   14  N3  UNL     1      -2.531  -3.016   0.001  1.00  0.00    -0.272 NA
HETATM   15  C6  UNL     1      -2.967  -4.071   0.892  1.00  0.00     0.114 A 
HETATM   16  C7  UNL     1      -3.258  -3.980   2.156  1.00  0.00     0.033 A 
HETATM   17  C8  UNL     1      -3.180  -2.681   2.925  1.00  0.00     0.289 A 
BRANCH  17  18
HETATM   18  N4  UNL     1      -2.173  -2.897   3.947  1.00  0.00     0.091 N 
HETATM   19  H8  UNL     1      -2.449  -2.566   4.894  1.00  0.00     0.314 HD
HETATM   20  H9  UNL     1      -1.906  -3.930   4.013  1.00  0.00     0.314 HD
ENDBRANCH  17  18
ENDBRANCH   3  12
BRANCH   8  21
HETATM   21  N5  UNL     1       2.047   0.421  -0.515  1.00  0.00    -0.327 N 
HETATM   22  C14 UNL     1       3.099   0.627  -1.410  1.00  0.00     0.227 C 
HETATM   23  O1  UNL     1       3.143   1.707  -2.095  1.00  0.00    -0.273 OA
HETATM   24  H13 UNL     1       2.199  -0.516  -0.081  1.00  0.00     0.169 HD
BRANCH  22  25
HETATM   25  C15 UNL     1       4.252  -0.304  -1.698  1.00  0.00     0.150 C 
BRANCH  25  26
HETATM   26  C16 UNL     1       5.006   0.204  -2.860  1.00  0.00     0.098 C 
HETATM   27  N6  UNL     1       6.093   0.650  -3.378  1.00  0.00    -0.275 NA
BRANCH  27  28
HETATM   28  C17 UNL     1       6.103   0.996  -4.771  1.00  0.00     0.145 C 
BRANCH  28  29
HETATM   29  C18 UNL     1       6.005   0.866  -6.100  1.00  0.00     0.207 C 
HETATM   30  F1  UNL     1       6.195   1.879  -6.994  1.00  0.00    -0.218 F 
ENDBRANCH  28  29
ENDBRANCH  27  28
ENDBRANCH  25  26
ENDBRANCH  22  25
ENDBRANCH   8  21
TORSDOF 8
