REMARK  5 active torsions:
REMARK  status: ('A' for Active; 'I' for Inactive)
REMARK    1  A    between atoms: O1_2  and  C2_3 
REMARK    2  A    between atoms: C7_8  and  C8_9 
REMARK       I    between atoms: C8_9  and  N1_11 
REMARK    3  A    between atoms: N1_11  and  C9_12 
REMARK    4  A    between atoms: N2_17  and  C13_18 
REMARK    5  A    between atoms: C16_22  and  C17_23 
ROOT
HETATM    1  C9  UNL     1      -1.132   0.998  -1.172  1.00  0.00     0.052 C 
HETATM    2  C10 UNL     1      -0.456   2.130  -1.283  1.00  0.00     0.164 C 
HETATM    3  O3  UNL     1       0.789   2.353  -1.855  1.00  0.00    -0.335 OA
HETATM    4  C11 UNL     1       1.501   1.221  -2.318  1.00  0.00     0.242 C 
HETATM    5  C12 UNL     1       2.968   1.540  -2.090  1.00  0.00     0.064 C 
HETATM    6  N2  UNL     1       1.078   0.091  -1.515  1.00  0.00    -0.182 N 
HETATM    7  C22 UNL     1      -0.328  -0.117  -1.793  1.00  0.00     0.203 C 
ENDROOT
BRANCH   1   8
HETATM    8  N1  UNL     1      -2.393   0.740  -0.599  1.00  0.00    -0.323 N 
HETATM    9  C8  UNL     1      -3.329   1.569   0.030  1.00  0.00     0.258 C 
HETATM   10  O2  UNL     1      -2.953   2.773   0.082  1.00  0.00    -0.267 OA
HETATM   11  H8  UNL     1      -2.669  -0.264  -0.661  1.00  0.00     0.169 HD
BRANCH   9  12
HETATM   12  C7  UNL     1      -4.620   1.236   0.603  1.00  0.00     0.065 A 
HETATM   13  C2  UNL     1      -5.246   0.015   0.671  1.00  0.00     0.084 A 
HETATM   14  C3  UNL     1      -6.482  -0.189   1.243  1.00  0.00     0.038 A 
HETATM   15  C4  UNL     1      -7.157   0.873   1.788  1.00  0.00     0.003 A 
HETATM   16  C5  UNL     1      -6.590   2.120   1.754  1.00  0.00     0.001 A 
HETATM   17  C6  UNL     1      -5.357   2.280   1.175  1.00  0.00     0.020 A 
BRANCH  13  18
HETATM   18  O1  UNL     1      -4.589  -1.053   0.134  1.00  0.00    -0.355 OA
HETATM   19  C1  UNL     1      -5.146  -2.332   0.156  1.00  0.00     0.210 C 
ENDBRANCH  13  18
ENDBRANCH   9  12
ENDBRANCH   1   8
BRANCH   6  20
HETATM   20  C13 UNL     1       1.801  -0.726  -0.605  1.00  0.00     0.727 A 
HETATM   21  N3  UNL     1       1.128  -1.719   0.005  1.00  0.00    -0.075 NA
HETATM   22  C14 UNL     1       1.744  -2.528   0.874  1.00  0.00     0.139 A 
HETATM   23  C15 UNL     1       3.072  -2.329   1.133  1.00  0.00     0.053 A 
HETATM   24  C16 UNL     1       3.792  -1.321   0.526  1.00  0.00     0.089 A 
HETATM   25  N5  UNL     1       3.090  -0.560  -0.331  1.00  0.00    -0.062 NA
BRANCH  24  26
HETATM   26  C17 UNL     1       5.206  -1.059   0.761  1.00  0.00     0.011 A 
HETATM   27  C18 UNL     1       5.787  -0.012   0.076  1.00  0.00     0.017 A 
HETATM   28  C19 UNL     1       7.134   0.293   0.254  1.00  0.00     0.020 A 
HETATM   29  C20 UNL     1       7.839  -0.515   1.150  1.00  0.00     0.116 A 
HETATM   30  N4  UNL     1       7.286  -1.535   1.821  1.00  0.00    -0.272 NA
HETATM   31  C21 UNL     1       5.965  -1.813   1.629  1.00  0.00     0.130 A 
ENDBRANCH  24  26
ENDBRANCH   6  20
TORSDOF 5
