REMARK  1 active torsions:
REMARK  status: ('A' for Active; 'I' for Inactive)
REMARK    1  A    between atoms: C2_2  and  C3_3 
ROOT
HETATM    1  C3  UNL     1       2.184   0.137   1.111  1.00  0.00     0.026 C 
HETATM    2  C4  UNL     1       1.895  -0.864   0.284  1.00  0.00     0.026 C 
HETATM    3  C5  UNL     1       0.706  -1.311  -0.391  1.00  0.00     0.011 C 
HETATM    4  C6  UNL     1      -0.475  -1.618  -0.955  1.00  0.00    -0.032 C 
HETATM    5  C7  UNL     1      -0.138  -2.789  -1.765  1.00  0.00     0.050 C 
HETATM    6  C8  UNL     1      -1.791  -0.960  -0.837  1.00  0.00     0.075 A 
HETATM    7  N1  UNL     1      -2.712  -1.839  -1.168  1.00  0.00    -0.260 NA
HETATM    8  C9  UNL     1      -4.062  -1.593  -1.159  1.00  0.00     0.117 A 
HETATM    9  C10 UNL     1      -4.370  -0.303  -0.760  1.00  0.00     0.020 A 
HETATM   10  C11 UNL     1      -3.403   0.624  -0.411  1.00  0.00     0.017 A 
HETATM   11  C12 UNL     1      -2.042   0.332  -0.435  1.00  0.00     0.023 A 
HETATM   12  C13 UNL     1      -1.310   1.523  -0.011  1.00  0.00     0.089 A 
HETATM   13  C14 UNL     1      -1.693   2.809  -0.288  1.00  0.00     0.053 A 
HETATM   14  C15 UNL     1      -0.832   3.793   0.204  1.00  0.00     0.139 A 
HETATM   15  N2  UNL     1       0.317   3.500   0.915  1.00  0.00    -0.075 NA
HETATM   16  C16 UNL     1       0.614   2.221   1.136  1.00  0.00     0.727 A 
HETATM   17  N3  UNL     1      -0.211   1.374   0.665  1.00  0.00    -0.062 NA
HETATM   18  N4  UNL     1       1.476   1.229   1.661  1.00  0.00    -0.192 N 
HETATM   19  H16 UNL     1       1.437   1.574   2.634  1.00  0.00     0.184 HD
ENDROOT
BRANCH   1  20
HETATM   20  C2  UNL     1       3.592   0.153   1.534  1.00  0.00     0.053 C 
HETATM   21  C1  UNL     1       4.426  -0.959   0.926  1.00  0.00     0.011 C 
ENDBRANCH   1  20
TORSDOF 1
