REMARK  4 active torsions:
REMARK  status: ('A' for Active; 'I' for Inactive)
REMARK       I    between atoms: C1_2  and  N1_3 
REMARK    1  A    between atoms: C1_2  and  C16_22 
REMARK    2  A    between atoms: N1_3  and  C2_4 
REMARK    3  A    between atoms: C6_8  and  N2_9 
REMARK    4  A    between atoms: N2_9  and  C7_10 
ROOT
HETATM    1  C2  UNL     1      -2.128  -1.392  -0.173  1.00  0.00     0.037 A 
HETATM    2  C3  UNL     1      -2.182  -2.761  -0.152  1.00  0.00     0.029 A 
HETATM    3  C4  UNL     1      -1.128  -3.640  -0.194  1.00  0.00     0.004 A 
HETATM    4  C5  UNL     1       0.133  -3.094  -0.263  1.00  0.00     0.030 A 
HETATM    5  C6  UNL     1       0.269  -1.693  -0.285  1.00  0.00     0.051 A 
HETATM    6  C15 UNL     1      -0.864  -0.869  -0.241  1.00  0.00     0.059 A 
ENDROOT
BRANCH   5   7
HETATM    7  N2  UNL     1       1.533  -1.094  -0.387  1.00  0.00    -0.188 N 
HETATM    8  H5  UNL     1       2.041  -1.728  -1.102  1.00  0.00     0.184 HD
BRANCH   7   9
HETATM    9  C7  UNL     1       2.540  -0.159  -0.143  1.00  0.00     0.727 A 
HETATM   10  N3  UNL     1       2.236   1.170  -0.276  1.00  0.00    -0.073 NA
HETATM   11  C8  UNL     1       3.204   2.103  -0.044  1.00  0.00     0.168 A 
HETATM   12  C9  UNL     1       4.452   1.592   0.318  1.00  0.00     0.080 A 
HETATM   13  C10 UNL     1       4.782   0.264   0.458  1.00  0.00     0.104 A 
HETATM   14  N5  UNL     1       5.402   2.655   0.523  1.00  0.00    -0.363 N 
HETATM   15  N4  UNL     1       3.786  -0.591   0.216  1.00  0.00    -0.061 NA
HETATM   16  C11 UNL     1       6.000  -0.420   0.819  1.00  0.00     0.034 C 
HETATM   17  C12 UNL     1       7.187   0.153   0.750  1.00  0.00     0.004 C 
HETATM   18  C13 UNL     1       7.610   1.498   0.342  1.00  0.00     0.017 C 
HETATM   19  C14 UNL     1       6.825   2.585   0.245  1.00  0.00     0.088 C 
HETATM   20  H11 UNL     1       4.993   3.549   0.913  1.00  0.00     0.165 HD
ENDBRANCH   7   9
ENDBRANCH   5   7
BRANCH   1  21
HETATM   21  N1  UNL     1      -3.245  -0.527  -0.147  1.00  0.00    -0.323 N 
HETATM   22  C1  UNL     1      -4.617  -0.845  -0.077  1.00  0.00     0.257 C 
HETATM   23  O1  UNL     1      -4.994  -2.043  -0.024  1.00  0.00    -0.267 OA
HETATM   24  H1  UNL     1      -3.116   0.507  -0.177  1.00  0.00     0.169 HD
BRANCH  22  25
HETATM   25  C16 UNL     1      -5.732   0.057  -0.057  1.00  0.00     0.049 A 
HETATM   26  C17 UNL     1      -7.001  -0.292   0.291  1.00  0.00     0.020 A 
HETATM   27  C18 UNL     1      -8.019   0.670   0.247  1.00  0.00     0.020 A 
HETATM   28  C19 UNL     1      -7.730   1.968  -0.151  1.00  0.00     0.116 A 
HETATM   29  N6  UNL     1      -6.447   2.305  -0.499  1.00  0.00    -0.272 NA
HETATM   30  C20 UNL     1      -5.479   1.343  -0.443  1.00  0.00     0.133 A 
ENDBRANCH  22  25
ENDBRANCH   1  21
TORSDOF 4
