REMARK  2 active torsions:
REMARK  status: ('A' for Active; 'I' for Inactive)
REMARK    1  A    between atoms: C1_2  and  C15_21 
REMARK    2  A    between atoms: N1_3  and  C2_4 
ROOT
HETATM    1  C2  UNL     1       0.791  -0.711   0.224  1.00  0.00     0.050 C 
HETATM    2  C3  UNL     1       0.494  -0.374  -1.091  1.00  0.00     0.010 C 
HETATM    3  C4  UNL     1      -0.474   0.679  -1.426  1.00  0.00     0.049 C 
HETATM    4  C5  UNL     1      -1.145   1.294  -2.364  1.00  0.00     0.001 C 
HETATM    5  C6  UNL     1      -1.738   2.199  -1.304  1.00  0.00     0.148 C 
HETATM    6  N2  UNL     1      -3.044   2.017  -0.889  1.00  0.00    -0.307 N 
HETATM    7  C7  UNL     1      -4.518   1.815  -0.417  1.00  0.00     0.088 C 
HETATM    8  C8  UNL     1      -4.753   0.901   0.574  1.00  0.00     0.036 C 
HETATM    9  C9  UNL     1      -4.743  -0.124   1.645  1.00  0.00    -0.007 C 
HETATM   10  C10 UNL     1      -3.631  -0.810   2.208  1.00  0.00     0.078 C 
HETATM   11  C11 UNL     1      -2.611  -0.168   1.429  1.00  0.00     0.063 C 
HETATM   12  N3  UNL     1      -1.379   0.238   1.078  1.00  0.00    -0.155 NA
HETATM   13  N4  UNL     1      -0.436  -0.236   2.047  1.00  0.00    -0.160 NA
HETATM   14  C12 UNL     1       0.709  -0.770   1.702  1.00  0.00     0.170 C 
HETATM   15  C13 UNL     1      -3.370  -0.363   0.113  1.00  0.00     0.048 C 
HETATM   16  C14 UNL     1      -3.937  -0.391  -1.114  1.00  0.00     0.109 C 
HETATM   17  N5  UNL     1      -3.243   0.721  -1.629  1.00  0.00    -0.310 N 
HETATM   18  H14 UNL     1      -2.919   0.451  -2.642  1.00  0.00     0.186 HD
ENDROOT
BRANCH   1  19
HETATM   19  N1  UNL     1       1.848  -1.731  -0.000  1.00  0.00    -0.333 N 
HETATM   20  C1  UNL     1       3.064  -1.244   0.330  1.00  0.00     0.191 C 
HETATM   21  O1  UNL     1       2.788   0.018   0.815  1.00  0.00    -0.171 OA
HETATM   22  H1  UNL     1       2.131  -2.655  -0.339  1.00  0.00     0.168 HD
BRANCH  20  23
HETATM   23  C15 UNL     1       4.540  -1.203   0.520  1.00  0.00     0.035 A 
HETATM   24  C16 UNL     1       5.262  -0.347   1.258  1.00  0.00     0.019 A 
HETATM   25  C17 UNL     1       6.635  -0.549   1.112  1.00  0.00     0.020 A 
HETATM   26  C18 UNL     1       7.277  -1.459   0.341  1.00  0.00     0.116 A 
HETATM   27  N6  UNL     1       6.512  -2.350  -0.426  1.00  0.00    -0.272 NA
HETATM   28  C19 UNL     1       5.154  -2.165  -0.282  1.00  0.00     0.132 A 
ENDBRANCH  20  23
ENDBRANCH   1  19
TORSDOF 2
