REMARK  5 active torsions:
REMARK  status: ('A' for Active; 'I' for Inactive)
REMARK    1  A    between atoms: C2_2  and  C3_3 
REMARK    2  A    between atoms: C5_7  and  C6_8 
REMARK    3  A    between atoms: C6_8  and  C7_9 
REMARK    4  A    between atoms: C7_9  and  C8_10 
REMARK    5  A    between atoms: C17_21  and  N4_22 
ROOT
HETATM    1  C3  UNL     1      -2.007   0.747  -0.647  1.00  0.00     0.097 C 
HETATM    2  C4  UNL     1      -1.705   1.938  -1.500  1.00  0.00     0.043 C 
HETATM    3  N1  UNL     1      -1.093   0.676   0.471  1.00  0.00    -0.183 NA
HETATM    4  O1  UNL     1       0.192   0.476   0.222  1.00  0.00    -0.267 OA
HETATM    5  C5  UNL     1       0.607  -0.877   0.216  1.00  0.00     0.070 C 
HETATM    6  C13 UNL     1       0.015  -2.060   0.383  1.00  0.00     0.034 C 
HETATM    7  C14 UNL     1      -1.242  -2.753   0.644  1.00  0.00     0.000 C 
HETATM    8  C15 UNL     1      -2.487  -2.254   0.853  1.00  0.00    -0.008 C 
HETATM    9  C16 UNL     1      -3.700  -1.435   1.045  1.00  0.00     0.143 C 
HETATM   10  N3  UNL     1      -3.626  -0.061   1.052  1.00  0.00    -0.389 N 
HETATM   11  C17 UNL     1      -3.368   0.852   0.068  1.00  0.00     0.341 C 
HETATM   12  H7  UNL     1      -1.330   1.452   1.119  1.00  0.00     0.155 HD
HETATM   13  H21 UNL     1      -4.162   0.391   1.836  1.00  0.00     0.155 HD
ENDROOT
BRANCH   5  14
HETATM   14  C6  UNL     1       2.049  -0.669  -0.051  1.00  0.00     0.071 C 
BRANCH  14  15
HETATM   15  C7  UNL     1       2.721   0.194   1.017  1.00  0.00     0.046 C 
BRANCH  15  16
HETATM   16  C8  UNL     1       4.146   0.331   0.646  1.00  0.00    -0.040 A 
HETATM   17  C9  UNL     1       4.575   1.372  -0.157  1.00  0.00     0.010 A 
HETATM   18  C10 UNL     1       5.902   1.539  -0.530  1.00  0.00     0.020 A 
HETATM   19  C11 UNL     1       6.790   0.581  -0.040  1.00  0.00     0.116 A 
HETATM   20  N2  UNL     1       6.394  -0.436   0.739  1.00  0.00    -0.273 NA
HETATM   21  C12 UNL     1       5.093  -0.577   1.089  1.00  0.00     0.123 A 
ENDBRANCH  15  16
ENDBRANCH  14  15
ENDBRANCH   5  14
BRANCH   1  22
HETATM   22  C2  UNL     1      -1.951  -0.461  -1.488  1.00  0.00    -0.006 C 
HETATM   23  C1  UNL     1      -3.092  -0.715  -2.120  1.00  0.00     0.009 C 
ENDBRANCH   1  22
BRANCH  11  24
HETATM   24  N4  UNL     1      -3.299   2.183   0.715  1.00  0.00     0.103 N 
HETATM   25  H23 UNL     1      -3.953   2.218   1.532  1.00  0.00     0.315 HD
HETATM   26  H24 UNL     1      -3.478   2.946   0.049  1.00  0.00     0.315 HD
ENDBRANCH  11  24
TORSDOF 5
