REMARK  2 active torsions:
REMARK  status: ('A' for Active; 'I' for Inactive)
REMARK    1  A    between atoms: N1_4  and  C4_5 
REMARK    2  A    between atoms: C7_9  and  C8_10 
ROOT
HETATM    1  C1  UNL     1      -3.633  -1.819  -2.866  1.00  0.00     0.070 C 
HETATM    2  C2  UNL     1      -2.783  -1.185  -1.855  1.00  0.00     0.025 C 
HETATM    3  C3  UNL     1      -1.467  -1.307  -1.893  1.00  0.00     0.140 C 
HETATM    4  N1  UNL     1      -0.503  -0.799  -1.043  1.00  0.00    -0.147 N 
HETATM    5  C13 UNL     1      -1.024  -0.585   0.247  1.00  0.00     0.231 C 
HETATM    6  N5  UNL     1      -0.873  -1.554   1.142  1.00  0.00    -0.258 NA
HETATM    7  C14 UNL     1      -1.520  -1.069   2.407  1.00  0.00     0.100 C 
HETATM    8  C15 UNL     1      -2.630  -0.390   2.871  1.00  0.00     0.061 C 
HETATM    9  C16 UNL     1      -3.830   0.247   2.311  1.00  0.00    -0.010 C 
HETATM   10  C17 UNL     1      -4.629   0.595   1.261  1.00  0.00     0.071 C 
HETATM   11  C18 UNL     1      -4.452   0.321  -0.155  1.00  0.00     0.245 C 
HETATM   12  O1  UNL     1      -5.027   0.680  -1.207  1.00  0.00    -0.268 OA
HETATM   13  N6  UNL     1      -3.599  -0.448  -0.981  1.00  0.00    -0.326 N 
HETATM   14  H16 UNL     1      -3.237  -1.032  -0.220  1.00  0.00     0.169 HD
ENDROOT
BRANCH   4  15
HETATM   15  C4  UNL     1       0.841  -0.460  -1.123  1.00  0.00     0.734 A 
HETATM   16  N2  UNL     1       1.342  -0.785  -2.324  1.00  0.00    -0.074 NA
HETATM   17  C5  UNL     1       2.633  -0.532  -2.642  1.00  0.00     0.139 A 
HETATM   18  C6  UNL     1       3.419   0.074  -1.681  1.00  0.00     0.053 A 
HETATM   19  C7  UNL     1       2.894   0.401  -0.453  1.00  0.00     0.089 A 
HETATM   20  N4  UNL     1       1.593   0.117  -0.207  1.00  0.00    -0.061 NA
BRANCH  19  21
HETATM   21  C8  UNL     1       3.657   1.040   0.609  1.00  0.00     0.011 A 
HETATM   22  C9  UNL     1       4.988   1.378   0.451  1.00  0.00     0.017 A 
HETATM   23  C10 UNL     1       5.731   1.993   1.468  1.00  0.00     0.020 A 
HETATM   24  C11 UNL     1       5.111   2.268   2.664  1.00  0.00     0.116 A 
HETATM   25  N3  UNL     1       3.815   1.924   2.776  1.00  0.00    -0.272 NA
HETATM   26  C12 UNL     1       3.085   1.340   1.831  1.00  0.00     0.130 A 
ENDBRANCH  19  21
ENDBRANCH   4  15
TORSDOF 2
