REMARK  5 active torsions:
REMARK  status: ('A' for Active; 'I' for Inactive)
REMARK    1  A    between atoms: C2_2  and  C3_3 
REMARK    2  A    between atoms: C3_3  and  C4_4 
REMARK    3  A    between atoms: C4_4  and  C5_5 
REMARK    4  A    between atoms: C5_5  and  C6_6 
REMARK    5  A    between atoms: C7_8  and  C8_9 
ROOT
HETATM    1  C8  UNL     1      -0.262   0.723   0.975  1.00  0.00    -0.027 A 
HETATM    2  C9  UNL     1      -0.642   1.612   0.002  1.00  0.00     0.017 A 
HETATM    3  C10 UNL     1      -1.758   1.699  -0.791  1.00  0.00    -0.052 A 
HETATM    4  C11 UNL     1      -2.122   0.531  -0.074  1.00  0.00     0.048 A 
HETATM    5  C12 UNL     1      -2.186  -0.615   0.822  1.00  0.00     0.176 A 
HETATM    6  C13 UNL     1      -0.996  -0.362   1.389  1.00  0.00     0.050 A 
HETATM    7  N2  UNL     1      -3.358  -1.418   0.746  1.00  0.00     0.139 N 
HETATM    8  C14 UNL     1      -4.493  -2.194   0.672  1.00  0.00     0.330 A 
HETATM    9  O1  UNL     1      -3.608  -2.861   1.155  1.00  0.00    -0.118 OA
HETATM   10  C15 UNL     1      -5.743  -1.558   0.091  1.00  0.00     0.185 C 
HETATM   11  N3  UNL     1      -6.087  -0.402  -0.491  1.00  0.00    -0.269 NA
HETATM   12  C16 UNL     1      -5.096   0.594  -0.684  1.00  0.00     0.112 C 
HETATM   13  C17 UNL     1      -4.183   1.574  -0.822  1.00  0.00    -0.003 C 
HETATM   14  C18 UNL     1      -2.922   1.880  -1.687  1.00  0.00     0.067 C 
HETATM   15  H10 UNL     1      -3.676  -0.471   0.854  1.00  0.00     0.335 HD
ENDROOT
BRANCH   1  16
HETATM   16  C7  UNL     1       1.034   0.868   1.676  1.00  0.00     0.164 A 
HETATM   17  N1  UNL     1       1.644  -0.464   1.752  1.00  0.00    -0.276 NA
HETATM   18  C6  UNL     1       2.661  -0.523   0.965  1.00  0.00     0.052 A 
HETATM   19  C20 UNL     1       2.894   0.720   0.256  1.00  0.00     0.029 A 
HETATM   20  C19 UNL     1       1.945   1.528   0.673  1.00  0.00     0.007 A 
BRANCH  18  21
HETATM   21  C5  UNL     1       3.471  -1.722   0.827  1.00  0.00     0.031 C 
BRANCH  21  22
HETATM   22  C4  UNL     1       4.505  -1.751   0.001  1.00  0.00     0.010 C 
BRANCH  22  23
HETATM   23  C3  UNL     1       5.155  -0.871  -0.906  1.00  0.00     0.051 C 
BRANCH  23  24
HETATM   24  C2  UNL     1       6.341  -0.337  -0.712  1.00  0.00    -0.155 C 
HETATM   25  C1  UNL     1       7.594  -0.174  -0.310  1.00  0.00     0.096 C 
ENDBRANCH  23  24
ENDBRANCH  22  23
ENDBRANCH  21  22
ENDBRANCH  18  21
ENDBRANCH   1  16
TORSDOF 5
