REMARK  4 active torsions:
REMARK  status: ('A' for Active; 'I' for Inactive)
REMARK       I    between atoms: C1_2  and  N1_3 
REMARK    1  A    between atoms: C1_2  and  C18_24 
REMARK    2  A    between atoms: N1_3  and  C2_4 
REMARK    3  A    between atoms: N2_8  and  C6_9 
REMARK    4  A    between atoms: C9_13  and  C10_14 
ROOT
HETATM    1  C2  UNL     1      -1.287   0.235   0.154  1.00  0.00     0.015 C 
HETATM    2  C3  UNL     1      -1.089   1.348   0.858  1.00  0.00     0.027 C 
HETATM    3  C4  UNL     1       0.056   1.817   1.664  1.00  0.00     0.020 C 
HETATM    4  C5  UNL     1       1.376   1.589   1.622  1.00  0.00     0.115 C 
HETATM    5  N2  UNL     1       2.177   0.790   0.760  1.00  0.00    -0.165 N 
HETATM    6  C15 UNL     1       1.930  -0.155  -0.285  1.00  0.00     0.111 C 
HETATM    7  C16 UNL     1       0.820  -0.828  -0.598  1.00  0.00    -0.003 C 
HETATM    8  C17 UNL     1      -0.575  -1.021  -0.192  1.00  0.00     0.085 C 
ENDROOT
BRANCH   5   9
HETATM    9  C6  UNL     1       3.562   0.999   1.018  1.00  0.00     0.732 A 
HETATM   10  N3  UNL     1       3.890   1.873   1.987  1.00  0.00    -0.074 NA
HETATM   11  C7  UNL     1       5.196   2.127   2.293  1.00  0.00     0.139 A 
HETATM   12  C8  UNL     1       6.142   1.444   1.560  1.00  0.00     0.053 A 
HETATM   13  C9  UNL     1       5.834   0.545   0.564  1.00  0.00     0.089 A 
HETATM   14  N5  UNL     1       4.524   0.353   0.326  1.00  0.00    -0.062 NA
BRANCH  13  15
HETATM   15  C10 UNL     1       6.811  -0.192  -0.227  1.00  0.00     0.011 A 
HETATM   16  C11 UNL     1       6.320  -1.053  -1.186  1.00  0.00     0.017 A 
HETATM   17  C12 UNL     1       7.183  -1.787  -1.977  1.00  0.00     0.020 A 
HETATM   18  C13 UNL     1       8.535  -1.639  -1.787  1.00  0.00     0.116 A 
HETATM   19  N4  UNL     1       8.983  -0.794  -0.847  1.00  0.00    -0.272 NA
HETATM   20  C14 UNL     1       8.166  -0.055  -0.049  1.00  0.00     0.130 A 
ENDBRANCH  13  15
ENDBRANCH   5   9
BRANCH   1  21
HETATM   21  N1  UNL     1      -2.607   0.341  -0.421  1.00  0.00    -0.330 N 
HETATM   22  C1  UNL     1      -3.571  -0.645  -0.087  1.00  0.00     0.226 C 
HETATM   23  O1  UNL     1      -3.147  -1.543   0.710  1.00  0.00    -0.273 OA
HETATM   24  H1  UNL     1      -2.722   1.181  -1.059  1.00  0.00     0.168 HD
BRANCH  22  25
HETATM   25  C18 UNL     1      -4.903  -0.478  -0.708  1.00  0.00     0.078 C 
HETATM   26  C19 UNL     1      -5.835  -1.610  -0.260  1.00  0.00     0.014 C 
HETATM   27  C20 UNL     1      -7.122  -1.554  -1.016  1.00  0.00     0.001 C 
HETATM   28  C21 UNL     1      -7.788  -0.225  -0.821  1.00  0.00     0.000 C 
HETATM   29  C22 UNL     1      -6.856   0.941  -1.033  1.00  0.00     0.001 C 
HETATM   30  C23 UNL     1      -5.577   0.806  -0.252  1.00  0.00     0.014 C 
ENDBRANCH  22  25
ENDBRANCH   1  21
TORSDOF 4
