REMARK  10 active torsions:
REMARK  status: ('A' for Active; 'I' for Inactive)
REMARK    1  A    between atoms: C2_2  and  P1_3 
REMARK    2  A    between atoms: P1_3  and  C3_4 
REMARK    3  A    between atoms: C3_4  and  C4_5 
REMARK    4  A    between atoms: C4_5  and  C5_6 
REMARK    5  A    between atoms: C6_8  and  N2_9 
REMARK    6  A    between atoms: C9_12  and  C10_13 
REMARK    7  A    between atoms: C10_13  and  N3_14 
REMARK    8  A    between atoms: N3_14  and  C11_15 
REMARK    9  A    between atoms: C11_15  and  C12_16 
REMARK   10  A    between atoms: C18_23  and  N4_24 
ROOT
HETATM    1  N2  UNL     1       1.511   0.024   0.288  1.00  0.00    -0.311 N 
HETATM    2  C7  UNL     1       0.873   0.801  -0.762  1.00  0.00     0.159 C 
HETATM    3  C8  UNL     1      -0.592   0.552  -0.765  1.00  0.00     0.027 C 
HETATM    4  C9  UNL     1      -1.367  -0.143   0.053  1.00  0.00     0.066 C 
HETATM    5  O1  UNL     1      -0.622  -0.724   1.082  1.00  0.00    -0.303 OA
HETATM    6  C18 UNL     1       0.665  -0.312   1.416  1.00  0.00     0.470 C 
ENDROOT
BRANCH   1   7
HETATM    7  C6  UNL     1       2.893  -0.389   0.214  1.00  0.00     0.125 A 
HETATM    8  N1  UNL     1       4.048   0.438   0.178  1.00  0.00    -0.240 NA
HETATM    9  C5  UNL     1       5.135  -0.252   0.111  1.00  0.00     0.021 A 
HETATM   10  C20 UNL     1       4.786  -1.703   0.096  1.00  0.00     0.086 A 
HETATM   11  C19 UNL     1       3.287  -1.658   0.168  1.00  0.00     0.029 A 
BRANCH   9  12
HETATM   12  C4  UNL     1       6.535   0.271   0.057  1.00  0.00     0.083 C 
BRANCH  12  13
HETATM   13  C3  UNL     1       7.315  -0.262   1.204  1.00  0.00    -0.009 C 
BRANCH  13  14
HETATM   14  P1  UNL     1       8.857  -0.235   1.797  1.00  0.00    -0.066 P 
BRANCH  14  15
HETATM   15  C2  UNL     1      10.214   0.702   0.904  1.00  0.00     0.038 C 
HETATM   16  C1  UNL     1      10.253   0.230  -0.536  1.00  0.00     0.010 C 
ENDBRANCH  14  15
ENDBRANCH  13  14
ENDBRANCH  12  13
ENDBRANCH   9  12
ENDBRANCH   1   7
BRANCH   6  17
HETATM   17  N4  UNL     1       0.689   0.833   2.303  1.00  0.00     0.127 N 
HETATM   18  H29 UNL     1       0.526   0.565   3.314  1.00  0.00     0.318 HD
HETATM   19  H30 UNL     1       1.628   1.307   2.194  1.00  0.00     0.318 HD
ENDBRANCH   6  17
BRANCH   4  20
HETATM   20  C10 UNL     1      -2.870  -0.354  -0.012  1.00  0.00     0.178 C 
BRANCH  20  21
HETATM   21  N3  UNL     1      -3.369   0.362  -1.109  1.00  0.00    -0.415 N 
HETATM   22  H14 UNL     1      -2.991   1.349  -1.181  1.00  0.00     0.153 HD
BRANCH  21  23
HETATM   23  C11 UNL     1      -4.666   0.213  -1.602  1.00  0.00     0.118 C 
BRANCH  23  24
HETATM   24  C12 UNL     1      -5.860   0.632  -0.828  1.00  0.00     0.003 C 
HETATM   25  C13 UNL     1      -7.137   0.406  -1.689  1.00  0.00     0.006 C 
HETATM   26  C14 UNL     1      -8.294   0.929  -0.902  1.00  0.00     0.000 C 
HETATM   27  C15 UNL     1      -8.537  -0.027   0.257  1.00  0.00     0.000 C 
HETATM   28  C16 UNL     1      -7.367  -0.951   0.416  1.00  0.00     0.000 C 
HETATM   29  C17 UNL     1      -6.058  -0.183   0.439  1.00  0.00     0.006 C 
ENDBRANCH  23  24
ENDBRANCH  21  23
ENDBRANCH  20  21
ENDBRANCH   4  20
TORSDOF 10
