REMARK  5 active torsions:
REMARK  status: ('A' for Active; 'I' for Inactive)
REMARK       I    between atoms: C1_2  and  N1_3 
REMARK    1  A    between atoms: C1_2  and  C17_23 
REMARK    2  A    between atoms: N1_3  and  C2_4 
REMARK    3  A    between atoms: C6_8  and  N2_9 
REMARK    4  A    between atoms: N2_9  and  C7_10 
REMARK    5  A    between atoms: C10_14  and  C11_15 
ROOT
HETATM    1  C2  UNL     1      -1.730  -0.559   0.781  1.00  0.00     0.036 A 
HETATM    2  C3  UNL     1      -1.334  -0.088   2.034  1.00  0.00     0.029 A 
HETATM    3  C4  UNL     1      -0.011  -0.141   2.466  1.00  0.00     0.004 A 
HETATM    4  C5  UNL     1       0.957  -0.685   1.616  1.00  0.00     0.030 A 
HETATM    5  C6  UNL     1       0.519  -1.128   0.409  1.00  0.00     0.051 A 
HETATM    6  C16 UNL     1      -0.774  -1.086  -0.035  1.00  0.00     0.059 A 
ENDROOT
BRANCH   5   7
HETATM    7  N2  UNL     1       1.494  -1.687  -0.467  1.00  0.00    -0.188 N 
HETATM    8  H5  UNL     1       1.354  -2.078  -1.425  1.00  0.00     0.184 HD
BRANCH   7   9
HETATM    9  C7  UNL     1       2.878  -1.795  -0.141  1.00  0.00     0.727 A 
HETATM   10  N3  UNL     1       3.318  -2.911   0.487  1.00  0.00    -0.075 NA
HETATM   11  C8  UNL     1       4.632  -3.022   0.800  1.00  0.00     0.139 A 
HETATM   12  C9  UNL     1       5.559  -2.043   0.507  1.00  0.00     0.053 A 
HETATM   13  C10 UNL     1       5.072  -0.925  -0.132  1.00  0.00     0.089 A 
HETATM   14  N5  UNL     1       3.765  -0.827  -0.437  1.00  0.00    -0.062 NA
BRANCH  13  15
HETATM   15  C11 UNL     1       5.923   0.197  -0.510  1.00  0.00     0.011 A 
HETATM   16  C12 UNL     1       5.366   1.284  -1.148  1.00  0.00     0.017 A 
HETATM   17  C13 UNL     1       6.049   2.406  -1.560  1.00  0.00     0.020 A 
HETATM   18  C14 UNL     1       7.422   2.421  -1.297  1.00  0.00     0.116 A 
HETATM   19  N4  UNL     1       7.995   1.360  -0.668  1.00  0.00    -0.272 NA
HETATM   20  C15 UNL     1       7.280   0.283  -0.285  1.00  0.00     0.130 A 
ENDBRANCH  13  15
ENDBRANCH   7   9
ENDBRANCH   5   7
BRANCH   1  21
HETATM   21  N1  UNL     1      -3.112  -0.421   0.521  1.00  0.00    -0.327 N 
HETATM   22  C1  UNL     1      -3.800   0.649  -0.066  1.00  0.00     0.226 C 
HETATM   23  O1  UNL     1      -3.593   1.785  -0.554  1.00  0.00    -0.273 OA
HETATM   24  H1  UNL     1      -3.674  -1.236   0.812  1.00  0.00     0.169 HD
BRANCH  22  25
HETATM   25  C17 UNL     1      -5.266   0.600  -0.253  1.00  0.00     0.078 C 
HETATM   26  C18 UNL     1      -5.732   1.895  -0.912  1.00  0.00     0.014 C 
HETATM   27  C19 UNL     1      -7.165   1.489  -1.268  1.00  0.00     0.001 C 
HETATM   28  C20 UNL     1      -6.899   0.167  -1.983  1.00  0.00     0.001 C 
HETATM   29  C21 UNL     1      -5.629  -0.392  -1.361  1.00  0.00     0.014 C 
ENDBRANCH  22  25
ENDBRANCH   1  21
TORSDOF 5
