REMARK  1 active torsions:
REMARK  status: ('A' for Active; 'I' for Inactive)
REMARK       I    between atoms: N1_1  and  C1_2 
REMARK    1  A    between atoms: C1_2  and  C2_4 
ROOT
HETATM    1  C2  UNL     1      -1.668   0.035   1.874  1.00  0.00     0.082 C 
HETATM    2  C3  UNL     1      -2.814   1.020   1.782  1.00  0.00     0.014 C 
HETATM    3  C4  UNL     1      -2.731   1.618   0.388  1.00  0.00     0.002 C 
HETATM    4  C5  UNL     1      -2.120   0.447  -0.352  1.00  0.00     0.012 C 
HETATM    5  C6  UNL     1      -0.985   0.085   0.659  1.00  0.00    -0.009 A 
HETATM    6  C7  UNL     1       0.132   1.060   0.437  1.00  0.00     0.009 A 
HETATM    7  C8  UNL     1       1.418   1.481   0.130  1.00  0.00     0.015 A 
HETATM    8  C9  UNL     1       2.735   1.067   0.094  1.00  0.00     0.030 A 
HETATM    9  C10 UNL     1       2.757  -0.226   0.523  1.00  0.00     0.033 A 
HETATM   10  C11 UNL     1       1.377  -0.469   0.791  1.00  0.00    -0.067 A 
HETATM   11  C12 UNL     1       0.108  -0.550   0.990  1.00  0.00     0.038 A 
HETATM   12  C13 UNL     1       0.013  -0.771  -0.044  1.00  0.00     0.026 A 
HETATM   13  C14 UNL     1      -0.088  -1.800  -0.982  1.00  0.00     0.014 C 
HETATM   14  C15 UNL     1       1.070  -1.929  -1.964  1.00  0.00     0.029 C 
HETATM   15  C16 UNL     1       1.321  -0.604  -2.666  1.00  0.00    -0.007 C 
HETATM   16  C17 UNL     1       2.372   0.214  -2.675  1.00  0.00     0.114 C 
HETATM   17  N2  UNL     1       3.474   1.144  -2.728  1.00  0.00    -0.256 NA
HETATM   18  C18 UNL     1       3.770   1.923  -1.730  1.00  0.00     0.207 C 
HETATM   19  N3  UNL     1       3.335   2.232  -0.411  1.00  0.00    -0.351 N 
HETATM   20  H21 UNL     1       3.427   3.109   0.065  1.00  0.00     0.166 HD
ENDROOT
BRANCH   1  21
HETATM   21  C1  UNL     1      -2.204  -1.245   2.384  1.00  0.00     0.200 C 
HETATM   22  N1  UNL     1      -3.211  -1.781   1.533  1.00  0.00    -0.272 NA
HETATM   23  H1  UNL     1      -3.793  -2.395   0.927  1.00  0.00     0.127 HD
HETATM   24  H2  UNL     1      -3.810  -2.377   0.924  1.00  0.00     0.127 HD
HETATM   25  O1  UNL     1      -1.812  -1.795   3.449  1.00  0.00    -0.280 OA
ENDBRANCH   1  21
TORSDOF 1
