REMARK  5 active torsions:
REMARK  status: ('A' for Active; 'I' for Inactive)
REMARK    1  A    between atoms: O1_1  and  C1_2 
REMARK    2  A    between atoms: C2_3  and  N1_4 
REMARK    3  A    between atoms: N1_4  and  C3_5 
REMARK    4  A    between atoms: C6_10  and  N4_11 
REMARK    5  A    between atoms: N4_11  and  C7_12 
ROOT
HETATM    1  C3  UNL     1      -0.747  -0.714  -0.140  1.00  0.00     0.096 A 
HETATM    2  C4  UNL     1      -1.692  -1.642  -0.491  1.00  0.00     0.151 A 
HETATM    3  N2  UNL     1      -1.295  -2.925  -0.642  1.00  0.00    -0.252 NA
HETATM    4  C5  UNL     1       0.014  -3.269  -0.446  1.00  0.00     0.235 A 
HETATM    5  N3  UNL     1       0.877  -2.303  -0.105  1.00  0.00    -0.222 NA
HETATM    6  C6  UNL     1       0.584  -1.006   0.069  1.00  0.00     0.157 A 
ENDROOT
BRANCH   1   7
HETATM    7  N1  UNL     1      -1.222   0.607   0.002  1.00  0.00    -0.353 N 
HETATM    8  H2  UNL     1      -0.849   1.548   0.242  1.00  0.00     0.166 HD
BRANCH   7   9
HETATM    9  C2  UNL     1      -2.588   0.937  -0.208  1.00  0.00     0.048 C 
HETATM   10  C1  UNL     1      -3.222   0.946  -1.375  1.00  0.00     0.111 C 
HETATM   11  C16 UNL     1      -4.633   1.303  -1.475  1.00  0.00     0.080 C 
HETATM   12  C15 UNL     1      -5.176   1.968  -0.480  1.00  0.00    -0.003 C 
HETATM   13 CL2  UNL     1      -5.601   0.880  -2.852  1.00  0.00    -0.080 Cl
HETATM   14  C14 UNL     1      -4.444   2.329   0.548  1.00  0.00    -0.007 C 
HETATM   15  C13 UNL     1      -3.457   1.323   0.960  1.00  0.00     0.088 C 
BRANCH  10  16
HETATM   16  O1  UNL     1      -2.599   0.621  -2.576  1.00  0.00    -0.357 OA
HETATM   17  H1  UNL     1      -2.922  -0.164  -3.156  1.00  0.00     0.217 HD
ENDBRANCH  10  16
ENDBRANCH   7   9
ENDBRANCH   1   7
BRANCH   6  18
HETATM   18  N4  UNL     1       1.495   0.020   0.430  1.00  0.00    -0.339 N 
HETATM   19  H5  UNL     1       1.089   0.985   0.522  1.00  0.00     0.167 HD
BRANCH  18  20
HETATM   20  C7  UNL     1       2.885  -0.098   0.682  1.00  0.00     0.035 A 
HETATM   21  C8  UNL     1       3.621  -1.258   0.620  1.00  0.00     0.029 A 
HETATM   22  C9  UNL     1       4.973  -1.335   0.872  1.00  0.00     0.004 A 
HETATM   23  C10 UNL     1       5.647  -0.187   1.208  1.00  0.00     0.024 A 
HETATM   24  C11 UNL     1       4.962   0.984   1.281  1.00  0.00     0.036 A 
HETATM   25 CL1  UNL     1       5.818   2.444   1.708  1.00  0.00    -0.084 Cl
HETATM   26  C12 UNL     1       3.622   1.014   1.024  1.00  0.00     0.053 A 
ENDBRANCH  18  20
ENDBRANCH   6  18
TORSDOF 5
