REMARK  4 active torsions:
REMARK  status: ('A' for Active; 'I' for Inactive)
REMARK    1  A    between atoms: C4_5  and  N1_6 
REMARK    2  A    between atoms: N1_6  and  C5_7 
REMARK    3  A    between atoms: C5_7  and  C6_8 
REMARK    4  A    between atoms: N2_9  and  C7_10 
ROOT
HETATM    1  C7  UNL     1       0.910  -1.115   0.015  1.00  0.00     0.184 C 
HETATM    2  C8  UNL     1       1.340  -1.470   1.229  1.00  0.00     0.142 C 
HETATM    3  N3  UNL     1       2.353  -0.982   2.086  1.00  0.00    -0.391 N 
HETATM    4  C9  UNL     1       3.197   0.160   1.874  1.00  0.00     0.160 C 
HETATM    5  C10 UNL     1       3.529   0.440   0.468  1.00  0.00    -0.005 A 
HETATM    6  C11 UNL     1       4.855   0.868   0.342  1.00  0.00     0.035 A 
HETATM    7  C12 UNL     1       5.440   1.200  -0.852  1.00  0.00     0.034 A 
HETATM    8 CL1  UNL     1       7.113   1.728  -0.914  1.00  0.00    -0.084 Cl
HETATM    9  C13 UNL     1       4.675   1.107  -1.998  1.00  0.00     0.026 A 
HETATM   10  C14 UNL     1       3.358   0.693  -1.953  1.00  0.00     0.039 A 
HETATM   11  C15 UNL     1       2.819   0.370  -0.725  1.00  0.00     0.086 A 
HETATM   12  O1  UNL     1       1.476  -0.049  -0.710  1.00  0.00    -0.290 OA
HETATM   13  H8  UNL     1       2.524  -1.498   2.981  1.00  0.00     0.159 HD
ENDROOT
BRANCH   1  14
HETATM   14  N2  UNL     1      -0.162  -1.834  -0.585  1.00  0.00    -0.238 NA
HETATM   15  C6  UNL     1      -1.329  -1.979  -0.054  1.00  0.00     0.112 C 
BRANCH  15  16
HETATM   16  C5  UNL     1      -1.793  -1.444   1.258  1.00  0.00     0.166 C 
BRANCH  16  17
HETATM   17  N1  UNL     1      -3.202  -1.151   1.236  1.00  0.00    -0.385 N 
HETATM   18  H3  UNL     1      -3.849  -1.635   1.896  1.00  0.00     0.160 HD
BRANCH  17  19
HETATM   19  C4  UNL     1      -3.742  -0.204   0.324  1.00  0.00     0.029 A 
HETATM   20  C3  UNL     1      -2.985   0.487  -0.580  1.00  0.00     0.032 A 
HETATM   21  C2  UNL     1      -3.512   1.405  -1.463  1.00  0.00     0.046 A 
HETATM   22  C1  UNL     1      -4.869   1.667  -1.465  1.00  0.00     0.138 A 
HETATM   23  F1  UNL     1      -5.423   2.563  -2.319  1.00  0.00    -0.204 F 
HETATM   24  C17 UNL     1      -5.669   0.987  -0.562  1.00  0.00     0.074 A 
HETATM   25  C16 UNL     1      -5.091   0.076   0.303  1.00  0.00     0.056 A 
HETATM   26 CL2  UNL     1      -7.397   1.292  -0.533  1.00  0.00    -0.081 Cl
ENDBRANCH  17  19
ENDBRANCH  16  17
ENDBRANCH  15  16
ENDBRANCH   1  14
TORSDOF 4
