REMARK  3 active torsions:
REMARK  status: ('A' for Active; 'I' for Inactive)
REMARK    1  A    between atoms: C1_2  and  C2_3 
REMARK    2  A    between atoms: C1_2  and  C7_9 
REMARK    3  A    between atoms: C11_13  and  N2_14 
ROOT
HETATM    1  C7  UNL     1       2.372   0.231  -0.154  1.00  0.00     0.017 A 
HETATM    2  C8  UNL     1       2.217   1.121  -1.167  1.00  0.00     0.015 A 
HETATM    3  C9  UNL     1       1.068   1.782  -1.539  1.00  0.00     0.003 A 
HETATM    4  C10 UNL     1      -0.049   1.477  -0.760  1.00  0.00     0.030 A 
HETATM    5  C11 UNL     1      -0.070   0.600   0.300  1.00  0.00     0.042 A 
HETATM    6  C21 UNL     1       1.180   0.020   0.537  1.00  0.00     0.045 A 
ENDROOT
BRANCH   5   7
HETATM    7  N2  UNL     1      -1.125   0.229   1.151  1.00  0.00    -0.300 N 
HETATM    8  C12 UNL     1      -1.046   1.396   1.865  1.00  0.00     0.215 C 
HETATM    9  N3  UNL     1      -2.138   2.035   2.032  1.00  0.00    -0.256 NA
HETATM   10  C13 UNL     1      -3.265   1.408   1.442  1.00  0.00     0.118 C 
HETATM   11  C14 UNL     1      -4.455   0.918   1.244  1.00  0.00     0.019 C 
HETATM   12  C15 UNL     1      -5.707   0.324   0.841  1.00  0.00    -0.003 C 
HETATM   13  C16 UNL     1      -5.738  -0.201  -0.367  1.00  0.00    -0.025 C 
HETATM   14  C17 UNL     1      -4.934  -0.445  -1.562  1.00  0.00     0.044 C 
HETATM   15  C18 UNL     1      -4.932  -1.919  -1.843  1.00  0.00     0.071 C 
HETATM   16  S1  UNL     1      -3.770  -3.068  -1.606  1.00  0.00    -0.116 SA
HETATM   17  C19 UNL     1      -2.383  -2.460  -0.987  1.00  0.00     0.163 C 
HETATM   18  N4  UNL     1      -2.109  -1.178  -0.509  1.00  0.00    -0.249 NA
HETATM   19  C20 UNL     1      -1.433  -1.009   0.617  1.00  0.00     0.215 C 
ENDBRANCH   5   7
BRANCH   1  20
HETATM   20  C1  UNL     1       3.547  -0.460   0.297  1.00  0.00     0.192 C 
HETATM   21  O1  UNL     1       3.290  -1.537   0.932  1.00  0.00    -0.287 OA
BRANCH  20  22
HETATM   22  C2  UNL     1       4.977  -0.279   0.245  1.00  0.00     0.018 A 
HETATM   23  C3  UNL     1       5.648   0.425  -0.727  1.00  0.00     0.034 A 
HETATM   24  C4  UNL     1       7.041   0.575  -0.674  1.00  0.00     0.117 A 
HETATM   25  N1  UNL     1       7.741   0.029   0.334  1.00  0.00    -0.273 NA
HETATM   26  C5  UNL     1       7.165  -0.668   1.314  1.00  0.00     0.117 A 
HETATM   27  C6  UNL     1       5.814  -0.782   1.213  1.00  0.00     0.034 A 
ENDBRANCH  20  22
ENDBRANCH   1  20
TORSDOF 3
