REMARK  5 active torsions:
REMARK  status: ('A' for Active; 'I' for Inactive)
REMARK    1  A    between atoms: C6_7  and  N1_8 
REMARK    2  A    between atoms: N1_8  and  C7_9 
REMARK    3  A    between atoms: C11_13  and  N2_14 
REMARK    4  A    between atoms: N2_14  and  C12_15 
REMARK    5  A    between atoms: C15_19  and  C16_20 
ROOT
HETATM    1  C7  UNL     1      -2.088  -0.018  -0.351  1.00  0.00     0.030 A 
HETATM    2  C8  UNL     1      -2.453  -1.224   0.210  1.00  0.00     0.029 A 
HETATM    3  C9  UNL     1      -1.456  -2.034   0.711  1.00  0.00     0.004 A 
HETATM    4  C10 UNL     1      -0.153  -1.604   0.628  1.00  0.00     0.030 A 
HETATM    5  C11 UNL     1       0.266  -0.415   0.081  1.00  0.00     0.051 A 
HETATM    6  C21 UNL     1      -0.765   0.359  -0.405  1.00  0.00     0.059 A 
ENDROOT
BRANCH   5   7
HETATM    7  N2  UNL     1       1.599   0.047  -0.014  1.00  0.00    -0.188 N 
HETATM    8  H14 UNL     1       1.740   0.981  -0.463  1.00  0.00     0.184 HD
BRANCH   7   9
HETATM    9  C12 UNL     1       2.764  -0.623   0.435  1.00  0.00     0.727 A 
HETATM   10  N3  UNL     1       2.847  -1.817   1.035  1.00  0.00    -0.075 NA
HETATM   11  C13 UNL     1       3.941  -2.425   1.447  1.00  0.00     0.139 A 
HETATM   12  C14 UNL     1       5.150  -1.799   1.257  1.00  0.00     0.053 A 
HETATM   13  C15 UNL     1       5.137  -0.571   0.646  1.00  0.00     0.089 A 
HETATM   14  N5  UNL     1       3.955  -0.061   0.275  1.00  0.00    -0.062 NA
BRANCH  13  15
HETATM   15  C16 UNL     1       6.354   0.186   0.392  1.00  0.00     0.011 A 
HETATM   16  C17 UNL     1       7.614  -0.243   0.731  1.00  0.00     0.017 A 
HETATM   17  C18 UNL     1       8.748   0.524   0.463  1.00  0.00     0.020 A 
HETATM   18  C19 UNL     1       8.613   1.742  -0.155  1.00  0.00     0.116 A 
HETATM   19  N4  UNL     1       7.382   2.191  -0.501  1.00  0.00    -0.272 NA
HETATM   20  C20 UNL     1       6.296   1.418  -0.226  1.00  0.00     0.130 A 
ENDBRANCH  13  15
ENDBRANCH   7   9
ENDBRANCH   5   7
BRANCH   1  21
HETATM   21  N1  UNL     1      -3.083   0.848  -0.878  1.00  0.00    -0.378 N 
HETATM   22  H10 UNL     1      -2.822   1.763  -1.307  1.00  0.00     0.160 HD
BRANCH  21  23
HETATM   23  C6  UNL     1      -4.477   0.522  -0.853  1.00  0.00     0.151 C 
HETATM   24  C1  UNL     1      -5.017   0.328   0.530  1.00  0.00     0.149 C 
HETATM   25  O1  UNL     1      -4.485   0.647   1.578  1.00  0.00    -0.296 OA
HETATM   26  C2  UNL     1      -6.352  -0.328   0.602  1.00  0.00     0.080 C 
HETATM   27  C3  UNL     1      -6.957  -0.252  -0.785  1.00  0.00     0.007 C 
HETATM   28  C4  UNL     1      -6.770   1.111  -1.409  1.00  0.00     0.003 C 
HETATM   29  C5  UNL     1      -5.336   1.491  -1.590  1.00  0.00     0.033 C 
ENDBRANCH  21  23
ENDBRANCH   1  21
TORSDOF 5
