REMARK  6 active torsions:
REMARK  status: ('A' for Active; 'I' for Inactive)
REMARK    1  A    between atoms: C3_3  and  N1_4 
REMARK    2  A    between atoms: N1_4  and  C4_5 
REMARK    3  A    between atoms: C4_5  and  C5_6 
REMARK    4  A    between atoms: C12_13  and  N2_14 
REMARK    5  A    between atoms: N2_14  and  C13_15 
REMARK    6  A    between atoms: C16_19  and  C17_20 
ROOT
HETATM    1  C1  UNL     1      -0.605  -1.837  -2.027  1.00  0.00     0.004 A 
HETATM    2  C2  UNL     1      -1.680  -1.030  -1.720  1.00  0.00     0.029 A 
HETATM    3  C3  UNL     1      -1.532   0.125  -0.986  1.00  0.00     0.030 A 
HETATM    4  C11 UNL     1      -0.259   0.436  -0.574  1.00  0.00     0.059 A 
HETATM    5  C12 UNL     1       0.870  -0.305  -0.831  1.00  0.00     0.051 A 
HETATM    6  C22 UNL     1       0.632  -1.441  -1.569  1.00  0.00     0.030 A 
ENDROOT
BRANCH   5   7
HETATM    7  N2  UNL     1       2.129   0.128  -0.346  1.00  0.00    -0.188 N 
HETATM    8  H18 UNL     1       2.142   1.019   0.197  1.00  0.00     0.184 HD
BRANCH   7   9
HETATM    9  C13 UNL     1       3.377  -0.519  -0.521  1.00  0.00     0.727 A 
HETATM   10  N3  UNL     1       3.617  -1.662  -1.173  1.00  0.00    -0.075 NA
HETATM   11  C14 UNL     1       4.815  -2.237  -1.312  1.00  0.00     0.139 A 
HETATM   12  C15 UNL     1       5.921  -1.643  -0.757  1.00  0.00     0.053 A 
HETATM   13  C16 UNL     1       5.708  -0.483  -0.089  1.00  0.00     0.089 A 
HETATM   14  N5  UNL     1       4.479   0.036   0.010  1.00  0.00    -0.062 NA
BRANCH  13  15
HETATM   15  C17 UNL     1       6.800   0.235   0.538  1.00  0.00     0.011 A 
HETATM   16  C18 UNL     1       6.526   1.422   1.212  1.00  0.00     0.017 A 
HETATM   17  C19 UNL     1       7.516   2.178   1.844  1.00  0.00     0.020 A 
HETATM   18  C20 UNL     1       8.811   1.697   1.779  1.00  0.00     0.116 A 
HETATM   19  N4  UNL     1       9.096   0.552   1.134  1.00  0.00    -0.272 NA
HETATM   20  C21 UNL     1       8.106  -0.145   0.536  1.00  0.00     0.130 A 
ENDBRANCH  13  15
ENDBRANCH   7   9
ENDBRANCH   5   7
BRANCH   3  21
HETATM   21  N1  UNL     1      -2.618   0.971  -0.636  1.00  0.00    -0.389 N 
HETATM   22  H3  UNL     1      -2.385   1.865  -0.107  1.00  0.00     0.159 HD
BRANCH  21  23
HETATM   23  C4  UNL     1      -4.011   0.747  -0.922  1.00  0.00     0.124 C 
BRANCH  23  24
HETATM   24  C5  UNL     1      -4.649  -0.356  -0.124  1.00  0.00     0.003 C 
HETATM   25  C6  UNL     1      -6.109  -0.540  -0.474  1.00  0.00     0.006 C 
HETATM   26  C7  UNL     1      -7.007   0.463   0.173  1.00  0.00     0.000 C 
HETATM   27  C8  UNL     1      -6.813   0.419   1.663  1.00  0.00     0.000 C 
HETATM   28  C9  UNL     1      -5.384   0.912   1.913  1.00  0.00     0.000 C 
HETATM   29  C10 UNL     1      -4.452  -0.122   1.355  1.00  0.00     0.006 C 
ENDBRANCH  23  24
ENDBRANCH  21  23
ENDBRANCH   3  21
TORSDOF 6
