REMARK  3 active torsions:
REMARK  status: ('A' for Active; 'I' for Inactive)
REMARK    1  A    between atoms: C8_10  and  N2_11 
REMARK    2  A    between atoms: N2_11  and  C9_12 
REMARK    3  A    between atoms: C12_16  and  C13_17 
ROOT
HETATM    1  N2  UNL     1      -0.212  -1.326  -0.099  1.00  0.00    -0.211 N 
HETATM    2  H11 UNL     1      -0.983  -2.028  -0.134  1.00  0.00     0.179 HD
ENDROOT
BRANCH   1   3
HETATM    3  C8  UNL     1      -0.613   0.058  -0.145  1.00  0.00     0.154 A 
HETATM    4  C7  UNL     1      -2.082   0.245  -0.238  1.00  0.00    -0.023 A 
HETATM    5  C2  UNL     1      -3.014  -0.273   0.791  1.00  0.00     0.015 C 
HETATM    6  C6  UNL     1      -2.405   0.916  -1.334  1.00  0.00     0.039 A 
HETATM    7  C1  UNL     1      -3.119   0.693   1.950  1.00  0.00     0.015 C 
HETATM    8  C3  UNL     1      -4.338  -0.674   0.219  1.00  0.00     0.018 C 
HETATM    9  C4  UNL     1      -5.298   0.466   0.061  1.00  0.00     0.103 C 
HETATM   10  C5  UNL     1      -4.979   1.177  -1.207  1.00  0.00     0.222 C 
HETATM   11  O1  UNL     1      -5.878   1.735  -1.863  1.00  0.00    -0.273 OA
HETATM   12  N1  UNL     1      -3.690   1.324  -1.831  1.00  0.00    -0.327 N 
HETATM   13  H9  UNL     1      -3.692   1.792  -2.779  1.00  0.00     0.169 HD
HETATM   14  C19 UNL     1      -1.190   1.242  -2.078  1.00  0.00     0.028 A 
HETATM   15  C18 UNL     1      -0.162   0.740  -1.381  1.00  0.00     0.005 A 
ENDBRANCH   1   3
BRANCH   1  16
HETATM   16  C9  UNL     1       1.142  -1.815  -0.009  1.00  0.00     0.723 A 
HETATM   17  N3  UNL     1       1.392  -3.149   0.028  1.00  0.00    -0.075 NA
HETATM   18  C10 UNL     1       2.692  -3.534   0.113  1.00  0.00     0.139 A 
HETATM   19  C11 UNL     1       3.668  -2.565   0.156  1.00  0.00     0.053 A 
HETATM   20  C12 UNL     1       3.395  -1.214   0.118  1.00  0.00     0.089 A 
HETATM   21  N5  UNL     1       2.103  -0.853   0.034  1.00  0.00    -0.062 NA
BRANCH  20  22
HETATM   22  C13 UNL     1       4.403  -0.162   0.162  1.00  0.00     0.011 A 
HETATM   23  C14 UNL     1       3.960   1.139   0.113  1.00  0.00     0.017 A 
HETATM   24  C15 UNL     1       4.856   2.206   0.150  1.00  0.00     0.020 A 
HETATM   25  C16 UNL     1       6.203   1.859   0.237  1.00  0.00     0.116 A 
HETATM   26  N4  UNL     1       6.658   0.601   0.285  1.00  0.00    -0.272 NA
HETATM   27  C17 UNL     1       5.755  -0.422   0.248  1.00  0.00     0.130 A 
ENDBRANCH  20  22
ENDBRANCH   1  16
TORSDOF 3
