REMARK  4 active torsions:
REMARK  status: ('A' for Active; 'I' for Inactive)
REMARK    1  A    between atoms: C6_7  and  N1_8 
REMARK    2  A    between atoms: N1_8  and  C7_9 
REMARK    3  A    between atoms: C14_18  and  C15_19 
REMARK    4  A    between atoms: C19_24  and  C20_25 
ROOT
HETATM    1  C7  UNL     1       0.908  -0.500  -0.523  1.00  0.00     0.008 A 
HETATM    2  C8  UNL     1       0.643  -0.162  -1.781  1.00  0.00     0.024 A 
HETATM    3  C9  UNL     1      -0.489   0.706  -2.118  1.00  0.00     0.001 A 
HETATM    4  C10 UNL     1      -1.204   1.111  -1.091  1.00  0.00     0.021 A 
HETATM    5  C11 UNL     1      -1.034   0.822   0.337  1.00  0.00     0.227 A 
HETATM    6  C12 UNL     1       0.124  -0.063   0.663  1.00  0.00     0.109 A 
HETATM    7  N2  UNL     1      -0.955   2.023   1.147  1.00  0.00     0.122 N 
HETATM    8  C13 UNL     1      -1.445   1.553   2.447  1.00  0.00     0.420 C 
HETATM    9  N3  UNL     1      -2.517   0.613   2.103  1.00  0.00    -0.260 NA
HETATM   10  C14 UNL     1      -2.282   0.189   0.886  1.00  0.00     0.086 C 
HETATM   11  H16 UNL     1      -1.569   2.783   0.803  1.00  0.00     0.320 HD
ENDROOT
BRANCH  10  12
HETATM   12  C15 UNL     1      -3.147  -0.757   0.222  1.00  0.00     0.019 A 
HETATM   13  C16 UNL     1      -2.934  -2.106  -0.035  1.00  0.00     0.130 A 
HETATM   14  N4  UNL     1      -3.841  -2.847  -0.665  1.00  0.00    -0.272 NA
HETATM   15  C17 UNL     1      -5.023  -2.327  -1.090  1.00  0.00     0.117 A 
HETATM   16  C18 UNL     1      -5.290  -0.989  -0.862  1.00  0.00     0.031 A 
HETATM   17  C19 UNL     1      -4.349  -0.218  -0.209  1.00  0.00    -0.020 A 
BRANCH  17  18
HETATM   18  C20 UNL     1      -4.725   1.179  -0.017  1.00  0.00     0.024 C 
HETATM   19  C21 UNL     1      -5.848   1.769  -0.395  1.00  0.00     0.085 C 
HETATM   20 CL1  UNL     1      -6.198   3.448  -0.116  1.00  0.00    -0.097 Cl
ENDBRANCH  17  18
ENDBRANCH  10  12
BRANCH   1  21
HETATM   21  N1  UNL     1       2.008  -1.340  -0.226  1.00  0.00    -0.382 N 
HETATM   22  H10 UNL     1       1.453  -2.243  -0.250  1.00  0.00     0.160 HD
BRANCH  21  23
HETATM   23  C6  UNL     1       3.424  -1.304   0.050  1.00  0.00     0.151 C 
HETATM   24  C1  UNL     1       4.118  -0.714  -1.111  1.00  0.00     0.149 C 
HETATM   25  O1  UNL     1       3.933  -1.023  -2.274  1.00  0.00    -0.296 OA
HETATM   26  C2  UNL     1       5.130   0.349  -0.846  1.00  0.00     0.080 C 
HETATM   27  C3  UNL     1       5.951   0.038   0.384  1.00  0.00     0.007 C 
HETATM   28  C4  UNL     1       5.121  -0.272   1.581  1.00  0.00     0.003 C 
HETATM   29  C5  UNL     1       3.658  -0.455   1.275  1.00  0.00     0.033 C 
ENDBRANCH  21  23
ENDBRANCH   1  21
TORSDOF 4
