REMARK  6 active torsions:
REMARK  status: ('A' for Active; 'I' for Inactive)
REMARK       I    between atoms: C1_2  and  N1_3 
REMARK    1  A    between atoms: C1_2  and  C17_24 
REMARK    2  A    between atoms: N1_3  and  C2_4 
REMARK    3  A    between atoms: C5_8  and  C6_9 
REMARK    4  A    between atoms: C6_9  and  N3_10 
REMARK    5  A    between atoms: N3_10  and  C7_11 
REMARK    6  A    between atoms: N5_20  and  C15_21 
ROOT
HETATM    1  C2  UNL     1       2.899   0.622   0.326  1.00  0.00     0.031 A 
HETATM    2  C3  UNL     1       2.907   1.667   1.128  1.00  0.00     0.113 A 
HETATM    3  N2  UNL     1       1.681   2.356   1.486  1.00  0.00    -0.373 N 
HETATM    4  C4  UNL     1       0.458   1.894   0.964  1.00  0.00     0.092 A 
HETATM    5  C5  UNL     1       0.498   0.861   0.166  1.00  0.00    -0.041 A 
HETATM    6  C16 UNL     1       1.668   0.087  -0.279  1.00  0.00     0.096 A 
HETATM    7  H3  UNL     1       1.747   3.170   2.126  1.00  0.00     0.164 HD
ENDROOT
BRANCH   5   8
HETATM    8  C6  UNL     1      -0.740   0.327  -0.415  1.00  0.00     0.174 C 
BRANCH   8   9
HETATM    9  N3  UNL     1      -1.919   1.049   0.002  1.00  0.00    -0.221 N 
HETATM   10  H7  UNL     1      -1.785   2.034   0.350  1.00  0.00     0.178 HD
BRANCH   9  11
HETATM   11  C7  UNL     1      -3.300   0.636  -0.028  1.00  0.00     0.698 C 
HETATM   12  N4  UNL     1      -3.110  -0.697  -0.263  1.00  0.00    -0.078 NA
HETATM   13  C8  UNL     1      -4.278  -1.578  -0.375  1.00  0.00     0.132 C 
HETATM   14  C9  UNL     1      -5.301  -2.442  -0.518  1.00  0.00    -0.006 C 
HETATM   15  C10 UNL     1      -6.635  -1.948   0.096  1.00  0.00     0.040 C 
HETATM   16  C11 UNL     1      -7.258  -0.771  -0.544  1.00  0.00    -0.008 A 
HETATM   17  C12 UNL     1      -6.106  -0.089  -0.074  1.00  0.00     0.021 A 
HETATM   18  C15 UNL     1      -7.082   0.651  -0.947  1.00  0.00     0.076 A 
HETATM   19  C13 UNL     1      -5.781   1.204  -0.359  1.00  0.00     0.138 A 
HETATM   20  C14 UNL     1      -5.366   2.430  -0.565  1.00  0.00     0.162 A 
HETATM   21  N5  UNL     1      -6.553   1.911  -1.081  1.00  0.00    -0.270 N 
HETATM   22  N6  UNL     1      -4.249   1.816   0.219  1.00  0.00    -0.197 N 
HETATM   23  H15 UNL     1      -3.974   2.167   1.158  1.00  0.00     0.180 HD
ENDBRANCH   9  11
ENDBRANCH   8   9
ENDBRANCH   5   8
BRANCH   1  24
HETATM   24  N1  UNL     1       4.087  -0.051  -0.020  1.00  0.00    -0.325 N 
HETATM   25  C1  UNL     1       5.429   0.167   0.284  1.00  0.00     0.256 C 
HETATM   26  O1  UNL     1       5.676   1.200   1.026  1.00  0.00    -0.267 OA
HETATM   27  H1  UNL     1       4.092  -0.921  -0.629  1.00  0.00     0.169 HD
BRANCH  25  28
HETATM   28  C17 UNL     1       6.656  -0.515  -0.053  1.00  0.00     0.035 A 
HETATM   29  C18 UNL     1       6.514  -1.696  -0.770  1.00  0.00     0.036 A 
HETATM   30  C19 UNL     1       7.704  -2.318  -1.059  1.00  0.00     0.117 A 
HETATM   31  N7  UNL     1       8.943  -1.890  -0.719  1.00  0.00    -0.273 NA
HETATM   32  C20 UNL     1       9.052  -0.734  -0.020  1.00  0.00     0.117 A 
HETATM   33  C21 UNL     1       7.904  -0.080   0.293  1.00  0.00     0.036 A 
ENDBRANCH  25  28
ENDBRANCH   1  24
TORSDOF 6
