REMARK  6 active torsions:
REMARK  status: ('A' for Active; 'I' for Inactive)
REMARK    1  A    between atoms: N1_1  and  C1_2 
REMARK    2  A    between atoms: C8_11  and  S1_12 
REMARK    3  A    between atoms: S1_12  and  C9_13 
REMARK    4  A    between atoms: C9_13  and  C10_14 
REMARK    5  A    between atoms: S2_18  and  N4_19 
REMARK       I    between atoms: N4_19  and  C14_20 
REMARK    6  A    between atoms: C14_20  and  C15_22 
ROOT
HETATM    1  C10 UNL     1      -0.012   0.467   0.208  1.00  0.00    -0.060 C 
HETATM    2  C11 UNL     1      -0.332  -0.697  -0.384  1.00  0.00     0.006 C 
HETATM    3  C12 UNL     1       0.644  -1.789  -0.598  1.00  0.00     0.021 C 
HETATM    4  C13 UNL     1       1.452  -2.035   0.423  1.00  0.00     0.028 C 
HETATM    5  S2  UNL     1       2.268  -0.716   0.862  1.00  0.00    -0.085 SA
HETATM    6  C20 UNL     1       1.333   0.836   0.724  1.00  0.00     0.125 C 
ENDROOT
BRANCH   1   7
HETATM    7  C9  UNL     1      -1.045   1.524   0.392  1.00  0.00     0.115 C 
BRANCH   7   8
HETATM    8  S1  UNL     1      -2.646   0.971  -0.258  1.00  0.00    -0.109 SA
BRANCH   8   9
HETATM    9  C8  UNL     1      -3.298  -0.376   0.707  1.00  0.00     0.090 A 
HETATM   10  C5  UNL     1      -4.616  -0.836   0.175  1.00  0.00     0.097 A 
HETATM   11  C1  UNL     1      -5.572   0.329   0.296  1.00  0.00     0.266 A 
HETATM   12  C4  UNL     1      -4.424  -1.301  -1.205  1.00  0.00     0.112 A 
HETATM   13  C6  UNL     1      -4.971  -1.938   1.103  1.00  0.00     0.017 A 
HETATM   14  C2  UNL     1      -6.119   0.762  -1.016  1.00  0.00     0.029 A 
HETATM   15  C3  UNL     1      -5.889   0.282  -2.218  1.00  0.00     0.114 A 
HETATM   16  N2  UNL     1      -4.985  -0.804  -2.240  1.00  0.00    -0.276 NA
HETATM   17  C7  UNL     1      -3.991  -2.052   1.998  1.00  0.00     0.115 A 
HETATM   18  N3  UNL     1      -2.972  -1.076   1.730  1.00  0.00    -0.257 NA
BRANCH  11  19
HETATM   19  N1  UNL     1      -4.981   1.443   0.993  1.00  0.00     0.088 N 
HETATM   20  H1  UNL     1      -5.170   2.340   0.497  1.00  0.00     0.313 HD
HETATM   21  H2  UNL     1      -5.299   1.501   1.991  1.00  0.00     0.313 HD
ENDBRANCH  11  19
ENDBRANCH   8   9
ENDBRANCH   7   8
ENDBRANCH   1   7
BRANCH   5  22
HETATM   22  N4  UNL     1       4.028  -0.737   0.560  1.00  0.00    -0.301 N 
HETATM   23  C14 UNL     1       4.767   0.422   0.199  1.00  0.00     0.261 C 
HETATM   24  O1  UNL     1       4.164   1.514   0.085  1.00  0.00    -0.267 OA
HETATM   25  H13 UNL     1       4.555  -1.637   0.648  1.00  0.00     0.176 HD
BRANCH  23  26
HETATM   26  C15 UNL     1       6.202   0.429  -0.052  1.00  0.00     0.035 A 
HETATM   27  C16 UNL     1       6.795   1.608  -0.408  1.00  0.00     0.036 A 
HETATM   28  C17 UNL     1       8.171   1.618  -0.648  1.00  0.00     0.117 A 
HETATM   29  N5  UNL     1       8.924   0.498  -0.539  1.00  0.00    -0.273 NA
HETATM   30  C18 UNL     1       8.363  -0.680  -0.189  1.00  0.00     0.117 A 
HETATM   31  C19 UNL     1       7.012  -0.684   0.046  1.00  0.00     0.036 A 
ENDBRANCH  23  26
ENDBRANCH   5  22
TORSDOF 6
