REMARK  5 active torsions:
REMARK  status: ('A' for Active; 'I' for Inactive)
REMARK    1  A    between atoms: N1_3  and  C3_4 
REMARK    2  A    between atoms: C3_4  and  C4_5 
REMARK    3  A    between atoms: C4_5  and  C5_6 
REMARK    4  A    between atoms: C11_14  and  N4_15 
REMARK    5  A    between atoms: N4_15  and  C12_16 
ROOT
HETATM    1  C1  UNL     1       5.049   2.320  -1.285  1.00  0.00     0.056 C 
HETATM    2  C2  UNL     1       4.472   1.058  -0.769  1.00  0.00     0.241 C 
HETATM    3  N1  UNL     1       3.852   0.069  -0.296  1.00  0.00    -0.424 NA
ENDROOT
BRANCH   3   4
HETATM    4  C3  UNL     1       2.500   0.127   0.244  1.00  0.00     0.114 C 
BRANCH   4   5
HETATM    5  C4  UNL     1       1.568  -0.338  -0.805  1.00  0.00     0.088 C 
BRANCH   5   6
HETATM    6  C5  UNL     1       0.108  -0.344  -0.404  1.00  0.00     0.076 C 
HETATM    7  N2  UNL     1      -0.002   0.038   0.710  1.00  0.00    -0.436 NA
HETATM    8  C6  UNL     1      -0.199   0.457   1.956  1.00  0.00     0.337 C 
HETATM    9  N3  UNL     1      -1.465   1.270   2.145  1.00  0.00    -0.381 N 
HETATM   10  C7  UNL     1      -2.161   0.410   1.177  1.00  0.00     0.086 A 
HETATM   11  H11 UNL     1      -1.535   2.105   2.807  1.00  0.00     0.157 HD
HETATM   12  C8  UNL     1      -1.967   1.465   0.326  1.00  0.00     0.076 A 
HETATM   13  C13 UNL     1      -2.394  -0.790   1.770  1.00  0.00     0.017 A 
HETATM   14  C11 UNL     1      -2.473  -1.019   0.419  1.00  0.00     0.107 A 
HETATM   15  C10 UNL     1      -2.281   0.023  -0.437  1.00  0.00     0.082 A 
HETATM   16  C9  UNL     1      -2.052   1.227  -1.022  1.00  0.00    -0.009 A 
HETATM   17  N5  UNL     1      -2.052  -1.029  -1.422  1.00  0.00    -0.401 N 
HETATM   18  C14 UNL     1      -0.623  -0.826  -1.622  1.00  0.00     0.182 C 
HETATM   19  H17 UNL     1      -2.462  -1.822  -2.017  1.00  0.00     0.154 HD
BRANCH  14  20
HETATM   20  N4  UNL     1      -2.756  -2.384   0.604  1.00  0.00    -0.350 N 
HETATM   21  H14 UNL     1      -1.988  -3.112   0.644  1.00  0.00     0.163 HD
BRANCH  20  22
HETATM   22  C12 UNL     1      -4.118  -2.830   0.739  1.00  0.00     0.349 C 
HETATM   23  O1  UNL     1      -4.925  -1.845   0.666  1.00  0.00    -0.284 OA
ENDBRANCH  20  22
ENDBRANCH  14  20
ENDBRANCH   5   6
ENDBRANCH   4   5
ENDBRANCH   3   4
TORSDOF 5
