REMARK  5 active torsions:
REMARK  status: ('A' for Active; 'I' for Inactive)
REMARK       I    between atoms: C1_2  and  N1_3 
REMARK    1  A    between atoms: C1_2  and  C17_23 
REMARK    2  A    between atoms: N1_3  and  C2_4 
REMARK    3  A    between atoms: C6_8  and  N2_9 
REMARK    4  A    between atoms: N2_9  and  C7_10 
REMARK    5  A    between atoms: C10_14  and  C11_15 
ROOT
HETATM    1  C2  UNL     1       2.581  -1.081  -0.803  1.00  0.00     0.037 A 
HETATM    2  C3  UNL     1       2.340  -1.389  -2.129  1.00  0.00     0.029 A 
HETATM    3  C4  UNL     1       1.045  -1.604  -2.548  1.00  0.00     0.004 A 
HETATM    4  C5  UNL     1      -0.034  -1.518  -1.663  1.00  0.00     0.030 A 
HETATM    5  C6  UNL     1       0.237  -1.209  -0.346  1.00  0.00     0.051 A 
HETATM    6  C16 UNL     1       1.521  -0.988   0.104  1.00  0.00     0.059 A 
ENDROOT
BRANCH   5   7
HETATM    7  N2  UNL     1      -0.804  -1.121   0.596  1.00  0.00    -0.188 N 
HETATM    8  H5  UNL     1      -0.631  -0.920   1.614  1.00  0.00     0.184 HD
BRANCH   7   9
HETATM    9  C7  UNL     1      -2.203  -1.254   0.480  1.00  0.00     0.727 A 
HETATM   10  N3  UNL     1      -2.586  -2.562   0.446  1.00  0.00    -0.075 NA
HETATM   11  C8  UNL     1      -3.874  -2.929   0.351  1.00  0.00     0.139 A 
HETATM   12  C9  UNL     1      -4.808  -1.933   0.289  1.00  0.00     0.053 A 
HETATM   13  C10 UNL     1      -4.467  -0.604   0.320  1.00  0.00     0.089 A 
HETATM   14  N5  UNL     1      -3.165  -0.311   0.416  1.00  0.00    -0.062 NA
BRANCH  13  15
HETATM   15  C11 UNL     1      -5.449   0.467   0.267  1.00  0.00     0.011 A 
HETATM   16  C12 UNL     1      -5.061   1.788   0.317  1.00  0.00     0.017 A 
HETATM   17  C13 UNL     1      -6.014   2.799   0.267  1.00  0.00     0.020 A 
HETATM   18  C14 UNL     1      -7.341   2.489   0.169  1.00  0.00     0.116 A 
HETATM   19  N4  UNL     1      -7.707   1.186   0.121  1.00  0.00    -0.272 NA
HETATM   20  C15 UNL     1      -6.788   0.208   0.169  1.00  0.00     0.130 A 
ENDBRANCH  13  15
ENDBRANCH   7   9
ENDBRANCH   5   7
BRANCH   1  21
HETATM   21  N1  UNL     1       3.865  -0.834  -0.193  1.00  0.00    -0.323 N 
HETATM   22  C1  UNL     1       4.304   0.512  -0.232  1.00  0.00     0.256 C 
HETATM   23  O1  UNL     1       3.489   1.307  -0.809  1.00  0.00    -0.267 OA
HETATM   24  H1  UNL     1       4.440  -1.581   0.249  1.00  0.00     0.169 HD
BRANCH  22  25
HETATM   25  C17 UNL     1       5.573   0.936   0.339  1.00  0.00     0.035 A 
HETATM   26  C18 UNL     1       6.440   0.085   1.002  1.00  0.00     0.036 A 
HETATM   27  C19 UNL     1       7.603   0.670   1.473  1.00  0.00     0.117 A 
HETATM   28  N6  UNL     1       7.890   1.967   1.309  1.00  0.00    -0.273 NA
HETATM   29  C20 UNL     1       7.054   2.822   0.661  1.00  0.00     0.117 A 
HETATM   30  C21 UNL     1       5.884   2.277   0.177  1.00  0.00     0.036 A 
ENDBRANCH  22  25
ENDBRANCH   1  21
TORSDOF 5
