REMARK  1 active torsions:
REMARK  status: ('A' for Active; 'I' for Inactive)
REMARK    1  A    between atoms: C16_19  and  O1_20 
ROOT
HETATM    1  N1  UNL     1      -2.066  -0.646   2.903  1.00  0.00    -0.302 NA
HETATM    2  C1  UNL     1      -2.067  -0.539   1.593  1.00  0.00     0.056 C 
HETATM    3  C2  UNL     1      -3.255  -1.167   1.024  1.00  0.00     0.178 C 
HETATM    4  N2  UNL     1      -4.144  -0.129   0.470  1.00  0.00    -0.392 N 
HETATM    5  C3  UNL     1      -5.300  -0.561  -0.236  1.00  0.00     0.095 C 
HETATM    6  C4  UNL     1      -5.148  -0.724  -1.521  1.00  0.00    -0.009 C 
HETATM    7  C5  UNL     1      -4.574   0.255  -2.161  1.00  0.00     0.013 C 
HETATM    8  C6  UNL     1      -3.168   0.142  -1.914  1.00  0.00     0.001 C 
HETATM    9  C7  UNL     1      -1.873  -0.024  -2.148  1.00  0.00     0.001 C 
HETATM   10  C8  UNL     1      -0.521  -0.098  -1.607  1.00  0.00     0.012 C 
HETATM   11  C9  UNL     1      -0.244   0.008  -0.318  1.00  0.00    -0.022 C 
HETATM   12  C10 UNL     1       1.245  -0.120  -0.305  1.00  0.00     0.026 C 
HETATM   13  C11 UNL     1       2.170   0.591   0.383  1.00  0.00    -0.005 C 
HETATM   14  C12 UNL     1       3.576   0.331   0.281  1.00  0.00     0.011 A 
HETATM   15  C13 UNL     1       4.424   1.061   1.076  1.00  0.00     0.034 A 
HETATM   16  C14 UNL     1       5.789   0.898   1.048  1.00  0.00     0.117 A 
HETATM   17  N3  UNL     1       6.405  -0.002   0.227  1.00  0.00    -0.270 NA
HETATM   18  C15 UNL     1       5.620  -0.741  -0.571  1.00  0.00     0.153 A 
HETATM   19  C16 UNL     1       4.260  -0.548  -0.513  1.00  0.00     0.094 A 
HETATM   20  C17 UNL     1       1.760   1.725   1.240  1.00  0.00     0.128 C 
HETATM   21  N4  UNL     1       0.647   1.909   1.912  1.00  0.00    -0.271 NA
HETATM   22  C18 UNL     1      -0.471   1.002   1.965  1.00  0.00     0.130 C 
HETATM   23  C19 UNL     1      -0.895   0.157   1.008  1.00  0.00     0.017 C 
HETATM   24  H1  UNL     1      -2.827  -1.119   3.401  1.00  0.00     0.186 HD
HETATM   25  H4  UNL     1      -4.376   0.888   0.333  1.00  0.00     0.159 HD
ENDROOT
BRANCH  19  26
HETATM   26  O1  UNL     1       3.561  -1.357  -1.372  1.00  0.00    -0.358 OA
HETATM   27  H14 UNL     1       3.661  -2.363  -1.267  1.00  0.00     0.217 HD
ENDBRANCH  19  26
TORSDOF 1
