REMARK  5 active torsions:
REMARK  status: ('A' for Active; 'I' for Inactive)
REMARK       I    between atoms: C1_2  and  N1_3 
REMARK    1  A    between atoms: C1_2  and  C12_16 
REMARK    2  A    between atoms: N1_3  and  C2_4 
REMARK    3  A    between atoms: C2_4  and  C3_5 
REMARK    4  A    between atoms: C3_5  and  C4_6 
REMARK    5  A    between atoms: C6_8  and  C7_9 
ROOT
HETATM    1  C2  UNL     1       0.870   0.155   0.090  1.00  0.00     0.129 C 
ENDROOT
BRANCH   1   2
HETATM    2  N1  UNL     1       2.255  -0.337   0.083  1.00  0.00    -0.357 N 
HETATM    3  C1  UNL     1       3.266   0.605   0.377  1.00  0.00     0.251 C 
HETATM    4  O1  UNL     1       2.992   1.799   0.629  1.00  0.00    -0.268 OA
HETATM    5  H1  UNL     1       2.493  -1.328  -0.126  1.00  0.00     0.162 HD
BRANCH   3   6
HETATM    6  C12 UNL     1       4.680   0.248   0.403  1.00  0.00     0.034 A 
HETATM    7  C13 UNL     1       5.607   1.226   0.698  1.00  0.00     0.036 A 
HETATM    8  C14 UNL     1       6.981   0.966   0.744  1.00  0.00     0.117 A 
HETATM    9  N4  UNL     1       7.435  -0.291   0.491  1.00  0.00    -0.273 NA
HETATM   10  C15 UNL     1       6.533  -1.262   0.199  1.00  0.00     0.117 A 
HETATM   11  C16 UNL     1       5.181  -1.013   0.152  1.00  0.00     0.036 A 
ENDBRANCH   3   6
ENDBRANCH   1   2
BRANCH   1  12
HETATM   12  C3  UNL     1      -0.015  -1.005  -0.244  1.00  0.00     0.079 C 
BRANCH  12  13
HETATM   13  C4  UNL     1      -1.431  -0.554  -0.249  1.00  0.00     0.039 A 
HETATM   14  C5  UNL     1      -2.205   0.504  -0.065  1.00  0.00     0.059 A 
HETATM   15  C6  UNL     1      -3.409  -0.272  -0.335  1.00  0.00     0.070 A 
HETATM   16  N3  UNL     1      -2.618  -1.301  -0.511  1.00  0.00    -0.253 NA
BRANCH  15  17
HETATM   17  C7  UNL     1      -4.845  -0.024  -0.388  1.00  0.00     0.010 A 
HETATM   18  C8  UNL     1      -5.352   1.238  -0.137  1.00  0.00     0.017 A 
HETATM   19  C9  UNL     1      -6.724   1.451  -0.193  1.00  0.00     0.020 A 
HETATM   20  C10 UNL     1      -7.514   0.346  -0.507  1.00  0.00     0.116 A 
HETATM   21  N2  UNL     1      -7.025  -0.882  -0.752  1.00  0.00    -0.272 NA
HETATM   22  C11 UNL     1      -5.679  -1.091  -0.697  1.00  0.00     0.130 A 
ENDBRANCH  15  17
ENDBRANCH  12  13
ENDBRANCH   1  12
TORSDOF 5
