REMARK  0 active torsions:
REMARK  status: ('A' for Active; 'I' for Inactive)
ROOT
HETATM    1  B1  UNL     1      -2.219  -1.387  -4.194  1.00  0.00     0.235 B 
HETATM    2  C1  UNL     1      -1.143  -1.590  -3.133  1.00  0.00    -0.070 A 
HETATM    3  C2  UNL     1      -1.678  -0.717  -2.324  1.00  0.00     0.070 A 
HETATM    4  O1  UNL     1      -2.711   0.260  -1.990  1.00  0.00    -0.324 OA
HETATM    5  C3  UNL     1      -2.209   1.570  -1.568  1.00  0.00     0.196 A 
HETATM    6  N1  UNL     1      -2.174   2.894  -1.893  1.00  0.00    -0.216 NA
HETATM    7  C4  UNL     1      -1.478   3.735  -1.070  1.00  0.00     0.237 A 
HETATM    8  N2  UNL     1      -0.773   3.483   0.079  1.00  0.00    -0.228 NA
HETATM    9  C5  UNL     1      -0.664   2.262   0.597  1.00  0.00     0.135 A 
HETATM   10  C6  UNL     1      -1.442   1.579  -0.389  1.00  0.00     0.122 A 
HETATM   11  N3  UNL     1      -1.398   0.427   0.500  1.00  0.00    -0.380 N 
HETATM   12  C7  UNL     1      -1.078  -0.859   0.111  1.00  0.00     0.156 C 
HETATM   13  C8  UNL     1      -0.570  -0.967  -1.351  1.00  0.00    -0.033 C 
HETATM   14  C9  UNL     1       0.543  -1.534  -0.980  1.00  0.00     0.031 C 
HETATM   15  C10 UNL     1       1.441  -1.508   0.125  1.00  0.00     0.041 C 
HETATM   16 CL1  UNL     1       2.473  -2.793  -0.434  1.00  0.00    -0.084 Cl
HETATM   17  C11 UNL     1       1.545  -0.804   1.209  1.00  0.00    -0.026 A 
HETATM   18  C12 UNL     1       2.667  -1.270   1.969  1.00  0.00     0.005 A 
HETATM   19  C13 UNL     1       3.192  -0.752   3.016  1.00  0.00    -0.036 A 
HETATM   20  C14 UNL     1       2.910   0.406   3.806  1.00  0.00    -0.028 A 
HETATM   21  B2  UNL     1       1.484   1.319   3.131  1.00  0.00     0.177 B 
HETATM   22  C15 UNL     1       0.885   0.433   1.657  1.00  0.00     0.011 A 
HETATM   23  N4  UNL     1      -0.023   1.542   1.683  1.00  0.00    -0.271 NA
HETATM   24  H1  UNL     1      -3.202  -2.063  -4.212  1.00  0.00    -0.015 HD
HETATM   25  H2  UNL     1      -2.155  -0.607  -5.080  1.00  0.00    -0.015 HD
HETATM   26  H5  UNL     1      -1.580   0.240   1.540  1.00  0.00     0.160 HD
HETATM   27  H13 UNL     1       0.354   1.108   0.817  1.00  0.00     0.149 HD
ENDROOT
TORSDOF 0
