REMARK  2 active torsions:
REMARK  status: ('A' for Active; 'I' for Inactive)
REMARK    1  A    between atoms: N1_1  and  C1_2 
REMARK    2  A    between atoms: C15_22  and  N7_23 
ROOT
HETATM    1  C1  UNL     1      -2.479  -0.044   0.378  1.00  0.00     0.020 C 
HETATM    2  C2  UNL     1      -2.736   1.234   0.360  1.00  0.00     0.023 C 
HETATM    3  C3  UNL     1      -2.013   2.521   0.109  1.00  0.00     0.019 C 
HETATM    4  C4  UNL     1      -0.905   3.177  -0.185  1.00  0.00     0.088 C 
HETATM    5  N2  UNL     1       0.473   3.098  -0.493  1.00  0.00    -0.367 N 
HETATM    6  C5  UNL     1       1.229   1.915  -0.383  1.00  0.00     0.039 C 
HETATM    7  C6  UNL     1       2.278   1.257  -0.835  1.00  0.00     0.042 C 
HETATM    8  C7  UNL     1       1.851  -0.166  -0.776  1.00  0.00     0.004 A 
HETATM    9  C8  UNL     1       2.287  -1.334  -1.294  1.00  0.00     0.065 A 
HETATM   10  C9  UNL     1       1.461  -2.441  -1.290  1.00  0.00     0.056 A 
HETATM   11  C10 UNL     1       0.177  -2.271  -0.720  1.00  0.00     0.045 A 
HETATM   12 CL1  UNL     1      -0.715  -3.808  -0.819  1.00  0.00    -0.084 Cl
HETATM   13  C11 UNL     1      -0.381  -1.106  -0.144  1.00  0.00     0.011 A 
HETATM   14  C12 UNL     1       0.621  -0.260  -0.295  1.00  0.00    -0.004 A 
HETATM   15  C13 UNL     1       0.718   0.923   0.572  1.00  0.00     0.194 C 
HETATM   16  N3  UNL     1       1.798   0.636   1.559  1.00  0.00    -0.254 NA
HETATM   17  C14 UNL     1       2.886   0.075   1.250  1.00  0.00     0.325 C 
HETATM   18  N4  UNL     1       3.789  -0.500   0.474  1.00  0.00    -0.277 NA
HETATM   19  N5  UNL     1       4.328  -1.011  -0.439  1.00  0.00    -0.011 NA
HETATM   20  N6  UNL     1       3.666  -1.265  -1.696  1.00  0.00    -0.249 N 
HETATM   21  C15 UNL     1      -1.761  -1.316   0.300  1.00  0.00     0.296 C 
HETATM   22  H6  UNL     1       1.118   3.811  -0.846  1.00  0.00     0.165 HD
HETATM   23  H11 UNL     1       3.413  -1.439  -2.683  1.00  0.00     0.192 HD
ENDROOT
BRANCH   1  24
HETATM   24  N1  UNL     1      -3.779  -0.612   0.719  1.00  0.00    -0.304 NA
HETATM   25  H1  UNL     1      -4.628  -1.221   0.529  1.00  0.00     0.124 HD
HETATM   26  H2  UNL     1      -4.622  -1.198   0.573  1.00  0.00     0.124 HD
ENDBRANCH   1  24
BRANCH  21  27
HETATM   27  N7  UNL     1      -1.804  -2.089   1.541  1.00  0.00     0.092 N 
HETATM   28  H13 UNL     1      -2.800  -2.450   1.577  1.00  0.00     0.314 HD
HETATM   29  H14 UNL     1      -1.772  -1.395   2.328  1.00  0.00     0.314 HD
ENDBRANCH  21  27
TORSDOF 2
