REMARK  6 active torsions:
REMARK  status: ('A' for Active; 'I' for Inactive)
REMARK    1  A    between atoms: C2_2  and  S1_17 
REMARK    2  A    between atoms: C3_3  and  C4_5 
REMARK    3  A    between atoms: C4_5  and  C5_6 
REMARK    4  A    between atoms: C7_9  and  C8_10 
REMARK    5  A    between atoms: S1_17  and  N4_20 
REMARK    6  A    between atoms: N4_20  and  C12_21 
ROOT
HETATM    1  C1  UNL     1       0.768  -0.494  -1.368  1.00  0.00     0.076 A 
HETATM    2  C2  UNL     1       1.324  -1.483  -0.657  1.00  0.00     0.171 A 
HETATM    3  C3  UNL     1      -0.035  -1.565  -0.327  1.00  0.00     0.081 A 
HETATM    4 CL1  UNL     1       0.764  -2.874   0.600  1.00  0.00    -0.175 Cl
ENDROOT
BRANCH   2   5
HETATM    5  S1  UNL     1       2.990  -1.596  -0.893  1.00  0.00     0.255 S 
HETATM    6  O2  UNL     1       3.366  -3.072  -0.863  1.00  0.00    -0.204 OA
HETATM    7  O3  UNL     1       3.321  -1.185  -2.338  1.00  0.00    -0.204 OA
BRANCH   5   8
HETATM    8  N4  UNL     1       4.005  -0.770   0.199  1.00  0.00    -0.282 N 
HETATM    9  H12 UNL     1       4.652  -1.412   0.759  1.00  0.00     0.178 HD
BRANCH   8  10
HETATM   10  C12 UNL     1       4.246   0.557   0.603  1.00  0.00     0.051 A 
HETATM   11  C13 UNL     1       3.410   1.573   0.207  1.00  0.00     0.031 A 
HETATM   12  C14 UNL     1       3.547   2.906   0.531  1.00  0.00     0.005 A 
HETATM   13  C15 UNL     1       4.623   3.257   1.328  1.00  0.00     0.043 A 
HETATM   14  C16 UNL     1       5.490   2.281   1.751  1.00  0.00     0.124 A 
HETATM   15  F1  UNL     1       6.552   2.559   2.522  1.00  0.00    -0.205 F 
HETATM   16  C17 UNL     1       5.299   0.971   1.394  1.00  0.00     0.004 A 
HETATM   17  C18 UNL     1       6.262  -0.067   1.867  1.00  0.00     0.054 C 
ENDBRANCH   8  10
ENDBRANCH   5   8
ENDBRANCH   2   5
BRANCH   3  18
HETATM   18  C4  UNL     1      -1.244  -1.753   0.063  1.00  0.00     0.003 C 
BRANCH  18  19
HETATM   19  C5  UNL     1      -2.236  -0.825  -0.516  1.00  0.00     0.027 C 
HETATM   20  C6  UNL     1      -3.557  -0.619  -0.438  1.00  0.00     0.061 C 
HETATM   21  N1  UNL     1      -3.971   0.475  -1.261  1.00  0.00    -0.251 NA
HETATM   22  C10 UNL     1      -4.624  -1.287   0.320  1.00  0.00     0.178 C 
HETATM   23  C7  UNL     1      -5.031   1.152  -1.393  1.00  0.00     0.093 C 
HETATM   24  C9  UNL     1      -6.221   0.853  -0.568  1.00  0.00     0.235 C 
HETATM   25  N2  UNL     1      -6.567  -0.522  -0.889  1.00  0.00    -0.191 NA
HETATM   26  N3  UNL     1      -5.837  -1.464  -0.482  1.00  0.00    -0.187 NA
HETATM   27  C11 UNL     1      -4.282  -2.667   0.803  1.00  0.00     0.043 C 
BRANCH  23  28
HETATM   28  C8  UNL     1      -5.005   2.220  -2.395  1.00  0.00     0.287 C 
HETATM   29  O1  UNL     1      -3.920   2.344  -3.010  1.00  0.00    -0.300 OA
ENDBRANCH  23  28
ENDBRANCH  18  19
ENDBRANCH   3  18
TORSDOF 6
