REMARK  7 active torsions:
REMARK  status: ('A' for Active; 'I' for Inactive)
REMARK    1  A    between atoms: C3_3  and  C4_5 
REMARK    2  A    between atoms: C4_5  and  C5_6 
REMARK    3  A    between atoms: C5_6  and  C6_7 
REMARK    4  A    between atoms: C6_7  and  N1_8 
REMARK    5  A    between atoms: N1_8  and  C7_9 
REMARK    6  A    between atoms: C12_18  and  C13_19 
REMARK    7  A    between atoms: C14_20  and  C16_22 
ROOT
HETATM    1  C7  UNL     1      -0.434   0.309  -0.733  1.00  0.00     0.220 A 
HETATM    2  C8  UNL     1      -0.457   1.412   0.245  1.00  0.00     0.471 A 
HETATM    3  N2  UNL     1      -0.584   2.434   1.068  1.00  0.00     0.239 N 
HETATM    4  C9  UNL     1       0.340   2.725   2.097  1.00  0.00     0.539 A 
HETATM    5  N3  UNL     1      -0.441   2.311   1.074  1.00  0.00     0.239 N 
HETATM    6  C10 UNL     1      -0.455   1.374   0.213  1.00  0.00     0.470 A 
HETATM    7  O1  UNL     1      -1.689   2.134  -0.471  1.00  0.00     0.000 OA
HETATM    8  C11 UNL     1      -2.608   2.172  -1.445  1.00  0.00     0.132 C 
HETATM    9  N4  UNL     1      -3.641   1.332  -1.054  1.00  0.00    -0.271 NA
HETATM   10  C12 UNL     1      -3.531   0.638   0.310  1.00  0.00     0.228 C 
HETATM   11  N5  UNL     1      -2.158   1.080   0.820  1.00  0.00    -0.335 N 
HETATM   12  H19 UNL     1      -2.676   1.131   1.841  1.00  0.00     0.160 HD
ENDROOT
BRANCH   1  13
HETATM   13  N1  UNL     1       0.730  -0.612  -0.701  1.00  0.00    -0.401 N 
HETATM   14  H9  UNL     1       0.645  -1.519  -0.164  1.00  0.00     0.154 HD
BRANCH  13  15
HETATM   15  C6  UNL     1       1.741  -0.006  -1.484  1.00  0.00     0.124 C 
BRANCH  15  16
HETATM   16  C5  UNL     1       2.928  -0.946  -1.734  1.00  0.00     0.036 C 
BRANCH  16  17
HETATM   17  C4  UNL     1       3.958  -0.362  -1.042  1.00  0.00     0.004 C 
BRANCH  17  18
HETATM   18  C3  UNL     1       5.103   0.189  -0.336  1.00  0.00     0.026 C 
HETATM   19  C2  UNL     1       5.821   1.069   0.467  1.00  0.00    -0.008 C 
HETATM   20  C1  UNL     1       7.134   0.309   0.588  1.00  0.00     0.038 C 
HETATM   21 CL1  UNL     1       6.216  -1.174  -0.643  1.00  0.00    -0.085 Cl
ENDBRANCH  17  18
ENDBRANCH  16  17
ENDBRANCH  15  16
ENDBRANCH  13  15
ENDBRANCH   1  13
BRANCH  10  22
HETATM   22  C13 UNL     1      -3.423  -0.796   0.112  1.00  0.00     0.025 C 
HETATM   23  C14 UNL     1      -3.778  -2.017   0.142  1.00  0.00    -0.056 C 
HETATM   24  C15 UNL     1      -4.083  -3.525   0.120  1.00  0.00     0.046 C 
BRANCH  23  25
HETATM   25  C16 UNL     1      -5.124  -1.615   0.741  1.00  0.00     0.256 C 
HETATM   26  F1  UNL     1      -6.149  -2.012  -0.133  1.00  0.00    -0.251 F 
ENDBRANCH  23  25
ENDBRANCH  10  22
TORSDOF 7
