REMARK  7 active torsions:
REMARK  status: ('A' for Active; 'I' for Inactive)
REMARK    1  A    between atoms: C3_3  and  C4_5 
REMARK    2  A    between atoms: C9_11  and  N2_12 
REMARK    3  A    between atoms: N2_12  and  C10_13 
REMARK    4  A    between atoms: C14_17  and  O1_18 
REMARK    5  A    between atoms: O1_18  and  C15_19 
REMARK    6  A    between atoms: C15_19  and  C16_22 
REMARK    7  A    between atoms: C16_22  and  N3_23 
ROOT
HETATM    1  C10 UNL     1       0.451   0.051  -0.016  1.00  0.00     0.036 A 
HETATM    2  C11 UNL     1       0.389   0.842   1.113  1.00  0.00     0.029 A 
HETATM    3  C12 UNL     1       1.563   1.177   1.750  1.00  0.00     0.005 A 
HETATM    4  C13 UNL     1       2.755   0.720   1.250  1.00  0.00     0.037 A 
HETATM    5  C14 UNL     1       2.877  -0.069   0.129  1.00  0.00     0.077 A 
HETATM    6  C17 UNL     1       1.677  -0.390  -0.491  1.00  0.00     0.066 A 
ENDROOT
BRANCH   1   7
HETATM    7  N2  UNL     1      -0.812  -0.276  -0.646  1.00  0.00    -0.341 N 
HETATM    8  H10 UNL     1      -1.381   0.230  -1.398  1.00  0.00     0.167 HD
BRANCH   7   9
HETATM    9  C9  UNL     1      -1.485  -1.493  -0.246  1.00  0.00     0.134 A 
HETATM   10  C5  UNL     1      -2.938  -1.421  -0.076  1.00  0.00    -0.007 A 
HETATM   11  C4  UNL     1      -3.685  -0.363  -0.194  1.00  0.00     0.033 C 
HETATM   12  C6  UNL     1      -3.649  -2.700   0.281  1.00  0.00     0.071 A 
HETATM   13  C7  UNL     1      -2.639  -3.747   0.411  1.00  0.00    -0.003 A 
HETATM   14  C8  UNL     1      -1.331  -3.778   0.264  1.00  0.00     0.115 A 
HETATM   15  N1  UNL     1      -0.723  -2.549  -0.096  1.00  0.00    -0.243 NA
BRANCH  11  16
HETATM   16  C3  UNL     1      -3.712   1.025  -0.473  1.00  0.00     0.015 A 
HETATM   17  C2  UNL     1      -4.738   1.827  -0.526  1.00  0.00     0.004 A 
HETATM   18  C1  UNL     1      -4.798   3.262  -0.800  1.00  0.00     0.144 A 
HETATM   19 CL1  UNL     1      -2.939   2.541  -0.847  1.00  0.00    -0.186 Cl
ENDBRANCH  11  16
ENDBRANCH   7   9
ENDBRANCH   1   7
BRANCH   5  20
HETATM   20  O1  UNL     1       3.907  -0.636  -0.557  1.00  0.00    -0.280 OA
BRANCH  20  21
HETATM   21  C15 UNL     1       5.277  -0.549  -0.335  1.00  0.00     0.407 C 
HETATM   22  F1  UNL     1       5.596  -0.968   0.946  1.00  0.00    -0.170 F 
HETATM   23  F2  UNL     1       5.903  -1.556  -1.134  1.00  0.00    -0.170 F 
BRANCH  21  24
HETATM   24  C16 UNL     1       5.943   0.729  -0.698  1.00  0.00     0.367 C 
HETATM   25  F3  UNL     1       5.910   0.946  -2.076  1.00  0.00    -0.218 F 
BRANCH  24  26
HETATM   26  N3  UNL     1       5.503   1.911  -0.052  1.00  0.00    -0.395 N 
HETATM   27  H15 UNL     1       5.011   2.581  -0.653  1.00  0.00     0.152 HD
HETATM   28  H16 UNL     1       6.193   2.327   0.584  1.00  0.00     0.152 HD
ENDBRANCH  24  26
ENDBRANCH  21  24
ENDBRANCH  20  21
ENDBRANCH   5  20
TORSDOF 7
