REMARK  4 active torsions:
REMARK  status: ('A' for Active; 'I' for Inactive)
REMARK    1  A    between atoms: C2_2  and  C3_3 
REMARK    2  A    between atoms: C10_12  and  N3_13 
REMARK    3  A    between atoms: N3_13  and  C11_14 
REMARK    4  A    between atoms: C11_14  and  C12_15 
ROOT
HETATM    1  C3  UNL     1      -2.696  -0.371   0.236  1.00  0.00     0.360 C 
HETATM    2  N1  UNL     1      -1.546  -0.295   1.011  1.00  0.00    -0.279 NA
HETATM    3  C4  UNL     1      -0.435   0.307   1.011  1.00  0.00     0.169 C 
HETATM    4  C5  UNL     1       0.659   1.253   0.519  1.00  0.00    -0.005 A 
HETATM    5  C6  UNL     1       0.705   2.637   0.688  1.00  0.00     0.126 A 
HETATM    6  N2  UNL     1       1.670   3.382   0.126  1.00  0.00    -0.272 NA
HETATM    7  C7  UNL     1       2.587   2.743  -0.603  1.00  0.00     0.117 A 
HETATM    8  C8  UNL     1       2.662   1.394  -0.848  1.00  0.00     0.029 A 
HETATM    9  C9  UNL     1       1.720   0.571  -0.310  1.00  0.00    -0.020 A 
HETATM   10  C10 UNL     1       1.254  -0.800  -0.098  1.00  0.00     0.059 C 
HETATM   11  C13 UNL     1       0.251  -0.764  -0.896  1.00  0.00     0.075 C 
HETATM   12  C14 UNL     1      -0.400   0.113  -1.831  1.00  0.00    -0.004 C 
HETATM   13  C15 UNL     1      -1.542  -0.379  -2.253  1.00  0.00     0.003 C 
HETATM   14  C16 UNL     1      -1.785  -1.653  -1.586  1.00  0.00     0.300 C 
HETATM   15  N4  UNL     1      -2.978  -1.362  -0.732  1.00  0.00     0.114 N 
HETATM   16  H18 UNL     1      -3.731  -1.119  -1.393  1.00  0.00     0.319 HD
ENDROOT
BRANCH  10  17
HETATM   17  N3  UNL     1       2.283  -1.045   0.804  1.00  0.00    -0.403 N 
HETATM   18  H9  UNL     1       1.788  -0.999   1.750  1.00  0.00     0.154 HD
BRANCH  17  19
HETATM   19  C11 UNL     1       3.667  -1.315   0.704  1.00  0.00     0.184 C 
BRANCH  19  20
HETATM   20  C12 UNL     1       4.159  -1.579   2.114  1.00  0.00     0.250 C 
HETATM   21  O1  UNL     1       5.347  -1.832   2.106  1.00  0.00    -0.305 OA
ENDBRANCH  19  20
ENDBRANCH  17  19
ENDBRANCH  10  17
BRANCH   1  22
HETATM   22  C2  UNL     1      -3.958  -0.205   1.088  1.00  0.00     0.020 C 
HETATM   23  C1  UNL     1      -4.960   0.604   0.745  1.00  0.00     0.011 C 
ENDBRANCH   1  22
TORSDOF 4
