REMARK  7 active torsions:
REMARK  status: ('A' for Active; 'I' for Inactive)
REMARK    1  A    between atoms: N1_1  and  C1_2 
REMARK    2  A    between atoms: C2_3  and  C3_4 
REMARK    3  A    between atoms: C3_4  and  N2_5 
REMARK    4  A    between atoms: C3_4  and  C15_21 
REMARK    5  A    between atoms: N2_5  and  C4_6 
REMARK    6  A    between atoms: C6_8  and  N3_9 
REMARK       I    between atoms: N3_9  and  C7_10 
REMARK    7  A    between atoms: C7_10  and  C8_12 
ROOT
HETATM    1  C4  UNL     1      -0.707   1.262  -0.251  1.00  0.00     0.032 C 
HETATM    2  C5  UNL     1       0.365   0.627   0.167  1.00  0.00     0.066 C 
HETATM    3  C6  UNL     1       1.673   0.805  -0.451  1.00  0.00     0.079 C 
HETATM    4  S1  UNL     1       1.820   1.832  -1.713  1.00  0.00    -0.071 SA
HETATM    5  C13 UNL     1       0.467   2.667  -2.066  1.00  0.00     0.026 C 
HETATM    6  C14 UNL     1      -0.567   2.190  -1.393  1.00  0.00     0.049 C 
ENDROOT
BRANCH   1   7
HETATM    7  N2  UNL     1      -2.032   1.179   0.260  1.00  0.00    -0.378 N 
HETATM    8  H6  UNL     1      -2.338   1.963   0.864  1.00  0.00     0.160 HD
BRANCH   7   9
HETATM    9  C3  UNL     1      -2.828   0.036  -0.092  1.00  0.00     0.141 C 
BRANCH   9  10
HETATM   10  C2  UNL     1      -2.160  -1.203   0.381  1.00  0.00     0.019 C 
HETATM   11  C1  UNL     1      -1.947  -2.246  -0.413  1.00  0.00     0.078 C 
BRANCH  11  12
HETATM   12  N1  UNL     1      -2.380  -2.157  -1.761  1.00  0.00    -0.408 N 
HETATM   13  H1  UNL     1      -3.436  -2.195  -1.678  1.00  0.00     0.155 HD
HETATM   14  H2  UNL     1      -1.489  -2.089  -2.307  1.00  0.00     0.155 HD
ENDBRANCH  11  12
ENDBRANCH   9  10
BRANCH   9  15
HETATM   15  C15 UNL     1      -4.186   0.116   0.505  1.00  0.00    -0.014 A 
HETATM   16  C16 UNL     1      -4.762   1.378   0.365  1.00  0.00     0.012 A 
HETATM   17  C17 UNL     1      -6.042   1.566   0.892  1.00  0.00     0.020 A 
HETATM   18  C18 UNL     1      -6.707   0.515   1.533  1.00  0.00     0.116 A 
HETATM   19  N5  UNL     1      -6.092  -0.686   1.636  1.00  0.00    -0.272 NA
HETATM   20  C19 UNL     1      -4.866  -0.912   1.146  1.00  0.00     0.125 A 
ENDBRANCH   9  15
ENDBRANCH   7   9
ENDBRANCH   1   7
BRANCH   3  21
HETATM   21  N3  UNL     1       2.794   0.086   0.051  1.00  0.00    -0.317 N 
HETATM   22  C7  UNL     1       4.061   0.273  -0.565  1.00  0.00     0.256 C 
HETATM   23  O1  UNL     1       4.109   1.087  -1.544  1.00  0.00    -0.267 OA
HETATM   24  H8  UNL     1       2.693  -0.555   0.841  1.00  0.00     0.169 HD
BRANCH  22  25
HETATM   25  C8  UNL     1       5.255  -0.437  -0.097  1.00  0.00     0.035 A 
HETATM   26  C9  UNL     1       5.299  -1.319   0.934  1.00  0.00     0.036 A 
HETATM   27  C10 UNL     1       6.510  -1.903   1.247  1.00  0.00     0.117 A 
HETATM   28  N4  UNL     1       7.651  -1.650   0.594  1.00  0.00    -0.273 NA
HETATM   29  C11 UNL     1       7.647  -0.780  -0.435  1.00  0.00     0.117 A 
HETATM   30  C12 UNL     1       6.445  -0.194  -0.754  1.00  0.00     0.036 A 
ENDBRANCH  22  25
ENDBRANCH   3  21
TORSDOF 7
