REMARK  7 active torsions:
REMARK  status: ('A' for Active; 'I' for Inactive)
REMARK    1  A    between atoms: N1_1  and  C1_2 
REMARK    2  A    between atoms: C1_2  and  N2_3 
REMARK    3  A    between atoms: C1_2  and  C9_12 
REMARK    4  A    between atoms: C2_4  and  C3_5 
REMARK    5  A    between atoms: C13_16  and  O1_17 
REMARK    6  A    between atoms: O1_17  and  C14_18 
REMARK    7  A    between atoms: C14_18  and  C15_21 
ROOT
HETATM    1  C9  UNL     1       0.894  -0.516   0.326  1.00  0.00    -0.002 A 
HETATM    2  C10 UNL     1       0.589   0.001   1.569  1.00  0.00     0.011 A 
HETATM    3  C11 UNL     1       1.410   0.985   2.117  1.00  0.00     0.003 A 
HETATM    4  C12 UNL     1       2.511   1.426   1.409  1.00  0.00     0.037 A 
HETATM    5  C13 UNL     1       2.822   0.916   0.169  1.00  0.00     0.076 A 
HETATM    6  C16 UNL     1       1.997  -0.070  -0.378  1.00  0.00     0.048 A 
ENDROOT
BRANCH   1   7
HETATM    7  C1  UNL     1      -0.057  -1.557  -0.147  1.00  0.00     0.372 C 
BRANCH   7   8
HETATM    8  N1  UNL     1      -0.346  -2.497   0.922  1.00  0.00     0.107 N 
HETATM    9  H1  UNL     1      -1.219  -3.031   0.741  1.00  0.00     0.316 HD
HETATM   10  H2  UNL     1       0.414  -3.172   1.081  1.00  0.00     0.316 HD
ENDBRANCH   7   8
BRANCH   7  11
HETATM   11  N2  UNL     1      -1.295  -0.975  -0.651  1.00  0.00    -0.261 NA
HETATM   12  C2  UNL     1      -2.303  -0.946   0.143  1.00  0.00     0.124 C 
BRANCH  12  13
HETATM   13  C3  UNL     1      -3.557  -0.371  -0.329  1.00  0.00    -0.019 A 
HETATM   14  C4  UNL     1      -3.695   0.141  -1.597  1.00  0.00     0.014 A 
HETATM   15  C5  UNL     1      -4.904   0.675  -1.994  1.00  0.00     0.024 A 
HETATM   16  C6  UNL     1      -6.009   0.724  -1.172  1.00  0.00     0.034 A 
HETATM   17 CL1  UNL     1      -7.560   1.390  -1.633  1.00  0.00    -0.084 Cl
HETATM   18  C7  UNL     1      -5.896   0.211   0.118  1.00  0.00     0.024 A 
HETATM   19  C8  UNL     1      -4.676  -0.311   0.477  1.00  0.00     0.014 A 
ENDBRANCH  12  13
ENDBRANCH   7  11
ENDBRANCH   1   7
BRANCH   5  20
HETATM   20  O1  UNL     1       3.916   1.322  -0.587  1.00  0.00    -0.279 OA
BRANCH  20  21
HETATM   21  C14 UNL     1       5.127   0.592  -0.369  1.00  0.00     0.418 C 
HETATM   22  F1  UNL     1       4.955  -0.750  -0.662  1.00  0.00    -0.169 F 
HETATM   23  F2  UNL     1       5.384   0.637   1.002  1.00  0.00    -0.169 F 
BRANCH  21  24
HETATM   24  C15 UNL     1       6.277   1.156  -1.153  1.00  0.00     0.455 C 
HETATM   25  F3  UNL     1       7.409   0.387  -0.880  1.00  0.00    -0.205 F 
HETATM   26  F4  UNL     1       6.474   2.474  -0.778  1.00  0.00    -0.205 F 
ENDBRANCH  21  24
ENDBRANCH  20  21
ENDBRANCH   5  20
TORSDOF 7
