REMARK  6 active torsions:
REMARK  status: ('A' for Active; 'I' for Inactive)
REMARK    1  A    between atoms: C2_2  and  C3_3 
REMARK    2  A    between atoms: C4_5  and  C5_6 
REMARK    3  A    between atoms: C5_6  and  C6_7 
REMARK    4  A    between atoms: C10_12  and  C11_13 
REMARK    5  A    between atoms: C11_13  and  C12_15 
REMARK    6  A    between atoms: C15_20  and  N2_21 
ROOT
HETATM    1  C6  UNL     1       1.918   0.535   0.299  1.00  0.00     0.033 C 
HETATM    2  N1  UNL     1       1.215   1.535   0.450  1.00  0.00    -0.293 NA
HETATM    3  C7  UNL     1      -0.231   1.682   0.351  1.00  0.00     0.096 C 
HETATM    4  C8  UNL     1      -1.424   2.419   0.191  1.00  0.00     0.098 C 
HETATM    5  C9  UNL     1      -2.614   1.628   0.199  1.00  0.00    -0.009 C 
HETATM    6  C10 UNL     1      -3.662   0.801   0.219  1.00  0.00    -0.025 C 
HETATM    7  C13 UNL     1      -3.751  -0.645   0.237  1.00  0.00     0.028 C 
HETATM    8  C14 UNL     1      -2.585  -1.382   0.215  1.00  0.00     0.067 C 
HETATM    9  C15 UNL     1      -1.462  -2.241   0.196  1.00  0.00     0.101 C 
HETATM   10  N3  UNL     1      -0.263  -2.386   0.153  1.00  0.00    -0.248 NA
HETATM   11  C16 UNL     1       0.967  -1.877   0.084  1.00  0.00     0.120 C 
HETATM   12  C17 UNL     1       1.917  -0.901   0.109  1.00  0.00     0.046 C 
ENDROOT
BRANCH   1  13
HETATM   13  C5  UNL     1       3.293   1.029   0.524  1.00  0.00     0.087 C 
BRANCH  13  14
HETATM   14  C4  UNL     1       4.151   0.584  -0.640  1.00  0.00    -0.001 C 
HETATM   15  C3  UNL     1       5.296  -0.127  -0.784  1.00  0.00     0.009 C 
HETATM   16 CL1  UNL     1       5.622  -0.439   0.905  1.00  0.00    -0.089 Cl
BRANCH  15  17
HETATM   17  C2  UNL     1       5.693  -0.263  -2.223  1.00  0.00     0.015 C 
HETATM   18  C1  UNL     1       6.734  -0.948  -1.722  1.00  0.00     0.041 C 
ENDBRANCH  15  17
ENDBRANCH  13  14
ENDBRANCH   1  13
BRANCH   9  19
HETATM   19  N2  UNL     1      -1.716  -3.625   0.245  1.00  0.00    -0.387 N 
HETATM   20  H14 UNL     1      -1.637  -4.475  -0.388  1.00  0.00     0.157 HD
HETATM   21  H15 UNL     1      -2.092  -4.393   0.868  1.00  0.00     0.157 HD
ENDBRANCH   9  19
BRANCH   6  22
HETATM   22  C11 UNL     1      -5.105   0.952   0.138  1.00  0.00     0.267 C 
HETATM   23  F1  UNL     1      -5.695   0.404  -0.980  1.00  0.00    -0.238 F 
BRANCH  22  24
HETATM   24  C12 UNL     1      -5.502   2.448   0.092  1.00  0.00     0.391 C 
HETATM   25  F2  UNL     1      -6.901   2.434   0.011  1.00  0.00    -0.211 F 
HETATM   26  F3  UNL     1      -5.133   3.006   1.303  1.00  0.00    -0.211 F 
ENDBRANCH  22  24
ENDBRANCH   6  22
TORSDOF 6
