REMARK  5 active torsions:
REMARK  status: ('A' for Active; 'I' for Inactive)
REMARK    1  A    between atoms: C1_2  and  O1_3 
REMARK    2  A    between atoms: O1_3  and  O2_4 
REMARK    3  A    between atoms: O2_4  and  C2_5 
REMARK    4  A    between atoms: C6_9  and  C7_10 
REMARK    5  A    between atoms: C10_14  and  C11_15 
ROOT
HETATM    1  C7  UNL     1       0.253  -0.741  -0.153  1.00  0.00     0.160 A 
HETATM    2  N1  UNL     1       0.464  -1.861  -0.883  1.00  0.00    -0.241 NA
HETATM    3  C8  UNL     1      -0.599  -2.535  -1.390  1.00  0.00     0.121 A 
HETATM    4  C9  UNL     1      -1.847  -2.018  -1.119  1.00  0.00     0.052 A 
HETATM    5  C10 UNL     1      -2.086  -0.880  -0.378  1.00  0.00     0.070 A 
HETATM    6  N2  UNL     1      -0.978  -0.265   0.092  1.00  0.00    -0.228 NA
ENDROOT
BRANCH   1   7
HETATM    7  C6  UNL     1       1.410  -0.033   0.382  1.00  0.00     0.014 A 
HETATM    8  C5  UNL     1       1.255   1.111   1.132  1.00  0.00     0.015 A 
HETATM    9  C4  UNL     1       2.381   1.750   1.619  1.00  0.00     0.004 A 
HETATM   10  C3  UNL     1       3.656   1.263   1.369  1.00  0.00     0.040 A 
HETATM   11  C2  UNL     1       3.783   0.099   0.605  1.00  0.00     0.107 A 
HETATM   12  C17 UNL     1       2.660  -0.561   0.103  1.00  0.00     0.055 A 
BRANCH  11  13
HETATM   13  O2  UNL     1       5.057  -0.380   0.360  1.00  0.00    -0.195 OA
BRANCH  13  14
HETATM   14  O1  UNL     1       5.632  -0.426  -0.827  1.00  0.00    -0.204 OA
BRANCH  14  15
HETATM   15  C1  UNL     1       6.429   0.671  -1.121  1.00  0.00     0.432 C 
HETATM   16  F1  UNL     1       7.471   0.839  -0.228  1.00  0.00    -0.224 F 
ENDBRANCH  14  15
ENDBRANCH  13  14
ENDBRANCH  11  13
ENDBRANCH   1   7
BRANCH   5  17
HETATM   17  C11 UNL     1      -3.422  -0.360  -0.110  1.00  0.00    -0.007 A 
HETATM   18  C12 UNL     1      -4.598  -0.927  -0.552  1.00  0.00     0.015 A 
HETATM   19  C13 UNL     1      -5.838  -0.402  -0.276  1.00  0.00     0.024 A 
HETATM   20  C14 UNL     1      -5.930   0.752   0.483  1.00  0.00     0.034 A 
HETATM   21 CL1  UNL     1      -7.535   1.370   0.802  1.00  0.00    -0.084 Cl
HETATM   22  C15 UNL     1      -4.756   1.353   0.949  1.00  0.00     0.024 A 
HETATM   23  C16 UNL     1      -3.539   0.779   0.638  1.00  0.00     0.015 A 
ENDBRANCH   5  17
TORSDOF 5
