REMARK  1 active torsions:
REMARK  status: ('A' for Active; 'I' for Inactive)
REMARK    1  A    between atoms: C1_2  and  C2_3 
ROOT
HETATM    1  C2  UNL     1      -1.703   0.043   0.698  1.00  0.00     0.089 C 
HETATM    2  C3  UNL     1      -0.782   0.822   1.226  1.00  0.00     0.008 A 
HETATM    3  C4  UNL     1      -1.228   1.643   2.362  1.00  0.00     0.015 A 
HETATM    4  C5  UNL     1      -0.218   2.377   2.802  1.00  0.00     0.002 A 
HETATM    5  C6  UNL     1       0.917   2.049   1.957  1.00  0.00     0.015 A 
HETATM    6  C7  UNL     1       0.610   1.133   1.018  1.00  0.00     0.006 A 
HETATM    7  C8  UNL     1       1.559   0.637   0.038  1.00  0.00     0.088 A 
HETATM    8  C9  UNL     1       2.670   1.364  -0.307  1.00  0.00     0.053 A 
HETATM    9  C10 UNL     1       3.635   1.002  -1.219  1.00  0.00     0.139 A 
HETATM   10  N1  UNL     1       3.440  -0.213  -1.829  1.00  0.00    -0.075 NA
HETATM   11  C11 UNL     1       2.357  -0.917  -1.491  1.00  0.00     0.723 A 
HETATM   12  N2  UNL     1       1.418  -0.532  -0.582  1.00  0.00    -0.062 NA
HETATM   13  N3  UNL     1       1.688  -2.148  -1.804  1.00  0.00    -0.215 N 
HETATM   14  C12 UNL     1       0.392  -2.350  -2.419  1.00  0.00     0.133 C 
HETATM   15  C13 UNL     1      -0.913  -2.126  -2.183  1.00  0.00     0.083 C 
HETATM   16  C14 UNL     1      -1.910  -1.542  -1.182  1.00  0.00     0.320 C 
HETATM   17  F2  UNL     1      -2.495  -2.598  -0.541  1.00  0.00    -0.219 F 
HETATM   18  O1  UNL     1      -1.206  -0.681  -0.338  1.00  0.00    -0.316 OA
HETATM   19  H8  UNL     1       2.429  -2.753  -1.448  1.00  0.00     0.178 HD
ENDROOT
BRANCH   1  20
HETATM   20  C1  UNL     1      -3.117  -0.218   0.969  1.00  0.00     0.287 C 
HETATM   21  F1  UNL     1      -3.680   0.474   1.991  1.00  0.00    -0.248 F 
ENDBRANCH   1  20
TORSDOF 1
