REMARK  3 active torsions:
REMARK  status: ('A' for Active; 'I' for Inactive)
REMARK    1  A    between atoms: O1_1  and  C1_2 
REMARK    2  A    between atoms: C18_21  and  N3_22 
REMARK    3  A    between atoms: C19_23  and  C20_24 
ROOT
HETATM    1  C1  UNL     1      -2.313  -0.770   0.658  1.00  0.00     0.138 C 
HETATM    2  C2  UNL     1      -2.926  -0.561  -0.679  1.00  0.00     0.063 C 
HETATM    3  C3  UNL     1      -3.268   0.229  -1.682  1.00  0.00    -0.018 C 
HETATM    4  C4  UNL     1      -3.262   1.601  -2.205  1.00  0.00    -0.007 C 
HETATM    5  C5  UNL     1      -2.798   2.789  -1.864  1.00  0.00    -0.026 C 
HETATM    6  C6  UNL     1      -1.966   3.141  -0.665  1.00  0.00     0.003 C 
HETATM    7  C7  UNL     1      -1.233   3.085   0.442  1.00  0.00     0.051 C 
HETATM    8  C8  UNL     1      -0.693   1.989   1.331  1.00  0.00    -0.020 C 
HETATM    9  C9  UNL     1      -0.506   0.697   1.611  1.00  0.00     0.027 C 
HETATM   10  C10 UNL     1      -0.876  -0.525   0.893  1.00  0.00     0.175 C 
HETATM   11  N1  UNL     1      -0.057  -1.665   1.488  1.00  0.00    -0.360 N 
HETATM   12  C11 UNL     1      -0.967  -2.695   1.826  1.00  0.00     0.019 C 
HETATM   13  C12 UNL     1      -1.790  -3.616   2.466  1.00  0.00     0.026 C 
HETATM   14  C13 UNL     1      -3.188  -3.155   1.838  1.00  0.00     0.009 C 
HETATM   15  C14 UNL     1      -2.634  -2.188   1.114  1.00  0.00    -0.027 C 
HETATM   16  C15 UNL     1      -1.555  -3.054   0.420  1.00  0.00     0.091 C 
HETATM   17  C16 UNL     1      -0.896  -2.491  -0.701  1.00  0.00     0.008 C 
HETATM   18  C17 UNL     1      -0.771  -2.064  -1.945  1.00  0.00     0.133 C 
HETATM   19  N2  UNL     1       0.524  -1.504  -2.355  1.00  0.00    -0.076 NA
HETATM   20  C18 UNL     1       0.860  -0.551  -1.460  1.00  0.00     0.724 C 
HETATM   21  N5  UNL     1      -0.143  -0.361  -0.406  1.00  0.00    -0.189 N 
HETATM   22  H10 UNL     1       0.932  -1.712   1.627  1.00  0.00     0.162 HD
HETATM   23  H21 UNL     1      -0.640   0.342  -1.029  1.00  0.00     0.181 HD
ENDROOT
BRANCH  20  24
HETATM   24  N3  UNL     1       1.959   0.339  -1.292  1.00  0.00    -0.074 NA
HETATM   25  C19 UNL     1       3.007   0.047  -0.598  1.00  0.00     0.149 C 
BRANCH  25  26
HETATM   26  C20 UNL     1       4.244   0.756  -0.273  1.00  0.00    -0.001 A 
HETATM   27  C21 UNL     1       5.261   0.231   0.499  1.00  0.00     0.016 A 
HETATM   28  C22 UNL     1       6.344   1.062   0.704  1.00  0.00     0.020 A 
HETATM   29  C23 UNL     1       6.335   2.317   0.142  1.00  0.00     0.116 A 
HETATM   30  N4  UNL     1       5.317   2.809  -0.616  1.00  0.00    -0.272 NA
HETATM   31  C24 UNL     1       4.237   2.028  -0.842  1.00  0.00     0.129 A 
ENDBRANCH  25  26
ENDBRANCH  20  24
BRANCH   1  32
HETATM   32  O1  UNL     1      -3.024   0.125   1.537  1.00  0.00    -0.380 OA
HETATM   33  H1  UNL     1      -3.807   0.418   1.033  1.00  0.00     0.211 HD
ENDBRANCH   1  32
TORSDOF 3
