REMARK  7 active torsions:
REMARK  status: ('A' for Active; 'I' for Inactive)
REMARK    1  A    between atoms: B1_1  and  C1_2 
REMARK    2  A    between atoms: C1_2  and  C2_4 
REMARK    3  A    between atoms: C2_4  and  O1_6 
REMARK    4  A    between atoms: O1_6  and  C3_7 
REMARK    5  A    between atoms: C3_7  and  C4_9 
REMARK    6  A    between atoms: C5_10  and  N1_11 
REMARK    7  A    between atoms: N1_11  and  C6_12 
ROOT
HETATM    1  C6  UNL     1      -0.405   1.011   0.144  1.00  0.00     0.726 A 
HETATM    2  N2  UNL     1      -0.230   2.014  -0.755  1.00  0.00    -0.075 NA
HETATM    3  C7  UNL     1      -1.357   2.496  -1.355  1.00  0.00     0.139 A 
HETATM    4  C8  UNL     1      -2.571   1.958  -1.028  1.00  0.00     0.054 A 
HETATM    5  C9  UNL     1      -2.748   0.943  -0.118  1.00  0.00     0.104 A 
HETATM    6  C10 UNL     1      -3.994   0.323   0.281  1.00  0.00     0.061 C 
HETATM    7  C11 UNL     1      -5.165   0.681  -0.208  1.00  0.00     0.033 C 
HETATM    8  C12 UNL     1      -6.532   0.234   0.016  1.00  0.00     0.026 C 
HETATM    9  C13 UNL     1      -6.915  -0.848   0.659  1.00  0.00     0.035 C 
HETATM   10 CL1  UNL     1      -8.657  -1.053   0.723  1.00  0.00    -0.084 Cl
HETATM   11  C14 UNL     1      -6.082  -1.860   1.302  1.00  0.00     0.041 C 
HETATM   12  C15 UNL     1      -4.778  -1.799   1.554  1.00  0.00     0.090 C 
HETATM   13  N3  UNL     1      -3.898  -0.715   1.247  1.00  0.00    -0.364 N 
HETATM   14  N4  UNL     1      -1.609   0.505   0.443  1.00  0.00    -0.061 NA
HETATM   15  H15 UNL     1      -3.036  -0.713   1.862  1.00  0.00     0.165 HD
ENDROOT
BRANCH   1  16
HETATM   16  N1  UNL     1       0.729   0.470   0.799  1.00  0.00    -0.198 N 
HETATM   17  H8  UNL     1       0.671  -0.284   1.486  1.00  0.00     0.183 HD
BRANCH  16  18
HETATM   18  C5  UNL     1       2.052   0.948   0.542  1.00  0.00     0.107 C 
HETATM   19  C4  UNL     1       3.118   0.251   0.111  1.00  0.00     0.055 C 
BRANCH  19  20
HETATM   20  C3  UNL     1       4.446   0.878  -0.116  1.00  0.00     0.335 C 
HETATM   21  F3  UNL     1       4.182   2.251  -0.228  1.00  0.00    -0.215 F 
BRANCH  20  22
HETATM   22  O1  UNL     1       5.069   0.434  -1.279  1.00  0.00    -0.317 OA
BRANCH  22  23
HETATM   23  C2  UNL     1       6.338  -0.093  -1.024  1.00  0.00     0.333 C 
HETATM   24  F2  UNL     1       7.250   0.639  -1.773  1.00  0.00    -0.218 F 
BRANCH  23  25
HETATM   25  C1  UNL     1       6.347  -1.529  -1.475  1.00  0.00     0.172 C 
HETATM   26  F1  UNL     1       7.590  -2.069  -1.205  1.00  0.00    -0.256 F 
BRANCH  25  27
HETATM   27  B1  UNL     1       5.301  -2.391  -0.621  1.00  0.00     0.185 B 
HETATM   28  H1  UNL     1       5.399  -3.587  -0.655  1.00  0.00    -0.029 HD
HETATM   29  H2  UNL     1       4.979  -1.947   0.442  1.00  0.00    -0.029 HD
ENDBRANCH  25  27
ENDBRANCH  23  25
ENDBRANCH  22  23
ENDBRANCH  20  22
ENDBRANCH  19  20
ENDBRANCH  16  18
ENDBRANCH   1  16
TORSDOF 7
