REMARK  3 active torsions:
REMARK  status: ('A' for Active; 'I' for Inactive)
REMARK    1  A    between atoms: C1_2  and  C2_4 
REMARK    2  A    between atoms: C2_4  and  O1_6 
REMARK    3  A    between atoms: O1_6  and  P1_7 
ROOT
HETATM    1  P1  UNL     1       2.302  -0.856   0.660  1.00  0.00     0.128 P 
HETATM    2  C3  UNL     1       0.673  -1.701   0.939  1.00  0.00     0.108 C 
HETATM    3  C4  UNL     1      -0.121  -1.917  -0.270  1.00  0.00    -0.020 C 
HETATM    4  C5  UNL     1      -1.335  -1.555  -0.679  1.00  0.00    -0.002 C 
HETATM    5  C6  UNL     1      -2.318  -0.754   0.046  1.00  0.00     0.129 C 
HETATM    6  C7  UNL     1      -3.619  -1.472  -0.068  1.00  0.00    -0.002 C 
HETATM    7  C8  UNL     1      -4.652  -0.958   0.591  1.00  0.00    -0.027 C 
HETATM    8  C9  UNL     1      -4.270   0.273   1.329  1.00  0.00     0.047 C 
HETATM    9  C10 UNL     1      -3.606   1.212   0.361  1.00  0.00     0.127 C 
HETATM   10  N1  UNL     1      -2.509   0.596  -0.386  1.00  0.00    -0.377 N 
HETATM   11  C11 UNL     1      -2.071   1.627  -1.262  1.00  0.00     0.103 C 
HETATM   12  C12 UNL     1      -0.937   2.299  -1.288  1.00  0.00     0.108 C 
HETATM   13  N2  UNL     1       0.237   2.257  -0.490  1.00  0.00    -0.349 N 
HETATM   14  C13 UNL     1       0.898   3.357   0.119  1.00  0.00     0.110 C 
HETATM   15  C14 UNL     1       1.842   3.068   1.033  1.00  0.00     0.119 C 
HETATM   16  N3  UNL     1       2.477   1.775   1.120  1.00  0.00    -0.322 N 
HETATM   17  N4  UNL     1       2.134   0.859   0.155  1.00  0.00    -0.162 NA
HETATM   18  C15 UNL     1       0.779   0.955  -0.301  1.00  0.00     0.249 C 
HETATM   19  H18 UNL     1       3.149   1.630   1.906  1.00  0.00     0.180 HD
ENDROOT
BRANCH   1  20
HETATM   20  O1  UNL     1       3.091  -1.687  -0.649  1.00  0.00    -0.306 OA
BRANCH  20  21
HETATM   21  C2  UNL     1       4.434  -1.414  -0.740  1.00  0.00     0.377 C 
HETATM   22  F3  UNL     1       4.683  -0.859  -1.979  1.00  0.00    -0.213 F 
BRANCH  21  23
HETATM   23  C1  UNL     1       5.276  -2.674  -0.660  1.00  0.00     0.412 C 
HETATM   24  F1  UNL     1       6.608  -2.337  -0.797  1.00  0.00    -0.209 F 
HETATM   25  F2  UNL     1       4.984  -3.521  -1.707  1.00  0.00    -0.209 F 
ENDBRANCH  21  23
ENDBRANCH  20  21
ENDBRANCH   1  20
TORSDOF 3
