REMARK  5 active torsions:
REMARK  status: ('A' for Active; 'I' for Inactive)
REMARK    1  A    between atoms: C2_2  and  C3_4 
REMARK    2  A    between atoms: C2_2  and  O1_6 
REMARK    3  A    between atoms: O1_6  and  C4_7 
REMARK    4  A    between atoms: C8_11  and  N1_12 
REMARK    5  A    between atoms: N1_12  and  C9_13 
ROOT
HETATM    1  C4  UNL     1      -2.595  -0.390   1.011  1.00  0.00     0.075 A 
HETATM    2  C5  UNL     1      -2.630  -1.755   0.826  1.00  0.00     0.037 A 
HETATM    3  C6  UNL     1      -1.473  -2.401   0.443  1.00  0.00     0.005 A 
HETATM    4  C7  UNL     1      -0.328  -1.658   0.261  1.00  0.00     0.029 A 
HETATM    5  C8  UNL     1      -0.223  -0.300   0.428  1.00  0.00     0.036 A 
HETATM    6  C17 UNL     1      -1.419   0.300   0.814  1.00  0.00     0.066 A 
ENDROOT
BRANCH   5   7
HETATM    7  N1  UNL     1       0.929   0.505   0.262  1.00  0.00    -0.344 N 
HETATM    8  H9  UNL     1       0.812   1.557   0.383  1.00  0.00     0.167 HD
BRANCH   7   9
HETATM    9  C9  UNL     1       2.224   0.020  -0.063  1.00  0.00     0.108 C 
HETATM   10  N2  UNL     1       2.467  -1.082   0.602  1.00  0.00    -0.247 NA
HETATM   11  C10 UNL     1       3.651  -1.872   0.555  1.00  0.00     0.119 C 
HETATM   12  C11 UNL     1       4.903  -1.435   0.319  1.00  0.00     0.031 C 
HETATM   13  C12 UNL     1       5.281  -0.028   0.061  1.00  0.00    -0.025 A 
HETATM   14  C13 UNL     1       6.285   0.858   0.184  1.00  0.00     0.036 A 
HETATM   15  C15 UNL     1       4.388   0.946  -0.551  1.00  0.00    -0.019 A 
HETATM   16  C14 UNL     1       5.376   1.845  -0.437  1.00  0.00     0.042 A 
HETATM   17 CL1  UNL     1       5.630   3.542  -0.824  1.00  0.00    -0.084 Cl
HETATM   18  C16 UNL     1       2.991   0.828  -1.041  1.00  0.00     0.119 C 
ENDBRANCH   7   9
ENDBRANCH   5   7
BRANCH   1  19
HETATM   19  O1  UNL     1      -3.735   0.302   1.396  1.00  0.00    -0.307 OA
BRANCH  19  20
HETATM   20  C2  UNL     1      -4.677   0.860   0.532  1.00  0.00     0.232 C 
HETATM   21  C1  UNL     1      -4.127   1.897  -0.402  1.00  0.00     0.087 C 
HETATM   22  F1  UNL     1      -5.690   1.399   1.335  1.00  0.00    -0.209 F 
BRANCH  20  23
HETATM   23  C3  UNL     1      -5.382  -0.202  -0.317  1.00  0.00     0.295 C 
HETATM   24  F2  UNL     1      -5.920  -1.195   0.450  1.00  0.00    -0.249 F 
ENDBRANCH  20  23
ENDBRANCH  19  20
ENDBRANCH   1  19
TORSDOF 5
