REMARK  2 active torsions:
REMARK  status: ('A' for Active; 'I' for Inactive)
REMARK    1  A    between atoms: N3_15  and  C13_16 
REMARK    2  A    between atoms: C13_16  and  C14_17 
ROOT
HETATM    1  C1  UNL     1      -2.068   1.583  -0.143  1.00  0.00    -0.002 C 
HETATM    2  C2  UNL     1      -3.212   1.062   0.155  1.00  0.00    -0.007 C 
HETATM    3  C3  UNL     1      -4.663   0.950   0.291  1.00  0.00     0.147 C 
HETATM    4  N1  UNL     1      -5.177  -0.210  -0.481  1.00  0.00    -0.386 N 
HETATM    5  C4  UNL     1      -4.438  -1.364  -0.035  1.00  0.00     0.029 A 
HETATM    6  C5  UNL     1      -4.959  -2.261   0.907  1.00  0.00     0.029 A 
HETATM    7  C6  UNL     1      -4.249  -3.323   1.424  1.00  0.00     0.003 A 
HETATM    8  C7  UNL     1      -2.956  -3.551   1.022  1.00  0.00     0.011 A 
HETATM    9  C8  UNL     1      -2.438  -2.682   0.104  1.00  0.00    -0.033 A 
HETATM   10  C9  UNL     1      -3.118  -1.624  -0.431  1.00  0.00     0.040 A 
HETATM   11  C10 UNL     1      -1.020  -2.662  -0.348  1.00  0.00     0.030 C 
HETATM   12  C11 UNL     1       0.016  -1.839  -0.256  1.00  0.00     0.120 C 
HETATM   13  N2  UNL     1       1.166  -1.022  -0.205  1.00  0.00    -0.241 N 
HETATM   14  C12 UNL     1       1.309   0.186  -0.513  1.00  0.00     0.149 A 
HETATM   15  N3  UNL     1       2.254  -0.759  -0.019  1.00  0.00    -0.241 N 
HETATM   16  C19 UNL     1       1.342   1.568  -0.850  1.00  0.00     0.064 C 
HETATM   17  C20 UNL     1       0.929   2.785  -1.063  1.00  0.00    -0.022 A 
HETATM   18  C21 UNL     1       2.004   3.543  -1.463  1.00  0.00     0.012 A 
HETATM   19  C22 UNL     1       1.757   4.827  -1.872  1.00  0.00     0.001 A 
HETATM   20  C23 UNL     1       0.488   5.298  -1.869  1.00  0.00     0.001 A 
HETATM   21  C24 UNL     1      -0.590   4.556  -1.469  1.00  0.00     0.012 A 
HETATM   22  C25 UNL     1      -0.347   3.271  -1.055  1.00  0.00    -0.026 A 
HETATM   23  C26 UNL     1      -1.475   2.741  -0.673  1.00  0.00     0.012 C 
HETATM   24  H5  UNL     1      -5.712  -0.802  -1.137  1.00  0.00     0.160 HD
ENDROOT
BRANCH  15  25
HETATM   25  C13 UNL     1       3.473  -0.368   0.335  1.00  0.00     0.132 C 
BRANCH  25  26
HETATM   26  C14 UNL     1       4.401  -1.372   0.833  1.00  0.00    -0.001 A 
HETATM   27  C15 UNL     1       5.688  -1.055   1.225  1.00  0.00     0.016 A 
HETATM   28  C16 UNL     1       6.511  -2.060   1.685  1.00  0.00     0.020 A 
HETATM   29  C17 UNL     1       6.136  -3.402   1.788  1.00  0.00     0.116 A 
HETATM   30  N4  UNL     1       4.873  -3.642   1.392  1.00  0.00    -0.272 NA
HETATM   31  C18 UNL     1       4.033  -2.696   0.936  1.00  0.00     0.129 A 
ENDBRANCH  25  26
ENDBRANCH  15  25
TORSDOF 2
