REMARK  5 active torsions:
REMARK  status: ('A' for Active; 'I' for Inactive)
REMARK    1  A    between atoms: C4_4  and  C5_5 
REMARK       I    between atoms: C5_5  and  N1_7 
REMARK    2  A    between atoms: N1_7  and  C6_8 
REMARK    3  A    between atoms: C11_13  and  N2_14 
REMARK    4  A    between atoms: N2_14  and  C12_15 
REMARK    5  A    between atoms: C15_19  and  C16_20 
ROOT
HETATM    1  C1  UNL     1      -7.353   2.671   3.427  1.00  0.00     0.017 C 
HETATM    2  C2  UNL     1      -6.470   1.896   3.154  1.00  0.00    -0.089 C 
HETATM    3  C3  UNL     1      -5.422   0.967   2.813  1.00  0.00     0.069 C 
HETATM    4  C4  UNL     1      -4.951   0.812   1.561  1.00  0.00     0.083 C 
ENDROOT
BRANCH   4   5
HETATM    5  C5  UNL     1      -3.894  -0.155   1.340  1.00  0.00     0.246 C 
HETATM    6  O1  UNL     1      -3.269  -0.942   2.067  1.00  0.00    -0.268 OA
HETATM    7  N1  UNL     1      -3.499  -0.196  -0.010  1.00  0.00    -0.324 N 
HETATM    8  H4  UNL     1      -3.887   0.377  -0.809  1.00  0.00     0.169 HD
BRANCH   7   9
HETATM    9  C6  UNL     1      -2.583  -0.877  -0.853  1.00  0.00     0.037 A 
HETATM   10  C7  UNL     1      -2.888  -2.053  -1.545  1.00  0.00     0.030 A 
HETATM   11  C8  UNL     1      -2.004  -2.712  -2.369  1.00  0.00     0.011 A 
HETATM   12  C9  UNL     1      -0.753  -2.147  -2.492  1.00  0.00    -0.035 A 
HETATM   13  C10 UNL     1       0.239  -2.830  -3.385  1.00  0.00     0.050 C 
HETATM   14  C11 UNL     1      -0.341  -0.995  -1.860  1.00  0.00     0.057 A 
HETATM   15  C21 UNL     1      -1.286  -0.393  -1.051  1.00  0.00     0.060 A 
BRANCH  14  16
HETATM   16  N2  UNL     1       0.952  -0.493  -2.058  1.00  0.00    -0.188 N 
HETATM   17  H10 UNL     1       1.601  -0.963  -2.717  1.00  0.00     0.184 HD
BRANCH  16  18
HETATM   18  C12 UNL     1       1.528   0.646  -1.433  1.00  0.00     0.727 A 
HETATM   19  N3  UNL     1       1.256   1.952  -1.658  1.00  0.00    -0.075 NA
HETATM   20  C13 UNL     1       1.933   2.882  -0.965  1.00  0.00     0.139 A 
HETATM   21  C14 UNL     1       2.893   2.537  -0.035  1.00  0.00     0.053 A 
HETATM   22  C15 UNL     1       3.147   1.199   0.172  1.00  0.00     0.089 A 
HETATM   23  N5  UNL     1       2.456   0.287  -0.533  1.00  0.00    -0.062 NA
BRANCH  22  24
HETATM   24  C16 UNL     1       4.161   0.776   1.128  1.00  0.00     0.011 A 
HETATM   25  C17 UNL     1       4.424  -0.564   1.319  1.00  0.00     0.017 A 
HETATM   26  C18 UNL     1       5.376  -1.078   2.206  1.00  0.00     0.020 A 
HETATM   27  C19 UNL     1       6.086  -0.133   2.927  1.00  0.00     0.116 A 
HETATM   28  N4  UNL     1       5.859   1.199   2.771  1.00  0.00    -0.272 NA
HETATM   29  C20 UNL     1       4.917   1.633   1.891  1.00  0.00     0.130 A 
ENDBRANCH  22  24
ENDBRANCH  16  18
ENDBRANCH  14  16
ENDBRANCH   7   9
ENDBRANCH   4   5
TORSDOF 5
