REMARK  8 active torsions:
REMARK  status: ('A' for Active; 'I' for Inactive)
REMARK    1  A    between atoms: N2_5  and  C4_6 
REMARK    2  A    between atoms: C4_6  and  C5_7 
REMARK    3  A    between atoms: C8_10  and  C9_11 
REMARK    4  A    between atoms: C9_11  and  C10_13 
REMARK    5  A    between atoms: C10_13  and  N3_14 
REMARK    6  A    between atoms: N3_14  and  C11_15 
REMARK    7  A    between atoms: C15_19  and  N4_20 
REMARK    8  A    between atoms: C19_25  and  N6_26 
ROOT
HETATM    1  C10 UNL     1       1.388   0.179   1.584  1.00  0.00     0.203 C 
ENDROOT
BRANCH   1   2
HETATM    2  C9  UNL     1       0.817  -0.194   0.247  1.00  0.00     0.176 C 
HETATM    3  O1  UNL     1       1.387  -0.817  -0.705  1.00  0.00    -0.291 OA
BRANCH   2   4
HETATM    4  C8  UNL     1      -0.573   0.222   0.037  1.00  0.00     0.011 A 
HETATM    5  C7  UNL     1      -1.339   0.911   0.975  1.00  0.00     0.016 A 
HETATM    6  C6  UNL     1      -2.641   1.275   0.720  1.00  0.00     0.010 A 
HETATM    7  C5  UNL     1      -3.250   0.967  -0.498  1.00  0.00    -0.030 A 
HETATM    8  C22 UNL     1      -2.529   0.285  -1.456  1.00  0.00     0.010 A 
HETATM    9  C21 UNL     1      -1.238  -0.052  -1.149  1.00  0.00     0.016 A 
BRANCH   7  10
HETATM   10  C4  UNL     1      -4.654   1.382  -0.723  1.00  0.00     0.311 C 
BRANCH  10  11
HETATM   11  N2  UNL     1      -5.609   0.392  -0.311  1.00  0.00     0.096 N 
HETATM   12  C3  UNL     1      -5.481  -0.852  -0.999  1.00  0.00     0.303 C 
HETATM   13  C2  UNL     1      -6.828  -1.564  -0.929  1.00  0.00     0.302 C 
HETATM   14  N1  UNL     1      -7.465  -1.272   0.316  1.00  0.00     0.087 N 
HETATM   15  C1  UNL     1      -8.520  -0.317   0.170  1.00  0.00     0.310 C 
HETATM   16  C24 UNL     1      -6.569  -0.982   1.408  1.00  0.00     0.302 C 
HETATM   17  C23 UNL     1      -5.665   0.189   1.119  1.00  0.00     0.303 C 
ENDBRANCH  10  11
ENDBRANCH   7  10
ENDBRANCH   2   4
ENDBRANCH   1   2
BRANCH   1  18
HETATM   18  N3  UNL     1       2.747  -0.220   1.755  1.00  0.00    -0.383 N 
HETATM   19  H14 UNL     1       3.008  -0.904   2.498  1.00  0.00     0.160 HD
BRANCH  18  20
HETATM   20  C11 UNL     1       3.791   0.287   0.938  1.00  0.00     0.030 A 
HETATM   21  C12 UNL     1       3.596   1.207  -0.070  1.00  0.00     0.029 A 
HETATM   22  C13 UNL     1       4.590   1.712  -0.881  1.00  0.00     0.004 A 
HETATM   23  C14 UNL     1       5.882   1.274  -0.684  1.00  0.00     0.030 A 
HETATM   24  C15 UNL     1       6.128   0.345   0.322  1.00  0.00     0.044 A 
HETATM   25  C20 UNL     1       5.099  -0.111   1.086  1.00  0.00     0.059 A 
BRANCH  24  26
HETATM   26  N4  UNL     1       7.495  -0.040   0.440  1.00  0.00    -0.291 N 
HETATM   27  C16 UNL     1       8.348   0.392   1.372  1.00  0.00     0.216 A 
HETATM   28  N5  UNL     1       9.625  -0.064   1.358  1.00  0.00    -0.255 NA
HETATM   29  C17 UNL     1      10.075  -0.938   0.441  1.00  0.00     0.122 A 
HETATM   30  C18 UNL     1       9.227  -1.414  -0.544  1.00  0.00     0.070 A 
HETATM   31  C19 UNL     1       7.941  -0.927  -0.494  1.00  0.00     0.129 A 
BRANCH  31  32
HETATM   32  N6  UNL     1       7.127  -1.369  -1.422  1.00  0.00    -0.283 NA
HETATM   33  H21 UNL     1       6.144  -1.053  -1.455  1.00  0.00     0.188 HD
ENDBRANCH  31  32
ENDBRANCH  24  26
ENDBRANCH  18  20
ENDBRANCH   1  18
TORSDOF 8
