REMARK  8 active torsions:
REMARK  status: ('A' for Active; 'I' for Inactive)
REMARK    1  A    between atoms: C2_2  and  C3_3 
REMARK    2  A    between atoms: C3_3  and  N1_4 
REMARK    3  A    between atoms: C4_5  and  C5_6 
REMARK    4  A    between atoms: C5_6  and  C6_7 
REMARK    5  A    between atoms: C9_11  and  N3_12 
REMARK    6  A    between atoms: N3_12  and  C10_13 
REMARK    7  A    between atoms: C12_15  and  C13_16 
REMARK    8  A    between atoms: C13_16  and  N4_17 
ROOT
HETATM    1  C10 UNL     1       0.518  -0.658  -0.849  1.00  0.00     0.020 C 
HETATM    2  C11 UNL     1       0.932   0.042   0.392  1.00  0.00     0.068 C 
HETATM    3  C12 UNL     1      -0.681  -0.763  -1.353  1.00  0.00     0.018 C 
ENDROOT
BRANCH   3   4
HETATM    4  C13 UNL     1      -1.943  -0.124  -0.706  1.00  0.00     0.155 C 
BRANCH   4   5
HETATM    5  N4  UNL     1      -2.769  -1.264  -0.345  1.00  0.00    -0.344 N 
HETATM    6  C14 UNL     1      -2.515  -1.550   1.056  1.00  0.00     0.145 C 
HETATM    7  C15 UNL     1      -3.105  -0.407   1.809  1.00  0.00     0.136 C 
HETATM    8  N5  UNL     1      -4.462  -0.088   1.525  1.00  0.00    -0.414 N 
HETATM    9  C16 UNL     1      -5.454  -1.017   1.946  1.00  0.00     0.143 C 
HETATM   10  C17 UNL     1      -4.769   1.305   1.736  1.00  0.00     0.136 C 
HETATM   11  C18 UNL     1      -4.229   2.298   0.733  1.00  0.00     0.138 C 
HETATM   12  N6  UNL     1      -4.858   2.396  -0.538  1.00  0.00    -0.397 N 
HETATM   13  C19 UNL     1      -5.489   2.508  -1.853  1.00  0.00     0.083 C 
HETATM   14  H27 UNL     1      -5.708   1.788  -0.345  1.00  0.00     0.158 HD
HETATM   15  C20 UNL     1      -5.486   1.450  -2.757  1.00  0.00     0.017 C 
HETATM   16  C21 UNL     1      -4.777   0.510  -2.020  1.00  0.00     0.007 C 
HETATM   17  C22 UNL     1      -4.442  -0.703  -2.226  1.00  0.00     0.074 C 
HETATM   18  C23 UNL     1      -3.680  -1.628  -1.412  1.00  0.00     0.243 C 
HETATM   19  O1  UNL     1      -3.293  -2.687  -1.117  1.00  0.00    -0.268 OA
ENDBRANCH   4   5
ENDBRANCH   3   4
BRANCH   1  20
HETATM   20  N3  UNL     1       1.622  -1.296  -1.538  1.00  0.00    -0.193 N 
HETATM   21  H9  UNL     1       1.713  -1.773  -2.473  1.00  0.00     0.184 HD
BRANCH  20  22
HETATM   22  C9  UNL     1       2.898  -1.363  -0.915  1.00  0.00     0.726 A 
HETATM   23  N2  UNL     1       2.866  -2.485  -0.146  1.00  0.00    -0.075 NA
HETATM   24  C8  UNL     1       3.991  -2.777   0.596  1.00  0.00     0.138 A 
HETATM   25  C7  UNL     1       5.040  -1.898   0.483  1.00  0.00     0.048 A 
HETATM   26  C6  UNL     1       5.036  -0.748  -0.326  1.00  0.00     0.059 A 
HETATM   27  N7  UNL     1       3.932  -0.488  -1.034  1.00  0.00    -0.067 NA
BRANCH  26  28
HETATM   28  C5  UNL     1       6.231   0.105  -0.313  1.00  0.00     0.106 C 
BRANCH  28  29
HETATM   29  C4  UNL     1       7.306  -0.302  -1.255  1.00  0.00     0.096 C 
HETATM   30  N1  UNL     1       8.545  -0.162  -0.859  1.00  0.00    -0.269 NA
BRANCH  30  31
HETATM   31  C3  UNL     1       8.755   0.360   0.436  1.00  0.00     0.166 C 
BRANCH  31  32
HETATM   32  C2  UNL     1       8.985   1.619   0.729  1.00  0.00    -0.136 C 
HETATM   33  C1  UNL     1       9.247   2.909   0.599  1.00  0.00     0.098 C 
ENDBRANCH  31  32
ENDBRANCH  30  31
ENDBRANCH  28  29
ENDBRANCH  26  28
ENDBRANCH  20  22
ENDBRANCH   1  20
TORSDOF 8
