REMARK  5 active torsions:
REMARK  status: ('A' for Active; 'I' for Inactive)
REMARK    1  A    between atoms: C2_2  and  N1_3 
REMARK    2  A    between atoms: N1_3  and  C3_4 
REMARK    3  A    between atoms: C3_4  and  C4_5 
REMARK    4  A    between atoms: C4_5  and  N2_6 
REMARK    5  A    between atoms: N2_6  and  C5_7 
ROOT
HETATM    1  C5  UNL     1       0.958  -0.611   0.259  1.00  0.00     0.160 A 
HETATM    2  N3  UNL     1       1.542  -1.467  -0.586  1.00  0.00    -0.222 NA
HETATM    3  C6  UNL     1       0.800  -2.405  -1.251  1.00  0.00     0.238 A 
HETATM    4  N4  UNL     1      -0.534  -2.497  -1.079  1.00  0.00    -0.215 NA
HETATM    5  C7  UNL     1      -1.191  -1.658  -0.236  1.00  0.00     0.202 A 
HETATM    6  C8  UNL     1      -0.401  -0.736   0.406  1.00  0.00     0.129 A 
HETATM    7  N5  UNL     1      -0.855   0.246   1.334  1.00  0.00    -0.379 N 
HETATM    8  C9  UNL     1      -2.118   0.872   1.584  1.00  0.00     0.161 C 
HETATM    9  C10 UNL     1      -3.234   0.364   0.775  1.00  0.00    -0.007 A 
HETATM   10  C11 UNL     1      -4.231   1.343   0.841  1.00  0.00     0.011 A 
HETATM   11  C12 UNL     1      -5.439   1.150   0.163  1.00  0.00     0.001 A 
HETATM   12  C13 UNL     1      -5.666   0.008  -0.573  1.00  0.00     0.003 A 
HETATM   13  C14 UNL     1      -4.686  -0.981  -0.653  1.00  0.00     0.038 A 
HETATM   14  C15 UNL     1      -3.503  -0.778   0.020  1.00  0.00     0.086 A 
HETATM   15  O1  UNL     1      -2.583  -1.835  -0.125  1.00  0.00    -0.289 OA
HETATM   16  H9  UNL     1      -0.116   0.613   2.000  1.00  0.00     0.160 HD
ENDROOT
BRANCH   1  17
HETATM   17  N2  UNL     1       1.749   0.348   0.941  1.00  0.00    -0.341 N 
HETATM   18  H7  UNL     1       1.986   0.583   1.912  1.00  0.00     0.167 HD
BRANCH  17  19
HETATM   19  C4  UNL     1       2.471   1.321   0.169  1.00  0.00     0.167 C 
BRANCH  19  20
HETATM   20  C3  UNL     1       3.194   0.882  -0.852  1.00  0.00    -0.005 C 
BRANCH  20  21
HETATM   21  N1  UNL     1       3.960   0.298  -1.703  1.00  0.00    -0.247 NA
BRANCH  21  22
HETATM   22  C2  UNL     1       5.172  -0.313  -1.188  1.00  0.00     0.155 C 
HETATM   23  C1  UNL     1       5.968   0.698  -0.445  1.00  0.00     0.029 C 
ENDBRANCH  21  22
ENDBRANCH  20  21
ENDBRANCH  19  20
ENDBRANCH  17  19
ENDBRANCH   1  17
TORSDOF 5
