REMARK  5 active torsions:
REMARK  status: ('A' for Active; 'I' for Inactive)
REMARK    1  A    between atoms: C1_2  and  C2_3 
REMARK       I    between atoms: C1_2  and  N1_5 
REMARK    2  A    between atoms: N1_5  and  C3_6 
REMARK    3  A    between atoms: C7_10  and  N2_11 
REMARK    4  A    between atoms: N2_11  and  C8_12 
REMARK    5  A    between atoms: C11_16  and  C12_17 
ROOT
HETATM    1  N2  UNL     1      -0.062  -1.610  -0.165  1.00  0.00    -0.188 N 
HETATM    2  H7  UNL     1      -0.694  -2.462  -0.267  1.00  0.00     0.184 HD
ENDROOT
BRANCH   1   3
HETATM    3  C7  UNL     1       1.309  -1.866  -0.162  1.00  0.00     0.051 A 
HETATM    4  C6  UNL     1       1.766  -3.183  -0.288  1.00  0.00     0.030 A 
HETATM    5  C5  UNL     1       3.102  -3.502  -0.292  1.00  0.00     0.004 A 
HETATM    6  C4  UNL     1       4.040  -2.512  -0.170  1.00  0.00     0.029 A 
HETATM    7  C3  UNL     1       3.671  -1.192  -0.042  1.00  0.00     0.036 A 
HETATM    8  C17 UNL     1       2.330  -0.950  -0.046  1.00  0.00     0.059 A 
BRANCH   7   9
HETATM    9  N1  UNL     1       4.704  -0.249   0.077  1.00  0.00    -0.325 N 
HETATM   10  C1  UNL     1       4.679   1.162   0.223  1.00  0.00     0.250 C 
HETATM   11  O1  UNL     1       3.555   1.716   0.258  1.00  0.00    -0.271 OA
HETATM   12  H3  UNL     1       5.715  -0.572   0.063  1.00  0.00     0.169 HD
BRANCH  10  13
HETATM   13  C2  UNL     1       5.860   2.041   0.338  1.00  0.00     0.325 C 
HETATM   14  F1  UNL     1       6.302   2.489  -0.892  1.00  0.00    -0.246 F 
ENDBRANCH  10  13
ENDBRANCH   7   9
ENDBRANCH   1   3
BRANCH   1  15
HETATM   15  C8  UNL     1      -0.740  -0.370  -0.052  1.00  0.00     0.727 A 
HETATM   16  N3  UNL     1      -0.175   0.836   0.086  1.00  0.00    -0.075 NA
HETATM   17  C9  UNL     1      -0.815   1.996   0.191  1.00  0.00     0.139 A 
HETATM   18  C10 UNL     1      -2.187   1.981   0.158  1.00  0.00     0.053 A 
HETATM   19  C11 UNL     1      -2.827   0.772   0.018  1.00  0.00     0.089 A 
HETATM   20  N5  UNL     1      -2.082  -0.336  -0.080  1.00  0.00    -0.062 NA
BRANCH  19  21
HETATM   21  C12 UNL     1      -4.279   0.657  -0.027  1.00  0.00     0.011 A 
HETATM   22  C13 UNL     1      -5.134   1.731   0.064  1.00  0.00     0.017 A 
HETATM   23  C14 UNL     1      -6.510   1.594   0.019  1.00  0.00     0.020 A 
HETATM   24  C15 UNL     1      -7.063   0.331  -0.125  1.00  0.00     0.116 A 
HETATM   25  N4  UNL     1      -6.224  -0.698  -0.212  1.00  0.00    -0.272 NA
HETATM   26  C16 UNL     1      -4.884  -0.572  -0.168  1.00  0.00     0.130 A 
ENDBRANCH  19  21
ENDBRANCH   1  15
TORSDOF 5
