REMARK  6 active torsions:
REMARK  status: ('A' for Active; 'I' for Inactive)
REMARK    1  A    between atoms: C2_2  and  C3_3 
REMARK    2  A    between atoms: C2_2  and  N2_21 
REMARK    3  A    between atoms: C5_5  and  C6_6 
REMARK    4  A    between atoms: C6_6  and  C7_7 
REMARK    5  A    between atoms: C7_7  and  N1_8 
REMARK       I    between atoms: N1_8  and  C8_9 
REMARK    6  A    between atoms: C8_9  and  C9_11 
ROOT
HETATM    1  C7  UNL     1      -0.168   0.558  -0.793  1.00  0.00     0.091 C 
ENDROOT
BRANCH   1   2
HETATM    2  C6  UNL     1      -0.225  -0.526   0.032  1.00  0.00     0.018 C 
BRANCH   2   3
HETATM    3  C5  UNL     1      -1.458  -1.167  -0.481  1.00  0.00     0.010 C 
HETATM    4  C3  UNL     1      -2.140  -2.269  -0.161  1.00  0.00    -0.038 C 
HETATM    5  C4  UNL     1      -1.391  -2.915   0.946  1.00  0.00     0.050 C 
BRANCH   4   6
HETATM    6  C2  UNL     1      -3.342  -2.979  -0.592  1.00  0.00     0.036 C 
HETATM    7  C1  UNL     1      -3.731  -4.090  -0.012  1.00  0.00     0.065 C 
BRANCH   6   8
HETATM    8  N2  UNL     1      -4.263  -2.649  -1.647  1.00  0.00    -0.275 N 
HETATM    9  C19 UNL     1      -3.965  -2.486  -3.046  1.00  0.00     0.299 A 
HETATM   10  N3  UNL     1      -5.234  -2.189  -3.635  1.00  0.00    -0.255 NA
HETATM   11  C20 UNL     1      -6.182  -2.145  -2.790  1.00  0.00     0.111 A 
HETATM   12  C21 UNL     1      -7.647  -1.869  -2.980  1.00  0.00     0.092 C 
HETATM   13  N4  UNL     1      -5.656  -2.425  -1.488  1.00  0.00    -0.284 N 
HETATM   14  H22 UNL     1      -6.186  -2.461  -0.602  1.00  0.00     0.188 HD
ENDBRANCH   6   8
ENDBRANCH   4   6
ENDBRANCH   2   3
ENDBRANCH   1   2
BRANCH   1  15
HETATM   15  N1  UNL     1       1.047   1.258  -0.347  1.00  0.00    -0.333 N 
HETATM   16  C8  UNL     1       1.996   0.887   0.642  1.00  0.00     0.255 C 
HETATM   17  O1  UNL     1       1.865  -0.215   1.303  1.00  0.00    -0.267 OA
HETATM   18  H9  UNL     1       1.574   2.171  -0.574  1.00  0.00     0.168 HD
BRANCH  16  19
HETATM   19  C9  UNL     1       3.205   1.499   1.157  1.00  0.00     0.033 A 
HETATM   20  C10 UNL     1       4.052   0.837   2.009  1.00  0.00     0.018 A 
HETATM   21  C11 UNL     1       5.173   1.583   2.423  1.00  0.00     0.013 A 
HETATM   22  C12 UNL     1       5.480   2.870   2.064  1.00  0.00    -0.026 A 
HETATM   23  C13 UNL     1       6.621   3.417   2.578  1.00  0.00     0.012 A 
HETATM   24  C17 UNL     1       4.580   3.450   1.214  1.00  0.00    -0.025 A 
HETATM   25  C14 UNL     1       6.903   4.729   2.188  1.00  0.00     0.001 A 
HETATM   26  C15 UNL     1       6.056   5.437   1.317  1.00  0.00     0.001 A 
HETATM   27  C16 UNL     1       4.947   4.758   0.882  1.00  0.00     0.012 A 
HETATM   28  C18 UNL     1       3.463   2.818   0.752  1.00  0.00     0.029 A 
ENDBRANCH  16  19
ENDBRANCH   1  15
TORSDOF 6
