REMARK  8 active torsions:
REMARK  status: ('A' for Active; 'I' for Inactive)
REMARK    1  A    between atoms: N1_2  and  C2_3 
REMARK    2  A    between atoms: C2_3  and  C3_4 
REMARK    3  A    between atoms: C3_4  and  C4_5 
REMARK    4  A    between atoms: C7_9  and  C8_10 
REMARK    5  A    between atoms: C11_13  and  N3_14 
REMARK       I    between atoms: N3_14  and  C12_15 
REMARK    6  A    between atoms: C12_15  and  C13_17 
REMARK    7  A    between atoms: C16_20  and  C17_21 
REMARK    8  A    between atoms: C17_21  and  N4_22 
ROOT
HETATM    1  N3  UNL     1       2.553  -0.043   2.640  1.00  0.00    -0.348 N 
HETATM    2  C12 UNL     1       1.656   1.032   2.331  1.00  0.00     0.252 C 
HETATM    3  O1  UNL     1       1.917   2.151   2.836  1.00  0.00    -0.268 OA
HETATM    4  H13 UNL     1       2.424  -1.010   2.274  1.00  0.00     0.163 HD
ENDROOT
BRANCH   1   5
HETATM    5  C11 UNL     1       3.749  -0.030   3.482  1.00  0.00     0.122 A 
HETATM    6  C8  UNL     1       5.024  -0.428   2.888  1.00  0.00     0.106 A 
HETATM    7  C9  UNL     1       5.015  -1.537   3.858  1.00  0.00    -0.014 A 
HETATM    8  C10 UNL     1       3.886  -1.161   4.368  1.00  0.00    -0.004 A 
BRANCH   6   9
HETATM    9  C7  UNL     1       5.046  -0.989   1.511  1.00  0.00     0.136 A 
HETATM   10  N2  UNL     1       6.291  -0.991   1.016  1.00  0.00    -0.245 NA
HETATM   11  C6  UNL     1       6.622  -1.431  -0.227  1.00  0.00     0.120 A 
HETATM   12  C5  UNL     1       5.633  -1.903  -1.033  1.00  0.00     0.047 A 
HETATM   13  C4  UNL     1       4.354  -1.901  -0.526  1.00  0.00     0.042 A 
HETATM   14  N6  UNL     1       4.109  -1.451   0.711  1.00  0.00    -0.237 NA
BRANCH  13  15
HETATM   15  C3  UNL     1       3.239  -2.392  -1.370  1.00  0.00     0.105 C 
BRANCH  15  16
HETATM   16  C2  UNL     1       2.757  -1.203  -2.165  1.00  0.00     0.251 C 
BRANCH  16  17
HETATM   17  N1  UNL     1       2.358  -0.160  -2.755  1.00  0.00    -0.428 NA
HETATM   18  C1  UNL     1       2.228   1.061  -1.969  1.00  0.00     0.131 C 
ENDBRANCH  16  17
ENDBRANCH  15  16
ENDBRANCH  13  15
ENDBRANCH   6   9
ENDBRANCH   1   5
BRANCH   2  19
HETATM   19  C13 UNL     1       0.518   0.759   1.464  1.00  0.00     0.032 A 
HETATM   20  C14 UNL     1       0.183  -0.458   0.901  1.00  0.00     0.017 A 
HETATM   21  C15 UNL     1      -0.917  -0.612   0.095  1.00  0.00     0.010 A 
HETATM   22  C16 UNL     1      -1.766   0.443  -0.206  1.00  0.00    -0.030 A 
HETATM   23  C23 UNL     1      -1.442   1.642   0.343  1.00  0.00     0.010 A 
HETATM   24  C24 UNL     1      -0.334   1.802   1.155  1.00  0.00     0.017 A 
BRANCH  22  25
HETATM   25  C17 UNL     1      -2.902   0.088  -1.093  1.00  0.00     0.311 C 
BRANCH  25  26
HETATM   26  N4  UNL     1      -4.038  -0.381  -0.367  1.00  0.00     0.096 N 
HETATM   27  C18 UNL     1      -4.564   0.579   0.550  1.00  0.00     0.303 C 
HETATM   28  C19 UNL     1      -5.345   1.682  -0.118  1.00  0.00     0.302 C 
HETATM   29  N5  UNL     1      -6.327   1.199  -1.048  1.00  0.00     0.087 N 
HETATM   30  C20 UNL     1      -6.746   2.294  -1.918  1.00  0.00     0.310 C 
HETATM   31  C21 UNL     1      -5.870   0.121  -1.894  1.00  0.00     0.302 C 
HETATM   32  C22 UNL     1      -5.084  -0.938  -1.161  1.00  0.00     0.303 C 
ENDBRANCH  25  26
ENDBRANCH  22  25
ENDBRANCH   2  19
TORSDOF 8
