REMARK  11 active torsions:
REMARK  status: ('A' for Active; 'I' for Inactive)
REMARK    1  A    between atoms: C2_2  and  N1_3 
REMARK    2  A    between atoms: N1_3  and  C3_4 
REMARK    3  A    between atoms: C3_4  and  N2_5 
REMARK    4  A    between atoms: N2_5  and  C4_6 
REMARK    5  A    between atoms: C4_6  and  C5_7 
REMARK    6  A    between atoms: C5_7  and  O1_8 
REMARK    7  A    between atoms: O1_8  and  C6_9 
REMARK    8  A    between atoms: C10_13  and  N3_14 
REMARK    9  A    between atoms: N3_14  and  C11_15 
REMARK   10  A    between atoms: C14_19  and  C15_20 
REMARK   11  A    between atoms: N5_21  and  C16_22 
ROOT
HETATM    1  C6  UNL     1      -2.568   0.142  -0.664  1.00  0.00     0.070 A 
HETATM    2  C7  UNL     1      -2.079   0.123  -1.952  1.00  0.00     0.037 A 
HETATM    3  C8  UNL     1      -0.757   0.177  -2.322  1.00  0.00     0.005 A 
HETATM    4  C9  UNL     1       0.175   0.259  -1.310  1.00  0.00     0.030 A 
HETATM    5  C10 UNL     1      -0.255   0.281  -0.003  1.00  0.00     0.052 A 
HETATM    6  C19 UNL     1      -1.579   0.225   0.327  1.00  0.00     0.066 A 
ENDROOT
BRANCH   5   7
HETATM    7  N3  UNL     1       0.693   0.363   1.048  1.00  0.00    -0.188 N 
HETATM    8  H11 UNL     1       0.411   0.282   2.060  1.00  0.00     0.184 HD
BRANCH   7   9
HETATM    9  C11 UNL     1       2.082   0.543   1.174  1.00  0.00     0.727 A 
HETATM   10  N4  UNL     1       2.494   1.813   1.466  1.00  0.00    -0.075 NA
HETATM   11  C12 UNL     1       3.820   2.093   1.611  1.00  0.00     0.139 A 
HETATM   12  C13 UNL     1       4.686   1.034   1.446  1.00  0.00     0.053 A 
HETATM   13  C14 UNL     1       4.287  -0.247   1.152  1.00  0.00     0.094 A 
HETATM   14  N6  UNL     1       2.971  -0.470   1.020  1.00  0.00    -0.061 NA
BRANCH  13  15
HETATM   15  C15 UNL     1       5.165  -1.371   0.975  1.00  0.00     0.148 C 
HETATM   16  N5  UNL     1       6.409  -1.609   1.021  1.00  0.00    -0.271 NA
BRANCH  16  17
HETATM   17  C16 UNL     1       7.355  -0.593   1.319  1.00  0.00     0.112 C 
HETATM   18  C17 UNL     1       8.223   0.066   0.591  1.00  0.00    -0.012 C 
HETATM   19  C18 UNL     1       8.396  -0.154  -0.845  1.00  0.00     0.037 C 
ENDBRANCH  16  17
ENDBRANCH  13  15
ENDBRANCH   7   9
ENDBRANCH   5   7
BRANCH   1  20
HETATM   20  O1  UNL     1      -3.820   0.094  -0.179  1.00  0.00    -0.349 OA
BRANCH  20  21
HETATM   21  C5  UNL     1      -5.079  -0.005  -0.691  1.00  0.00     0.198 C 
BRANCH  21  22
HETATM   22  C4  UNL     1      -5.268  -1.308  -1.423  1.00  0.00     0.188 C 
BRANCH  22  23
HETATM   23  N2  UNL     1      -6.591  -1.470  -1.993  1.00  0.00    -0.228 NA
BRANCH  23  24
HETATM   24  C3  UNL     1      -7.599  -0.982  -1.395  1.00  0.00     0.095 C 
BRANCH  24  25
HETATM   25  N1  UNL     1      -8.665  -0.510  -0.885  1.00  0.00    -0.201 NA
BRANCH  25  26
HETATM   26  C2  UNL     1      -8.775  -0.545   0.547  1.00  0.00     0.118 C 
HETATM   27  C1  UNL     1      -8.925   0.679   1.079  1.00  0.00     0.033 C 
ENDBRANCH  25  26
ENDBRANCH  24  25
ENDBRANCH  23  24
ENDBRANCH  22  23
ENDBRANCH  21  22
ENDBRANCH  20  21
ENDBRANCH   1  20
TORSDOF 11
