REMARK  0 active torsions:
REMARK  status: ('A' for Active; 'I' for Inactive)
ROOT
HETATM    1  C1  UNL     1      -0.159   1.823  -1.366  1.00  0.00     0.118 C 
HETATM    2  C2  UNL     1      -1.184   1.238  -0.894  1.00  0.00     0.048 C 
HETATM    3  C3  UNL     1      -2.342   0.724  -0.416  1.00  0.00     0.053 A 
HETATM    4  C4  UNL     1      -3.543   0.191   0.079  1.00  0.00     0.133 A 
HETATM    5  C5  UNL     1      -4.263   1.259  -0.596  1.00  0.00     0.018 A 
HETATM    6  C6  UNL     1      -5.674   1.442  -0.583  1.00  0.00     0.018 A 
HETATM    7  C7  UNL     1      -6.382   0.486   0.157  1.00  0.00     0.116 A 
HETATM    8  N1  UNL     1      -5.701  -0.487   0.770  1.00  0.00    -0.274 NA
HETATM    9  C8  UNL     1      -4.398  -0.595   0.716  1.00  0.00     0.131 A 
HETATM   10  N2  UNL     1      -2.067  -0.357   0.276  1.00  0.00    -0.323 N 
HETATM   11  C9  UNL     1      -0.880  -0.967   0.545  1.00  0.00     0.039 A 
HETATM   12  C10 UNL     1      -1.155  -2.354   0.599  1.00  0.00     0.030 A 
HETATM   13  C11 UNL     1      -0.293  -3.438   0.816  1.00  0.00     0.005 A 
HETATM   14  C12 UNL     1       1.055  -3.244   1.019  1.00  0.00     0.037 A 
HETATM   15  C13 UNL     1       1.472  -1.939   0.990  1.00  0.00     0.070 A 
HETATM   16  C14 UNL     1       0.478  -0.978   0.767  1.00  0.00     0.066 A 
HETATM   17  O1  UNL     1       2.483  -0.924   1.063  1.00  0.00    -0.349 OA
HETATM   18  C15 UNL     1       3.091  -0.813  -0.249  1.00  0.00     0.203 C 
HETATM   19  C16 UNL     1       4.018   0.278  -0.473  1.00  0.00     0.136 C 
HETATM   20  N3  UNL     1       5.240   0.412   0.228  1.00  0.00    -0.376 N 
HETATM   21  C17 UNL     1       5.545   1.778  -0.249  1.00  0.00     0.197 C 
HETATM   22  N4  UNL     1       4.410   2.496  -0.383  1.00  0.00    -0.273 NA
HETATM   23  C18 UNL     1       3.350   1.633   0.001  1.00  0.00     0.174 C 
HETATM   24  C19 UNL     1       2.026   1.698  -0.534  1.00  0.00     0.118 C 
HETATM   25  N5  UNL     1       1.195   1.304  -1.495  1.00  0.00    -0.275 NA
HETATM   26  H14 UNL     1       6.008   0.091   0.865  1.00  0.00     0.160 HD
ENDROOT
TORSDOF 0
