REMARK  3 active torsions:
REMARK  status: ('A' for Active; 'I' for Inactive)
REMARK    1  A    between atoms: N2_6  and  C5_7 
REMARK    2  A    between atoms: C5_7  and  O1_8 
REMARK    3  A    between atoms: O1_8  and  C6_9 
ROOT
HETATM    1  C6  UNL     1       1.180   0.893   0.696  1.00  0.00     0.169 C 
HETATM    2  C7  UNL     1       0.997   2.112  -0.108  1.00  0.00     0.009 C 
HETATM    3  C8  UNL     1       0.287   3.252  -0.448  1.00  0.00     0.031 C 
HETATM    4  C9  UNL     1      -0.557   2.737   0.597  1.00  0.00     0.185 A 
HETATM    5  N3  UNL     1      -0.103   3.207   1.826  1.00  0.00    -0.264 NA
HETATM    6  C10 UNL     1      -0.653   2.502   2.866  1.00  0.00     0.112 A 
HETATM    7  C11 UNL     1      -1.272   1.842   1.768  1.00  0.00     0.107 A 
HETATM    8  C12 UNL     1      -2.022   1.008   0.954  1.00  0.00     0.066 A 
HETATM    9  C13 UNL     1      -2.991  -0.038   0.924  1.00  0.00     0.007 A 
HETATM   10  C14 UNL     1      -4.076   0.487   0.187  1.00  0.00     0.016 A 
HETATM   11  C15 UNL     1      -5.218  -0.255  -0.087  1.00  0.00     0.020 A 
HETATM   12  C16 UNL     1      -5.224  -1.557   0.414  1.00  0.00     0.116 A 
HETATM   13  N4  UNL     1      -4.201  -2.036   1.102  1.00  0.00    -0.272 NA
HETATM   14  C17 UNL     1      -3.131  -1.328   1.353  1.00  0.00     0.129 A 
HETATM   15  N5  UNL     1      -1.407   1.781   0.046  1.00  0.00    -0.252 NA
HETATM   16  C18 UNL     1      -0.931   0.631   2.523  1.00  0.00    -0.002 C 
HETATM   17  C19 UNL     1       0.212   0.531   1.735  1.00  0.00     0.006 C 
ENDROOT
BRANCH   1  18
HETATM   18  O1  UNL     1       1.274  -0.169  -0.247  1.00  0.00    -0.359 OA
BRANCH  18  19
HETATM   19  C5  UNL     1       2.577  -0.660  -0.142  1.00  0.00     0.300 C 
BRANCH  19  20
HETATM   20  N2  UNL     1       2.765  -1.763  -1.100  1.00  0.00    -0.322 N 
HETATM   21  C2  UNL     1       3.207  -1.507  -2.346  1.00  0.00     0.103 A 
HETATM   22  C1  UNL     1       3.588  -0.224  -3.014  1.00  0.00     0.091 C 
HETATM   23  N1  UNL     1       3.275  -2.669  -2.997  1.00  0.00    -0.246 NA
HETATM   24  C3  UNL     1       2.873  -3.671  -2.160  1.00  0.00     0.136 A 
HETATM   25  C4  UNL     1       2.550  -3.081  -0.953  1.00  0.00     0.114 A 
ENDBRANCH  19  20
ENDBRANCH  18  19
ENDBRANCH   1  18
TORSDOF 3
