REMARK  3 active torsions:
REMARK  status: ('A' for Active; 'I' for Inactive)
REMARK    1  A    between atoms: C2_2  and  C3_4 
REMARK    2  A    between atoms: C4_6  and  C5_7 
REMARK    3  A    between atoms: N1_8  and  C6_9 
ROOT
HETATM    1  C6  UNL     1       0.953  -1.756  -0.556  1.00  0.00     0.181 A 
HETATM    2  N2  UNL     1       1.051  -3.080  -0.845  1.00  0.00    -0.220 NA
HETATM    3  C7  UNL     1       0.015  -3.931  -0.736  1.00  0.00     0.238 A 
HETATM    4  N3  UNL     1      -1.204  -3.483  -0.319  1.00  0.00    -0.215 NA
HETATM    5  C8  UNL     1      -1.384  -2.177  -0.012  1.00  0.00     0.202 A 
HETATM    6  C9  UNL     1      -0.292  -1.311  -0.133  1.00  0.00     0.130 A 
HETATM    7  N4  UNL     1      -0.308   0.094   0.151  1.00  0.00    -0.379 N 
HETATM    8  C10 UNL     1      -1.144   0.879   1.033  1.00  0.00     0.161 C 
HETATM    9  C11 UNL     1      -2.573   0.614   0.731  1.00  0.00    -0.007 A 
HETATM   10  C12 UNL     1      -3.255   1.833   0.752  1.00  0.00     0.011 A 
HETATM   11  C13 UNL     1      -4.605   1.871   0.502  1.00  0.00     0.001 A 
HETATM   12  C14 UNL     1      -5.269   0.688   0.232  1.00  0.00     0.003 A 
HETATM   13  C15 UNL     1      -4.567  -0.491   0.219  1.00  0.00     0.038 A 
HETATM   14  C16 UNL     1      -3.204  -0.584   0.465  1.00  0.00     0.086 A 
HETATM   15  O1  UNL     1      -2.698  -1.884   0.400  1.00  0.00    -0.289 OA
HETATM   16  H6  UNL     1       0.433   0.595  -0.402  1.00  0.00     0.160 HD
ENDROOT
BRANCH   1  17
HETATM   17  N1  UNL     1       2.029  -0.844  -0.663  1.00  0.00    -0.239 NA
HETATM   18  C5  UNL     1       2.304  -0.317  -1.823  1.00  0.00     0.122 C 
BRANCH  18  19
HETATM   19  C4  UNL     1       3.428   0.595  -1.779  1.00  0.00     0.063 C 
HETATM   20  C3  UNL     1       3.952   0.715  -0.582  1.00  0.00     0.135 C 
HETATM   21  F1  UNL     1       3.567   0.101   0.566  1.00  0.00    -0.205 F 
BRANCH  20  22
HETATM   22  C2  UNL     1       5.094   1.553  -0.197  1.00  0.00     0.050 C 
HETATM   23  C1  UNL     1       5.760   1.810   0.921  1.00  0.00     0.060 C 
HETATM   24 CL1  UNL     1       6.170   2.657  -1.040  1.00  0.00    -0.086 Cl
ENDBRANCH  20  22
ENDBRANCH  18  19
ENDBRANCH   1  17
TORSDOF 3
