REMARK  4 active torsions:
REMARK  status: ('A' for Active; 'I' for Inactive)
REMARK    1  A    between atoms: C5_6  and  N2_7 
REMARK    2  A    between atoms: C9_11  and  O1_12 
REMARK    3  A    between atoms: O1_12  and  C10_13 
REMARK    4  A    between atoms: C10_13  and  N3_14 
ROOT
HETATM    1  N2  UNL     1       0.674  -0.338  -0.524  1.00  0.00    -0.346 N 
HETATM    2  C6  UNL     1       1.130  -1.232   0.446  1.00  0.00     0.090 A 
HETATM    3  C7  UNL     1       0.480  -1.720   1.467  1.00  0.00     0.019 A 
HETATM    4  C8  UNL     1      -0.901  -1.341   1.697  1.00  0.00     0.035 A 
HETATM    5  C9  UNL     1      -1.379  -0.503   0.804  1.00  0.00     0.066 A 
HETATM    6  C14 UNL     1      -0.727   0.096  -0.383  1.00  0.00     0.190 A 
ENDROOT
BRANCH   1   7
HETATM    7  C5  UNL     1       1.292   0.282  -1.642  1.00  0.00     0.308 C 
HETATM    8  N1  UNL     1       2.236   1.306  -1.345  1.00  0.00    -0.261 NA
HETATM    9  C4  UNL     1       2.944   1.474  -0.341  1.00  0.00     0.091 C 
HETATM   10  C3  UNL     1       3.926   2.050   0.594  1.00  0.00     0.073 C 
HETATM   11  C2  UNL     1       5.068   1.046   0.618  1.00  0.00    -0.025 C 
HETATM   12  C1  UNL     1       5.010  -0.094  -0.161  1.00  0.00    -0.023 C 
HETATM   13  C16 UNL     1       4.532  -1.149  -1.137  1.00  0.00     0.091 C 
HETATM   14  C15 UNL     1       3.364  -1.200  -1.880  1.00  0.00     0.069 C 
HETATM   15  N5  UNL     1       2.039  -0.768  -2.406  1.00  0.00    -0.383 N 
HETATM   16  H17 UNL     1       1.828  -1.291  -3.277  1.00  0.00     0.157 HD
ENDBRANCH   1   7
BRANCH   5  17
HETATM   17  O1  UNL     1      -2.700  -0.096   0.968  1.00  0.00    -0.334 OA
BRANCH  17  18
HETATM   18  C10 UNL     1      -3.546  -0.167  -0.162  1.00  0.00     0.306 C 
BRANCH  18  19
HETATM   19  N3  UNL     1      -4.888   0.284   0.149  1.00  0.00    -0.328 N 
HETATM   20  C11 UNL     1      -5.944  -0.426   0.593  1.00  0.00     0.113 A 
HETATM   21  C12 UNL     1      -7.055   0.390   0.767  1.00  0.00     0.135 A 
HETATM   22  N4  UNL     1      -6.637   1.623   0.414  1.00  0.00    -0.255 NA
HETATM   23  C13 UNL     1      -5.344   1.563   0.044  1.00  0.00     0.210 A 
ENDBRANCH  18  19
ENDBRANCH  17  18
ENDBRANCH   5  17
TORSDOF 4
