REMARK  5 active torsions:
REMARK  status: ('A' for Active; 'I' for Inactive)
REMARK    1  A    between atoms: N1_3  and  C3_4 
REMARK    2  A    between atoms: C14_18  and  O1_19 
REMARK    3  A    between atoms: O1_19  and  C15_20 
REMARK    4  A    between atoms: C15_20  and  C16_21 
REMARK    5  A    between atoms: C16_21  and  N5_22 
ROOT
HETATM    1  C1  UNL     1       1.629   1.236  -1.326  1.00  0.00     0.028 C 
HETATM    2  C2  UNL     1       0.382   0.913  -1.530  1.00  0.00     0.130 C 
HETATM    3  N1  UNL     1      -0.552   0.487  -0.546  1.00  0.00    -0.164 N 
HETATM    4  C12 UNL     1      -0.015   0.235   0.745  1.00  0.00     0.117 C 
HETATM    5  C13 UNL     1       1.305   0.419   0.914  1.00  0.00     0.056 C 
HETATM    6  C14 UNL     1       2.150   0.863  -0.192  1.00  0.00     0.082 C 
ENDROOT
BRANCH   3   7
HETATM    7  C3  UNL     1      -1.902   0.344  -0.891  1.00  0.00     0.733 A 
HETATM    8  N2  UNL     1      -2.265   0.619  -2.155  1.00  0.00    -0.074 NA
HETATM    9  C4  UNL     1      -3.544   0.503  -2.553  1.00  0.00     0.139 A 
HETATM   10  C5  UNL     1      -4.501   0.092  -1.639  1.00  0.00     0.053 A 
HETATM   11  C6  UNL     1      -4.153  -0.193  -0.349  1.00  0.00     0.089 A 
HETATM   12  C7  UNL     1      -5.111  -0.623   0.633  1.00  0.00     0.011 A 
HETATM   13  N4  UNL     1      -2.850  -0.050  -0.034  1.00  0.00    -0.062 NA
HETATM   14  C8  UNL     1      -6.444  -0.795   0.409  1.00  0.00     0.017 A 
HETATM   15  C11 UNL     1      -4.691  -0.896   1.929  1.00  0.00     0.130 A 
HETATM   16  C9  UNL     1      -7.294  -1.214   1.422  1.00  0.00     0.020 A 
HETATM   17  C10 UNL     1      -6.800  -1.466   2.684  1.00  0.00     0.116 A 
HETATM   18  N3  UNL     1      -5.474  -1.306   2.951  1.00  0.00    -0.272 NA
ENDBRANCH   3   7
BRANCH   6  19
HETATM   19  O1  UNL     1       3.548   0.885  -0.025  1.00  0.00    -0.349 OA
BRANCH  19  20
HETATM   20  C15 UNL     1       4.393   1.008  -1.152  1.00  0.00     0.196 C 
BRANCH  20  21
HETATM   21  C16 UNL     1       5.835   1.005  -0.692  1.00  0.00     0.156 C 
BRANCH  21  22
HETATM   22  N5  UNL     1       6.068  -0.256  -0.010  1.00  0.00    -0.348 N 
HETATM   23  C17 UNL     1       5.921  -0.567   1.284  1.00  0.00     0.111 A 
HETATM   24  C18 UNL     1       6.268  -1.899   1.449  1.00  0.00     0.135 A 
HETATM   25  N6  UNL     1       6.628  -2.390   0.228  1.00  0.00    -0.255 NA
HETATM   26  C19 UNL     1       6.493  -1.354  -0.641  1.00  0.00     0.209 A 
ENDBRANCH  21  22
ENDBRANCH  20  21
ENDBRANCH  19  20
ENDBRANCH   6  19
TORSDOF 5
