REMARK  8 active torsions:
REMARK  status: ('A' for Active; 'I' for Inactive)
REMARK    1  A    between atoms: C5_6  and  C6_7 
REMARK    2  A    between atoms: C6_7  and  O1_8 
REMARK    3  A    between atoms: O1_8  and  C7_9 
REMARK    4  A    between atoms: C8_10  and  C9_11 
REMARK    5  A    between atoms: C10_12  and  C11_13 
REMARK    6  A    between atoms: C11_13  and  N2_14 
REMARK    7  A    between atoms: N2_14  and  C12_15 
REMARK    8  A    between atoms: C15_19  and  C16_20 
ROOT
HETATM    1  N2  UNL     1      -1.124   1.996  -0.361  1.00  0.00    -0.219 N 
HETATM    2  H15 UNL     1      -0.450   2.800  -0.384  1.00  0.00     0.178 HD
ENDROOT
BRANCH   1   3
HETATM    3  C11 UNL     1      -0.726   0.712  -0.925  1.00  0.00     0.165 C 
BRANCH   3   4
HETATM    4  C10 UNL     1      -0.756  -0.333   0.120  1.00  0.00    -0.007 C 
HETATM    5  C9  UNL     1       0.279  -1.056   0.509  1.00  0.00    -0.001 C 
BRANCH   5   6
HETATM    6  C8  UNL     1       1.605  -0.909  -0.055  1.00  0.00     0.024 C 
HETATM    7  C7  UNL     1       2.622  -1.628   0.337  1.00  0.00     0.134 C 
BRANCH   7   8
HETATM    8  O1  UNL     1       3.919  -1.594  -0.106  1.00  0.00    -0.362 OA
BRANCH   8   9
HETATM    9  C6  UNL     1       4.199  -1.242  -1.424  1.00  0.00     0.188 C 
BRANCH   9  10
HETATM   10  C5  UNL     1       5.668  -1.258  -1.750  1.00  0.00     0.080 A 
HETATM   11  C2  UNL     1       6.446  -0.318  -0.909  1.00  0.00    -0.055 A 
HETATM   12  C1  UNL     1       6.311   1.153  -0.813  1.00  0.00     0.046 C 
HETATM   13  C3  UNL     1       7.354  -1.002  -0.192  1.00  0.00     0.119 A 
HETATM   14  N1  UNL     1       7.238  -2.401  -0.504  1.00  0.00    -0.276 NA
HETATM   15  C4  UNL     1       6.298  -2.564  -1.375  1.00  0.00     0.100 A 
ENDBRANCH   9  10
ENDBRANCH   8   9
ENDBRANCH   7   8
ENDBRANCH   5   6
ENDBRANCH   3   4
ENDBRANCH   1   3
BRANCH   1  16
HETATM   16  C12 UNL     1      -2.398   2.221   0.228  1.00  0.00     0.723 A 
HETATM   17  N3  UNL     1      -2.737   3.412   0.742  1.00  0.00    -0.075 NA
HETATM   18  C13 UNL     1      -3.926   3.677   1.308  1.00  0.00     0.139 A 
HETATM   19  C14 UNL     1      -4.835   2.641   1.349  1.00  0.00     0.053 A 
HETATM   20  C15 UNL     1      -4.526   1.402   0.831  1.00  0.00     0.089 A 
HETATM   21  N5  UNL     1      -3.324   1.250   0.297  1.00  0.00    -0.062 NA
BRANCH  20  22
HETATM   22  C16 UNL     1      -5.482   0.305   0.873  1.00  0.00     0.011 A 
HETATM   23  C17 UNL     1      -6.743   0.348   1.397  1.00  0.00     0.017 A 
HETATM   24  C18 UNL     1      -7.581  -0.746   1.392  1.00  0.00     0.020 A 
HETATM   25  C19 UNL     1      -7.166  -1.946   0.845  1.00  0.00     0.116 A 
HETATM   26  N4  UNL     1      -5.920  -2.000   0.323  1.00  0.00    -0.272 NA
HETATM   27  C20 UNL     1      -5.115  -0.923   0.336  1.00  0.00     0.130 A 
ENDBRANCH  20  22
ENDBRANCH   1  16
TORSDOF 8
