REMARK  10 active torsions:
REMARK  status: ('A' for Active; 'I' for Inactive)
REMARK    1  A    between atoms: N1_2  and  C1_3 
REMARK    2  A    between atoms: C2_4  and  C3_5 
REMARK    3  A    between atoms: C3_5  and  C16_23 
REMARK    4  A    between atoms: N2_6  and  C4_7 
REMARK    5  A    between atoms: C4_7  and  N3_8 
REMARK    6  A    between atoms: N3_8  and  C5_9 
REMARK    7  A    between atoms: C9_13  and  O1_14 
REMARK    8  A    between atoms: O1_14  and  C10_15 
REMARK    9  A    between atoms: C10_15  and  C11_16 
REMARK   10  A    between atoms: C11_16  and  N4_17 
ROOT
HETATM    1  N3  UNL     1      -0.605  -1.650  -1.147  1.00  0.00    -0.372 N 
HETATM    2  H5  UNL     1      -0.093  -2.015  -1.979  1.00  0.00     0.161 HD
ENDROOT
BRANCH   1   3
HETATM    3  C4  UNL     1      -2.041  -1.616  -1.076  1.00  0.00     0.271 C 
BRANCH   3   4
HETATM    4  N2  UNL     1      -2.447  -0.237  -0.909  1.00  0.00    -0.270 NA
HETATM    5  C3  UNL     1      -3.696   0.014  -0.726  1.00  0.00     0.065 C 
BRANCH   5   6
HETATM    6  C2  UNL     1      -4.525  -1.156  -0.715  1.00  0.00     0.046 C 
HETATM    7  C1  UNL     1      -5.812  -1.393  -0.568  1.00  0.00     0.234 C 
BRANCH   7   8
HETATM    8  N1  UNL     1      -6.758  -2.440  -0.531  1.00  0.00    -0.249 NA
HETATM    9  S1  UNL     1      -6.382  -3.960  -0.970  1.00  0.00     0.002 SA
ENDBRANCH   7   8
ENDBRANCH   5   6
BRANCH   5  10
HETATM   10  C16 UNL     1      -4.173   1.369  -0.552  1.00  0.00     0.010 A 
HETATM   11  C17 UNL     1      -5.469   1.792  -0.349  1.00  0.00     0.017 A 
HETATM   12  C18 UNL     1      -5.819   3.111  -0.195  1.00  0.00     0.020 A 
HETATM   13  C19 UNL     1      -4.849   4.089  -0.240  1.00  0.00     0.116 A 
HETATM   14  N6  UNL     1      -3.574   3.681  -0.439  1.00  0.00    -0.272 NA
HETATM   15  C20 UNL     1      -3.235   2.408  -0.589  1.00  0.00     0.130 A 
ENDBRANCH   5  10
ENDBRANCH   3   4
ENDBRANCH   1   3
BRANCH   1  16
HETATM   16  C5  UNL     1       0.175  -1.174  -0.057  1.00  0.00     0.031 A 
HETATM   17  C6  UNL     1      -0.375  -0.667   1.099  1.00  0.00     0.029 A 
HETATM   18  C7  UNL     1       0.420  -0.209   2.148  1.00  0.00     0.005 A 
HETATM   19  C8  UNL     1       1.793  -0.245   2.067  1.00  0.00     0.037 A 
HETATM   20  C9  UNL     1       2.390  -0.753   0.907  1.00  0.00     0.070 A 
HETATM   21  C15 UNL     1       1.552  -1.184  -0.079  1.00  0.00     0.065 A 
BRANCH  20  22
HETATM   22  O1  UNL     1       3.774  -0.802   0.797  1.00  0.00    -0.349 OA
BRANCH  22  23
HETATM   23  C10 UNL     1       4.318  -1.326  -0.399  1.00  0.00     0.196 C 
BRANCH  23  24
HETATM   24  C11 UNL     1       5.843  -1.308  -0.358  1.00  0.00     0.156 C 
BRANCH  24  25
HETATM   25  N4  UNL     1       6.228   0.093  -0.191  1.00  0.00    -0.348 N 
HETATM   26  C12 UNL     1       6.463   0.968  -1.190  1.00  0.00     0.111 A 
HETATM   27  C13 UNL     1       6.805   2.207  -0.678  1.00  0.00     0.135 A 
HETATM   28  N5  UNL     1       6.761   2.024   0.657  1.00  0.00    -0.255 NA
HETATM   29  C14 UNL     1       6.419   0.770   0.957  1.00  0.00     0.209 A 
ENDBRANCH  24  25
ENDBRANCH  23  24
ENDBRANCH  22  23
ENDBRANCH  20  22
ENDBRANCH   1  16
TORSDOF 10
