REMARK  10 active torsions:
REMARK  status: ('A' for Active; 'I' for Inactive)
REMARK    1  A    between atoms: N1_2  and  C2_3 
REMARK    2  A    between atoms: C3_4  and  C4_5 
REMARK    3  A    between atoms: C5_6  and  C6_7 
REMARK    4  A    between atoms: C9_11  and  N3_12 
REMARK    5  A    between atoms: N3_12  and  C10_13 
REMARK    6  A    between atoms: C12_15  and  S1_16 
REMARK    7  A    between atoms: S1_16  and  C13_18 
REMARK    8  A    between atoms: C13_18  and  C14_19 
REMARK    9  A    between atoms: C14_19  and  C15_20 
REMARK   10  A    between atoms: C15_20  and  N4_21 
ROOT
HETATM    1  N3  UNL     1       0.657  -1.733   2.302  1.00  0.00    -0.192 N 
HETATM    2  H11 UNL     1       0.385  -1.829   3.325  1.00  0.00     0.184 HD
ENDROOT
BRANCH   1   3
HETATM    3  C9  UNL     1      -0.553  -1.917   1.615  1.00  0.00     0.727 A 
HETATM    4  N2  UNL     1      -0.993  -3.144   1.293  1.00  0.00    -0.075 NA
HETATM    5  C8  UNL     1      -2.153  -3.286   0.635  1.00  0.00     0.139 A 
HETATM    6  C7  UNL     1      -2.833  -2.133   0.326  1.00  0.00     0.052 A 
HETATM    7  C6  UNL     1      -2.425  -0.864   0.633  1.00  0.00     0.077 A 
HETATM    8  N5  UNL     1      -1.262  -0.826   1.286  1.00  0.00    -0.063 NA
BRANCH   7   9
HETATM    9  C5  UNL     1      -3.084   0.392   0.340  1.00  0.00     0.032 C 
HETATM   10  C4  UNL     1      -4.200   0.710  -0.262  1.00  0.00     0.004 C 
BRANCH  10  11
HETATM   11  C3  UNL     1      -5.424   0.416  -0.960  1.00  0.00     0.017 C 
HETATM   12  C2  UNL     1      -6.523   0.765  -1.550  1.00  0.00     0.082 C 
BRANCH  12  13
HETATM   13  N1  UNL     1      -6.751   2.166  -1.598  1.00  0.00    -0.403 N 
HETATM   14  C1  UNL     1      -7.694   2.939  -0.830  1.00  0.00     0.145 C 
HETATM   15  H4  UNL     1      -6.102   2.569  -2.308  1.00  0.00     0.158 HD
ENDBRANCH  12  13
ENDBRANCH  10  11
ENDBRANCH   7   9
ENDBRANCH   1   3
BRANCH   1  16
HETATM   16  C10 UNL     1       2.043  -1.479   2.144  1.00  0.00     0.031 A 
HETATM   17  C11 UNL     1       2.448  -0.269   1.775  1.00  0.00     0.046 A 
HETATM   18  C12 UNL     1       3.898  -0.221   1.672  1.00  0.00     0.029 A 
HETATM   19  C16 UNL     1       4.326  -1.446   1.995  1.00  0.00     0.000 A 
HETATM   20  C17 UNL     1       3.210  -2.381   2.330  1.00  0.00     0.086 A 
BRANCH  18  21
HETATM   21  S1  UNL     1       4.934   1.141   1.227  1.00  0.00     0.049 S 
HETATM   22  O1  UNL     1       6.396   0.773   1.416  1.00  0.00    -0.253 OA
BRANCH  21  23
HETATM   23  C13 UNL     1       4.643   1.752  -0.412  1.00  0.00     0.116 C 
BRANCH  23  24
HETATM   24  C14 UNL     1       4.886   0.682  -1.436  1.00  0.00     0.042 C 
BRANCH  24  25
HETATM   25  C15 UNL     1       4.644   1.190  -2.843  1.00  0.00     0.267 C 
BRANCH  25  26
HETATM   26  N4  UNL     1       4.906   0.094  -3.757  1.00  0.00     0.078 N 
HETATM   27  H19 UNL     1       4.573  -0.780  -3.297  1.00  0.00     0.312 HD
HETATM   28  H20 UNL     1       5.936   0.097  -3.959  1.00  0.00     0.312 HD
ENDBRANCH  25  26
ENDBRANCH  24  25
ENDBRANCH  23  24
ENDBRANCH  21  23
ENDBRANCH  18  21
ENDBRANCH   1  16
TORSDOF 10
