REMARK  5 active torsions:
REMARK  status: ('A' for Active; 'I' for Inactive)
REMARK    1  A    between atoms: C5_5  and  C6_6 
REMARK       I    between atoms: C6_6  and  N1_8 
REMARK    2  A    between atoms: N1_8  and  C7_9 
REMARK    3  A    between atoms: C11_13  and  N2_14 
REMARK    4  A    between atoms: N2_14  and  C12_15 
REMARK    5  A    between atoms: C15_19  and  C16_20 
ROOT
HETATM    1  C7  UNL     1      -0.245  -1.533   0.262  1.00  0.00     0.037 A 
HETATM    2  C8  UNL     1       0.183  -2.856   0.229  1.00  0.00     0.029 A 
HETATM    3  C9  UNL     1       1.488  -3.233   0.361  1.00  0.00     0.004 A 
HETATM    4  C10 UNL     1       2.355  -2.190   0.534  1.00  0.00     0.029 A 
HETATM    5  C11 UNL     1       2.046  -0.851   0.584  1.00  0.00     0.038 A 
HETATM    6  C17 UNL     1       0.715  -0.528   0.442  1.00  0.00     0.059 A 
ENDROOT
BRANCH   1   7
HETATM    7  N1  UNL     1      -1.556  -0.974   0.204  1.00  0.00    -0.323 N 
HETATM    8  C6  UNL     1      -2.419  -0.786  -0.897  1.00  0.00     0.256 C 
HETATM    9  O1  UNL     1      -1.927  -1.208  -2.001  1.00  0.00    -0.267 OA
HETATM   10  H6  UNL     1      -1.857  -0.682   1.152  1.00  0.00     0.169 HD
BRANCH   8  11
HETATM   11  C5  UNL     1      -3.765  -0.171  -0.814  1.00  0.00     0.032 A 
HETATM   12  C4  UNL     1      -4.590  -0.294  -1.884  1.00  0.00     0.017 A 
HETATM   13  C3  UNL     1      -5.845   0.333  -1.812  1.00  0.00     0.007 A 
HETATM   14  C2  UNL     1      -6.208   1.050  -0.675  1.00  0.00    -0.062 A 
HETATM   15  C1  UNL     1      -7.520   1.748  -0.567  1.00  0.00     0.048 C 
HETATM   16  C19 UNL     1      -5.263   1.097   0.360  1.00  0.00     0.007 A 
HETATM   17  C18 UNL     1      -3.993   0.512   0.390  1.00  0.00     0.017 A 
ENDBRANCH   8  11
ENDBRANCH   1   7
BRANCH   5  18
HETATM   18  N2  UNL     1       3.000   0.162   0.806  1.00  0.00    -0.315 N 
HETATM   19  H10 UNL     1       2.620   1.135   0.977  1.00  0.00     0.170 HD
BRANCH  18  20
HETATM   20  C12 UNL     1       4.362   0.373   0.900  1.00  0.00     0.282 A 
HETATM   21  N3  UNL     1       5.161  -0.094   1.899  1.00  0.00    -0.215 NA
HETATM   22  C13 UNL     1       6.502   0.201   1.880  1.00  0.00     0.125 A 
HETATM   23  C14 UNL     1       6.949   0.990   0.786  1.00  0.00     0.067 A 
HETATM   24  C15 UNL     1       6.160   1.518  -0.308  1.00  0.00     0.150 A 
HETATM   25  N4  UNL     1       5.287   0.929   0.331  1.00  0.00    -0.366 NA
BRANCH  24  26
HETATM   26  C16 UNL     1       7.178   2.202  -1.048  1.00  0.00     0.303 C 
HETATM   27  O2  UNL     1       6.250   2.498  -1.860  1.00  0.00    -0.299 OA
ENDBRANCH  24  26
ENDBRANCH  18  20
ENDBRANCH   5  18
TORSDOF 5
