REMARK  8 active torsions:
REMARK  status: ('A' for Active; 'I' for Inactive)
REMARK    1  A    between atoms: N1_1  and  C1_2 
REMARK    2  A    between atoms: C1_2  and  C2_3 
REMARK    3  A    between atoms: C2_3  and  C3_4 
REMARK    4  A    between atoms: C3_4  and  N2_5 
REMARK       I    between atoms: N2_5  and  C4_6 
REMARK    5  A    between atoms: C4_6  and  C5_8 
REMARK    6  A    between atoms: C7_10  and  C8_11 
REMARK    7  A    between atoms: C11_15  and  C12_16 
REMARK    8  A    between atoms: C18_24  and  N6_25 
ROOT
HETATM    1  C5  UNL     1      -1.605  -2.222   0.163  1.00  0.00     0.145 A 
HETATM    2  C6  UNL     1      -0.873  -1.364  -0.790  1.00  0.00     0.008 A 
HETATM    3  C7  UNL     1       0.325  -1.080  -0.309  1.00  0.00     0.011 A 
HETATM    4  C17 UNL     1       0.516  -1.708   0.994  1.00  0.00     0.035 A 
HETATM    5  C18 UNL     1      -0.601  -2.367   1.264  1.00  0.00     0.001 A 
ENDROOT
BRANCH   3   6
HETATM    6  C8  UNL     1       1.328  -0.257  -0.974  1.00  0.00     0.159 A 
HETATM    7  N3  UNL     1       1.053   0.288  -2.195  1.00  0.00    -0.241 NA
HETATM    8  C9  UNL     1       1.972   1.056  -2.828  1.00  0.00     0.121 A 
HETATM    9  C10 UNL     1       3.191   1.283  -2.227  1.00  0.00     0.052 A 
HETATM   10  C11 UNL     1       3.474   0.741  -1.004  1.00  0.00     0.072 A 
HETATM   11  N5  UNL     1       2.518  -0.011  -0.432  1.00  0.00    -0.228 NA
BRANCH  10  12
HETATM   12  C12 UNL     1       4.749   0.953  -0.329  1.00  0.00     0.010 A 
HETATM   13  C13 UNL     1       5.782   1.703  -0.834  1.00  0.00     0.017 A 
HETATM   14  C14 UNL     1       6.970   1.884  -0.175  1.00  0.00     0.020 A 
HETATM   15  C15 UNL     1       7.142   1.282   1.065  1.00  0.00     0.116 A 
HETATM   16  N4  UNL     1       6.136   0.539   1.580  1.00  0.00    -0.272 NA
HETATM   17  C16 UNL     1       4.968   0.376   0.904  1.00  0.00     0.130 A 
ENDBRANCH  10  12
ENDBRANCH   3   6
BRANCH   1  18
HETATM   18  C4  UNL     1      -2.837  -1.630   0.702  1.00  0.00     0.230 C 
HETATM   19  N2  UNL     1      -3.900  -1.254  -0.171  1.00  0.00    -0.360 N 
HETATM   20  H9  UNL     1      -3.739  -1.428  -1.203  1.00  0.00     0.162 HD
HETATM   21  O1  UNL     1      -2.989  -1.442   1.916  1.00  0.00    -0.272 OA
BRANCH  19  22
HETATM   22  C3  UNL     1      -5.114  -0.673   0.341  1.00  0.00     0.124 C 
BRANCH  22  23
HETATM   23  C2  UNL     1      -4.933   0.597   1.081  1.00  0.00     0.049 C 
BRANCH  23  24
HETATM   24  C1  UNL     1      -4.310   1.644   0.185  1.00  0.00     0.268 C 
BRANCH  24  25
HETATM   25  N1  UNL     1      -5.151   1.905  -0.967  1.00  0.00     0.078 N 
HETATM   26  H1  UNL     1      -5.069   1.127  -1.642  1.00  0.00     0.312 HD
HETATM   27  H2  UNL     1      -6.103   2.134  -0.647  1.00  0.00     0.312 HD
ENDBRANCH  24  25
ENDBRANCH  23  24
ENDBRANCH  22  23
ENDBRANCH  19  22
ENDBRANCH   1  18
BRANCH   5  28
HETATM   28  N6  UNL     1      -0.918  -3.147   2.419  1.00  0.00    -0.305 NA
HETATM   29  H19 UNL     1      -1.074  -2.930   3.438  1.00  0.00     0.124 HD
HETATM   30  H20 UNL     1      -1.051  -2.799   3.415  1.00  0.00     0.124 HD
ENDBRANCH   5  28
TORSDOF 8
