REMARK  7 active torsions:
REMARK  status: ('A' for Active; 'I' for Inactive)
REMARK    1  A    between atoms: C2_2  and  C3_3 
REMARK    2  A    between atoms: C2_2  and  N5_18 
REMARK    3  A    between atoms: C3_3  and  C4_4 
REMARK    4  A    between atoms: C4_4  and  C5_5 
REMARK    5  A    between atoms: C5_5  and  N1_6 
REMARK    6  A    between atoms: N1_6  and  C6_7 
REMARK       I    between atoms: N5_18  and  C14_19 
REMARK    7  A    between atoms: C14_19  and  C15_21 
ROOT
HETATM    1  C4  UNL     1       0.456  -0.977   0.192  1.00  0.00     0.093 C 
ENDROOT
BRANCH   1   2
HETATM    2  C3  UNL     1      -0.325   0.026   0.567  1.00  0.00    -0.123 C 
BRANCH   2   3
HETATM    3  C2  UNL     1      -0.999   1.142   0.667  1.00  0.00     0.050 C 
HETATM    4  C1  UNL     1      -0.266   2.370   0.856  1.00  0.00     0.077 C 
BRANCH   3   5
HETATM    5  N5  UNL     1      -2.362   0.966   0.572  1.00  0.00    -0.320 N 
HETATM    6  C14 UNL     1      -3.047  -0.250   0.388  1.00  0.00     0.256 C 
HETATM    7  O1  UNL     1      -2.407  -1.326   0.292  1.00  0.00    -0.267 OA
HETATM    8  H14 UNL     1      -2.924   1.843   0.648  1.00  0.00     0.169 HD
BRANCH   6   9
HETATM    9  C15 UNL     1      -4.499  -0.361   0.297  1.00  0.00     0.032 A 
HETATM   10  C16 UNL     1      -5.061  -1.609   0.121  1.00  0.00     0.017 A 
HETATM   11  C17 UNL     1      -6.446  -1.734   0.031  1.00  0.00     0.007 A 
HETATM   12  C18 UNL     1      -7.292  -0.650   0.111  1.00  0.00    -0.062 A 
HETATM   13  C19 UNL     1      -8.771  -0.737   0.020  1.00  0.00     0.048 C 
HETATM   14  C20 UNL     1      -6.735   0.599   0.286  1.00  0.00     0.007 A 
HETATM   15  C21 UNL     1      -5.367   0.709   0.373  1.00  0.00     0.017 A 
ENDBRANCH   6   9
ENDBRANCH   3   5
ENDBRANCH   2   3
ENDBRANCH   1   2
BRANCH   1  16
HETATM   16  C5  UNL     1       0.818  -1.090  -1.227  1.00  0.00     0.156 C 
BRANCH  16  17
HETATM   17  N1  UNL     1       2.151  -1.664  -1.309  1.00  0.00    -0.221 N 
HETATM   18  H7  UNL     1       2.340  -2.548  -1.836  1.00  0.00     0.177 HD
BRANCH  17  19
HETATM   19  C6  UNL     1       3.288  -1.078  -0.689  1.00  0.00     0.722 A 
HETATM   20  N2  UNL     1       3.455  -1.638   0.534  1.00  0.00    -0.074 NA
HETATM   21  C7  UNL     1       4.482  -1.243   1.335  1.00  0.00     0.151 A 
HETATM   22  C8  UNL     1       5.331  -0.252   0.833  1.00  0.00     0.025 A 
HETATM   23  C9  UNL     1       5.145   0.307  -0.413  1.00  0.00     0.070 A 
HETATM   24  C13 UNL     1       6.384   0.058   1.819  1.00  0.00     0.131 C 
HETATM   25  N3  UNL     1       4.112  -0.125  -1.158  1.00  0.00    -0.067 NA
HETATM   26  C10 UNL     1       5.918   1.339  -1.087  1.00  0.00     0.089 C 
HETATM   27  C11 UNL     1       7.366   1.350  -0.795  1.00  0.00    -0.002 C 
HETATM   28  C12 UNL     1       8.072   1.044   0.296  1.00  0.00     0.112 C 
HETATM   29  N4  UNL     1       7.508   0.601   1.518  1.00  0.00    -0.272 NA
ENDBRANCH  17  19
ENDBRANCH  16  17
ENDBRANCH   1  16
TORSDOF 7
