REMARK  4 active torsions:
REMARK  status: ('A' for Active; 'I' for Inactive)
REMARK    1  A    between atoms: N1_2  and  C1_3 
REMARK    2  A    between atoms: C1_3  and  C2_4 
REMARK    3  A    between atoms: C4_6  and  N2_7 
REMARK    4  A    between atoms: N2_7  and  C5_8 
ROOT
HETATM    1  C5  UNL     1      -0.653   0.305  -0.131  1.00  0.00     0.160 A 
HETATM    2  N3  UNL     1      -1.450   1.244   0.407  1.00  0.00    -0.222 NA
HETATM    3  C6  UNL     1      -0.897   2.257   1.124  1.00  0.00     0.238 A 
HETATM    4  N4  UNL     1       0.424   2.343   1.308  1.00  0.00    -0.215 NA
HETATM    5  C7  UNL     1       1.277   1.425   0.789  1.00  0.00     0.202 A 
HETATM    6  C8  UNL     1       0.688   0.390   0.054  1.00  0.00     0.129 A 
HETATM    7  N5  UNL     1       1.332  -0.702  -0.597  1.00  0.00    -0.379 N 
HETATM    8  C9  UNL     1       2.690  -0.734  -1.158  1.00  0.00     0.161 C 
HETATM    9  C10 UNL     1       3.700  -0.231  -0.209  1.00  0.00    -0.005 A 
HETATM   10  C11 UNL     1       4.875  -0.970  -0.359  1.00  0.00     0.035 A 
HETATM   11  C12 UNL     1       5.984  -0.700   0.417  1.00  0.00     0.034 A 
HETATM   12 CL1  UNL     1       7.477  -1.622   0.242  1.00  0.00    -0.084 Cl
HETATM   13  C13 UNL     1       5.977   0.301   1.362  1.00  0.00     0.026 A 
HETATM   14  C14 UNL     1       4.805   1.024   1.498  1.00  0.00     0.039 A 
HETATM   15  C15 UNL     1       3.679   0.770   0.729  1.00  0.00     0.086 A 
HETATM   16  O1  UNL     1       2.633   1.629   1.054  1.00  0.00    -0.289 OA
HETATM   17  H7  UNL     1       0.724  -1.537  -0.646  1.00  0.00     0.160 HD
ENDROOT
BRANCH   1  18
HETATM   18  N2  UNL     1      -1.323  -0.710  -0.865  1.00  0.00    -0.338 N 
HETATM   19  H5  UNL     1      -1.099  -1.564  -1.411  1.00  0.00     0.167 HD
BRANCH  18  20
HETATM   20  C4  UNL     1      -2.751  -0.656  -0.965  1.00  0.00     0.057 A 
HETATM   21  C3  UNL     1      -3.717  -0.460   0.134  1.00  0.00     0.041 A 
HETATM   22  C2  UNL     1      -4.770  -0.522  -0.698  1.00  0.00    -0.017 A 
HETATM   23  C16 UNL     1      -3.812  -0.712  -1.752  1.00  0.00     0.068 A 
HETATM   24 CL2  UNL     1      -3.836  -0.947  -3.486  1.00  0.00    -0.081 Cl
BRANCH  22  25
HETATM   25  C1  UNL     1      -6.248  -0.433  -0.573  1.00  0.00     0.163 C 
BRANCH  25  26
HETATM   26  N1  UNL     1      -6.630  -0.227   0.809  1.00  0.00    -0.159 NA
HETATM   27  F1  UNL     1      -6.115   0.897   1.305  1.00  0.00    -0.136 F 
HETATM   28  H1  UNL     1      -6.483  -1.061   1.407  1.00  0.00     0.159 HD
ENDBRANCH  25  26
ENDBRANCH  22  25
ENDBRANCH  18  20
ENDBRANCH   1  18
TORSDOF 4
