REMARK  7 active torsions:
REMARK  status: ('A' for Active; 'I' for Inactive)
REMARK    1  A    between atoms: C5_5  and  C6_6 
REMARK       I    between atoms: C6_6  and  N1_8 
REMARK    2  A    between atoms: N1_8  and  C7_9 
REMARK    3  A    between atoms: C7_9  and  C8_10 
REMARK    4  A    between atoms: C9_11  and  N2_12 
REMARK    5  A    between atoms: C9_11  and  C19_25 
REMARK    6  A    between atoms: N2_12  and  C10_13 
REMARK    7  A    between atoms: C13_17  and  C14_18 
ROOT
HETATM    1  C8  UNL     1       0.323   0.633   0.931  1.00  0.00     0.023 C 
HETATM    2  C9  UNL     1      -0.517  -0.205   0.300  1.00  0.00     0.053 C 
ENDROOT
BRANCH   2   3
HETATM    3  N2  UNL     1      -1.049  -1.352   0.907  1.00  0.00    -0.188 N 
HETATM    4  H10 UNL     1      -0.284  -1.981   1.233  1.00  0.00     0.184 HD
BRANCH   3   5
HETATM    5  C10 UNL     1      -2.411  -1.671   1.085  1.00  0.00     0.727 A 
HETATM    6  N3  UNL     1      -2.721  -2.847   1.706  1.00  0.00    -0.075 NA
HETATM    7  C11 UNL     1      -4.034  -3.179   1.890  1.00  0.00     0.139 A 
HETATM    8  C12 UNL     1      -4.972  -2.281   1.424  1.00  0.00     0.053 A 
HETATM    9  C13 UNL     1      -4.680  -1.090   0.794  1.00  0.00     0.089 A 
HETATM   10  N5  UNL     1      -3.354  -0.820   0.643  1.00  0.00    -0.062 NA
BRANCH   9  11
HETATM   11  C14 UNL     1      -5.707  -0.171   0.317  1.00  0.00     0.011 A 
HETATM   12  C15 UNL     1      -7.062  -0.372   0.433  1.00  0.00     0.017 A 
HETATM   13  C16 UNL     1      -7.998   0.528  -0.035  1.00  0.00     0.020 A 
HETATM   14  C17 UNL     1      -7.512   1.677  -0.643  1.00  0.00     0.116 A 
HETATM   15  N4  UNL     1      -6.186   1.896  -0.768  1.00  0.00    -0.272 NA
HETATM   16  C18 UNL     1      -5.297   0.993  -0.298  1.00  0.00     0.130 A 
ENDBRANCH   9  11
ENDBRANCH   3   5
ENDBRANCH   2   3
BRANCH   2  17
HETATM   17  C19 UNL     1      -0.871   0.126  -1.082  1.00  0.00    -0.031 A 
HETATM   18  C20 UNL     1      -0.725   0.968  -2.108  1.00  0.00    -0.013 A 
HETATM   19  C21 UNL     1      -1.620  -0.196  -2.338  1.00  0.00     0.068 A 
ENDBRANCH   2  17
BRANCH   1  20
HETATM   20  C7  UNL     1       1.031   1.883   0.574  1.00  0.00     0.152 C 
BRANCH  20  21
HETATM   21  N1  UNL     1       2.471   1.724   0.680  1.00  0.00    -0.353 N 
HETATM   22  C6  UNL     1       3.153   0.747  -0.107  1.00  0.00     0.251 C 
HETATM   23  O1  UNL     1       2.384   0.090  -0.853  1.00  0.00    -0.268 OA
HETATM   24  H6  UNL     1       3.054   2.319   1.336  1.00  0.00     0.163 HD
BRANCH  22  25
HETATM   25  C5  UNL     1       4.587   0.537  -0.049  1.00  0.00     0.032 A 
HETATM   26  C4  UNL     1       5.482   1.227   0.750  1.00  0.00     0.017 A 
HETATM   27  C3  UNL     1       6.824   0.919   0.702  1.00  0.00     0.007 A 
HETATM   28  C2  UNL     1       7.344  -0.064  -0.119  1.00  0.00    -0.062 A 
HETATM   29  C1  UNL     1       8.794  -0.403  -0.178  1.00  0.00     0.048 C 
HETATM   30  C23 UNL     1       6.451  -0.767  -0.931  1.00  0.00     0.007 A 
HETATM   31  C22 UNL     1       5.111  -0.442  -0.865  1.00  0.00     0.017 A 
ENDBRANCH  22  25
ENDBRANCH  20  21
ENDBRANCH   1  20
TORSDOF 7
