REMARK  9 active torsions:
REMARK  status: ('A' for Active; 'I' for Inactive)
REMARK    1  A    between atoms: N1_1  and  C1_2 
REMARK    2  A    between atoms: C1_2  and  C2_3 
REMARK    3  A    between atoms: C2_3  and  C3_4 
REMARK    4  A    between atoms: C3_4  and  N2_5 
REMARK       I    between atoms: N2_5  and  C4_6 
REMARK    5  A    between atoms: C4_6  and  C5_8 
REMARK    6  A    between atoms: C9_12  and  N3_13 
REMARK    7  A    between atoms: N3_13  and  C10_14 
REMARK    8  A    between atoms: C13_18  and  C14_19 
REMARK    9  A    between atoms: C14_19  and  C15_20 
ROOT
HETATM    1  C5  UNL     1       2.519   0.877  -0.388  1.00  0.00     0.034 A 
HETATM    2  C6  UNL     1       2.225   2.066  -1.044  1.00  0.00     0.017 A 
HETATM    3  C7  UNL     1       0.908   2.540  -1.031  1.00  0.00     0.003 A 
HETATM    4  C8  UNL     1      -0.055   1.784  -0.350  1.00  0.00     0.030 A 
HETATM    5  C9  UNL     1       0.230   0.608   0.301  1.00  0.00     0.050 A 
HETATM    6  C20 UNL     1       1.548   0.157   0.272  1.00  0.00     0.047 A 
ENDROOT
BRANCH   5   7
HETATM    7  N3  UNL     1      -0.815  -0.112   0.988  1.00  0.00    -0.188 N 
HETATM    8  H13 UNL     1      -0.536  -0.991   1.502  1.00  0.00     0.184 HD
BRANCH   7   9
HETATM    9  C10 UNL     1      -2.106   0.505   0.854  1.00  0.00     0.727 A 
HETATM   10  N4  UNL     1      -2.407   1.526   1.701  1.00  0.00    -0.075 NA
HETATM   11  C11 UNL     1      -3.603   2.132   1.607  1.00  0.00     0.138 A 
HETATM   12  C12 UNL     1      -4.532   1.727   0.657  1.00  0.00     0.048 A 
HETATM   13  C13 UNL     1      -4.217   0.693  -0.195  1.00  0.00     0.059 A 
HETATM   14  N6  UNL     1      -3.015   0.129  -0.056  1.00  0.00    -0.067 NA
BRANCH  13  15
HETATM   15  C14 UNL     1      -5.134   0.203  -1.237  1.00  0.00     0.100 C 
BRANCH  15  16
HETATM   16  C15 UNL     1      -6.131  -0.745  -0.690  1.00  0.00    -0.035 A 
HETATM   17  C16 UNL     1      -6.009  -2.106  -0.568  1.00  0.00     0.010 A 
HETATM   18  C17 UNL     1      -7.021  -2.884  -0.036  1.00  0.00     0.020 A 
HETATM   19  C18 UNL     1      -8.189  -2.233   0.380  1.00  0.00     0.116 A 
HETATM   20  N5  UNL     1      -8.277  -0.909   0.247  1.00  0.00    -0.273 NA
HETATM   21  C19 UNL     1      -7.315  -0.128  -0.264  1.00  0.00     0.123 A 
ENDBRANCH  15  16
ENDBRANCH  13  15
ENDBRANCH   7   9
ENDBRANCH   5   7
BRANCH   1  22
HETATM   22  C4  UNL     1       3.915   0.465  -0.446  1.00  0.00     0.251 C 
HETATM   23  N2  UNL     1       4.496  -0.733   0.048  1.00  0.00    -0.357 N 
HETATM   24  H9  UNL     1       3.804  -1.396   0.508  1.00  0.00     0.162 HD
HETATM   25  O1  UNL     1       4.745   1.252  -1.000  1.00  0.00    -0.268 OA
BRANCH  23  26
HETATM   26  C3  UNL     1       5.915  -1.005  -0.078  1.00  0.00     0.124 C 
BRANCH  26  27
HETATM   27  C2  UNL     1       6.793  -0.011   0.617  1.00  0.00     0.049 C 
BRANCH  27  28
HETATM   28  C1  UNL     1       8.260  -0.396   0.411  1.00  0.00     0.268 C 
BRANCH  28  29
HETATM   29  N1  UNL     1       8.436  -1.711   0.971  1.00  0.00     0.078 N 
HETATM   30  H1  UNL     1       7.748  -1.923   1.705  1.00  0.00     0.312 HD
HETATM   31  H2  UNL     1       8.460  -2.457   0.229  1.00  0.00     0.312 HD
ENDBRANCH  28  29
ENDBRANCH  27  28
ENDBRANCH  26  27
ENDBRANCH  23  26
ENDBRANCH   1  22
TORSDOF 9
