REMARK  8 active torsions:
REMARK  status: ('A' for Active; 'I' for Inactive)
REMARK    1  A    between atoms: N1_2  and  C1_3 
REMARK    2  A    between atoms: C1_3  and  C2_4 
REMARK    3  A    between atoms: C2_4  and  N2_5 
REMARK    4  A    between atoms: N2_5  and  C3_6 
REMARK    5  A    between atoms: C3_6  and  C4_7 
REMARK    6  A    between atoms: C8_11  and  N3_12 
REMARK    7  A    between atoms: N3_12  and  C9_13 
REMARK    8  A    between atoms: C10_15  and  C11_16 
ROOT
HETATM    1  C4  UNL     1      -2.150  -0.851   0.448  1.00  0.00    -0.028 A 
HETATM    2  C5  UNL     1      -2.163  -2.243   0.566  1.00  0.00     0.009 A 
HETATM    3  C6  UNL     1      -0.954  -2.895   0.822  1.00  0.00     0.003 A 
HETATM    4  C7  UNL     1       0.184  -2.126   0.944  1.00  0.00     0.029 A 
HETATM    5  C8  UNL     1       0.220  -0.754   0.831  1.00  0.00     0.030 A 
HETATM    6  C16 UNL     1      -0.994  -0.133   0.577  1.00  0.00     0.038 A 
ENDROOT
BRANCH   5   7
HETATM    7  N3  UNL     1       1.411   0.007   0.962  1.00  0.00    -0.362 N 
HETATM    8  H11 UNL     1       1.363   1.039   0.862  1.00  0.00     0.162 HD
BRANCH   7   9
HETATM    9  C9  UNL     1       2.653  -0.727   1.235  1.00  0.00     0.259 A 
HETATM   10  N4  UNL     1       3.085  -1.686   0.307  1.00  0.00    -0.257 NA
HETATM   11  C10 UNL     1       3.786  -0.596   0.289  1.00  0.00     0.087 A 
BRANCH  11  12
HETATM   12  C11 UNL     1       4.850   0.336  -0.143  1.00  0.00     0.010 A 
HETATM   13  C12 UNL     1       5.062   1.610   0.388  1.00  0.00     0.016 A 
HETATM   14  C13 UNL     1       6.115   2.356  -0.144  1.00  0.00     0.020 A 
HETATM   15  C14 UNL     1       6.895   1.808  -1.163  1.00  0.00     0.116 A 
HETATM   16  N5  UNL     1       6.642   0.575  -1.635  1.00  0.00    -0.272 NA
HETATM   17  C15 UNL     1       5.638  -0.176  -1.150  1.00  0.00     0.129 A 
ENDBRANCH  11  12
ENDBRANCH   7   9
ENDBRANCH   5   7
BRANCH   1  18
HETATM   18  C3  UNL     1      -3.512  -0.325   0.179  1.00  0.00     0.308 C 
BRANCH  18  19
HETATM   19  N2  UNL     1      -3.780  -0.255  -1.245  1.00  0.00     0.089 N 
HETATM   20  H5  UNL     1      -3.754  -1.237  -1.596  1.00  0.00     0.316 HD
BRANCH  19  21
HETATM   21  C2  UNL     1      -5.114   0.235  -1.516  1.00  0.00     0.294 C 
BRANCH  21  22
HETATM   22  C1  UNL     1      -5.318   1.680  -1.156  1.00  0.00     0.212 C 
BRANCH  22  23
HETATM   23  N1  UNL     1      -6.668   2.114  -1.448  1.00  0.00    -0.139 NA
HETATM   24  O1  UNL     1      -7.555   1.384  -1.070  1.00  0.00    -0.067 OA
ENDBRANCH  22  23
ENDBRANCH  21  22
ENDBRANCH  19  21
ENDBRANCH  18  19
ENDBRANCH   1  18
TORSDOF 8
