REMARK  4 active torsions:
REMARK  status: ('A' for Active; 'I' for Inactive)
REMARK    1  A    between atoms: O1_2  and  C2_3 
REMARK    2  A    between atoms: C7_8  and  O2_9 
REMARK    3  A    between atoms: C10_13  and  C11_14 
REMARK    4  A    between atoms: C17_22  and  N3_23 
ROOT
HETATM    1  C2  UNL     1       3.242   0.367  -0.242  1.00  0.00     0.101 C 
HETATM    2  C3  UNL     1       2.898  -0.869  -0.707  1.00  0.00     0.038 C 
HETATM    3  C4  UNL     1       1.498  -1.077  -0.539  1.00  0.00     0.131 C 
HETATM    4  C5  UNL     1       1.276  -0.904   0.989  1.00  0.00     0.089 C 
HETATM    5  C6  UNL     1       1.185   0.602   1.021  1.00  0.00     0.048 C 
HETATM    6  C7  UNL     1       2.363   1.168   0.666  1.00  0.00     0.123 C 
HETATM    7  N1  UNL     1      -0.061   1.194   1.370  1.00  0.00    -0.364 N 
HETATM    8  C9  UNL     1      -1.320   0.870   0.857  1.00  0.00     0.121 C 
HETATM    9  C10 UNL     1      -1.979   0.057   0.095  1.00  0.00     0.101 C 
HETATM   10  N2  UNL     1      -0.975  -0.735  -0.297  1.00  0.00    -0.063 NA
HETATM   11  C17 UNL     1      -0.640  -1.944  -0.421  1.00  0.00     0.695 C 
HETATM   12  N4  UNL     1       0.742  -2.181  -0.903  1.00  0.00    -0.216 N 
HETATM   13  H11 UNL     1       0.181   1.907   2.073  1.00  0.00     0.165 HD
HETATM   14  H19 UNL     1       1.123  -2.981  -1.410  1.00  0.00     0.178 HD
ENDROOT
BRANCH   9  15
HETATM   15  C11 UNL     1      -3.397   0.022  -0.229  1.00  0.00    -0.004 A 
HETATM   16  C12 UNL     1      -3.728  -0.996  -1.096  1.00  0.00     0.014 A 
HETATM   17  C13 UNL     1      -5.055  -1.102  -1.455  1.00  0.00     0.002 A 
HETATM   18  C14 UNL     1      -6.005  -0.231  -0.969  1.00  0.00     0.019 A 
HETATM   19  C15 UNL     1      -5.680   0.790  -0.100  1.00  0.00     0.011 A 
HETATM   20 BR1  UNL     1      -6.932   2.035   0.617  1.00  0.00    -0.051 Br
HETATM   21  C16 UNL     1      -4.352   0.878   0.244  1.00  0.00     0.032 A 
ENDBRANCH   9  15
BRANCH  11  22
HETATM   22  N3  UNL     1      -1.166  -3.268  -0.207  1.00  0.00    -0.233 N 
HETATM   23  H17 UNL     1      -1.279  -3.812   0.663  1.00  0.00     0.174 HD
HETATM   24  H18 UNL     1      -1.496  -3.794  -1.053  1.00  0.00     0.174 HD
ENDBRANCH  11  22
BRANCH   6  25
HETATM   25  O2  UNL     1       2.502   2.420   1.243  1.00  0.00    -0.351 OA
HETATM   26  C8  UNL     1       3.430   3.390   0.832  1.00  0.00     0.210 C 
ENDBRANCH   6  25
BRANCH   1  27
HETATM   27  O1  UNL     1       4.410   1.068  -0.512  1.00  0.00    -0.353 OA
HETATM   28  C1  UNL     1       5.357   0.436  -1.341  1.00  0.00     0.210 C 
ENDBRANCH   1  27
TORSDOF 4
