REMARK  3 active torsions:
REMARK  status: ('A' for Active; 'I' for Inactive)
REMARK    1  A    between atoms: C5_5  and  N1_6 
REMARK    2  A    between atoms: N1_6  and  O1_7 
REMARK    3  A    between atoms: N1_6  and  C6_8 
ROOT
HETATM    1  C6  UNL     1       0.339  -1.156   0.491  1.00  0.00     0.163 A 
HETATM    2  C7  UNL     1       0.749   0.232   0.873  1.00  0.00     0.016 A 
HETATM    3  C8  UNL     1       2.076   0.391   0.725  1.00  0.00    -0.010 A 
HETATM    4  C9  UNL     1       2.820   1.654   1.017  1.00  0.00     0.189 C 
HETATM    5  N2  UNL     1       3.874   1.865   0.070  1.00  0.00    -0.299 NA
HETATM    6  C10 UNL     1       5.015   1.354  -0.202  1.00  0.00     0.107 C 
HETATM    7  C11 UNL     1       5.668   0.219   0.503  1.00  0.00     0.219 C 
HETATM    8  N3  UNL     1       5.113  -1.007  -0.037  1.00  0.00    -0.187 NA
HETATM    9  N4  UNL     1       3.911  -1.406  -0.125  1.00  0.00    -0.155 NA
HETATM   10  C12 UNL     1       2.621  -0.871   0.240  1.00  0.00     0.085 A 
HETATM   11  C13 UNL     1       1.642  -1.751   0.105  1.00  0.00     0.038 A 
ENDROOT
BRANCH   1  12
HETATM   12  N1  UNL     1      -0.627  -1.208  -0.555  1.00  0.00    -0.249 N 
BRANCH  12  13
HETATM   13  C5  UNL     1      -1.933  -0.660  -0.493  1.00  0.00     0.058 A 
HETATM   14  C4  UNL     1      -2.824  -0.743  -1.567  1.00  0.00     0.032 A 
HETATM   15  C3  UNL     1      -4.090  -0.232  -1.547  1.00  0.00     0.009 A 
HETATM   16  C2  UNL     1      -4.537   0.401  -0.426  1.00  0.00    -0.062 A 
HETATM   17  C1  UNL     1      -5.905   0.962  -0.381  1.00  0.00     0.048 C 
HETATM   18  C15 UNL     1      -3.722   0.524   0.674  1.00  0.00     0.009 A 
HETATM   19  C14 UNL     1      -2.465  -0.006   0.597  1.00  0.00     0.032 A 
ENDBRANCH  12  13
BRANCH  12  20
HETATM   20  O1  UNL     1      -0.268  -1.830  -1.698  1.00  0.00    -0.286 OA
HETATM   21  H6  UNL     1      -0.457  -2.793  -1.698  1.00  0.00     0.244 HD
ENDBRANCH  12  20
ENDBRANCH   1  12
TORSDOF 3
