REMARK  5 active torsions:
REMARK  status: ('A' for Active; 'I' for Inactive)
REMARK    1  A    between atoms: C5_5  and  C6_6 
REMARK       I    between atoms: C6_6  and  N1_8 
REMARK    2  A    between atoms: N1_8  and  C7_9 
REMARK    3  A    between atoms: C11_13  and  N2_14 
REMARK    4  A    between atoms: N2_14  and  C12_15 
REMARK    5  A    between atoms: C15_19  and  C16_20 
ROOT
HETATM    1  C7  UNL     1       1.250  -0.151   0.699  1.00  0.00     0.037 A 
HETATM    2  C8  UNL     1       0.799  -1.135   1.557  1.00  0.00     0.029 A 
HETATM    3  C9  UNL     1      -0.566  -1.304   1.812  1.00  0.00     0.004 A 
HETATM    4  C10 UNL     1      -1.448  -0.436   1.163  1.00  0.00     0.030 A 
HETATM    5  C11 UNL     1      -1.008   0.560   0.297  1.00  0.00     0.051 A 
HETATM    6  C20 UNL     1       0.365   0.681   0.081  1.00  0.00     0.059 A 
ENDROOT
BRANCH   5   7
HETATM    7  N2  UNL     1      -1.964   1.424  -0.339  1.00  0.00    -0.188 N 
HETATM    8  H10 UNL     1      -1.580   2.132  -0.982  1.00  0.00     0.184 HD
BRANCH   7   9
HETATM    9  C12 UNL     1      -3.326   1.196  -0.004  1.00  0.00     0.727 A 
HETATM   10  N3  UNL     1      -3.765   1.919   1.059  1.00  0.00    -0.075 NA
HETATM   11  C13 UNL     1      -5.021   1.828   1.513  1.00  0.00     0.138 A 
HETATM   12  C14 UNL     1      -5.947   0.973   0.904  1.00  0.00     0.048 A 
HETATM   13  C15 UNL     1      -5.474   0.238  -0.188  1.00  0.00     0.067 A 
HETATM   14  N5  UNL     1      -4.215   0.370  -0.594  1.00  0.00    -0.066 NA
BRANCH  13  15
HETATM   15  C16 UNL     1      -6.372  -0.703  -0.912  1.00  0.00     0.103 A 
HETATM   16  C17 UNL     1      -7.597   0.002  -1.422  1.00  0.00     0.009 A 
HETATM   17  C18 UNL     1      -8.660  -0.493  -0.812  1.00  0.00     0.113 A 
HETATM   18  N4  UNL     1      -8.272  -1.524   0.118  1.00  0.00    -0.276 NA
HETATM   19  C19 UNL     1      -6.976  -1.647   0.065  1.00  0.00     0.104 A 
ENDBRANCH  13  15
ENDBRANCH   7   9
ENDBRANCH   5   7
BRANCH   1  20
HETATM   20  N1  UNL     1       2.649  -0.028   0.482  1.00  0.00    -0.323 N 
HETATM   21  C6  UNL     1       3.480  -0.645  -0.491  1.00  0.00     0.256 C 
HETATM   22  O1  UNL     1       3.055  -1.452  -1.367  1.00  0.00    -0.267 OA
HETATM   23  H6  UNL     1       2.997   0.638   1.205  1.00  0.00     0.169 HD
BRANCH  21  24
HETATM   24  C5  UNL     1       4.908  -0.364  -0.522  1.00  0.00     0.032 A 
HETATM   25  C4  UNL     1       5.682  -0.978  -1.484  1.00  0.00     0.017 A 
HETATM   26  C3  UNL     1       7.061  -0.752  -1.571  1.00  0.00     0.007 A 
HETATM   27  C2  UNL     1       7.685   0.104  -0.681  1.00  0.00    -0.062 A 
HETATM   28  C1  UNL     1       9.155   0.370  -0.743  1.00  0.00     0.048 C 
HETATM   29  C22 UNL     1       6.927   0.728   0.288  1.00  0.00     0.007 A 
HETATM   30  C21 UNL     1       5.572   0.479   0.341  1.00  0.00     0.017 A 
ENDBRANCH  21  24
ENDBRANCH   1  20
TORSDOF 5
