REMARK  6 active torsions:
REMARK  status: ('A' for Active; 'I' for Inactive)
REMARK    1  A    between atoms: C5_5  and  C6_6 
REMARK    2  A    between atoms: C6_6  and  N1_7 
REMARK    3  A    between atoms: N1_7  and  P1_8 
REMARK    4  A    between atoms: P1_8  and  C7_9 
REMARK    5  A    between atoms: C10_12  and  N2_13 
REMARK    6  A    between atoms: N2_13  and  C11_14 
ROOT
HETATM    1  C7  UNL     1      -0.263   0.518  -0.998  1.00  0.00     0.190 A 
HETATM    2  C8  UNL     1      -0.122   0.126   0.419  1.00  0.00     0.013 A 
HETATM    3  C9  UNL     1       0.797  -0.525   1.109  1.00  0.00     0.031 A 
HETATM    4  C10 UNL     1       1.911  -0.945   0.275  1.00  0.00     0.071 A 
HETATM    5  C19 UNL     1       1.845  -0.624  -1.003  1.00  0.00     0.166 A 
HETATM    6  O1  UNL     1       0.868   0.060  -1.698  1.00  0.00    -0.346 OA
ENDROOT
BRANCH   4   7
HETATM    7  N2  UNL     1       2.990  -1.658   0.853  1.00  0.00    -0.186 N 
HETATM    8  H13 UNL     1       2.681  -2.664   0.890  1.00  0.00     0.184 HD
BRANCH   7   9
HETATM    9  C11 UNL     1       4.111  -0.850   1.195  1.00  0.00     0.727 A 
HETATM   10  N3  UNL     1       4.291  -0.240   2.403  1.00  0.00    -0.074 NA
HETATM   11  C12 UNL     1       5.394   0.508   2.628  1.00  0.00     0.151 A 
HETATM   12  C13 UNL     1       6.311   0.624   1.599  1.00  0.00     0.025 A 
HETATM   13  C14 UNL     1       6.145   0.007   0.355  1.00  0.00     0.070 A 
HETATM   14  C18 UNL     1       7.446   1.462   1.993  1.00  0.00     0.131 C 
HETATM   15  N4  UNL     1       5.005  -0.727   0.219  1.00  0.00    -0.066 NA
HETATM   16  C15 UNL     1       7.000   0.009  -0.859  1.00  0.00     0.089 C 
HETATM   17  C16 UNL     1       8.438  -0.007  -0.550  1.00  0.00    -0.002 C 
HETATM   18  C17 UNL     1       9.129   0.572   0.412  1.00  0.00     0.112 C 
HETATM   19  N5  UNL     1       8.640   1.413   1.462  1.00  0.00    -0.272 NA
ENDBRANCH   7   9
ENDBRANCH   4   7
BRANCH   1  20
HETATM   20  P1  UNL     1      -1.690  -0.481  -1.658  1.00  0.00    -0.022 P 
HETATM   21  H9  UNL     1      -1.367  -1.872  -1.724  1.00  0.00     0.076 HD
BRANCH  20  22
HETATM   22  N1  UNL     1      -3.224  -0.132  -0.847  1.00  0.00    -0.295 NA
HETATM   23  H8  UNL     1      -3.241  -0.707   0.029  1.00  0.00     0.127 HD
BRANCH  22  24
HETATM   24  C6  UNL     1      -4.300  -0.544  -1.706  1.00  0.00     0.129 C 
BRANCH  24  25
HETATM   25  C5  UNL     1      -5.645  -0.297  -1.123  1.00  0.00    -0.045 A 
HETATM   26  C4  UNL     1      -6.290   0.904  -1.350  1.00  0.00     0.009 A 
HETATM   27  C3  UNL     1      -7.551   1.117  -0.795  1.00  0.00     0.007 A 
HETATM   28  C2  UNL     1      -8.157   0.146  -0.026  1.00  0.00    -0.062 A 
HETATM   29  C1  UNL     1      -9.502   0.368   0.569  1.00  0.00     0.048 C 
HETATM   30  C21 UNL     1      -7.461  -1.032   0.164  1.00  0.00     0.007 A 
HETATM   31  C20 UNL     1      -6.213  -1.302  -0.358  1.00  0.00     0.009 A 
ENDBRANCH  24  25
ENDBRANCH  22  24
ENDBRANCH  20  22
ENDBRANCH   1  20
TORSDOF 6
