REMARK  5 active torsions:
REMARK  status: ('A' for Active; 'I' for Inactive)
REMARK    1  A    between atoms: C5_5  and  C6_6 
REMARK    2  A    between atoms: C6_6  and  C7_8 
REMARK    3  A    between atoms: C11_12  and  P1_13 
REMARK    4  A    between atoms: P1_13  and  C12_14 
REMARK    5  A    between atoms: C15_18  and  C16_19 
ROOT
HETATM    1  C7  UNL     1       1.549   0.287   0.568  1.00  0.00     0.027 A 
HETATM    2  C8  UNL     1       1.536   1.258   1.461  1.00  0.00     0.016 A 
HETATM    3  C9  UNL     1       0.262   1.465   2.107  1.00  0.00     0.002 A 
HETATM    4  C10 UNL     1      -0.557   0.590   1.600  1.00  0.00     0.014 A 
HETATM    5  C11 UNL     1       0.173  -0.197   0.618  1.00  0.00    -0.004 A 
ENDROOT
BRANCH   5   6
HETATM    6  P1  UNL     1      -0.530  -1.442  -0.268  1.00  0.00     0.034 P 
BRANCH   6   7
HETATM    7  C12 UNL     1      -2.289  -1.887  -0.045  1.00  0.00     0.161 A 
HETATM    8  N1  UNL     1      -2.585  -3.134   0.368  1.00  0.00    -0.240 NA
HETATM    9  C13 UNL     1      -3.887  -3.486   0.540  1.00  0.00     0.121 A 
HETATM   10  C14 UNL     1      -4.860  -2.544   0.282  1.00  0.00     0.052 A 
HETATM   11  C15 UNL     1      -4.570  -1.263  -0.141  1.00  0.00     0.072 A 
HETATM   12  N3  UNL     1      -3.274  -0.975  -0.292  1.00  0.00    -0.228 NA
BRANCH  11  13
HETATM   13  C16 UNL     1      -5.560  -0.232  -0.426  1.00  0.00     0.010 A 
HETATM   14  C17 UNL     1      -5.074   0.991  -0.840  1.00  0.00     0.017 A 
HETATM   15  C18 UNL     1      -5.963   2.029  -1.132  1.00  0.00     0.020 A 
HETATM   16  C19 UNL     1      -7.330   1.782  -0.991  1.00  0.00     0.116 A 
HETATM   17  N2  UNL     1      -7.786   0.573  -0.583  1.00  0.00    -0.272 NA
HETATM   18  C20 UNL     1      -6.916  -0.432  -0.300  1.00  0.00     0.130 A 
ENDBRANCH  11  13
ENDBRANCH   6   7
ENDBRANCH   5   6
BRANCH   1  19
HETATM   19  C6  UNL     1       2.572  -0.254  -0.295  1.00  0.00     0.193 C 
HETATM   20  O1  UNL     1       2.180  -1.220  -1.038  1.00  0.00    -0.287 OA
BRANCH  19  21
HETATM   21  C5  UNL     1       3.958   0.059  -0.506  1.00  0.00     0.015 A 
HETATM   22  C4  UNL     1       4.619  -0.724  -1.460  1.00  0.00     0.016 A 
HETATM   23  C3  UNL     1       5.973  -0.516  -1.756  1.00  0.00     0.007 A 
HETATM   24  C2  UNL     1       6.683   0.462  -1.115  1.00  0.00    -0.062 A 
HETATM   25  C1  UNL     1       8.121   0.686  -1.426  1.00  0.00     0.048 C 
HETATM   26  C22 UNL     1       6.084   1.253  -0.176  1.00  0.00     0.007 A 
HETATM   27  C21 UNL     1       4.768   1.006   0.070  1.00  0.00     0.016 A 
ENDBRANCH  19  21
ENDBRANCH   1  19
TORSDOF 5
