REMARK  6 active torsions:
REMARK  status: ('A' for Active; 'I' for Inactive)
REMARK    1  A    between atoms: C5_5  and  C6_6 
REMARK       I    between atoms: C6_6  and  N1_8 
REMARK    2  A    between atoms: N1_8  and  C7_9 
REMARK    3  A    between atoms: C8_10  and  N2_11 
REMARK    4  A    between atoms: C8_10  and  C18_24 
REMARK    5  A    between atoms: N2_11  and  C9_12 
REMARK    6  A    between atoms: C12_16  and  C13_17 
ROOT
HETATM    1  C7  UNL     1      -0.153  -1.053   0.550  1.00  0.00     0.122 C 
HETATM    2  C8  UNL     1       0.516  -2.192   0.564  1.00  0.00     0.071 C 
ENDROOT
BRANCH   2   3
HETATM    3  N2  UNL     1       1.518  -2.324  -0.467  1.00  0.00    -0.186 N 
HETATM    4  H7  UNL     1       2.385  -2.905  -0.467  1.00  0.00     0.184 HD
BRANCH   3   5
HETATM    5  C9  UNL     1       1.470  -1.646  -1.704  1.00  0.00     0.727 A 
HETATM    6  N3  UNL     1       0.856  -2.034  -2.827  1.00  0.00    -0.075 NA
HETATM    7  C10 UNL     1       0.832  -1.377  -3.981  1.00  0.00     0.139 A 
HETATM    8  C11 UNL     1       1.487  -0.153  -4.118  1.00  0.00     0.053 A 
HETATM    9  C12 UNL     1       2.125   0.262  -2.970  1.00  0.00     0.089 A 
HETATM   10  N5  UNL     1       2.085  -0.469  -1.878  1.00  0.00    -0.062 NA
BRANCH   9  11
HETATM   11  C13 UNL     1       2.847   1.520  -2.977  1.00  0.00     0.011 A 
HETATM   12  C14 UNL     1       2.959   2.367  -4.052  1.00  0.00     0.017 A 
HETATM   13  C15 UNL     1       3.664   3.572  -4.018  1.00  0.00     0.020 A 
HETATM   14  C16 UNL     1       4.286   3.949  -2.856  1.00  0.00     0.116 A 
HETATM   15  N4  UNL     1       4.193   3.145  -1.798  1.00  0.00    -0.272 NA
HETATM   16  C17 UNL     1       3.503   1.968  -1.835  1.00  0.00     0.130 A 
ENDBRANCH   9  11
ENDBRANCH   3   5
ENDBRANCH   2   3
BRANCH   2  17
HETATM   17  C18 UNL     1       0.307  -3.289   1.527  1.00  0.00    -0.029 A 
HETATM   18  C19 UNL     1      -0.262  -3.984   2.617  1.00  0.00    -0.012 A 
HETATM   19  C20 UNL     1       0.800  -4.613   1.870  1.00  0.00     0.068 A 
ENDBRANCH   2  17
BRANCH   1  20
HETATM   20  N1  UNL     1      -1.180  -0.764   1.507  1.00  0.00    -0.331 N 
HETATM   21  C6  UNL     1      -1.895   0.460   1.491  1.00  0.00     0.255 C 
HETATM   22  O1  UNL     1      -1.582   1.306   0.573  1.00  0.00    -0.267 OA
HETATM   23  H5  UNL     1      -1.531  -1.343   2.292  1.00  0.00     0.168 HD
BRANCH  21  24
HETATM   24  C5  UNL     1      -2.949   0.868   2.404  1.00  0.00     0.033 A 
HETATM   25  C4  UNL     1      -3.641   2.145   2.336  1.00  0.00     0.018 A 
HETATM   26  C3  UNL     1      -4.532   2.221   3.291  1.00  0.00     0.011 A 
HETATM   27  C2  UNL     1      -4.460   0.977   4.037  1.00  0.00    -0.045 A 
HETATM   28  C1  UNL     1      -5.097   0.474   5.106  1.00  0.00     0.023 C 
HETATM   29  C21 UNL     1      -3.425   0.141   3.424  1.00  0.00     0.027 A 
ENDBRANCH  21  24
ENDBRANCH   1  20
TORSDOF 6
