REMARK  1 active torsions:
REMARK  status: ('A' for Active; 'I' for Inactive)
REMARK    1  A    between atoms: C2_2  and  C3_3 
ROOT
HETATM    1  C3  UNL     1       2.552  -0.475   0.788  1.00  0.00    -0.012 C 
HETATM    2  C4  UNL     1       2.387   0.471   1.722  1.00  0.00     0.012 C 
HETATM    3  C5  UNL     1       1.661   1.479   2.738  1.00  0.00     0.151 C 
HETATM    4  N1  UNL     1       0.253   1.111   2.689  1.00  0.00    -0.354 N 
HETATM    5  C6  UNL     1      -0.338   1.133   1.476  1.00  0.00     0.248 C 
HETATM    6  O1  UNL     1       0.360   1.545   0.640  1.00  0.00    -0.268 OA
HETATM    7  C7  UNL     1      -1.417   0.878   0.708  1.00  0.00     0.018 A 
HETATM    8  C8  UNL     1      -2.646   0.620   1.017  1.00  0.00     0.029 A 
HETATM    9  C9  UNL     1      -3.160   0.216  -0.263  1.00  0.00     0.205 A 
HETATM   10  C10 UNL     1      -4.222  -0.217  -0.954  1.00  0.00     0.212 A 
HETATM   11  C11 UNL     1      -5.634  -0.531  -0.631  1.00  0.00     0.054 C 
HETATM   12  C12 UNL     1      -2.909   0.104  -1.132  1.00  0.00     0.230 A 
HETATM   13  C13 UNL     1      -1.696   0.534  -0.652  1.00  0.00     0.113 A 
HETATM   14  C14 UNL     1      -1.981  -0.383  -2.175  1.00  0.00     0.156 A 
HETATM   15  N2  UNL     1      -3.018  -0.326  -1.657  1.00  0.00     0.008 N 
HETATM   16  C15 UNL     1      -0.715  -0.673  -2.933  1.00  0.00     0.213 C 
HETATM   17  N3  UNL     1       0.411  -0.552  -1.962  1.00  0.00    -0.284 NA
HETATM   18  C16 UNL     1       0.708  -1.467  -1.072  1.00  0.00     0.174 C 
HETATM   19  N4  UNL     1       1.810  -1.394  -0.078  1.00  0.00    -0.258 NA
HETATM   20  H9  UNL     1      -0.511   0.938   3.309  1.00  0.00     0.163 HD
HETATM   21  H18 UNL     1       1.584  -0.392  -0.118  1.00  0.00     0.134 HD
ENDROOT
BRANCH   1  22
HETATM   22  C2  UNL     1       4.031  -0.664   0.565  1.00  0.00     0.046 C 
HETATM   23  C1  UNL     1       4.477  -0.239  -0.784  1.00  0.00     0.011 C 
ENDBRANCH   1  22
TORSDOF 1
