REMARK  0 active torsions:
REMARK  status: ('A' for Active; 'I' for Inactive)
ROOT
HETATM    1  C1  UNL     1      -4.626   0.558   0.969  1.00  0.00     0.026 C 
HETATM    2  C2  UNL     1      -3.555  -0.426   0.955  1.00  0.00     0.007 C 
HETATM    3  C3  UNL     1      -2.518  -0.369   1.934  1.00  0.00    -0.011 C 
HETATM    4  C4  UNL     1      -1.365  -0.913   1.592  1.00  0.00     0.014 C 
HETATM    5  C5  UNL     1      -1.456  -2.039   0.661  1.00  0.00     0.028 C 
HETATM    6  C6  UNL     1      -2.557  -2.533   0.158  1.00  0.00    -0.008 C 
HETATM    7  C7  UNL     1      -3.398  -1.318  -0.163  1.00  0.00     0.047 C 
HETATM    8  C8  UNL     1      -0.126  -2.590   0.276  1.00  0.00     0.255 C 
HETATM    9  O1  UNL     1       0.590  -3.591  -0.002  1.00  0.00    -0.267 OA
HETATM   10  N1  UNL     1       1.107  -2.007   0.024  1.00  0.00    -0.323 N 
HETATM   11  C9  UNL     1       2.369  -1.414  -0.234  1.00  0.00     0.037 A 
HETATM   12  C10 UNL     1       3.430  -2.200  -0.571  1.00  0.00     0.029 A 
HETATM   13  C11 UNL     1       4.626  -1.579  -0.851  1.00  0.00     0.004 A 
HETATM   14  C12 UNL     1       4.839  -0.192  -0.818  1.00  0.00     0.029 A 
HETATM   15  C13 UNL     1       3.769   0.601  -0.478  1.00  0.00     0.035 A 
HETATM   16  C14 UNL     1       2.613  -0.051  -0.209  1.00  0.00     0.059 A 
HETATM   17  N2  UNL     1       3.724   2.042  -0.397  1.00  0.00    -0.351 N 
HETATM   18  C15 UNL     1       2.480   2.705  -0.109  1.00  0.00     0.201 C 
HETATM   19  N3  UNL     1       1.687   2.319  -1.013  1.00  0.00    -0.276 NA
HETATM   20  C16 UNL     1       0.362   2.633  -1.228  1.00  0.00     0.151 C 
HETATM   21  C17 UNL     1      -0.762   3.136  -1.585  1.00  0.00     0.101 C 
HETATM   22  C18 UNL     1      -1.476   2.239  -0.910  1.00  0.00    -0.146 C 
HETATM   23  P1  UNL     1      -2.230   1.276  -0.217  1.00  0.00    -0.047 P 
HETATM   24  H9  UNL     1       0.642  -1.076   0.252  1.00  0.00     0.169 HD
HETATM   25  H14 UNL     1       4.691   2.435  -0.577  1.00  0.00     0.166 HD
HETATM   26  H18 UNL     1      -2.500   0.940   0.037  1.00  0.00     0.071 HD
ENDROOT
TORSDOF 0
