REMARK  5 active torsions:
REMARK  status: ('A' for Active; 'I' for Inactive)
REMARK    1  A    between atoms: C1_2  and  C2_3 
REMARK    2  A    between atoms: C2_3  and  N1_4 
REMARK    3  A    between atoms: N1_4  and  C3_5 
REMARK    4  A    between atoms: C7_9  and  N2_10 
REMARK    5  A    between atoms: N2_10  and  C8_11 
ROOT
HETATM    1  N2  UNL     1      -0.468  -0.829  -0.564  1.00  0.00    -0.190 N 
HETATM    2  H8  UNL     1      -0.317  -1.340  -1.470  1.00  0.00     0.184 HD
ENDROOT
BRANCH   1   3
HETATM    3  C7  UNL     1      -1.718  -1.031   0.044  1.00  0.00     0.051 A 
HETATM    4  C6  UNL     1      -1.714  -2.010   1.029  1.00  0.00     0.030 A 
HETATM    5  C5  UNL     1      -2.973  -2.249   1.601  1.00  0.00     0.004 A 
HETATM    6  C4  UNL     1      -4.100  -1.574   1.239  1.00  0.00     0.029 A 
HETATM    7  C3  UNL     1      -4.025  -0.614   0.258  1.00  0.00     0.030 A 
HETATM    8  C17 UNL     1      -2.814  -0.324  -0.363  1.00  0.00     0.059 A 
BRANCH   7   9
HETATM    9  N1  UNL     1      -5.291   0.019  -0.047  1.00  0.00    -0.384 N 
HETATM   10  H4  UNL     1      -6.081  -0.042   0.609  1.00  0.00     0.160 HD
BRANCH   9  11
HETATM   11  C2  UNL     1      -5.397   0.756  -1.276  1.00  0.00     0.189 C 
BRANCH  11  12
HETATM   12  C1  UNL     1      -5.234   2.198  -1.190  1.00  0.00     0.250 C 
HETATM   13  O1  UNL     1      -5.188   2.947  -0.220  1.00  0.00    -0.305 OA
ENDBRANCH  11  12
ENDBRANCH   9  11
ENDBRANCH   7   9
ENDBRANCH   1   3
BRANCH   1  14
HETATM   14  C8  UNL     1       0.546  -0.018   0.015  1.00  0.00     0.708 A 
HETATM   15  N3  UNL     1       0.399   0.882   0.949  1.00  0.00    -0.078 NA
HETATM   16  C9  UNL     1       1.498   1.545   1.472  1.00  0.00     0.141 A 
HETATM   17  C10 UNL     1       2.645   1.072   0.837  1.00  0.00     0.200 A 
HETATM   18  C11 UNL     1       2.999   0.082  -0.230  1.00  0.00     0.071 A 
HETATM   19  N5  UNL     1       1.748   0.096  -0.040  1.00  0.00    -0.166 N 
HETATM   20  C12 UNL     1       4.404   0.068  -0.469  1.00  0.00     0.007 A 
HETATM   21  C13 UNL     1       5.062  -0.273   0.758  1.00  0.00     0.016 A 
HETATM   22  C16 UNL     1       5.076   0.388  -1.621  1.00  0.00     0.129 A 
HETATM   23  C14 UNL     1       6.461  -0.266   0.767  1.00  0.00     0.020 A 
HETATM   24  C15 UNL     1       7.086   0.074  -0.404  1.00  0.00     0.116 A 
HETATM   25  N4  UNL     1       6.440   0.373  -1.523  1.00  0.00    -0.272 NA
ENDBRANCH   1  14
TORSDOF 5
