REMARK  1 active torsions:
REMARK  status: ('A' for Active; 'I' for Inactive)
REMARK    1  A    between atoms: C5_6  and  C6_7 
ROOT
HETATM    1  C6  UNL     1      -0.639   0.934   0.012  1.00  0.00     0.093 C 
HETATM    2  C7  UNL     1       0.142  -0.164  -0.352  1.00  0.00     0.068 C 
HETATM    3  N1  UNL     1      -0.340  -1.469   0.099  1.00  0.00    -0.388 N 
HETATM    4  C8  UNL     1       0.660  -2.306  -0.517  1.00  0.00     0.132 C 
HETATM    5  C9  UNL     1       1.785  -1.222  -1.093  1.00  0.00     0.008 A 
HETATM    6  C10 UNL     1       2.122  -0.767   0.443  1.00  0.00     0.020 A 
HETATM    7  C11 UNL     1       2.914  -0.239  -0.434  1.00  0.00     0.027 A 
HETATM    8  C12 UNL     1       3.813   0.361  -1.404  1.00  0.00    -0.016 A 
HETATM    9  C13 UNL     1       3.440  -0.084  -2.658  1.00  0.00    -0.017 A 
HETATM   10  C14 UNL     1       2.375  -0.932  -2.632  1.00  0.00     0.014 A 
HETATM   11  O1  UNL     1       1.589  -1.411  -1.719  1.00  0.00     0.000 OA
HETATM   12  C15 UNL     1       1.390   0.055  -0.992  1.00  0.00     0.120 C 
HETATM   13  N2  UNL     1       1.372   1.044  -1.938  1.00  0.00    -0.366 N 
HETATM   14  C16 UNL     1       0.600   2.182  -1.531  1.00  0.00     0.204 C 
HETATM   15  N3  UNL     1      -0.376   2.216  -0.621  1.00  0.00    -0.241 NA
HETATM   16  H4  UNL     1      -0.979  -2.095   0.609  1.00  0.00     0.159 HD
HETATM   17  H10 UNL     1       1.668   1.376  -2.884  1.00  0.00     0.161 HD
ENDROOT
BRANCH   1  18
HETATM   18  C5  UNL     1      -1.820   0.663   0.814  1.00  0.00    -0.004 A 
HETATM   19  C4  UNL     1      -2.743  -0.308   0.504  1.00  0.00     0.014 A 
HETATM   20  C3  UNL     1      -3.866  -0.631   1.241  1.00  0.00     0.002 A 
HETATM   21  C2  UNL     1      -4.078   0.094   2.396  1.00  0.00     0.019 A 
HETATM   22  C1  UNL     1      -3.168   1.086   2.742  1.00  0.00     0.011 A 
HETATM   23 BR1  UNL     1      -3.317   2.194   4.316  1.00  0.00    -0.051 Br
HETATM   24  C17 UNL     1      -2.032   1.397   1.977  1.00  0.00     0.033 A 
ENDBRANCH   1  18
TORSDOF 1
