REMARK  8 active torsions:
REMARK  status: ('A' for Active; 'I' for Inactive)
REMARK    1  A    between atoms: C2_2  and  C3_3 
REMARK    2  A    between atoms: C3_3  and  C4_4 
REMARK    3  A    between atoms: C5_5  and  C6_6 
REMARK    4  A    between atoms: C6_6  and  C7_7 
REMARK       I    between atoms: C7_7  and  N1_9 
REMARK    5  A    between atoms: N1_9  and  C8_10 
REMARK    6  A    between atoms: C12_14  and  N2_15 
REMARK    7  A    between atoms: N2_15  and  C13_16 
REMARK    8  A    between atoms: C16_20  and  C17_21 
ROOT
HETATM    1  C8  UNL     1       0.784  -0.754  -1.219  1.00  0.00     0.036 A 
HETATM    2  C9  UNL     1       0.070  -1.847  -1.659  1.00  0.00     0.029 A 
HETATM    3  C10 UNL     1      -1.274  -1.918  -1.369  1.00  0.00     0.004 A 
HETATM    4  C11 UNL     1      -1.842  -0.888  -0.650  1.00  0.00     0.030 A 
HETATM    5  C12 UNL     1      -1.167   0.221  -0.192  1.00  0.00     0.051 A 
HETATM    6  C22 UNL     1       0.164   0.233  -0.511  1.00  0.00     0.059 A 
ENDROOT
BRANCH   5   7
HETATM    7  N2  UNL     1      -1.743   1.283   0.546  1.00  0.00    -0.188 N 
HETATM    8  H16 UNL     1      -1.066   2.055   0.829  1.00  0.00     0.184 HD
BRANCH   7   9
HETATM    9  C13 UNL     1      -3.085   1.459   0.957  1.00  0.00     0.727 A 
HETATM   10  N3  UNL     1      -3.427   2.550   1.663  1.00  0.00    -0.075 NA
HETATM   11  C14 UNL     1      -4.662   2.815   2.100  1.00  0.00     0.139 A 
HETATM   12  C15 UNL     1      -5.670   1.921   1.816  1.00  0.00     0.053 A 
HETATM   13  C16 UNL     1      -5.365   0.791   1.095  1.00  0.00     0.089 A 
HETATM   14  N5  UNL     1      -4.096   0.616   0.704  1.00  0.00    -0.062 NA
BRANCH  13  15
HETATM   15  C17 UNL     1      -6.408  -0.171   0.780  1.00  0.00     0.011 A 
HETATM   16  C18 UNL     1      -7.719  -0.016   1.170  1.00  0.00     0.017 A 
HETATM   17  C19 UNL     1      -8.706  -0.936   0.865  1.00  0.00     0.020 A 
HETATM   18  C20 UNL     1      -8.400  -2.069   0.141  1.00  0.00     0.116 A 
HETATM   19  N4  UNL     1      -7.118  -2.230  -0.245  1.00  0.00    -0.272 NA
HETATM   20  C21 UNL     1      -6.176  -1.322   0.063  1.00  0.00     0.130 A 
ENDBRANCH  13  15
ENDBRANCH   7   9
ENDBRANCH   5   7
BRANCH   1  21
HETATM   21  N1  UNL     1       2.174  -0.682  -1.521  1.00  0.00    -0.327 N 
HETATM   22  C7  UNL     1       3.188  -1.210  -0.675  1.00  0.00     0.225 C 
HETATM   23  O1  UNL     1       2.718  -1.746   0.368  1.00  0.00    -0.273 OA
HETATM   24  H12 UNL     1       2.288  -0.190  -2.440  1.00  0.00     0.169 HD
BRANCH  22  25
HETATM   25  C6  UNL     1       4.537  -0.983  -1.258  1.00  0.00     0.130 C 
BRANCH  25  26
HETATM   26  C5  UNL     1       5.638  -1.508  -0.424  1.00  0.00    -0.022 C 
HETATM   27  C4  UNL     1       6.713  -1.130   0.216  1.00  0.00    -0.030 C 
BRANCH  27  28
HETATM   28  C3  UNL     1       7.525   0.061   0.521  1.00  0.00     0.026 C 
BRANCH  28  29
HETATM   29  C2  UNL     1       6.898   1.265  -0.131  1.00  0.00    -0.001 C 
HETATM   30  C1  UNL     1       7.698   2.527   0.157  1.00  0.00     0.005 C 
ENDBRANCH  28  29
ENDBRANCH  27  28
ENDBRANCH  25  26
ENDBRANCH  22  25
ENDBRANCH   1  21
TORSDOF 8
