REMARK  5 active torsions:
REMARK  status: ('A' for Active; 'I' for Inactive)
REMARK    1  A    between atoms: C2_2  and  C3_3 
REMARK    2  A    between atoms: C4_4  and  N1_5 
REMARK    3  A    between atoms: C5_6  and  C6_7 
REMARK    4  A    between atoms: C9_12  and  N4_13 
REMARK       I    between atoms: N4_13  and  C10_14 
REMARK    5  A    between atoms: C10_14  and  C11_16 
ROOT
HETATM    1  C6  UNL     1       2.300  -1.525   1.204  1.00  0.00     0.065 C 
HETATM    2  N2  UNL     1       1.193  -1.699   1.756  1.00  0.00    -0.277 NA
HETATM    3  C7  UNL     1       0.061  -2.432   1.407  1.00  0.00     0.234 C 
HETATM    4  N3  UNL     1      -1.122  -1.614   1.641  1.00  0.00    -0.297 NA
HETATM    5  C8  UNL     1      -1.469  -0.820   0.714  1.00  0.00     0.238 C 
HETATM    6  C9  UNL     1      -1.771   0.049  -0.411  1.00  0.00     0.046 C 
HETATM    7  C17 UNL     1      -1.032   0.087  -1.517  1.00  0.00     0.032 C 
HETATM    8  C18 UNL     1       0.141  -0.660  -1.837  1.00  0.00     0.019 C 
HETATM    9  C19 UNL     1       1.131  -1.480  -1.769  1.00  0.00     0.083 C 
HETATM   10  N5  UNL     1       1.847  -2.458  -1.036  1.00  0.00    -0.393 N 
HETATM   11  C20 UNL     1       2.796  -2.082  -0.037  1.00  0.00     0.179 C 
HETATM   12  H20 UNL     1       1.751  -3.518  -1.138  1.00  0.00     0.159 HD
ENDROOT
BRANCH   6  13
HETATM   13  N4  UNL     1      -2.904   0.838  -0.209  1.00  0.00    -0.322 N 
HETATM   14  C10 UNL     1      -4.090   0.121  -0.019  1.00  0.00     0.256 C 
HETATM   15  O1  UNL     1      -3.956  -1.129  -0.057  1.00  0.00    -0.267 OA
HETATM   16  H12 UNL     1      -2.949   1.896  -0.188  1.00  0.00     0.169 HD
BRANCH  14  17
HETATM   17  C11 UNL     1      -5.404   0.696   0.208  1.00  0.00     0.032 A 
HETATM   18  C12 UNL     1      -6.478  -0.175   0.376  1.00  0.00     0.020 A 
HETATM   19  C13 UNL     1      -7.766   0.314   0.591  1.00  0.00     0.043 A 
HETATM   20  C14 UNL     1      -7.954   1.701   0.635  1.00  0.00     0.116 A 
HETATM   21  F1  UNL     1      -9.186   2.232   0.841  1.00  0.00    -0.206 F 
HETATM   22  C15 UNL     1      -6.875   2.543   0.467  1.00  0.00     0.043 A 
HETATM   23  C16 UNL     1      -5.603   2.061   0.254  1.00  0.00     0.020 A 
ENDBRANCH  14  17
ENDBRANCH   6  13
BRANCH   1  24
HETATM   24  C5  UNL     1       3.182  -0.654   1.971  1.00  0.00     0.144 C 
HETATM   25  N1  UNL     1       4.349  -0.108   1.989  1.00  0.00    -0.271 NA
BRANCH  25  26
HETATM   26  C4  UNL     1       5.230  -0.376   0.886  1.00  0.00     0.112 C 
HETATM   27  C3  UNL     1       5.745   0.437  -0.010  1.00  0.00    -0.008 C 
BRANCH  27  28
HETATM   28  C2  UNL     1       5.680   1.882  -0.300  1.00  0.00     0.024 C 
HETATM   29  C1  UNL     1       7.045   2.510  -0.243  1.00  0.00     0.009 C 
ENDBRANCH  27  28
ENDBRANCH  25  26
ENDBRANCH   1  24
TORSDOF 5
