REMARK  8 active torsions:
REMARK  status: ('A' for Active; 'I' for Inactive)
REMARK    1  A    between atoms: N1_1  and  C1_2 
REMARK    2  A    between atoms: C2_3  and  C3_4 
REMARK    3  A    between atoms: C3_4  and  C4_5 
REMARK    4  A    between atoms: C4_5  and  C19_25 
REMARK    5  A    between atoms: N2_6  and  C5_7 
REMARK    6  A    between atoms: C5_7  and  N3_8 
REMARK    7  A    between atoms: C9_12  and  N4_13 
REMARK       I    between atoms: N4_13  and  C10_14 
REMARK    8  A    between atoms: C10_14  and  C11_16 
ROOT
HETATM    1  N3  UNL     1      -0.346   0.511   0.421  1.00  0.00    -0.348 N 
HETATM    2  C6  UNL     1      -0.287  -0.735  -0.275  1.00  0.00     0.092 C 
HETATM    3  C7  UNL     1       0.702  -1.571  -0.550  1.00  0.00     0.019 C 
HETATM    4  C8  UNL     1       2.122  -1.443  -0.189  1.00  0.00     0.031 C 
HETATM    5  C9  UNL     1       2.683  -0.317   0.271  1.00  0.00     0.036 C 
HETATM    6  C17 UNL     1       2.110   1.013   0.534  1.00  0.00     0.046 C 
HETATM    7  C18 UNL     1       0.829   1.336   0.592  1.00  0.00     0.094 C 
ENDROOT
BRANCH   1   8
HETATM    8  C5  UNL     1      -1.633   0.965   0.980  1.00  0.00     0.277 C 
BRANCH   8   9
HETATM    9  N2  UNL     1      -2.664   1.106   0.052  1.00  0.00    -0.273 NA
HETATM   10  C4  UNL     1      -3.596   0.434  -0.411  1.00  0.00     0.045 C 
BRANCH  10  11
HETATM   11  C3  UNL     1      -4.323   1.276  -1.414  1.00  0.00     0.088 C 
BRANCH  11  12
HETATM   12  C2  UNL     1      -5.730   1.515  -0.928  1.00  0.00    -0.004 C 
HETATM   13  C1  UNL     1      -6.676   1.355  -0.037  1.00  0.00     0.076 C 
BRANCH  13  14
HETATM   14  N1  UNL     1      -8.011   1.704   0.208  1.00  0.00    -0.408 N 
HETATM   15  H1  UNL     1      -8.841   1.273  -0.279  1.00  0.00     0.155 HD
HETATM   16  H2  UNL     1      -8.084   2.458   0.947  1.00  0.00     0.155 HD
ENDBRANCH  13  14
ENDBRANCH  11  12
ENDBRANCH  10  11
BRANCH  10  17
HETATM   17  C19 UNL     1      -4.132  -0.885  -0.210  1.00  0.00     0.006 A 
HETATM   18  C20 UNL     1      -3.670  -1.827   0.684  1.00  0.00     0.016 A 
HETATM   19  C21 UNL     1      -4.172  -3.094   0.874  1.00  0.00     0.020 A 
HETATM   20  C22 UNL     1      -5.246  -3.477   0.098  1.00  0.00     0.116 A 
HETATM   21  N5  UNL     1      -5.731  -2.578  -0.796  1.00  0.00    -0.272 NA
HETATM   22  C23 UNL     1      -5.200  -1.363  -0.933  1.00  0.00     0.129 A 
ENDBRANCH  10  17
ENDBRANCH   8   9
ENDBRANCH   1   8
BRANCH   5  23
HETATM   23  N4  UNL     1       4.072  -0.375   0.570  1.00  0.00    -0.323 N 
HETATM   24  C10 UNL     1       4.987   0.483  -0.107  1.00  0.00     0.256 C 
HETATM   25  O1  UNL     1       4.416   1.241  -0.947  1.00  0.00    -0.267 OA
HETATM   26  H12 UNL     1       4.431  -1.053   1.295  1.00  0.00     0.169 HD
BRANCH  24  27
HETATM   27  C11 UNL     1       6.413   0.476   0.148  1.00  0.00     0.032 A 
HETATM   28  C12 UNL     1       7.048  -0.344   1.060  1.00  0.00     0.020 A 
HETATM   29  C13 UNL     1       8.414  -0.303   1.258  1.00  0.00     0.043 A 
HETATM   30  C14 UNL     1       9.181   0.588   0.523  1.00  0.00     0.116 A 
HETATM   31  F1  UNL     1      10.528   0.635   0.711  1.00  0.00    -0.206 F 
HETATM   32  C15 UNL     1       8.537   1.405  -0.388  1.00  0.00     0.043 A 
HETATM   33  C16 UNL     1       7.169   1.373  -0.595  1.00  0.00     0.020 A 
ENDBRANCH  24  27
ENDBRANCH   5  23
TORSDOF 8
