REMARK  8 active torsions:
REMARK  status: ('A' for Active; 'I' for Inactive)
REMARK    1  A    between atoms: N1_1  and  C1_2 
REMARK    2  A    between atoms: C1_2  and  C2_3 
REMARK    3  A    between atoms: C2_3  and  C3_5 
REMARK    4  A    between atoms: C3_5  and  C4_6 
REMARK    5  A    between atoms: C4_6  and  C5_7 
REMARK    6  A    between atoms: C5_7  and  N2_8 
REMARK    7  A    between atoms: N2_8  and  C6_9 
REMARK    8  A    between atoms: C9_13  and  C10_14 
ROOT
HETATM    1  C6  UNL     1       0.309  -0.491   0.356  1.00  0.00     0.722 A 
HETATM    2  N3  UNL     1       0.007  -0.641   1.671  1.00  0.00    -0.075 NA
HETATM    3  C7  UNL     1       0.904  -0.309   2.630  1.00  0.00     0.139 A 
HETATM    4  C8  UNL     1       2.137   0.185   2.269  1.00  0.00     0.053 A 
HETATM    5  C9  UNL     1       2.457   0.341   0.939  1.00  0.00     0.089 A 
HETATM    6  N5  UNL     1       1.533  -0.002   0.047  1.00  0.00    -0.062 NA
ENDROOT
BRANCH   1   7
HETATM    7  N2  UNL     1      -0.610  -0.830  -0.659  1.00  0.00    -0.221 N 
HETATM    8  H8  UNL     1      -0.353  -0.706  -1.645  1.00  0.00     0.177 HD
BRANCH   7   9
HETATM    9  C5  UNL     1      -1.888  -1.344  -0.180  1.00  0.00     0.156 C 
BRANCH   9  10
HETATM   10  C4  UNL     1      -2.710  -1.640  -1.358  1.00  0.00     0.093 C 
BRANCH  10  11
HETATM   11  C3  UNL     1      -4.026  -1.649  -1.188  1.00  0.00    -0.127 C 
BRANCH  11  12
HETATM   12  C2  UNL     1      -5.284  -1.570  -0.771  1.00  0.00     0.080 C 
HETATM   13 CL1  UNL     1      -5.864  -3.106  -0.183  1.00  0.00    -0.078 Cl
BRANCH  12  14
HETATM   14  C1  UNL     1      -5.879  -0.242  -0.894  1.00  0.00     0.326 C 
BRANCH  14  15
HETATM   15  N1  UNL     1      -5.024   0.768  -1.447  1.00  0.00     0.083 N 
HETATM   16  H1  UNL     1      -4.057   0.788  -1.079  1.00  0.00     0.313 HD
HETATM   17  H2  UNL     1      -5.453   1.696  -1.238  1.00  0.00     0.313 HD
ENDBRANCH  14  15
ENDBRANCH  12  14
ENDBRANCH  11  12
ENDBRANCH  10  11
ENDBRANCH   9  10
ENDBRANCH   7   9
ENDBRANCH   1   7
BRANCH   5  18
HETATM   18  C10 UNL     1       3.737   0.856   0.471  1.00  0.00     0.011 A 
HETATM   19  C11 UNL     1       3.916   0.958  -0.897  1.00  0.00     0.017 A 
HETATM   20  C12 UNL     1       5.149   1.453  -1.283  1.00  0.00     0.020 A 
HETATM   21  C13 UNL     1       6.186   1.842  -0.466  1.00  0.00     0.116 A 
HETATM   22  N4  UNL     1       5.935   1.712   0.848  1.00  0.00    -0.272 NA
HETATM   23  C14 UNL     1       4.759   1.239   1.315  1.00  0.00     0.130 A 
ENDBRANCH   5  18
TORSDOF 8
