REMARK  5 active torsions:
REMARK  status: ('A' for Active; 'I' for Inactive)
REMARK    1  A    between atoms: N1_2  and  C2_3 
REMARK    2  A    between atoms: C3_4  and  C4_5 
REMARK    3  A    between atoms: C5_6  and  C6_7 
REMARK    4  A    between atoms: C9_11  and  N3_12 
REMARK    5  A    between atoms: N3_12  and  C10_13 
ROOT
HETATM    1  C6  UNL     1       1.052  -0.028   0.250  1.00  0.00     0.077 A 
HETATM    2  C7  UNL     1       0.884   1.294   0.491  1.00  0.00     0.052 A 
HETATM    3  C8  UNL     1      -0.288   1.998   0.347  1.00  0.00     0.139 A 
HETATM    4  N2  UNL     1      -1.305   1.228  -0.074  1.00  0.00    -0.075 NA
HETATM    5  C9  UNL     1      -1.228  -0.078  -0.334  1.00  0.00     0.727 A 
HETATM    6  N4  UNL     1      -0.044  -0.660  -0.161  1.00  0.00    -0.063 NA
ENDROOT
BRANCH   5   7
HETATM    7  N3  UNL     1      -2.316  -0.876  -0.779  1.00  0.00    -0.188 N 
HETATM    8  H9  UNL     1      -2.126  -1.892  -0.949  1.00  0.00     0.184 HD
BRANCH   7   9
HETATM    9  C10 UNL     1      -3.641  -0.463  -1.024  1.00  0.00     0.051 A 
HETATM   10  C11 UNL     1      -4.163   0.793  -0.886  1.00  0.00     0.030 A 
HETATM   11  C12 UNL     1      -5.462   1.178  -1.130  1.00  0.00     0.004 A 
HETATM   12  C13 UNL     1      -6.352   0.223  -1.559  1.00  0.00     0.024 A 
HETATM   13  C14 UNL     1      -5.896  -1.067  -1.720  1.00  0.00     0.036 A 
HETATM   14 CL1  UNL     1      -7.016  -2.297  -2.265  1.00  0.00    -0.084 Cl
HETATM   15  C15 UNL     1      -4.585  -1.387  -1.459  1.00  0.00     0.053 A 
ENDBRANCH   7   9
ENDBRANCH   5   7
BRANCH   1  16
HETATM   16  C5  UNL     1       2.256  -0.818   0.383  1.00  0.00     0.032 C 
HETATM   17  C4  UNL     1       3.480  -0.543   0.750  1.00  0.00     0.004 C 
BRANCH  17  18
HETATM   18  C3  UNL     1       4.524   0.344   1.203  1.00  0.00     0.019 C 
HETATM   19  C2  UNL     1       5.734   0.621   1.566  1.00  0.00     0.110 C 
BRANCH  19  20
HETATM   20  N1  UNL     1       6.073  -0.740   1.360  1.00  0.00    -0.300 NA
HETATM   21  C1  UNL     1       7.268  -1.214   1.425  1.00  0.00     0.170 C 
ENDBRANCH  19  20
ENDBRANCH  17  18
ENDBRANCH   1  16
TORSDOF 5
