REMARK  4 active torsions:
REMARK  status: ('A' for Active; 'I' for Inactive)
REMARK       I    between atoms: C1_2  and  N1_3 
REMARK    1  A    between atoms: C1_2  and  C16_22 
REMARK    2  A    between atoms: N1_3  and  C2_4 
REMARK    3  A    between atoms: N2_8  and  C6_9 
REMARK    4  A    between atoms: C9_13  and  C10_14 
ROOT
HETATM    1  C2  UNL     1      -1.649  -0.761   1.829  1.00  0.00     0.041 C 
HETATM    2  C3  UNL     1      -1.196  -0.476   3.044  1.00  0.00    -0.002 C 
HETATM    3  C4  UNL     1      -0.399   0.582   3.032  1.00  0.00     0.008 C 
HETATM    4  C5  UNL     1       0.800   0.369   2.214  1.00  0.00     0.170 C 
HETATM    5  N2  UNL     1       0.623  -0.645   1.190  1.00  0.00    -0.205 N 
HETATM    6  C15 UNL     1      -0.588  -1.452   1.098  1.00  0.00     0.199 C 
ENDROOT
BRANCH   5   7
HETATM    7  C6  UNL     1       1.666  -0.856   0.250  1.00  0.00     0.725 A 
HETATM    8  N3  UNL     1       1.578  -1.767  -0.735  1.00  0.00    -0.075 NA
HETATM    9  C7  UNL     1       2.515  -2.011  -1.639  1.00  0.00     0.139 A 
HETATM   10  C8  UNL     1       3.681  -1.255  -1.552  1.00  0.00     0.053 A 
HETATM   11  C9  UNL     1       3.820  -0.307  -0.560  1.00  0.00     0.089 A 
HETATM   12  N5  UNL     1       2.805  -0.145   0.303  1.00  0.00    -0.062 NA
BRANCH  11  13
HETATM   13  C10 UNL     1       5.026   0.502  -0.438  1.00  0.00     0.011 A 
HETATM   14  C11 UNL     1       6.118   0.429  -1.250  1.00  0.00     0.017 A 
HETATM   15  C12 UNL     1       7.202   1.261  -1.019  1.00  0.00     0.020 A 
HETATM   16  C13 UNL     1       7.262   2.179  -0.008  1.00  0.00     0.116 A 
HETATM   17  N4  UNL     1       6.163   2.243   0.798  1.00  0.00    -0.272 NA
HETATM   18  C14 UNL     1       5.116   1.437   0.574  1.00  0.00     0.130 A 
ENDBRANCH  11  13
ENDBRANCH   5   7
BRANCH   1  19
HETATM   19  N1  UNL     1      -2.968  -0.396   1.443  1.00  0.00    -0.324 N 
HETATM   20  C1  UNL     1      -3.625  -0.611   0.203  1.00  0.00     0.256 C 
HETATM   21  O1  UNL     1      -2.931  -1.210  -0.666  1.00  0.00    -0.267 OA
HETATM   22  H1  UNL     1      -3.540   0.099   2.162  1.00  0.00     0.169 HD
BRANCH  20  23
HETATM   23  C16 UNL     1      -4.993  -0.174  -0.041  1.00  0.00     0.032 A 
HETATM   24  C17 UNL     1      -5.843   0.486   0.807  1.00  0.00     0.020 A 
HETATM   25  C18 UNL     1      -7.119   0.840   0.445  1.00  0.00     0.043 A 
HETATM   26  C19 UNL     1      -7.614   0.538  -0.824  1.00  0.00     0.116 A 
HETATM   27  F1  UNL     1      -8.886   0.939  -1.061  1.00  0.00    -0.206 F 
HETATM   28  C20 UNL     1      -6.793  -0.124  -1.706  1.00  0.00     0.043 A 
HETATM   29  C21 UNL     1      -5.526  -0.459  -1.304  1.00  0.00     0.020 A 
ENDBRANCH  20  23
ENDBRANCH   1  19
TORSDOF 4
