REMARK  8 active torsions:
REMARK  status: ('A' for Active; 'I' for Inactive)
REMARK    1  A    between atoms: C2_2  and  C3_3 
REMARK    2  A    between atoms: C3_3  and  N2_16 
REMARK    3  A    between atoms: C4_4  and  C5_5 
REMARK    4  A    between atoms: C5_5  and  N1_6 
REMARK       I    between atoms: N1_6  and  C6_7 
REMARK    5  A    between atoms: C6_7  and  C7_9 
REMARK    6  A    between atoms: N2_16  and  C13_17 
REMARK    7  A    between atoms: N3_18  and  C14_19 
REMARK    8  A    between atoms: C15_20  and  C16_21 
ROOT
HETATM    1  C3  UNL     1      -0.467   0.031   0.821  1.00  0.00     0.007 C 
HETATM    2  C4  UNL     1       0.714  -0.593   0.972  1.00  0.00     0.017 C 
ENDROOT
BRANCH   1   3
HETATM    3  C2  UNL     1      -1.288  -0.378  -0.317  1.00  0.00     0.052 C 
HETATM    4  C1  UNL     1      -0.668  -1.551  -1.064  1.00  0.00     0.011 C 
ENDBRANCH   1   3
BRANCH   1   5
HETATM    5  N2  UNL     1      -0.410   0.887   1.939  1.00  0.00    -0.354 N 
HETATM    6  H14 UNL     1      -0.250   0.661   2.950  1.00  0.00     0.166 HD
BRANCH   5   7
HETATM    7  C13 UNL     1      -0.594   2.266   1.669  1.00  0.00     0.206 C 
HETATM    8  N3  UNL     1      -1.590   2.846   1.138  1.00  0.00    -0.256 NA
BRANCH   8   9
HETATM    9  C14 UNL     1      -2.724   2.126   0.722  1.00  0.00     0.120 C 
HETATM   10  C15 UNL     1      -3.535   1.635   1.673  1.00  0.00     0.052 C 
BRANCH  10  11
HETATM   11  C16 UNL     1      -4.783   0.849   1.577  1.00  0.00     0.074 A 
HETATM   12  N4  UNL     1      -5.735   0.263   2.225  1.00  0.00    -0.228 NA
HETATM   13  C17 UNL     1      -6.382  -0.165   1.040  1.00  0.00     0.162 A 
HETATM   14  N5  UNL     1      -7.419  -0.826   0.502  1.00  0.00    -0.241 NA
HETATM   15  C21 UNL     1      -5.378   0.452   0.305  1.00  0.00     0.041 A 
HETATM   16  C18 UNL     1      -7.564  -0.942  -0.836  1.00  0.00     0.119 A 
HETATM   17  C19 UNL     1      -6.609  -0.357  -1.637  1.00  0.00     0.020 A 
HETATM   18  C20 UNL     1      -5.547   0.321  -1.075  1.00  0.00     0.019 A 
ENDBRANCH  10  11
ENDBRANCH   8   9
ENDBRANCH   5   7
ENDBRANCH   1   5
BRANCH   2  19
HETATM   19  C5  UNL     1       1.901  -0.584   1.903  1.00  0.00     0.152 C 
BRANCH  19  20
HETATM   20  N1  UNL     1       3.129  -0.262   1.251  1.00  0.00    -0.353 N 
HETATM   21  C6  UNL     1       3.775  -0.948   0.191  1.00  0.00     0.251 C 
HETATM   22  O1  UNL     1       3.197  -1.991  -0.248  1.00  0.00    -0.268 OA
HETATM   23  H9  UNL     1       3.691   0.592   1.544  1.00  0.00     0.163 HD
BRANCH  21  24
HETATM   24  C7  UNL     1       5.033  -0.545  -0.420  1.00  0.00     0.032 A 
HETATM   25  C8  UNL     1       5.778   0.538  -0.069  1.00  0.00     0.020 A 
HETATM   26  C9  UNL     1       6.970   0.920  -0.647  1.00  0.00     0.043 A 
HETATM   27  C10 UNL     1       7.476   0.151  -1.680  1.00  0.00     0.116 A 
HETATM   28  F1  UNL     1       8.645   0.536  -2.238  1.00  0.00    -0.206 F 
HETATM   29  C11 UNL     1       6.754  -0.956  -2.069  1.00  0.00     0.043 A 
HETATM   30  C12 UNL     1       5.568  -1.287  -1.451  1.00  0.00     0.020 A 
ENDBRANCH  21  24
ENDBRANCH  19  20
ENDBRANCH   2  19
TORSDOF 8
