REMARK  6 active torsions:
REMARK  status: ('A' for Active; 'I' for Inactive)
REMARK       I    between atoms: C1_2  and  N1_3 
REMARK    1  A    between atoms: C1_2  and  C17_23 
REMARK    2  A    between atoms: N1_3  and  C2_4 
REMARK    3  A    between atoms: C2_4  and  C3_5 
REMARK    4  A    between atoms: C4_6  and  N2_7 
REMARK    5  A    between atoms: N2_7  and  C5_8 
REMARK    6  A    between atoms: C8_12  and  C9_13 
ROOT
HETATM    1  C3  UNL     1       0.899   0.249   0.869  1.00  0.00    -0.032 A 
HETATM    2  C4  UNL     1      -0.118  -0.644   0.815  1.00  0.00     0.053 A 
HETATM    3  C14 UNL     1      -0.601  -1.097   2.117  1.00  0.00     0.026 A 
HETATM    4  C15 UNL     1       0.168  -0.444   2.956  1.00  0.00    -0.020 A 
HETATM    5  C16 UNL     1       1.176   0.451   2.299  1.00  0.00     0.065 A 
ENDROOT
BRANCH   2   6
HETATM    6  N2  UNL     1      -0.758  -1.172  -0.371  1.00  0.00    -0.188 N 
HETATM    7  H4  UNL     1      -0.451  -1.973  -0.997  1.00  0.00     0.184 HD
BRANCH   6   8
HETATM    8  C5  UNL     1      -1.952  -0.484  -0.685  1.00  0.00     0.727 A 
HETATM    9  N3  UNL     1      -1.801   0.652  -1.416  1.00  0.00    -0.075 NA
HETATM   10  C6  UNL     1      -2.849   1.396  -1.785  1.00  0.00     0.139 A 
HETATM   11  C7  UNL     1      -4.152   1.099  -1.475  1.00  0.00     0.053 A 
HETATM   12  C8  UNL     1      -4.279  -0.075  -0.723  1.00  0.00     0.089 A 
HETATM   13  N5  UNL     1      -3.214  -0.796  -0.368  1.00  0.00    -0.062 NA
BRANCH  12  14
HETATM   14  C9  UNL     1      -5.595  -0.541  -0.317  1.00  0.00     0.011 A 
HETATM   15  C10 UNL     1      -6.770   0.102  -0.622  1.00  0.00     0.017 A 
HETATM   16  C11 UNL     1      -7.985  -0.407  -0.191  1.00  0.00     0.020 A 
HETATM   17  C12 UNL     1      -8.087  -1.571   0.558  1.00  0.00     0.116 A 
HETATM   18  N4  UNL     1      -6.930  -2.159   0.830  1.00  0.00    -0.272 NA
HETATM   19  C13 UNL     1      -5.738  -1.691   0.427  1.00  0.00     0.130 A 
ENDBRANCH  12  14
ENDBRANCH   6   8
ENDBRANCH   2   6
BRANCH   1  20
HETATM   20  C2  UNL     1       1.466   0.783  -0.396  1.00  0.00     0.159 C 
BRANCH  20  21
HETATM   21  N1  UNL     1       2.867   0.524  -0.544  1.00  0.00    -0.353 N 
HETATM   22  C1  UNL     1       3.980   0.943   0.221  1.00  0.00     0.251 C 
HETATM   23  O1  UNL     1       3.731   1.685   1.219  1.00  0.00    -0.268 OA
HETATM   24  H1  UNL     1       3.200  -0.085  -1.352  1.00  0.00     0.163 HD
BRANCH  22  25
HETATM   25  C17 UNL     1       5.372   0.611  -0.021  1.00  0.00     0.032 A 
HETATM   26  C18 UNL     1       5.723  -0.175  -1.067  1.00  0.00     0.020 A 
HETATM   27  C19 UNL     1       7.072  -0.457  -1.253  1.00  0.00     0.043 A 
HETATM   28  C20 UNL     1       8.114  -0.001  -0.454  1.00  0.00     0.116 A 
HETATM   29  F1  UNL     1       9.388  -0.317  -0.701  1.00  0.00    -0.206 F 
HETATM   30  C21 UNL     1       7.697   0.804   0.609  1.00  0.00     0.043 A 
HETATM   31  C22 UNL     1       6.363   1.089   0.802  1.00  0.00     0.020 A 
ENDBRANCH  22  25
ENDBRANCH  20  21
ENDBRANCH   1  20
TORSDOF 6
