REMARK  7 active torsions:
REMARK  status: ('A' for Active; 'I' for Inactive)
REMARK    1  A    between atoms: C7_8  and  C8_9 
REMARK       I    between atoms: C8_9  and  N1_11 
REMARK    2  A    between atoms: N1_11  and  C9_12 
REMARK    3  A    between atoms: C13_16  and  N2_17 
REMARK    4  A    between atoms: N2_17  and  C14_18 
REMARK    5  A    between atoms: C16_21  and  C17_22 
REMARK    6  A    between atoms: C17_22  and  C18_23 
REMARK    7  A    between atoms: C19_24  and  N4_25 
ROOT
HETATM    1  C9  UNL     1      -1.870   0.732  -0.713  1.00  0.00     0.037 A 
HETATM    2  C10 UNL     1      -1.547   1.770  -1.564  1.00  0.00     0.029 A 
HETATM    3  C11 UNL     1      -0.191   2.099  -1.684  1.00  0.00     0.004 A 
HETATM    4  C12 UNL     1       0.735   1.380  -0.959  1.00  0.00     0.030 A 
HETATM    5  C13 UNL     1       0.427   0.344  -0.109  1.00  0.00     0.051 A 
HETATM    6  C20 UNL     1      -0.931   0.024   0.004  1.00  0.00     0.059 A 
ENDROOT
BRANCH   5   7
HETATM    7  N2  UNL     1       1.366  -0.406   0.644  1.00  0.00    -0.188 N 
HETATM    8  H11 UNL     1       1.025  -1.162   1.285  1.00  0.00     0.184 HD
BRANCH   7   9
HETATM    9  C14 UNL     1       2.766  -0.176   0.569  1.00  0.00     0.722 A 
HETATM   10  N3  UNL     1       3.385   0.079  -0.550  1.00  0.00    -0.100 NA
HETATM   11  C15 UNL     1       4.804   0.260  -0.255  1.00  0.00     0.224 A 
HETATM   12  C16 UNL     1       4.883   0.066   1.220  1.00  0.00     0.055 A 
HETATM   13  N5  UNL     1       3.685  -0.182   1.644  1.00  0.00    -0.070 NA
BRANCH  12  14
HETATM   14  C17 UNL     1       6.179   0.169   1.940  1.00  0.00     0.085 C 
BRANCH  14  15
HETATM   15  C18 UNL     1       7.130  -0.823   1.438  1.00  0.00    -0.004 C 
HETATM   16  C19 UNL     1       8.292  -0.474   0.893  1.00  0.00     0.076 C 
BRANCH  16  17
HETATM   17  N4  UNL     1       9.221  -1.432   0.403  1.00  0.00    -0.408 N 
HETATM   18  H18 UNL     1       9.552  -2.237  -0.173  1.00  0.00     0.155 HD
HETATM   19  H19 UNL     1      10.198  -1.385   0.798  1.00  0.00     0.155 HD
ENDBRANCH  16  17
ENDBRANCH  14  15
ENDBRANCH  12  14
ENDBRANCH   7   9
ENDBRANCH   5   7
BRANCH   1  20
HETATM   20  N1  UNL     1      -3.254   0.450  -0.634  1.00  0.00    -0.323 N 
HETATM   21  C8  UNL     1      -4.090  -0.428  -1.385  1.00  0.00     0.256 C 
HETATM   22  O1  UNL     1      -3.418  -1.026  -2.253  1.00  0.00    -0.267 OA
HETATM   23  H7  UNL     1      -3.530   1.083   0.161  1.00  0.00     0.169 HD
BRANCH  21  24
HETATM   24  C7  UNL     1      -5.502  -0.431  -0.981  1.00  0.00     0.038 A 
HETATM   25  C2  UNL     1      -5.930  -0.791   0.281  1.00  0.00    -0.043 A 
HETATM   26  C1  UNL     1      -4.891  -1.199   1.286  1.00  0.00     0.049 C 
HETATM   27  C3  UNL     1      -7.271  -0.783   0.635  1.00  0.00     0.050 A 
HETATM   28  C4  UNL     1      -8.216  -0.400  -0.313  1.00  0.00     0.117 A 
HETATM   29  F1  UNL     1      -9.547  -0.374  -0.023  1.00  0.00    -0.206 F 
HETATM   30  C5  UNL     1      -7.831  -0.030  -1.596  1.00  0.00     0.043 A 
HETATM   31  C6  UNL     1      -6.472  -0.051  -1.911  1.00  0.00     0.020 A 
ENDBRANCH  21  24
ENDBRANCH   1  20
TORSDOF 7
