REMARK  4 active torsions:
REMARK  status: ('A' for Active; 'I' for Inactive)
REMARK    1  A    between atoms: C2_2  and  C19_23 
REMARK    2  A    between atoms: C7_7  and  N1_8 
REMARK    3  A    between atoms: N1_8  and  C8_9 
REMARK    4  A    between atoms: C11_13  and  C12_14 
ROOT
HETATM    1  N1  UNL     1      -1.089  -0.206  -1.418  1.00  0.00    -0.188 N 
HETATM    2  H6  UNL     1      -1.563  -0.046  -2.332  1.00  0.00     0.184 HD
ENDROOT
BRANCH   1   3
HETATM    3  C7  UNL     1       0.289  -0.455  -1.124  1.00  0.00     0.052 A 
HETATM    4  C6  UNL     1       0.847  -1.694  -0.682  1.00  0.00     0.027 A 
HETATM    5  C5  UNL     1       2.124  -1.566  -0.491  1.00  0.00    -0.010 A 
HETATM    6  C4  UNL     1       2.582  -0.191  -0.795  1.00  0.00     0.009 A 
HETATM    7  C3  UNL     1       3.790   0.427  -0.688  1.00  0.00     0.019 A 
HETATM    8  C17 UNL     1       1.283   0.406  -1.191  1.00  0.00    -0.044 A 
HETATM    9  C1  UNL     1       4.064   0.166  -0.539  1.00  0.00     0.039 A 
HETATM   10  C2  UNL     1       4.876  -0.608  -0.098  1.00  0.00     0.006 A 
HETATM   11  C18 UNL     1       1.053   1.811  -1.628  1.00  0.00     0.047 C 
BRANCH  10  12
HETATM   12  C19 UNL     1       6.191   0.080   0.268  1.00  0.00    -0.048 A 
HETATM   13  C20 UNL     1       7.291  -0.394   0.760  1.00  0.00     0.008 A 
HETATM   14  C21 UNL     1       7.954   0.935   0.776  1.00  0.00     0.001 A 
HETATM   15  C22 UNL     1       6.799   1.413   0.263  1.00  0.00     0.008 A 
ENDBRANCH  10  12
ENDBRANCH   1   3
BRANCH   1  16
HETATM   16  C8  UNL     1      -1.696  -0.229  -0.066  1.00  0.00     0.727 A 
HETATM   17  N2  UNL     1      -1.095  -0.413   1.042  1.00  0.00    -0.075 NA
HETATM   18  C9  UNL     1      -1.862  -0.488   2.209  1.00  0.00     0.139 A 
HETATM   19  C10 UNL     1      -3.273  -0.368   2.174  1.00  0.00     0.053 A 
HETATM   20  C11 UNL     1      -3.823  -0.171   0.895  1.00  0.00     0.089 A 
HETATM   21  N4  UNL     1      -3.068  -0.094  -0.253  1.00  0.00    -0.062 NA
BRANCH  20  22
HETATM   22  C12 UNL     1      -5.256  -0.113   0.714  1.00  0.00     0.011 A 
HETATM   23  C13 UNL     1      -5.793   0.014  -0.535  1.00  0.00     0.017 A 
HETATM   24  C14 UNL     1      -7.066   0.068  -1.010  1.00  0.00     0.020 A 
HETATM   25  C15 UNL     1      -8.001  -0.033   0.088  1.00  0.00     0.116 A 
HETATM   26  N3  UNL     1      -7.640  -0.168   1.443  1.00  0.00    -0.272 NA
HETATM   27  C16 UNL     1      -6.244  -0.192   1.601  1.00  0.00     0.130 A 
ENDBRANCH  20  22
ENDBRANCH   1  16
TORSDOF 4
