REMARK  2 active torsions:
REMARK  status: ('A' for Active; 'I' for Inactive)
REMARK    1  A    between atoms: C6_6  and  N1_8 
REMARK    2  A    between atoms: N1_8  and  C8_9 
ROOT
HETATM    1  C8  UNL     1      -0.220   0.079   1.170  1.00  0.00     0.058 C 
HETATM    2  C9  UNL     1       0.362  -0.748   2.001  1.00  0.00     0.031 C 
HETATM    3  C10 UNL     1       1.211  -1.586   2.822  1.00  0.00    -0.000 C 
HETATM    4  C11 UNL     1       2.523  -1.714   2.872  1.00  0.00    -0.007 C 
HETATM    5  C12 UNL     1       3.354  -0.895   1.984  1.00  0.00     0.165 C 
HETATM    6  N2  UNL     1       4.069  -1.629   0.964  1.00  0.00    -0.219 N 
HETATM    7  C13 UNL     1       4.571  -0.964  -0.179  1.00  0.00     0.722 A 
HETATM    8  N3  UNL     1       5.540  -0.874  -1.078  1.00  0.00    -0.075 NA
HETATM    9  C14 UNL     1       5.465   0.044  -2.071  1.00  0.00     0.138 A 
HETATM   10  C15 UNL     1       4.401   0.909  -2.193  1.00  0.00     0.048 A 
HETATM   11  C16 UNL     1       3.416   0.786  -1.239  1.00  0.00     0.068 A 
HETATM   12  N4  UNL     1       3.583  -0.134  -0.320  1.00  0.00    -0.067 NA
HETATM   13  C17 UNL     1       2.154   1.300  -0.734  1.00  0.00     0.104 C 
HETATM   14  C18 UNL     1       1.279   2.071  -1.605  1.00  0.00     0.105 C 
HETATM   15  N5  UNL     1       0.393   2.139  -0.628  1.00  0.00    -0.262 NA
HETATM   16  C19 UNL     1       0.298   0.944   0.114  1.00  0.00     0.079 C 
HETATM   17  C20 UNL     1       1.182   0.166  -0.485  1.00  0.00     0.023 C 
HETATM   18  H16 UNL     1       4.403  -2.569   0.698  1.00  0.00     0.178 HD
ENDROOT
BRANCH   1  19
HETATM   19  N1  UNL     1      -1.611   0.369   0.983  1.00  0.00    -0.369 N 
HETATM   20  H10 UNL     1      -1.952   1.273   1.414  1.00  0.00     0.161 HD
BRANCH  19  21
HETATM   21  C6  UNL     1      -2.582  -0.439   0.288  1.00  0.00     0.110 A 
HETATM   22  C5  UNL     1      -2.140  -0.584  -1.120  1.00  0.00     0.012 A 
HETATM   23  C4  UNL     1      -2.866  -0.167  -2.170  1.00  0.00    -0.001 A 
HETATM   24  C3  UNL     1      -4.175   0.473  -1.964  1.00  0.00     0.010 A 
HETATM   25  C2  UNL     1      -4.709   0.673  -0.770  1.00  0.00    -0.013 A 
HETATM   26  C1  UNL     1      -6.032   1.323  -0.604  1.00  0.00     0.052 C 
HETATM   27  C21 UNL     1      -3.915   0.209   0.358  1.00  0.00     0.186 A 
HETATM   28  O1  UNL     1      -4.404   0.371   1.514  1.00  0.00    -0.290 OA
HETATM   29  C7  UNL     1      -2.741  -1.802   0.938  1.00  0.00     0.052 C 
ENDBRANCH  19  21
ENDBRANCH   1  19
TORSDOF 2
