REMARK  7 active torsions:
REMARK  status: ('A' for Active; 'I' for Inactive)
REMARK       I    between atoms: C1_2  and  N1_3 
REMARK    1  A    between atoms: C1_2  and  C16_22 
REMARK    2  A    between atoms: N1_3  and  C2_4 
REMARK    3  A    between atoms: C3_5  and  C4_6 
REMARK    4  A    between atoms: C5_7  and  C6_8 
REMARK    5  A    between atoms: C6_8  and  N2_9 
REMARK    6  A    between atoms: N2_9  and  C7_10 
REMARK    7  A    between atoms: C10_14  and  C11_15 
ROOT
HETATM    1  C4  UNL     1       0.187  -0.437   2.554  1.00  0.00     0.064 C 
HETATM    2  C5  UNL     1      -0.334  -1.648   2.319  1.00  0.00     0.002 C 
ENDROOT
BRANCH   2   3
HETATM    3  C6  UNL     1      -1.665  -2.253   2.576  1.00  0.00     0.166 C 
BRANCH   3   4
HETATM    4  N2  UNL     1      -2.240  -2.665   1.300  1.00  0.00    -0.219 N 
HETATM    5  H6  UNL     1      -2.521  -3.632   1.002  1.00  0.00     0.178 HD
BRANCH   4   6
HETATM    6  C7  UNL     1      -2.470  -1.678   0.301  1.00  0.00     0.723 A 
HETATM    7  N3  UNL     1      -1.590  -1.283  -0.649  1.00  0.00    -0.075 NA
HETATM    8  C8  UNL     1      -1.950  -0.331  -1.536  1.00  0.00     0.139 A 
HETATM    9  C9  UNL     1      -3.222   0.195  -1.418  1.00  0.00     0.053 A 
HETATM   10  C10 UNL     1      -4.134  -0.190  -0.461  1.00  0.00     0.089 A 
HETATM   11  N5  UNL     1      -3.700  -1.150   0.393  1.00  0.00    -0.062 NA
BRANCH  10  12
HETATM   12  C11 UNL     1      -5.473   0.379  -0.356  1.00  0.00     0.011 A 
HETATM   13  C12 UNL     1      -5.993   1.354  -1.179  1.00  0.00     0.017 A 
HETATM   14  C13 UNL     1      -7.289   1.810  -0.972  1.00  0.00     0.020 A 
HETATM   15  C14 UNL     1      -8.080   1.306   0.048  1.00  0.00     0.116 A 
HETATM   16  N4  UNL     1      -7.554   0.358   0.836  1.00  0.00    -0.272 NA
HETATM   17  C15 UNL     1      -6.299  -0.089   0.641  1.00  0.00     0.130 A 
ENDBRANCH  10  12
ENDBRANCH   4   6
ENDBRANCH   3   4
ENDBRANCH   2   3
BRANCH   1  18
HETATM   18  C3  UNL     1       1.545  -0.175   2.169  1.00  0.00    -0.056 C 
HETATM   19  C2  UNL     1       2.696   0.027   1.835  1.00  0.00     0.018 C 
BRANCH  19  20
HETATM   20  N1  UNL     1       4.031   0.239   1.457  1.00  0.00    -0.281 N 
HETATM   21  C1  UNL     1       4.418   0.386   0.097  1.00  0.00     0.263 C 
HETATM   22  O1  UNL     1       3.447   0.307  -0.703  1.00  0.00    -0.267 OA
HETATM   23  H1  UNL     1       4.751   0.286   2.213  1.00  0.00     0.179 HD
BRANCH  21  24
HETATM   24  C16 UNL     1       5.822   0.609  -0.308  1.00  0.00     0.033 A 
HETATM   25  C17 UNL     1       6.885   0.695   0.568  1.00  0.00     0.020 A 
HETATM   26  C18 UNL     1       8.151   0.905   0.060  1.00  0.00     0.043 A 
HETATM   27  C19 UNL     1       8.364   1.030  -1.297  1.00  0.00     0.116 A 
HETATM   28  F1  UNL     1       9.571   1.237  -1.875  1.00  0.00    -0.206 F 
HETATM   29  C20 UNL     1       7.302   0.944  -2.181  1.00  0.00     0.043 A 
HETATM   30  C21 UNL     1       6.008   0.731  -1.690  1.00  0.00     0.020 A 
ENDBRANCH  21  24
ENDBRANCH  19  20
ENDBRANCH   1  18
TORSDOF 7
