REMARK  8 active torsions:
REMARK  status: ('A' for Active; 'I' for Inactive)
REMARK    1  A    between atoms: N1_1  and  C1_2 
REMARK    2  A    between atoms: C1_2  and  C2_3 
REMARK    3  A    between atoms: C2_3  and  C3_4 
REMARK    4  A    between atoms: C3_4  and  N2_5 
REMARK    5  A    between atoms: C7_9  and  C8_10 
REMARK    6  A    between atoms: C11_14  and  N4_15 
REMARK    7  A    between atoms: N4_15  and  C12_16 
REMARK    8  A    between atoms: C16_20  and  O1_21 
ROOT
HETATM    1  C8  UNL     1       0.970   0.050   1.124  1.00  0.00     0.088 A 
HETATM    2  C9  UNL     1       1.273   0.003   2.491  1.00  0.00     0.053 A 
HETATM    3  C10 UNL     1       2.424  -0.697   2.846  1.00  0.00     0.139 A 
HETATM    4  N3  UNL     1       3.209  -1.302   1.919  1.00  0.00    -0.075 NA
HETATM    5  C11 UNL     1       2.881  -1.234   0.595  1.00  0.00     0.727 A 
HETATM    6  N5  UNL     1       1.763  -0.555   0.241  1.00  0.00    -0.062 NA
ENDROOT
BRANCH   1   7
HETATM    7  C7  UNL     1      -0.220   0.784   0.730  1.00  0.00     0.002 A 
HETATM    8  C6  UNL     1      -1.022   0.304  -0.195  1.00  0.00    -0.018 A 
HETATM    9  C5  UNL     1      -1.392  -0.730  -1.164  1.00  0.00     0.027 C 
HETATM   10  C20 UNL     1      -2.199   1.214  -0.470  1.00  0.00     0.141 A 
HETATM   11  C4  UNL     1      -2.740  -0.685  -1.216  1.00  0.00     0.087 C 
HETATM   12  N2  UNL     1      -3.308   0.318  -0.347  1.00  0.00    -0.378 N 
HETATM   13  C19 UNL     1      -1.999   2.277   0.475  1.00  0.00     0.004 A 
HETATM   14  C18 UNL     1      -0.873   2.038   1.145  1.00  0.00     0.013 A 
BRANCH  12  15
HETATM   15  C3  UNL     1      -4.375   0.742   0.489  1.00  0.00     0.125 C 
BRANCH  15  16
HETATM   16  C2  UNL     1      -5.570  -0.138   0.591  1.00  0.00     0.049 C 
BRANCH  16  17
HETATM   17  C1  UNL     1      -6.310  -0.371  -0.688  1.00  0.00     0.268 C 
BRANCH  17  18
HETATM   18  N1  UNL     1      -7.467  -1.244  -0.456  1.00  0.00     0.078 N 
HETATM   19  H1  UNL     1      -7.620  -1.803  -1.318  1.00  0.00     0.312 HD
HETATM   20  H2  UNL     1      -7.212  -1.882   0.306  1.00  0.00     0.312 HD
ENDBRANCH  17  18
ENDBRANCH  16  17
ENDBRANCH  15  16
ENDBRANCH  12  15
ENDBRANCH   1   7
BRANCH   5  21
HETATM   21  N4  UNL     1       3.579  -1.799  -0.508  1.00  0.00    -0.188 N 
HETATM   22  H13 UNL     1       3.420  -2.709  -0.991  1.00  0.00     0.184 HD
BRANCH  21  23
HETATM   23  C12 UNL     1       4.646  -1.022  -1.037  1.00  0.00     0.052 A 
HETATM   24  C13 UNL     1       5.399  -1.382  -2.148  1.00  0.00     0.030 A 
HETATM   25  C14 UNL     1       6.432  -0.643  -2.658  1.00  0.00     0.005 A 
HETATM   26  C15 UNL     1       6.776   0.548  -2.051  1.00  0.00     0.036 A 
HETATM   27  C16 UNL     1       6.081   0.983  -0.942  1.00  0.00     0.067 A 
HETATM   28  C17 UNL     1       5.054   0.188  -0.484  1.00  0.00     0.066 A 
BRANCH  27  29
HETATM   29  O1  UNL     1       6.360   2.181  -0.257  1.00  0.00    -0.361 OA
HETATM   30  H17 UNL     1       6.556   2.068   0.746  1.00  0.00     0.217 HD
ENDBRANCH  27  29
ENDBRANCH  21  23
ENDBRANCH   5  21
TORSDOF 8
