REMARK  7 active torsions:
REMARK  status: ('A' for Active; 'I' for Inactive)
REMARK       I    between atoms: C1_2  and  N1_3 
REMARK    1  A    between atoms: C1_2  and  C15_21 
REMARK    2  A    between atoms: N1_3  and  C2_4 
REMARK    3  A    between atoms: C3_5  and  C4_6 
REMARK    4  A    between atoms: C5_7  and  C6_8 
REMARK    5  A    between atoms: C6_8  and  N2_9 
REMARK    6  A    between atoms: N2_9  and  C7_10 
REMARK    7  A    between atoms: C10_14  and  C11_15 
ROOT
HETATM    1  C4  UNL     1       1.784  -0.607  -0.850  1.00  0.00    -0.001 C 
HETATM    2  C5  UNL     1       0.521  -0.238  -1.029  1.00  0.00    -0.007 C 
ENDROOT
BRANCH   2   3
HETATM    3  C6  UNL     1      -0.620  -1.185  -0.964  1.00  0.00     0.165 C 
BRANCH   3   4
HETATM    4  N2  UNL     1      -1.513  -0.763   0.107  1.00  0.00    -0.219 N 
HETATM    5  H8  UNL     1      -1.624  -1.391   0.961  1.00  0.00     0.178 HD
BRANCH   4   6
HETATM    6  C7  UNL     1      -2.367   0.326   0.418  1.00  0.00     0.723 A 
HETATM    7  N3  UNL     1      -2.035   1.539   0.906  1.00  0.00    -0.075 NA
HETATM    8  C8  UNL     1      -2.981   2.469   1.167  1.00  0.00     0.139 A 
HETATM    9  C9  UNL     1      -4.295   2.137   0.919  1.00  0.00     0.054 A 
HETATM   10  C10 UNL     1      -4.680   0.904   0.420  1.00  0.00     0.102 A 
HETATM   11  N5  UNL     1      -3.684   0.048   0.191  1.00  0.00    -0.061 NA
BRANCH  10  12
HETATM   12  C11 UNL     1      -6.079   0.566   0.178  1.00  0.00     0.067 A 
HETATM   13  N4  UNL     1      -7.136   1.257   0.350  1.00  0.00    -0.263 NA
HETATM   14  C12 UNL     1      -8.306   0.537  -0.016  1.00  0.00     0.113 A 
HETATM   15  C13 UNL     1      -7.984  -0.687  -0.447  1.00  0.00    -0.001 A 
HETATM   16  C14 UNL     1      -6.514  -0.760  -0.355  1.00  0.00     0.090 A 
ENDBRANCH  10  12
ENDBRANCH   4   6
ENDBRANCH   3   4
ENDBRANCH   2   3
BRANCH   1  17
HETATM   17  C3  UNL     1       2.244  -1.956  -0.571  1.00  0.00     0.017 C 
HETATM   18  C2  UNL     1       3.541  -2.242  -0.398  1.00  0.00     0.091 C 
BRANCH  18  19
HETATM   19  N1  UNL     1       4.457  -1.161  -0.499  1.00  0.00    -0.333 N 
HETATM   20  C1  UNL     1       5.203  -0.922   0.677  1.00  0.00     0.255 C 
HETATM   21  O1  UNL     1       4.942  -1.706   1.642  1.00  0.00    -0.267 OA
HETATM   22  H1  UNL     1       4.637  -0.540  -1.319  1.00  0.00     0.168 HD
BRANCH  20  23
HETATM   23  C15 UNL     1       6.207   0.127   0.834  1.00  0.00     0.033 C 
HETATM   24  C16 UNL     1       6.527   0.975  -0.128  1.00  0.00     0.018 C 
HETATM   25  C17 UNL     1       7.556   2.008   0.120  1.00  0.00     0.014 C 
HETATM   26  C18 UNL     1       8.321   1.737   1.166  1.00  0.00    -0.014 C 
HETATM   27  C19 UNL     1       7.796   1.213   2.216  1.00  0.00    -0.013 C 
HETATM   28  C20 UNL     1       6.895   0.254   2.112  1.00  0.00     0.030 C 
ENDBRANCH  20  23
ENDBRANCH  18  19
ENDBRANCH   1  17
TORSDOF 7
