REMARK  12 active torsions:
REMARK  status: ('A' for Active; 'I' for Inactive)
REMARK    1  A    between atoms: N1_1  and  C1_2 
REMARK    2  A    between atoms: C1_2  and  C2_3 
REMARK    3  A    between atoms: C2_3  and  C3_4 
REMARK    4  A    between atoms: C3_4  and  N2_5 
REMARK    5  A    between atoms: C8_10  and  C9_11 
REMARK    6  A    between atoms: C10_12  and  C11_13 
REMARK    7  A    between atoms: C11_13  and  S1_14 
REMARK    8  A    between atoms: S1_14  and  C12_15 
REMARK    9  A    between atoms: C15_19  and  N4_20 
REMARK   10  A    between atoms: N4_20  and  C16_21 
REMARK   11  A    between atoms: C20_25  and  O1_26 
REMARK   12  A    between atoms: O1_26  and  C21_27 
ROOT
HETATM    1  C12 UNL     1      -2.694  -0.395  -0.959  1.00  0.00     0.125 A 
HETATM    2  C13 UNL     1      -3.325  -1.319  -1.760  1.00  0.00     0.060 A 
HETATM    3  C14 UNL     1      -4.650  -1.521  -1.464  1.00  0.00     0.139 A 
HETATM    4  N3  UNL     1      -5.186  -0.833  -0.467  1.00  0.00    -0.075 NA
HETATM    5  C15 UNL     1      -4.564   0.057   0.300  1.00  0.00     0.727 A 
HETATM    6  N5  UNL     1      -3.271   0.281   0.041  1.00  0.00    -0.055 NA
ENDROOT
BRANCH   1   7
HETATM    7  S1  UNL     1      -1.011  -0.082  -1.272  1.00  0.00    -0.027 SA
BRANCH   7   8
HETATM    8  C11 UNL     1       0.390   0.168  -1.544  1.00  0.00    -0.077 C 
BRANCH   8   9
HETATM    9  C10 UNL     1       1.719   0.422  -1.796  1.00  0.00     0.064 C 
HETATM   10  C9  UNL     1       2.581   0.424  -0.788  1.00  0.00     0.011 C 
BRANCH  10  11
HETATM   11  C8  UNL     1       3.959   0.688  -1.059  1.00  0.00     0.026 C 
HETATM   12  C7  UNL     1       4.896   0.709  -0.097  1.00  0.00     0.014 A 
HETATM   13  N2  UNL     1       6.293   0.962  -0.272  1.00  0.00    -0.360 N 
HETATM   14  C6  UNL     1       4.613   0.455   1.336  1.00  0.00     0.085 A 
HETATM   15  C4  UNL     1       6.835   0.861   1.024  1.00  0.00     0.087 A 
HETATM   16  C5  UNL     1       5.958   0.580   1.969  1.00  0.00    -0.004 A 
BRANCH  13  17
HETATM   17  C3  UNL     1       6.936   1.241  -1.528  1.00  0.00     0.130 C 
BRANCH  17  18
HETATM   18  C2  UNL     1       7.820   0.179  -2.068  1.00  0.00     0.050 C 
BRANCH  18  19
HETATM   19  C1  UNL     1       8.942  -0.162  -1.142  1.00  0.00     0.268 C 
BRANCH  19  20
HETATM   20  N1  UNL     1       9.816  -1.190  -1.698  1.00  0.00     0.078 N 
HETATM   21  H1  UNL     1      10.326  -0.846  -2.548  1.00  0.00     0.312 HD
HETATM   22  H2  UNL     1      10.450  -1.562  -0.978  1.00  0.00     0.312 HD
ENDBRANCH  19  20
ENDBRANCH  18  19
ENDBRANCH  17  18
ENDBRANCH  13  17
ENDBRANCH  10  11
ENDBRANCH   8   9
ENDBRANCH   7   8
ENDBRANCH   1   7
BRANCH   5  23
HETATM   23  N4  UNL     1      -5.206   0.761   1.357  1.00  0.00    -0.188 N 
HETATM   24  H18 UNL     1      -4.592   1.450   1.891  1.00  0.00     0.184 HD
BRANCH  23  25
HETATM   25  C16 UNL     1      -6.532   0.692   1.811  1.00  0.00     0.052 A 
HETATM   26  C17 UNL     1      -6.977   1.478   2.863  1.00  0.00     0.030 A 
HETATM   27  C18 UNL     1      -8.263   1.437   3.331  1.00  0.00     0.005 A 
HETATM   28  C19 UNL     1      -9.196   0.604   2.778  1.00  0.00     0.037 A 
HETATM   29  C20 UNL     1      -8.819  -0.199   1.735  1.00  0.00     0.074 A 
HETATM   30  C22 UNL     1      -7.515  -0.121   1.300  1.00  0.00     0.066 A 
BRANCH  29  31
HETATM   31  O1  UNL     1      -9.750  -1.059   1.151  1.00  0.00    -0.322 OA
BRANCH  31  32
HETATM   32  C21 UNL     1      -9.350  -1.897   0.061  1.00  0.00     0.398 C 
HETATM   33  F1  UNL     1     -10.452  -2.646  -0.334  1.00  0.00    -0.227 F 
ENDBRANCH  31  32
ENDBRANCH  29  31
ENDBRANCH  23  25
ENDBRANCH   5  23
TORSDOF 12
