REMARK  4 active torsions:
REMARK  status: ('A' for Active; 'I' for Inactive)
REMARK    1  A    between atoms: C5_6  and  C6_7 
REMARK    2  A    between atoms: C10_11  and  O1_12 
REMARK    3  A    between atoms: O1_12  and  C11_13 
REMARK    4  A    between atoms: C11_13  and  C12_16 
ROOT
HETATM    1  C6  UNL     1       0.725  -0.300   0.311  1.00  0.00     0.066 C 
HETATM    2  C7  UNL     1      -0.553  -0.546   1.101  1.00  0.00     0.042 C 
HETATM    3  C8  UNL     1      -1.188   0.661   1.624  1.00  0.00    -0.023 C 
HETATM    4  C9  UNL     1      -2.333   1.028   1.062  1.00  0.00     0.032 C 
HETATM    5  C10 UNL     1      -3.271   0.643   0.018  1.00  0.00     0.073 C 
HETATM    6  C13 UNL     1      -3.357  -0.350  -0.888  1.00  0.00     0.030 C 
HETATM    7  C14 UNL     1      -2.956  -1.567  -1.598  1.00  0.00     0.168 C 
HETATM    8  N2  UNL     1      -2.497  -1.250  -2.952  1.00  0.00    -0.219 N 
HETATM    9  C15 UNL     1      -1.314  -0.446  -2.591  1.00  0.00     0.722 A 
HETATM   10  N3  UNL     1      -0.828   0.460  -3.458  1.00  0.00    -0.075 NA
HETATM   11  C16 UNL     1       0.244   1.218  -3.166  1.00  0.00     0.138 A 
HETATM   12  C17 UNL     1       0.892   1.095  -1.955  1.00  0.00     0.048 A 
HETATM   13  C18 UNL     1       0.392   0.167  -1.070  1.00  0.00     0.063 A 
HETATM   14  N4  UNL     1      -0.663  -0.526  -1.454  1.00  0.00    -0.067 NA
HETATM   15  H18 UNL     1      -2.673  -1.366  -3.975  1.00  0.00     0.178 HD
ENDROOT
BRANCH   1  16
HETATM   16  C5  UNL     1       1.750   0.440   1.015  1.00  0.00     0.009 C 
HETATM   17  C4  UNL     1       3.053   0.249   1.098  1.00  0.00     0.002 C 
HETATM   18  N1  UNL     1       4.068   0.979   1.793  1.00  0.00    -0.393 N 
HETATM   19  C19 UNL     1       3.698  -0.892   0.388  1.00  0.00     0.062 C 
HETATM   20  C3  UNL     1       5.311   0.616   1.098  1.00  0.00     0.124 C 
HETATM   21  H7  UNL     1       3.826   1.593   2.597  1.00  0.00     0.159 HD
HETATM   22  C2  UNL     1       5.097  -0.881   0.964  1.00  0.00     0.005 C 
HETATM   23  C1  UNL     1       6.120  -1.502   0.067  1.00  0.00     0.012 C 
ENDBRANCH   1  16
BRANCH   5  24
HETATM   24  O1  UNL     1      -4.347   1.574  -0.019  1.00  0.00    -0.280 OA
BRANCH  24  25
HETATM   25  C11 UNL     1      -5.340   1.619   0.960  1.00  0.00     0.418 C 
HETATM   26  F1  UNL     1      -6.263   2.612   0.685  1.00  0.00    -0.169 F 
HETATM   27  F2  UNL     1      -4.800   1.820   2.207  1.00  0.00    -0.169 F 
BRANCH  25  28
HETATM   28  C12 UNL     1      -6.131   0.312   0.937  1.00  0.00     0.455 C 
HETATM   29  F3  UNL     1      -5.326  -0.771   1.183  1.00  0.00    -0.205 F 
HETATM   30  F4  UNL     1      -7.140   0.379   1.902  1.00  0.00    -0.205 F 
ENDBRANCH  25  28
ENDBRANCH  24  25
ENDBRANCH   5  24
TORSDOF 4
