REMARK  0 active torsions:
REMARK  status: ('A' for Active; 'I' for Inactive)
ROOT
HETATM    1  C1  UNL     1       4.916   0.746   1.519  1.00  0.00     0.149 C 
HETATM    2  N1  UNL     1       4.005   0.318   0.454  1.00  0.00    -0.384 N 
HETATM    3  C2  UNL     1       2.814   1.022   0.751  1.00  0.00     0.085 C 
HETATM    4  C3  UNL     1       1.945   1.773   0.132  1.00  0.00     0.017 C 
HETATM    5  C4  UNL     1       0.731   2.513   0.356  1.00  0.00    -0.001 C 
HETATM    6  C5  UNL     1      -0.118   2.808   1.300  1.00  0.00    -0.007 C 
HETATM    7  C6  UNL     1      -1.340   3.538   1.580  1.00  0.00     0.165 C 
HETATM    8  N2  UNL     1      -2.445   2.757   2.067  1.00  0.00    -0.219 N 
HETATM    9  C7  UNL     1      -3.023   1.678   1.353  1.00  0.00     0.722 A 
HETATM   10  N3  UNL     1      -3.833   2.045   0.348  1.00  0.00    -0.075 NA
HETATM   11  C8  UNL     1      -4.424   1.059  -0.381  1.00  0.00     0.138 A 
HETATM   12  C9  UNL     1      -4.166  -0.275  -0.056  1.00  0.00     0.048 A 
HETATM   13  C10 UNL     1      -3.327  -0.629   0.986  1.00  0.00     0.059 A 
HETATM   14  N4  UNL     1      -2.775   0.373   1.666  1.00  0.00    -0.067 NA
HETATM   15  C11 UNL     1      -3.031  -2.023   1.360  1.00  0.00     0.106 C 
HETATM   16  C12 UNL     1      -2.571  -2.694   0.093  1.00  0.00     0.089 C 
HETATM   17  N5  UNL     1      -1.883  -2.122  -0.806  1.00  0.00    -0.303 NA
HETATM   18  C13 UNL     1      -1.491  -2.845  -1.982  1.00  0.00     0.174 C 
HETATM   19  C14 UNL     1      -0.269  -2.212  -2.585  1.00  0.00     0.196 C 
HETATM   20  O1  UNL     1       0.755  -2.266  -1.601  1.00  0.00    -0.362 OA
HETATM   21  C15 UNL     1       2.041  -1.764  -1.905  1.00  0.00     0.133 C 
HETATM   22  C16 UNL     1       3.188  -1.456  -2.478  1.00  0.00     0.036 C 
HETATM   23  C17 UNL     1       4.244  -0.642  -1.866  1.00  0.00     0.126 C 
HETATM   24  F1  UNL     1       4.946  -0.827  -3.017  1.00  0.00    -0.242 F 
HETATM   25  C18 UNL     1       3.636  -0.407  -0.706  1.00  0.00     0.238 C 
HETATM   26  H10 UNL     1      -3.091   2.672   2.883  1.00  0.00     0.178 HD
ENDROOT
TORSDOF 0
