REMARK  2 active torsions:
REMARK  status: ('A' for Active; 'I' for Inactive)
REMARK    1  A    between atoms: O1_2  and  C2_3 
REMARK    2  A    between atoms: C7_8  and  O2_9 
ROOT
HETATM    1  C2  UNL     1      -2.848  -0.154  -0.606  1.00  0.00     0.102 A 
HETATM    2  C3  UNL     1      -1.592  -0.359  -1.139  1.00  0.00     0.049 A 
HETATM    3  C4  UNL     1      -0.431  -0.150  -0.413  1.00  0.00    -0.024 A 
HETATM    4  C5  UNL     1      -0.588   0.280   0.888  1.00  0.00     0.043 A 
HETATM    5  C6  UNL     1      -1.832   0.493   1.445  1.00  0.00     0.069 A 
HETATM    6  C7  UNL     1      -2.985   0.282   0.717  1.00  0.00     0.103 A 
HETATM    7  N1  UNL     1       0.581   0.507   1.666  1.00  0.00    -0.340 N 
HETATM    8  C9  UNL     1       1.909   0.319   1.190  1.00  0.00     0.141 A 
HETATM    9  N2  UNL     1       3.012   0.525   1.902  1.00  0.00    -0.225 NA
HETATM   10  C10 UNL     1       4.221   0.311   1.337  1.00  0.00     0.214 A 
HETATM   11  N3  UNL     1       4.367  -0.110   0.061  1.00  0.00    -0.312 N 
HETATM   12  C11 UNL     1       5.692  -0.326  -0.499  1.00  0.00     0.160 C 
HETATM   13  C12 UNL     1       3.255  -0.316  -0.648  1.00  0.00     0.258 A 
HETATM   14  O3  UNL     1       3.438  -0.708  -1.831  1.00  0.00    -0.267 OA
HETATM   15  C13 UNL     1       1.976  -0.112  -0.119  1.00  0.00     0.060 A 
HETATM   16  C14 UNL     1       0.866  -0.396  -1.068  1.00  0.00     0.089 A 
HETATM   17  H9  UNL     1       0.454   0.835   2.660  1.00  0.00     0.167 HD
ENDROOT
BRANCH   1  18
HETATM   18  O1  UNL     1      -4.025  -0.357  -1.314  1.00  0.00    -0.353 OA
HETATM   19  C1  UNL     1      -3.944  -0.793  -2.638  1.00  0.00     0.210 C 
ENDBRANCH   1  18
BRANCH   6  20
HETATM   20  O2  UNL     1      -4.252   0.487   1.249  1.00  0.00    -0.353 OA
HETATM   21  C8  UNL     1      -4.317   0.929   2.592  1.00  0.00     0.210 C 
ENDBRANCH   6  20
TORSDOF 2
