REMARK  6 active torsions:
REMARK  status: ('A' for Active; 'I' for Inactive)
REMARK    1  A    between atoms: C7_9  and  C8_10 
REMARK    2  A    between atoms: C11_14  and  N4_15 
REMARK    3  A    between atoms: N4_15  and  C12_16 
REMARK    4  A    between atoms: C16_20  and  O1_21 
REMARK    5  A    between atoms: O1_21  and  C17_22 
REMARK    6  A    between atoms: C17_22  and  C18_25 
ROOT
HETATM    1  C8  UNL     1      -1.104   1.835   0.684  1.00  0.00     0.088 A 
HETATM    2  C9  UNL     1      -0.661   3.107   1.013  1.00  0.00     0.053 A 
HETATM    3  C10 UNL     1       0.627   3.477   1.230  1.00  0.00     0.139 A 
HETATM    4  N3  UNL     1       1.534   2.474   1.104  1.00  0.00    -0.075 NA
HETATM    5  C11 UNL     1       1.196   1.233   0.793  1.00  0.00     0.727 A 
HETATM    6  N5  UNL     1      -0.083   1.007   0.608  1.00  0.00    -0.062 NA
ENDROOT
BRANCH   1   7
HETATM    7  C7  UNL     1      -2.529   1.706   0.482  1.00  0.00     0.006 A 
HETATM    8  C6  UNL     1      -3.180   0.674  -0.155  1.00  0.00     0.004 A 
HETATM    9  C5  UNL     1      -2.081  -0.190  -0.643  1.00  0.00     0.031 C 
HETATM   10  C23 UNL     1      -4.546   0.535  -0.337  1.00  0.00     0.041 A 
HETATM   11  C4  UNL     1      -1.984  -1.526  -0.781  1.00  0.00     0.084 C 
HETATM   12  N2  UNL     1      -2.899  -2.609  -0.511  1.00  0.00    -0.397 N 
HETATM   13  C3  UNL     1      -4.345  -2.550  -0.242  1.00  0.00     0.139 C 
HETATM   14  H8  UNL     1      -2.306  -3.482  -0.546  1.00  0.00     0.158 HD
HETATM   15  C2  UNL     1      -5.089  -1.819  -1.302  1.00  0.00     0.142 C 
HETATM   16  N1  UNL     1      -5.427  -0.430  -0.940  1.00  0.00    -0.383 N 
HETATM   17  C1  UNL     1      -6.738   0.057  -1.193  1.00  0.00     0.150 C 
HETATM   18  C22 UNL     1      -5.351   1.512   0.155  1.00  0.00     0.030 A 
HETATM   19  C21 UNL     1      -4.772   2.561   0.792  1.00  0.00     0.003 A 
HETATM   20  C20 UNL     1      -3.412   2.660   0.953  1.00  0.00     0.015 A 
ENDBRANCH   1   7
BRANCH   5  21
HETATM   21  N4  UNL     1       2.063   0.123   0.638  1.00  0.00    -0.188 N 
HETATM   22  H13 UNL     1       1.666  -0.831   0.385  1.00  0.00     0.184 HD
BRANCH  21  23
HETATM   23  C12 UNL     1       3.470   0.116   0.785  1.00  0.00     0.052 A 
HETATM   24  C13 UNL     1       4.258   1.198   1.107  1.00  0.00     0.030 A 
HETATM   25  C14 UNL     1       5.627   1.204   1.253  1.00  0.00     0.005 A 
HETATM   26  C15 UNL     1       6.292   0.012   1.059  1.00  0.00     0.037 A 
HETATM   27  C16 UNL     1       5.577  -1.120   0.733  1.00  0.00     0.077 A 
HETATM   28  C19 UNL     1       4.211  -1.035   0.608  1.00  0.00     0.067 A 
BRANCH  27  29
HETATM   29  O1  UNL     1       6.242  -2.303   0.540  1.00  0.00    -0.282 OA
BRANCH  29  30
HETATM   30  C17 UNL     1       6.747  -2.738  -0.705  1.00  0.00     0.385 C 
HETATM   31  F1  UNL     1       5.703  -2.848  -1.600  1.00  0.00    -0.172 F 
HETATM   32  F2  UNL     1       7.352  -3.957  -0.564  1.00  0.00    -0.172 F 
BRANCH  30  33
HETATM   33  C18 UNL     1       7.727  -1.752  -1.294  1.00  0.00     0.334 C 
HETATM   34  F3  UNL     1       7.115  -0.541  -1.486  1.00  0.00    -0.246 F 
ENDBRANCH  30  33
ENDBRANCH  29  30
ENDBRANCH  27  29
ENDBRANCH  21  23
ENDBRANCH   5  21
TORSDOF 6
