REMARK  5 active torsions:
REMARK  status: ('A' for Active; 'I' for Inactive)
REMARK    1  A    between atoms: N1_2  and  N2_3 
REMARK    2  A    between atoms: C4_8  and  N5_9 
REMARK    3  A    between atoms: N5_9  and  C5_10 
REMARK    4  A    between atoms: N6_18  and  C12_19 
REMARK    5  A    between atoms: C14_21  and  N7_22 
ROOT
HETATM    1  N2  UNL     1      -2.864  -1.396   0.201  1.00  0.00     0.014 NA
HETATM    2  C2  UNL     1      -1.579  -1.288   0.261  1.00  0.00     0.746 C 
HETATM    3  N3  UNL     1      -0.815  -2.052   1.215  1.00  0.00    -0.054 NA
HETATM    4  C3  UNL     1       0.448  -1.839   1.478  1.00  0.00     0.254 C 
HETATM    5  N4  UNL     1       1.366  -0.889   0.959  1.00  0.00    -0.226 NA
HETATM    6  C4  UNL     1       1.261  -0.243  -0.149  1.00  0.00     0.124 C 
HETATM    7  C11 UNL     1       0.256  -0.218  -1.230  1.00  0.00     0.226 C 
HETATM    8  N6  UNL     1      -1.101  -0.344  -0.719  1.00  0.00    -0.175 N 
ENDROOT
BRANCH   6   9
HETATM    9  N5  UNL     1       2.387   0.626  -0.327  1.00  0.00    -0.343 N 
HETATM   10  H6  UNL     1       2.304   1.488  -0.944  1.00  0.00     0.167 HD
BRANCH   9  11
HETATM   11  C5  UNL     1       3.663   0.418   0.285  1.00  0.00     0.035 A 
HETATM   12  C6  UNL     1       4.035   0.925   1.535  1.00  0.00     0.029 A 
HETATM   13  C7  UNL     1       5.301   0.648   2.009  1.00  0.00     0.004 A 
HETATM   14  C8  UNL     1       6.230  -0.106   1.319  1.00  0.00     0.024 A 
HETATM   15  C9  UNL     1       5.826  -0.584   0.098  1.00  0.00     0.036 A 
HETATM   16 CL1  UNL     1       7.003  -1.549  -0.794  1.00  0.00    -0.084 Cl
HETATM   17  C10 UNL     1       4.591  -0.339  -0.411  1.00  0.00     0.053 A 
ENDBRANCH   9  11
ENDBRANCH   6   9
BRANCH   8  18
HETATM   18  C12 UNL     1      -2.068   0.577  -1.255  1.00  0.00     0.035 A 
HETATM   19  C13 UNL     1      -1.977   1.858  -0.941  1.00  0.00     0.054 A 
HETATM   20  C14 UNL     1      -3.059   2.574  -1.602  1.00  0.00     0.024 A 
HETATM   21  C15 UNL     1      -3.778   1.708  -2.299  1.00  0.00     0.008 A 
HETATM   22  C16 UNL     1      -3.225   0.333  -2.155  1.00  0.00     0.087 A 
BRANCH  20  23
HETATM   23  N7  UNL     1      -3.477   3.953  -1.646  1.00  0.00    -0.399 N 
HETATM   24  H14 UNL     1      -4.151   4.246  -0.904  1.00  0.00     0.156 HD
HETATM   25  H15 UNL     1      -2.997   4.416  -2.457  1.00  0.00     0.156 HD
ENDBRANCH  20  23
ENDBRANCH   8  18
BRANCH   1  26
HETATM   26  N1  UNL     1      -3.495  -2.273   1.085  1.00  0.00    -0.303 N 
HETATM   27  C1  UNL     1      -3.745  -2.503   2.493  1.00  0.00     0.170 C 
HETATM   28  H4  UNL     1      -3.913  -2.990   0.449  1.00  0.00     0.182 HD
ENDBRANCH   1  26
TORSDOF 5
