REMARK  1 active torsions:
REMARK  status: ('A' for Active; 'I' for Inactive)
REMARK       I    between atoms: C9_12  and  N4_13 
REMARK    1  A    between atoms: C10_15  and  C11_16 
ROOT
HETATM    1  C1  UNL     1      -0.835   1.388  -1.982  1.00  0.00     0.177 A 
HETATM    2  C2  UNL     1      -0.156   0.382  -1.463  1.00  0.00     0.055 A 
HETATM    3  N1  UNL     1       0.610   0.932  -2.500  1.00  0.00    -0.168 NA
HETATM    4  N2  UNL     1       1.763   1.513  -2.363  1.00  0.00    -0.194 NA
HETATM    5  C3  UNL     1       2.166   1.518  -0.967  1.00  0.00     0.073 A 
HETATM    6  C4  UNL     1       2.443   2.458  -0.004  1.00  0.00     0.033 A 
HETATM    7  C5  UNL     1       2.689   1.998   1.270  1.00  0.00     0.005 A 
HETATM    8  C6  UNL     1       2.657   0.652   1.565  1.00  0.00     0.029 A 
HETATM    9  C7  UNL     1       2.384  -0.325   0.629  1.00  0.00     0.033 A 
HETATM   10  C8  UNL     1       2.152   0.188  -0.620  1.00  0.00     0.062 A 
HETATM   11  N3  UNL     1       2.255  -1.708   0.922  1.00  0.00    -0.343 N 
HETATM   12  C9  UNL     1       1.099  -2.151   0.119  1.00  0.00     0.444 C 
HETATM   13  N4  UNL     1       0.862  -3.522   0.682  1.00  0.00     0.122 N 
HETATM   14  N5  UNL     1      -0.000  -1.365   0.107  1.00  0.00    -0.233 NA
HETATM   15  C10 UNL     1      -0.607  -0.448  -0.363  1.00  0.00     0.087 C 
HETATM   16  H7  UNL     1       3.004  -1.952   1.597  1.00  0.00     0.163 HD
HETATM   17  H9  UNL     1       0.113  -3.910   0.060  1.00  0.00     0.317 HD
HETATM   18  H10 UNL     1       1.766  -4.037   0.557  1.00  0.00     0.317 HD
ENDROOT
BRANCH  15  19
HETATM   19  C11 UNL     1      -1.889  -0.199   0.263  1.00  0.00     0.011 A 
HETATM   20  C12 UNL     1      -2.905   0.705   0.083  1.00  0.00     0.017 A 
HETATM   21  C13 UNL     1      -4.085   0.824   0.763  1.00  0.00     0.020 A 
HETATM   22  C14 UNL     1      -4.341  -0.064   1.781  1.00  0.00     0.116 A 
HETATM   23  N6  UNL     1      -3.411  -0.993   2.041  1.00  0.00    -0.272 NA
HETATM   24  C15 UNL     1      -2.283  -1.029   1.318  1.00  0.00     0.130 A 
ENDBRANCH  15  19
TORSDOF 1
