REMARK  3 active torsions:
REMARK  status: ('A' for Active; 'I' for Inactive)
REMARK    1  A    between atoms: O1_2  and  C2_3 
REMARK    2  A    between atoms: C13_17  and  N3_18 
REMARK    3  A    between atoms: C13_17  and  O3_19 
ROOT
HETATM    1  C2  UNL     1       2.717  -0.974   0.218  1.00  0.00     0.116 A 
HETATM    2  C3  UNL     1       1.769  -1.848  -0.051  1.00  0.00     0.045 A 
HETATM    3  C4  UNL     1       0.545  -1.056  -0.304  1.00  0.00    -0.046 A 
HETATM    4  C5  UNL     1       0.827   0.256  -0.173  1.00  0.00    -0.001 A 
HETATM    5  C6  UNL     1      -0.495   0.846  -0.464  1.00  0.00     0.056 C 
HETATM    6  C7  UNL     1      -1.560   0.354   0.496  1.00  0.00     0.107 A 
HETATM    7  C8  UNL     1      -2.829   1.094   0.337  1.00  0.00     0.231 A 
HETATM    8  O2  UNL     1      -2.679   2.325   0.539  1.00  0.00    -0.273 OA
HETATM    9  N1  UNL     1      -4.101   0.563   0.000  1.00  0.00    -0.317 N 
HETATM   10  C9  UNL     1      -5.269   1.401  -0.191  1.00  0.00     0.160 C 
HETATM   11  C10 UNL     1      -4.086  -0.852  -0.122  1.00  0.00     0.205 A 
HETATM   12  N2  UNL     1      -3.047  -1.583   0.050  1.00  0.00    -0.278 NA
HETATM   13  C11 UNL     1      -1.753  -1.126   0.384  1.00  0.00     0.127 A 
HETATM   14  C12 UNL     1      -0.750  -1.707  -0.638  1.00  0.00     0.067 C 
HETATM   15  C13 UNL     1       2.248   0.471   0.183  1.00  0.00     0.330 A 
ENDROOT
BRANCH  15  16
HETATM   16  N3  UNL     1       2.946   1.032  -0.972  1.00  0.00     0.125 N 
HETATM   17  H15 UNL     1       3.922   0.659  -0.941  1.00  0.00     0.317 HD
HETATM   18  H16 UNL     1       2.497   0.553  -1.805  1.00  0.00     0.317 HD
ENDBRANCH  15  16
BRANCH  15  19
HETATM   19  O3  UNL     1       2.526   1.100   1.345  1.00  0.00    -0.349 OA
HETATM   20  C14 UNL     1       2.129   2.420   1.334  1.00  0.00     0.205 C 
ENDBRANCH  15  19
BRANCH   1  21
HETATM   21  O1  UNL     1       4.076  -1.064   0.537  1.00  0.00    -0.355 OA
HETATM   22  C1  UNL     1       4.784  -2.113  -0.135  1.00  0.00     0.209 C 
ENDBRANCH   1  21
TORSDOF 3
