REMARK  6 active torsions:
REMARK  status: ('A' for Active; 'I' for Inactive)
REMARK    1  A    between atoms: O1_2  and  C2_3 
REMARK    2  A    between atoms: C4_5  and  C5_6 
REMARK    3  A    between atoms: C5_6  and  N1_7 
REMARK    4  A    between atoms: N1_7  and  C6_8 
REMARK    5  A    between atoms: C9_13  and  C10_14 
REMARK    6  A    between atoms: C13_19  and  O3_20 
ROOT
HETATM    1  C2  UNL     1      -2.700  -0.644  -1.301  1.00  0.00     0.102 A 
HETATM    2  C3  UNL     1      -1.499  -0.214  -1.556  1.00  0.00     0.053 A 
HETATM    3  C4  UNL     1      -0.461   0.085  -0.602  1.00  0.00    -0.009 A 
HETATM    4  P1  UNL     1      -0.812  -0.138   1.198  1.00  0.00    -0.060 P 
HETATM    5  C11 UNL     1      -0.860   1.564   1.996  1.00  0.00     0.053 C 
HETATM    6  C12 UNL     1      -2.547  -0.737   1.150  1.00  0.00     0.050 A 
HETATM    7  C13 UNL     1      -3.179  -0.889   0.019  1.00  0.00     0.102 A 
ENDROOT
BRANCH   3   8
HETATM    8  C5  UNL     1       0.661   0.497  -1.071  1.00  0.00     0.102 C 
BRANCH   8   9
HETATM    9  N1  UNL     1       1.604   0.759  -0.051  1.00  0.00    -0.348 N 
HETATM   10  H6  UNL     1       1.348   1.690   0.357  1.00  0.00     0.167 HD
BRANCH   9  11
HETATM   11  C6  UNL     1       2.721   0.049   0.458  1.00  0.00     0.159 A 
HETATM   12  N2  UNL     1       2.509  -0.978   1.306  1.00  0.00    -0.224 NA
HETATM   13  C7  UNL     1       3.733  -1.447   1.622  1.00  0.00     0.212 A 
HETATM   14  N3  UNL     1       4.649  -0.714   0.977  1.00  0.00    -0.340 N 
HETATM   15  C8  UNL     1       6.089  -0.866   1.038  1.00  0.00     0.157 C 
HETATM   16  C9  UNL     1       4.061   0.233   0.237  1.00  0.00     0.119 A 
BRANCH  16  17
HETATM   17  C10 UNL     1       4.541   1.280  -0.641  1.00  0.00     0.292 C 
HETATM   18  O2  UNL     1       3.903   2.117  -1.290  1.00  0.00    -0.300 OA
ENDBRANCH  16  17
ENDBRANCH   9  11
ENDBRANCH   8   9
ENDBRANCH   3   8
BRANCH   1  19
HETATM   19  O1  UNL     1      -3.721  -0.937  -2.234  1.00  0.00    -0.353 OA
HETATM   20  C1  UNL     1      -4.056   0.195  -3.066  1.00  0.00     0.210 C 
ENDBRANCH   1  19
BRANCH   7  21
HETATM   21  O3  UNL     1      -4.452  -1.357   0.418  1.00  0.00    -0.353 OA
HETATM   22  C14 UNL     1      -5.398  -0.281   0.576  1.00  0.00     0.210 C 
ENDBRANCH   7  21
TORSDOF 6
