REMARK  2 active torsions:
REMARK  status: ('A' for Active; 'I' for Inactive)
REMARK    1  A    between atoms: O1_2  and  C2_3 
REMARK    2  A    between atoms: P1_19  and  O3_20 
ROOT
HETATM    1  C2  UNL     1       2.883  -1.073  -0.346  1.00  0.00     0.093 C 
HETATM    2  C3  UNL     1       1.598  -1.393  -0.430  1.00  0.00     0.042 C 
HETATM    3  C4  UNL     1       0.541  -0.625   0.231  1.00  0.00     0.138 C 
HETATM    4  N1  UNL     1      -0.752  -0.922  -0.403  1.00  0.00    -0.375 N 
HETATM    5  C5  UNL     1      -1.872  -0.070  -0.177  1.00  0.00     0.078 A 
HETATM    6  C6  UNL     1      -1.704   1.240   0.010  1.00  0.00    -0.037 A 
HETATM    7  C7  UNL     1      -2.811   2.190   0.249  1.00  0.00     0.140 A 
HETATM    8  C8  UNL     1      -4.143   1.558   0.262  1.00  0.00     0.229 A 
HETATM    9  O2  UNL     1      -5.105   2.355   0.464  1.00  0.00    -0.273 OA
HETATM   10  N2  UNL     1      -4.347   0.153   0.063  1.00  0.00    -0.305 N 
HETATM   11  C9  UNL     1      -5.696  -0.387   0.093  1.00  0.00     0.161 C 
HETATM   12  C10 UNL     1      -3.198  -0.682  -0.161  1.00  0.00     0.151 A 
HETATM   13  N3  UNL     1      -3.449  -1.929  -0.331  1.00  0.00    -0.282 NA
HETATM   14  C11 UNL     1      -0.336   1.831  -0.014  1.00  0.00     0.074 C 
HETATM   15  C12 UNL     1       0.717   0.830   0.223  1.00  0.00    -0.036 C 
HETATM   16  C13 UNL     1       1.914   1.341   0.443  1.00  0.00     0.011 C 
HETATM   17  P1  UNL     1       3.192   0.391   0.657  1.00  0.00     0.053 P 
HETATM   18  H6  UNL     1      -0.956  -1.745  -1.044  1.00  0.00     0.160 HD
HETATM   19  H12 UNL     1      -2.705  -2.621  -0.499  1.00  0.00     0.188 HD
HETATM   20  H15 UNL     1       3.321   0.024   1.998  1.00  0.00     0.093 HD
ENDROOT
BRANCH  17  21
HETATM   21  O3  UNL     1       4.610   1.092   0.090  1.00  0.00    -0.366 OA
HETATM   22  C14 UNL     1       5.156   1.986   1.030  1.00  0.00     0.207 C 
ENDBRANCH  17  21
BRANCH   1  23
HETATM   23  O1  UNL     1       3.838  -1.859  -1.009  1.00  0.00    -0.354 OA
HETATM   24  C1  UNL     1       3.970  -3.252  -0.691  1.00  0.00     0.210 C 
ENDBRANCH   1  23
TORSDOF 2
