REMARK  3 active torsions:
REMARK  status: ('A' for Active; 'I' for Inactive)
REMARK    1  A    between atoms: B1_1  and  C1_2 
REMARK    2  A    between atoms: C5_6  and  O1_7 
REMARK    3  A    between atoms: C7_9  and  O2_10 
ROOT
HETATM    1  C1  UNL     1      -1.577   0.813   1.166  1.00  0.00    -0.047 A 
HETATM    2  C2  UNL     1      -0.349   0.496   0.622  1.00  0.00     0.037 A 
HETATM    3  C3  UNL     1      -0.275  -0.095  -0.616  1.00  0.00    -0.025 A 
HETATM    4  C4  UNL     1      -1.407  -0.384  -1.340  1.00  0.00     0.049 A 
HETATM    5  C5  UNL     1      -2.647  -0.076  -0.816  1.00  0.00     0.101 A 
HETATM    6  C7  UNL     1      -2.737   0.525   0.443  1.00  0.00     0.098 A 
HETATM    7  C9  UNL     1       1.005  -0.469  -1.277  1.00  0.00     0.089 A 
HETATM    8  C10 UNL     1       2.168  -0.128  -0.441  1.00  0.00     0.060 A 
HETATM    9  C11 UNL     1       2.135   0.464   0.805  1.00  0.00     0.141 A 
HETATM   10  N1  UNL     1       3.252   0.737   1.492  1.00  0.00    -0.225 NA
HETATM   11  C12 UNL     1       4.462   0.441   0.989  1.00  0.00     0.214 A 
HETATM   12  N2  UNL     1       4.539  -0.145  -0.239  1.00  0.00    -0.312 N 
HETATM   13  C13 UNL     1       5.902  -0.409  -0.659  1.00  0.00     0.160 C 
HETATM   14  C14 UNL     1       3.422  -0.423  -0.937  1.00  0.00     0.258 A 
HETATM   15  O3  UNL     1       3.663  -0.968  -2.061  1.00  0.00    -0.267 OA
HETATM   16  N3  UNL     1       0.849   0.774   1.329  1.00  0.00    -0.340 N 
HETATM   17  H16 UNL     1       0.786   1.225   2.273  1.00  0.00     0.167 HD
ENDROOT
BRANCH   1  18
HETATM   18  B1  UNL     1      -1.583   1.480   2.572  1.00  0.00     0.181 B 
HETATM   19  H1  UNL     1      -1.822   0.831   3.517  1.00  0.00    -0.026 HD
HETATM   20  H2  UNL     1      -1.483   2.658   2.637  1.00  0.00    -0.026 HD
ENDBRANCH   1  18
BRANCH   6  21
HETATM   21  O2  UNL     1      -3.892   0.896   1.110  1.00  0.00    -0.354 OA
HETATM   22  C8  UNL     1      -4.619   0.079   1.992  1.00  0.00     0.210 C 
ENDBRANCH   6  21
BRANCH   5  23
HETATM   23  O1  UNL     1      -3.916  -0.267  -1.345  1.00  0.00    -0.353 OA
HETATM   24  C6  UNL     1      -4.000  -0.870  -2.625  1.00  0.00     0.210 C 
ENDBRANCH   5  23
TORSDOF 3
