REMARK  6 active torsions:
REMARK  status: ('A' for Active; 'I' for Inactive)
REMARK    1  A    between atoms: C1_2  and  C2_3 
REMARK    2  A    between atoms: C5_7  and  N2_8 
REMARK    3  A    between atoms: N2_8  and  C6_9 
REMARK    4  A    between atoms: C10_13  and  N3_14 
REMARK    5  A    between atoms: N3_14  and  C11_15 
REMARK    6  A    between atoms: C11_15  and  C12_16 
ROOT
HETATM    1  C6  UNL     1       1.094  -0.145   0.151  1.00  0.00     0.051 A 
HETATM    2  C7  UNL     1       1.608  -1.385  -0.164  1.00  0.00     0.030 A 
HETATM    3  C8  UNL     1       0.748  -2.442  -0.336  1.00  0.00     0.004 A 
HETATM    4  C9  UNL     1      -0.618  -2.341  -0.213  1.00  0.00     0.029 A 
HETATM    5  C10 UNL     1      -1.134  -1.098   0.102  1.00  0.00     0.030 A 
HETATM    6  C16 UNL     1      -0.271  -0.031   0.278  1.00  0.00     0.059 A 
ENDROOT
BRANCH   1   7
HETATM    7  N2  UNL     1       1.971   0.960   0.296  1.00  0.00    -0.188 N 
HETATM    8  H4  UNL     1       1.607   1.897   0.636  1.00  0.00     0.184 HD
BRANCH   7   9
HETATM    9  C5  UNL     1       3.359   0.786  -0.024  1.00  0.00     0.727 A 
HETATM   10  N1  UNL     1       3.430   0.912  -1.359  1.00  0.00    -0.075 NA
HETATM   11  C4  UNL     1       4.589   0.814  -2.028  1.00  0.00     0.139 A 
HETATM   12  C3  UNL     1       5.711   0.578  -1.278  1.00  0.00     0.055 A 
HETATM   13  C2  UNL     1       5.643   0.450   0.085  1.00  0.00     0.115 A 
HETATM   14  N4  UNL     1       4.453   0.555   0.720  1.00  0.00    -0.060 NA
BRANCH  13  15
HETATM   15  C1  UNL     1       6.819   0.208   0.880  1.00  0.00     0.290 C 
HETATM   16  O1  UNL     1       7.932   0.107   0.304  1.00  0.00    -0.300 OA
ENDBRANCH  13  15
ENDBRANCH   7   9
ENDBRANCH   1   7
BRANCH   5  17
HETATM   17  N3  UNL     1      -2.539  -0.863   0.226  1.00  0.00    -0.385 N 
HETATM   18  H8  UNL     1      -3.153  -1.702   0.028  1.00  0.00     0.160 HD
BRANCH  17  19
HETATM   19  C11 UNL     1      -3.274   0.336   0.572  1.00  0.00     0.166 C 
BRANCH  19  20
HETATM   20  C12 UNL     1      -4.761   0.156   0.418  1.00  0.00    -0.000 A 
HETATM   21  C13 UNL     1      -5.801  -0.286   1.270  1.00  0.00     0.017 A 
HETATM   22  C14 UNL     1      -7.045  -0.294   0.706  1.00  0.00     0.008 A 
HETATM   23  C15 UNL     1      -7.231   0.101  -0.583  1.00  0.00     0.050 A 
HETATM   24  S1  UNL     1      -5.548   0.553  -1.167  1.00  0.00    -0.105 SA
ENDBRANCH  19  20
ENDBRANCH  17  19
ENDBRANCH   5  17
TORSDOF 6
