REMARK  5 active torsions:
REMARK  status: ('A' for Active; 'I' for Inactive)
REMARK       I    between atoms: C1_2  and  N1_3 
REMARK    1  A    between atoms: C1_2  and  C16_23 
REMARK    2  A    between atoms: N1_3  and  C2_4 
REMARK    3  A    between atoms: C6_8  and  N2_9 
REMARK    4  A    between atoms: N2_9  and  C7_10 
REMARK    5  A    between atoms: C9_14  and  C10_15 
ROOT
HETATM    1  C2  UNL     1      -2.695  -0.816  -0.570  1.00  0.00     0.037 A 
HETATM    2  C3  UNL     1      -2.667  -1.635  -1.678  1.00  0.00     0.029 A 
HETATM    3  C4  UNL     1      -1.411  -2.156  -2.006  1.00  0.00     0.004 A 
HETATM    4  C5  UNL     1      -0.315  -1.844  -1.248  1.00  0.00     0.029 A 
HETATM    5  C6  UNL     1      -0.367  -1.030  -0.155  1.00  0.00     0.033 A 
HETATM    6  C15 UNL     1      -1.563  -0.505   0.199  1.00  0.00     0.058 A 
ENDROOT
BRANCH   5   7
HETATM    7  N2  UNL     1       0.651  -0.623   0.736  1.00  0.00    -0.340 N 
HETATM    8  H5  UNL     1       0.745   0.160   1.385  1.00  0.00     0.164 HD
BRANCH   7   9
HETATM    9  C7  UNL     1       1.835  -1.524   0.711  1.00  0.00     0.238 A 
HETATM   10  N3  UNL     1       1.570  -3.565   0.726  1.00  0.00    -0.222 NA
HETATM   11  C8  UNL     1       2.304  -3.086   0.707  1.00  0.00     0.145 A 
HETATM   12  S1  UNL     1       3.314  -2.387   0.680  1.00  0.00    -0.047 SA
HETATM   13  C9  UNL     1       4.512  -1.517   0.648  1.00  0.00     0.147 A 
HETATM   14  N5  UNL     1       3.248  -1.031   0.676  1.00  0.00    -0.179 NA
BRANCH  13  15
HETATM   15  C10 UNL     1       5.385  -0.389   0.621  1.00  0.00    -0.003 A 
HETATM   16  C11 UNL     1       6.703  -0.813   0.605  1.00  0.00     0.013 A 
HETATM   17  C12 UNL     1       7.798   0.038   0.573  1.00  0.00     0.020 A 
HETATM   18  C13 UNL     1       7.443   1.365   0.558  1.00  0.00     0.116 A 
HETATM   19  N4  UNL     1       6.175   1.847   0.572  1.00  0.00    -0.272 NA
HETATM   20  C14 UNL     1       5.121   0.978   0.604  1.00  0.00     0.126 A 
ENDBRANCH  13  15
ENDBRANCH   7   9
ENDBRANCH   5   7
BRANCH   1  21
HETATM   21  N1  UNL     1      -3.963  -0.223  -0.185  1.00  0.00    -0.322 N 
HETATM   22  C1  UNL     1      -4.231   1.094  -0.733  1.00  0.00     0.263 C 
HETATM   23  O1  UNL     1      -3.177   1.244  -1.398  1.00  0.00    -0.267 OA
HETATM   24  H1  UNL     1      -4.492  -0.893   0.456  1.00  0.00     0.169 HD
BRANCH  22  25
HETATM   25  C16 UNL     1      -5.590   1.369  -0.122  1.00  0.00     0.072 A 
HETATM   26  C17 UNL     1      -5.653   2.723  -0.793  1.00  0.00     0.025 A 
HETATM   27  C18 UNL     1      -6.805   3.473  -0.546  1.00  0.00     0.009 A 
HETATM   28  C19 UNL     1      -7.781   2.991   0.246  1.00  0.00     0.050 A 
HETATM   29  S2  UNL     1      -7.225   1.379   0.779  1.00  0.00    -0.097 SA
ENDBRANCH  22  25
ENDBRANCH   1  21
TORSDOF 5
