REMARK  6 active torsions:
REMARK  status: ('A' for Active; 'I' for Inactive)
REMARK    1  A    between atoms: N1_1  and  C1_2 
REMARK    2  A    between atoms: C3_4  and  C4_5 
REMARK    3  A    between atoms: C9_13  and  N5_14 
REMARK    4  A    between atoms: N5_14  and  C10_15 
REMARK    5  A    between atoms: C14_19  and  N6_20 
REMARK       I    between atoms: N6_20  and  C15_21 
REMARK    6  A    between atoms: C15_21  and  C16_23 
ROOT
HETATM    1  N5  UNL     1      -0.406   0.727   1.148  1.00  0.00    -0.363 N 
HETATM    2  H10 UNL     1      -0.319  -0.217   1.629  1.00  0.00     0.162 HD
ENDROOT
BRANCH   1   3
HETATM    3  C9  UNL     1      -1.723   1.314   1.089  1.00  0.00     0.250 A 
HETATM    4  C1  UNL     1      -2.702   0.486   1.826  1.00  0.00     0.049 A 
HETATM    5  C2  UNL     1      -3.817  -0.127   1.477  1.00  0.00     0.062 A 
HETATM    6  C3  UNL     1      -4.136   0.057   0.071  1.00  0.00     0.090 A 
HETATM    7  N3  UNL     1      -3.402   0.744  -0.734  1.00  0.00    -0.177 NA
HETATM    8  N4  UNL     1      -2.214   1.376  -0.288  1.00  0.00    -0.284 N 
HETATM    9  H8  UNL     1      -1.783   1.875  -1.121  1.00  0.00     0.185 HD
BRANCH   4  10
HETATM   10  N1  UNL     1      -2.267   0.397   3.158  1.00  0.00    -0.399 N 
HETATM   11  H1  UNL     1      -1.815  -0.536   3.349  1.00  0.00     0.156 HD
HETATM   12  H2  UNL     1      -2.040   0.571   4.164  1.00  0.00     0.156 HD
ENDBRANCH   4  10
BRANCH   6  13
HETATM   13  C4  UNL     1      -5.347  -0.572  -0.443  1.00  0.00     0.012 A 
HETATM   14  C5  UNL     1      -5.664  -0.408  -1.774  1.00  0.00     0.017 A 
HETATM   15  C6  UNL     1      -6.781  -0.947  -2.395  1.00  0.00     0.020 A 
HETATM   16  C7  UNL     1      -7.619  -1.704  -1.580  1.00  0.00     0.116 A 
HETATM   17  N2  UNL     1      -7.327  -1.876  -0.277  1.00  0.00    -0.272 NA
HETATM   18  C8  UNL     1      -6.225  -1.332   0.291  1.00  0.00     0.130 A 
ENDBRANCH   6  13
ENDBRANCH   1   3
BRANCH   1  19
HETATM   19  C10 UNL     1       0.792   1.278   0.628  1.00  0.00     0.032 A 
HETATM   20  C11 UNL     1       0.864   2.499  -0.005  1.00  0.00     0.029 A 
HETATM   21  C12 UNL     1       2.005   3.069  -0.530  1.00  0.00     0.004 A 
HETATM   22  C13 UNL     1       3.181   2.358  -0.413  1.00  0.00     0.029 A 
HETATM   23  C14 UNL     1       3.162   1.129   0.214  1.00  0.00     0.037 A 
HETATM   24  C20 UNL     1       1.987   0.616   0.716  1.00  0.00     0.058 A 
BRANCH  23  25
HETATM   25  N6  UNL     1       4.379   0.410   0.327  1.00  0.00    -0.322 N 
HETATM   26  C15 UNL     1       4.799  -0.500  -0.667  1.00  0.00     0.263 C 
HETATM   27  O1  UNL     1       4.100  -0.714  -1.710  1.00  0.00    -0.267 OA
HETATM   28  H14 UNL     1       4.914   0.625   1.206  1.00  0.00     0.169 HD
BRANCH  26  29
HETATM   29  C16 UNL     1       6.043  -1.156  -0.428  1.00  0.00     0.072 A 
HETATM   30  C17 UNL     1       6.633  -2.105  -1.310  1.00  0.00     0.025 A 
HETATM   31  C18 UNL     1       7.829  -2.667  -0.974  1.00  0.00     0.009 A 
HETATM   32  C19 UNL     1       8.428  -2.241   0.300  1.00  0.00     0.050 A 
HETATM   33  S1  UNL     1       7.140  -1.008   0.916  1.00  0.00    -0.097 SA
ENDBRANCH  26  29
ENDBRANCH  23  25
ENDBRANCH   1  19
TORSDOF 6
