REMARK  2 active torsions:
REMARK  status: ('A' for Active; 'I' for Inactive)
REMARK    1  A    between atoms: N1_3  and  C3_4 
REMARK    2  A    between atoms: C7_8  and  C8_9 
ROOT
HETATM    1  C3  UNL     1      -0.322  -0.385   1.121  1.00  0.00     0.134 A 
HETATM    2  C4  UNL     1      -0.488  -1.471   1.920  1.00  0.00     0.051 A 
HETATM    3  C5  UNL     1       0.642  -2.276   2.110  1.00  0.00     0.006 A 
HETATM    4  C6  UNL     1       1.838  -1.916   1.481  1.00  0.00     0.032 A 
HETATM    5  C7  UNL     1       1.955  -0.817   0.689  1.00  0.00     0.070 A 
HETATM    6  N3  UNL     1       0.830  -0.068   0.535  1.00  0.00    -0.230 NA
ENDROOT
BRANCH   1   7
HETATM    7  N1  UNL     1      -1.472   0.418   0.939  1.00  0.00    -0.319 N 
HETATM    8  C2  UNL     1      -1.589   1.615   0.185  1.00  0.00     0.101 C 
HETATM    9  C1  UNL     1      -1.977   2.428  -0.758  1.00  0.00     0.161 A 
HETATM   10  C17 UNL     1      -2.864   2.297  -1.927  1.00  0.00     0.090 A 
HETATM   11  N4  UNL     1      -2.781   1.240  -1.280  1.00  0.00    -0.377 N 
HETATM   12  C16 UNL     1      -3.468  -0.004  -1.613  1.00  0.00     0.127 C 
HETATM   13  C15 UNL     1      -3.074  -1.018  -0.536  1.00  0.00     0.048 C 
HETATM   14  C14 UNL     1      -3.563  -0.564   0.788  1.00  0.00    -0.007 C 
HETATM   15  C13 UNL     1      -2.747   0.145   1.507  1.00  0.00     0.094 C 
ENDBRANCH   1   7
BRANCH   5  16
HETATM   16  C8  UNL     1       3.171  -0.394   0.009  1.00  0.00     0.010 A 
HETATM   17  C9  UNL     1       3.122   0.750  -0.760  1.00  0.00     0.017 A 
HETATM   18  C10 UNL     1       4.252   1.211  -1.439  1.00  0.00     0.020 A 
HETATM   19  C11 UNL     1       5.394   0.434  -1.271  1.00  0.00     0.116 A 
HETATM   20  N2  UNL     1       5.459  -0.689  -0.521  1.00  0.00    -0.272 NA
HETATM   21  C12 UNL     1       4.340  -1.109   0.126  1.00  0.00     0.130 A 
ENDBRANCH   5  16
TORSDOF 2
