REMARK  4 active torsions:
REMARK  status: ('A' for Active; 'I' for Inactive)
REMARK       I    between atoms: C1_2  and  N1_3 
REMARK    1  A    between atoms: C1_2  and  C16_22 
REMARK    2  A    between atoms: N1_3  and  C2_4 
REMARK    3  A    between atoms: C6_8  and  N2_9 
REMARK    4  A    between atoms: N3_11  and  C8_12 
ROOT
HETATM    1  C2  UNL     1       2.090  -1.137   0.270  1.00  0.00     0.037 A 
HETATM    2  C3  UNL     1       1.862  -2.478  -0.016  1.00  0.00     0.029 A 
HETATM    3  C4  UNL     1       0.594  -2.973   0.234  1.00  0.00     0.005 A 
HETATM    4  C5  UNL     1      -0.368  -2.129   0.745  1.00  0.00     0.031 A 
HETATM    5  C6  UNL     1      -0.157  -0.803   1.031  1.00  0.00     0.054 A 
HETATM    6  C15 UNL     1       1.110  -0.336   0.775  1.00  0.00     0.060 A 
ENDROOT
BRANCH   5   7
HETATM    7  N2  UNL     1      -1.151   0.062   1.555  1.00  0.00    -0.274 N 
HETATM    8  C7  UNL     1      -2.528  -0.292   1.829  1.00  0.00     0.278 C 
HETATM    9  N3  UNL     1      -3.351   0.671   1.093  1.00  0.00    -0.336 N 
HETATM   10  C13 UNL     1      -3.025   2.034   1.397  1.00  0.00     0.111 C 
HETATM   11  C14 UNL     1      -1.817   2.429   1.769  1.00  0.00     0.124 C 
HETATM   12  N5  UNL     1      -0.823   1.387   1.854  1.00  0.00    -0.306 N 
HETATM   13  H13 UNL     1       0.158   1.670   2.150  1.00  0.00     0.186 HD
BRANCH   9  14
HETATM   14  C8  UNL     1      -4.392   0.450   0.151  1.00  0.00     0.053 A 
HETATM   15  C9  UNL     1      -5.106   1.429  -0.508  1.00  0.00     0.032 A 
HETATM   16  C10 UNL     1      -6.083   1.018  -1.388  1.00  0.00     0.021 A 
HETATM   17  C11 UNL     1      -6.419  -0.286  -1.677  1.00  0.00     0.116 A 
HETATM   18  N4  UNL     1      -5.708  -1.226  -1.021  1.00  0.00    -0.271 NA
HETATM   19  C12 UNL     1      -4.743  -0.871  -0.151  1.00  0.00     0.145 A 
ENDBRANCH   9  14
ENDBRANCH   5   7
BRANCH   1  20
HETATM   20  N1  UNL     1       3.410  -0.689  -0.008  1.00  0.00    -0.322 N 
HETATM   21  C1  UNL     1       3.896  -0.141  -1.226  1.00  0.00     0.263 C 
HETATM   22  O1  UNL     1       3.205   0.031  -2.264  1.00  0.00    -0.267 OA
HETATM   23  H1  UNL     1       4.060  -0.801   0.824  1.00  0.00     0.169 HD
BRANCH  21  24
HETATM   24  C16 UNL     1       5.272   0.253  -1.302  1.00  0.00     0.072 A 
HETATM   25  C17 UNL     1       6.272   0.192  -0.349  1.00  0.00     0.025 A 
HETATM   26  C18 UNL     1       7.532   0.631  -0.647  1.00  0.00     0.009 A 
HETATM   27  C19 UNL     1       7.688   1.139  -2.003  1.00  0.00     0.050 A 
HETATM   28  S1  UNL     1       6.004   0.943  -2.744  1.00  0.00    -0.097 SA
ENDBRANCH  21  24
ENDBRANCH   1  20
TORSDOF 4
