REMARK  6 active torsions:
REMARK  status: ('A' for Active; 'I' for Inactive)
REMARK    1  A    between atoms: C1_2  and  C2_3 
REMARK       I    between atoms: C1_2  and  N1_11 
REMARK    2  A    between atoms: C2_3  and  S1_4 
REMARK    3  A    between atoms: S1_4  and  C3_5 
REMARK    4  A    between atoms: N1_11  and  C9_12 
REMARK    5  A    between atoms: C13_16  and  N2_17 
REMARK    6  A    between atoms: N2_17  and  C14_18 
ROOT
HETATM    1  C9  UNL     1       1.268  -0.876   0.615  1.00  0.00     0.036 A 
HETATM    2  C10 UNL     1       1.773  -2.095   0.978  1.00  0.00     0.029 A 
HETATM    3  C11 UNL     1       3.118  -2.373   0.827  1.00  0.00     0.004 A 
HETATM    4  C12 UNL     1       3.931  -1.385   0.302  1.00  0.00     0.030 A 
HETATM    5  C13 UNL     1       3.427  -0.144  -0.069  1.00  0.00     0.051 A 
HETATM    6  C16 UNL     1       2.082   0.114   0.088  1.00  0.00     0.059 A 
ENDROOT
BRANCH   1   7
HETATM    7  N1  UNL     1      -0.120  -0.447   0.710  1.00  0.00    -0.326 N 
HETATM    8  C1  UNL     1      -0.804  -0.762  -0.525  1.00  0.00     0.231 C 
HETATM    9  O1  UNL     1       0.024  -1.332  -1.318  1.00  0.00    -0.272 OA
HETATM   10  H8  UNL     1      -0.581   0.034   1.530  1.00  0.00     0.169 HD
BRANCH   8  11
HETATM   11  C2  UNL     1      -2.238  -0.387  -0.648  1.00  0.00     0.177 C 
BRANCH  11  12
HETATM   12  S1  UNL     1      -3.099  -0.907   0.852  1.00  0.00    -0.147 SA
BRANCH  12  13
HETATM   13  C3  UNL     1      -4.838  -0.402   0.836  1.00  0.00     0.093 C 
HETATM   14  C4  UNL     1      -4.943   1.101   0.937  1.00  0.00     0.004 C 
HETATM   15  C5  UNL     1      -6.181   1.538   0.786  1.00  0.00    -0.029 C 
HETATM   16  C6  UNL     1      -6.676   1.290  -0.422  1.00  0.00     0.012 C 
HETATM   17  C7  UNL     1      -6.443  -0.052  -0.994  1.00  0.00    -0.002 C 
HETATM   18  C8  UNL     1      -5.561  -0.846  -0.380  1.00  0.00    -0.008 C 
ENDBRANCH  12  13
ENDBRANCH  11  12
ENDBRANCH   8  11
ENDBRANCH   1   7
BRANCH   5  19
HETATM   19  N2  UNL     1       4.228   0.911  -0.577  1.00  0.00    -0.186 N 
HETATM   20  H12 UNL     1       3.727   1.657  -1.153  1.00  0.00     0.184 HD
BRANCH  19  21
HETATM   21  C14 UNL     1       5.622   1.246  -0.530  1.00  0.00     0.751 A 
HETATM   22  N3  UNL     1       5.843   2.015   0.529  1.00  0.00    -0.047 NA
HETATM   23  C15 UNL     1       7.149   2.314   0.553  1.00  0.00     0.306 A 
HETATM   24  O2  UNL     1       7.670   1.720  -0.486  1.00  0.00    -0.192 OA
HETATM   25  N4  UNL     1       6.792   1.069  -1.164  1.00  0.00     0.070 NA
ENDBRANCH  19  21
ENDBRANCH   5  19
TORSDOF 6
