REMARK  4 active torsions:
REMARK  status: ('A' for Active; 'I' for Inactive)
REMARK    1  A    between atoms: N1_2  and  C2_3 
REMARK    2  A    between atoms: C8_11  and  C9_12 
REMARK    3  A    between atoms: C11_14  and  N3_15 
REMARK    4  A    between atoms: N3_15  and  C12_16 
ROOT
HETATM    1  C2  UNL     1      -3.232   2.105  -0.527  1.00  0.00     0.099 C 
HETATM    2  C3  UNL     1      -2.533   0.950  -0.516  1.00  0.00     0.135 C 
HETATM    3  N2  UNL     1      -3.439   0.007  -0.925  1.00  0.00    -0.219 NA
HETATM    4  C4  UNL     1      -3.808  -1.145  -0.613  1.00  0.00     0.260 C 
HETATM    5  O1  UNL     1      -3.391  -2.079   0.429  1.00  0.00    -0.316 OA
HETATM    6  C5  UNL     1      -3.368  -1.360   1.673  1.00  0.00     0.143 C 
HETATM    7  C6  UNL     1      -2.107  -1.147   1.326  1.00  0.00     0.025 C 
HETATM    8  C7  UNL     1      -1.036  -1.359   0.374  1.00  0.00     0.007 C 
HETATM    9  C8  UNL     1       0.247  -1.065   0.065  1.00  0.00    -0.056 C 
HETATM   10  C11 UNL     1       0.622  -0.019   1.021  1.00  0.00     0.128 C 
HETATM   11  C18 UNL     1       0.209   1.343   0.337  1.00  0.00     0.151 C 
HETATM   12  N4  UNL     1      -1.186   1.142  -0.108  1.00  0.00    -0.372 N 
HETATM   13  H21 UNL     1      -1.093   1.098  -1.176  1.00  0.00     0.161 HD
ENDROOT
BRANCH  10  14
HETATM   14  N3  UNL     1       1.954   0.117   1.431  1.00  0.00    -0.380 N 
HETATM   15  H14 UNL     1       2.026   0.031   2.506  1.00  0.00     0.160 HD
BRANCH  14  16
HETATM   16  C12 UNL     1       3.221   0.332   0.875  1.00  0.00     0.029 A 
HETATM   17  C13 UNL     1       3.505   0.460  -0.467  1.00  0.00     0.029 A 
HETATM   18  C14 UNL     1       4.732   0.683  -1.040  1.00  0.00     0.004 A 
HETATM   19  C15 UNL     1       5.806   0.791  -0.173  1.00  0.00     0.019 A 
HETATM   20  C16 UNL     1       5.628   0.678   1.179  1.00  0.00     0.013 A 
HETATM   21 BR1  UNL     1       7.125   0.831   2.342  1.00  0.00    -0.051 Br
HETATM   22  C17 UNL     1       4.363   0.456   1.652  1.00  0.00     0.048 A 
ENDBRANCH  14  16
ENDBRANCH  10  14
BRANCH   9  23
HETATM   23  C9  UNL     1       0.698  -1.704  -1.138  1.00  0.00     0.032 C 
HETATM   24  C10 UNL     1      -0.387  -2.583  -1.785  1.00  0.00     0.010 C 
ENDBRANCH   9  23
BRANCH   1  25
HETATM   25  N1  UNL     1      -4.588   1.956  -0.934  1.00  0.00    -0.316 NA
HETATM   26  C1  UNL     1      -5.597   2.408  -0.288  1.00  0.00     0.259 C 
ENDBRANCH   1  25
TORSDOF 4
