REMARK  7 active torsions:
REMARK  status: ('A' for Active; 'I' for Inactive)
REMARK    1  A    between atoms: N1_1  and  C1_2 
REMARK    2  A    between atoms: C2_3  and  B1_4 
REMARK    3  A    between atoms: B1_4  and  C3_5 
REMARK    4  A    between atoms: B1_4  and  C11_15 
REMARK    5  A    between atoms: N2_6  and  C4_7 
REMARK    6  A    between atoms: C4_7  and  N3_8 
REMARK    7  A    between atoms: N3_8  and  C5_9 
ROOT
HETATM    1  B1  UNL     1       1.910   0.425  -0.267  1.00  0.00     0.284 B 
ENDROOT
BRANCH   1   2
HETATM    2  C2  UNL     1       2.526   0.194  -1.686  1.00  0.00    -0.050 C 
HETATM    3  C1  UNL     1       2.134   0.908  -2.732  1.00  0.00     0.065 C 
BRANCH   3   4
HETATM    4  N1  UNL     1       2.700   0.694  -4.028  1.00  0.00    -0.409 N 
HETATM    5  H1  UNL     1       2.341  -0.045  -4.672  1.00  0.00     0.155 HD
HETATM    6  H2  UNL     1       3.490   1.257  -4.395  1.00  0.00     0.155 HD
ENDBRANCH   3   4
ENDBRANCH   1   2
BRANCH   1   7
HETATM    7  C3  UNL     1       1.250   1.833   0.007  1.00  0.00     0.043 C 
HETATM    8  N2  UNL     1       0.014   2.146   0.008  1.00  0.00    -0.297 NA
BRANCH   8   9
HETATM    9  C4  UNL     1      -0.949   1.135  -0.269  1.00  0.00     0.268 C 
BRANCH   9  10
HETATM   10  N3  UNL     1      -2.197   1.354   0.434  1.00  0.00    -0.372 N 
HETATM   11  H8  UNL     1      -2.333   2.188   1.073  1.00  0.00     0.161 HD
BRANCH  10  12
HETATM   12  C5  UNL     1      -3.262   0.424   0.258  1.00  0.00     0.029 A 
HETATM   13  C6  UNL     1      -3.052  -0.651  -0.581  1.00  0.00     0.029 A 
HETATM   14  C7  UNL     1      -4.070  -1.566  -0.767  1.00  0.00     0.002 A 
HETATM   15  C8  UNL     1      -5.269  -1.401  -0.123  1.00  0.00     0.000 A 
HETATM   16  C9  UNL     1      -5.492  -0.320   0.726  1.00  0.00     0.002 A 
HETATM   17  C10 UNL     1      -4.458   0.606   0.912  1.00  0.00     0.029 A 
ENDBRANCH  10  12
ENDBRANCH   9  10
ENDBRANCH   8   9
ENDBRANCH   1   7
BRANCH   1  18
HETATM   18  C11 UNL     1       2.545  -0.308   0.950  1.00  0.00    -0.068 A 
HETATM   19  C12 UNL     1       3.910  -0.331   1.217  1.00  0.00    -0.001 A 
HETATM   20  C13 UNL     1       4.371  -1.018   2.334  1.00  0.00     0.019 A 
HETATM   21  C14 UNL     1       3.543  -1.691   3.210  1.00  0.00     0.116 A 
HETATM   22  N4  UNL     1       2.205  -1.666   2.944  1.00  0.00    -0.274 NA
HETATM   23  C15 UNL     1       1.754  -1.003   1.864  1.00  0.00     0.112 A 
ENDBRANCH   1  18
TORSDOF 7
