REMARK  6 active torsions:
REMARK  status: ('A' for Active; 'I' for Inactive)
REMARK    1  A    between atoms: N1_3  and  C3_4 
REMARK    2  A    between atoms: C4_5  and  C5_6 
REMARK    3  A    between atoms: C6_7  and  C7_8 
REMARK    4  A    between atoms: N3_11  and  C9_12 
REMARK    5  A    between atoms: C13_16  and  N4_17 
REMARK       I    between atoms: N4_17  and  C14_18 
REMARK    6  A    between atoms: C14_18  and  C15_20 
ROOT
HETATM    1  C9  UNL     1       0.195  -0.267   0.859  1.00  0.00     0.055 A 
HETATM    2  C10 UNL     1       0.241  -0.945   2.060  1.00  0.00     0.031 A 
HETATM    3  C11 UNL     1      -0.869  -1.352   2.772  1.00  0.00     0.005 A 
HETATM    4  C12 UNL     1      -2.105  -1.041   2.212  1.00  0.00     0.029 A 
HETATM    5  C13 UNL     1      -2.240  -0.361   1.007  1.00  0.00     0.037 A 
HETATM    6  C22 UNL     1      -1.054  -0.002   0.380  1.00  0.00     0.060 A 
ENDROOT
BRANCH   1   7
HETATM    7  N3  UNL     1       1.351   0.141   0.147  1.00  0.00    -0.271 N 
HETATM    8  C8  UNL     1       1.426   0.841  -1.095  1.00  0.00     0.300 A 
HETATM    9  N2  UNL     1       2.833   1.001  -1.366  1.00  0.00    -0.250 NA
HETATM   10  C7  UNL     1       3.579   0.500  -0.472  1.00  0.00     0.138 A 
HETATM   11  N5  UNL     1       2.689  -0.046   0.490  1.00  0.00    -0.280 N 
HETATM   12  H23 UNL     1       2.942  -0.542   1.370  1.00  0.00     0.189 HD
BRANCH  10  13
HETATM   13  C6  UNL     1       5.029   0.540  -0.530  1.00  0.00     0.051 C 
HETATM   14  C5  UNL     1       5.880   0.051   0.344  1.00  0.00     0.005 C 
BRANCH  14  15
HETATM   15  C4  UNL     1       6.277  -0.633   1.560  1.00  0.00     0.019 C 
HETATM   16  C3  UNL     1       7.199  -1.080   2.361  1.00  0.00     0.116 C 
BRANCH  16  17
HETATM   17  N1  UNL     1       8.311  -0.645   1.597  1.00  0.00    -0.278 NA
HETATM   18  C2  UNL     1       8.913  -1.459   0.798  1.00  0.00     0.085 C 
HETATM   19  C1  UNL     1      10.074  -0.876   0.047  1.00  0.00     0.057 C 
ENDBRANCH  16  17
ENDBRANCH  14  15
ENDBRANCH  10  13
ENDBRANCH   1   7
BRANCH   5  20
HETATM   20  N4  UNL     1      -3.510  -0.062   0.466  1.00  0.00    -0.323 N 
HETATM   21  C14 UNL     1      -4.465  -0.652  -0.403  1.00  0.00     0.256 C 
HETATM   22  O1  UNL     1      -4.138  -1.778  -0.860  1.00  0.00    -0.267 OA
HETATM   23  H14 UNL     1      -3.586   0.849   0.941  1.00  0.00     0.169 HD
BRANCH  21  24
HETATM   24  C15 UNL     1      -5.682   0.081  -0.669  1.00  0.00     0.032 A 
HETATM   25  C16 UNL     1      -6.056   1.307  -0.181  1.00  0.00     0.017 A 
HETATM   26  C17 UNL     1      -7.259   1.883  -0.527  1.00  0.00     0.007 A 
HETATM   27  C18 UNL     1      -8.133   1.241  -1.382  1.00  0.00    -0.062 A 
HETATM   28  C19 UNL     1      -9.372   1.990  -1.650  1.00  0.00     0.048 C 
HETATM   29  C20 UNL     1      -7.757   0.009  -1.871  1.00  0.00     0.007 A 
HETATM   30  C21 UNL     1      -6.549  -0.566  -1.522  1.00  0.00     0.017 A 
ENDBRANCH  21  24
ENDBRANCH   5  20
TORSDOF 6
