REMARK  2 active torsions:
REMARK  status: ('A' for Active; 'I' for Inactive)
REMARK    1  A    between atoms: C1_2  and  C2_3 
REMARK    2  A    between atoms: C1_2  and  C17_22 
ROOT
HETATM    1  C2  UNL     1       1.538  -0.250   0.266  1.00  0.00    -0.015 C 
HETATM    2  C3  UNL     1       1.315  -1.427  -0.397  1.00  0.00     0.053 C 
HETATM    3  C4  UNL     1       0.660  -2.600  -1.068  1.00  0.00    -0.019 C 
HETATM    4  C5  UNL     1      -0.457  -3.234  -1.489  1.00  0.00    -0.010 C 
HETATM    5  C6  UNL     1      -1.896  -2.968  -1.491  1.00  0.00     0.165 C 
HETATM    6  N1  UNL     1      -2.703  -3.499  -0.395  1.00  0.00    -0.219 N 
HETATM    7  C7  UNL     1      -2.047  -2.404   0.351  1.00  0.00     0.723 A 
HETATM    8  N2  UNL     1      -0.981  -2.741   1.156  1.00  0.00    -0.075 NA
HETATM    9  C8  UNL     1      -0.240  -1.608   1.476  1.00  0.00     0.146 A 
HETATM   10  C9  UNL     1      -0.752  -0.447   0.913  1.00  0.00    -0.006 A 
HETATM   11  C10 UNL     1      -1.791  -0.085   0.140  1.00  0.00     0.095 A 
HETATM   12  C11 UNL     1      -2.330   1.124  -0.399  1.00  0.00     0.011 A 
HETATM   13  C12 UNL     1      -1.780   2.123  -1.168  1.00  0.00     0.017 A 
HETATM   14  C13 UNL     1      -2.451   3.260  -1.560  1.00  0.00     0.020 A 
HETATM   15  C14 UNL     1      -3.753   3.341  -1.121  1.00  0.00     0.116 A 
HETATM   16  N3  UNL     1      -4.366   2.412  -0.369  1.00  0.00    -0.272 NA
HETATM   17  C15 UNL     1      -3.666   1.300  -0.001  1.00  0.00     0.130 A 
HETATM   18  N4  UNL     1      -2.482  -1.190  -0.147  1.00  0.00    -0.062 NA
HETATM   19  C16 UNL     1       0.401   0.551   0.984  1.00  0.00     0.081 C 
HETATM   20  H6  UNL     1      -3.369  -4.302  -0.389  1.00  0.00     0.178 HD
ENDROOT
BRANCH   1  21
HETATM   21  C1  UNL     1       2.968  -0.302   0.226  1.00  0.00     0.192 C 
HETATM   22  O1  UNL     1       3.473  -1.285  -0.329  1.00  0.00    -0.287 OA
BRANCH  21  23
HETATM   23  C17 UNL     1       3.729   0.753   0.811  1.00  0.00     0.055 A 
HETATM   24  C18 UNL     1       3.504   1.971   1.494  1.00  0.00     0.023 A 
HETATM   25  C19 UNL     1       4.587   2.687   1.887  1.00  0.00     0.009 A 
HETATM   26  C20 UNL     1       5.916   2.261   1.639  1.00  0.00     0.050 A 
HETATM   27  S1  UNL     1       5.616   0.621   0.724  1.00  0.00    -0.098 SA
ENDBRANCH  21  23
ENDBRANCH   1  21
TORSDOF 2
