REMARK  5 active torsions:
REMARK  status: ('A' for Active; 'I' for Inactive)
REMARK    1  A    between atoms: C3_3  and  O1_4 
REMARK    2  A    between atoms: O1_4  and  C4_5 
REMARK    3  A    between atoms: N2_11  and  C9_12 
REMARK    4  A    between atoms: C13_16  and  N3_17 
REMARK    5  A    between atoms: N3_17  and  C14_18 
ROOT
HETATM    1  C9  UNL     1      -0.191  -1.904  -0.028  1.00  0.00     0.034 A 
HETATM    2  C10 UNL     1       0.529  -3.002  -0.438  1.00  0.00     0.029 A 
HETATM    3  C11 UNL     1       1.813  -2.806  -0.874  1.00  0.00     0.004 A 
HETATM    4  C12 UNL     1       2.356  -1.541  -0.895  1.00  0.00     0.030 A 
HETATM    5  C13 UNL     1       1.673  -0.417  -0.494  1.00  0.00     0.051 A 
HETATM    6  C18 UNL     1       0.388  -0.671  -0.066  1.00  0.00     0.059 A 
ENDROOT
BRANCH   1   7
HETATM    7  N2  UNL     1      -1.529  -2.107   0.426  1.00  0.00    -0.347 N 
HETATM    8  C3  UNL     1      -2.645  -1.306   0.953  1.00  0.00     0.254 C 
HETATM    9  C2  UNL     1      -2.971  -2.087   2.201  1.00  0.00     0.024 C 
HETATM   10  C1  UNL     1      -2.729  -3.359   1.912  1.00  0.00    -0.007 C 
HETATM   11  C19 UNL     1      -2.257  -3.359   0.495  1.00  0.00     0.153 C 
BRANCH   8  12
HETATM   12  O1  UNL     1      -2.304   0.007   1.238  1.00  0.00    -0.321 OA
BRANCH  12  13
HETATM   13  C4  UNL     1      -2.968   1.065   0.652  1.00  0.00     0.089 A 
HETATM   14  C5  UNL     1      -2.408   2.257   1.128  1.00  0.00     0.040 A 
HETATM   15  C6  UNL     1      -2.892   3.498   0.696  1.00  0.00     0.022 A 
HETATM   16  C7  UNL     1      -3.931   3.481  -0.205  1.00  0.00     0.116 A 
HETATM   17  N1  UNL     1      -4.470   2.343  -0.663  1.00  0.00    -0.270 NA
HETATM   18  C8  UNL     1      -4.003   1.158  -0.248  1.00  0.00     0.152 A 
ENDBRANCH  12  13
ENDBRANCH   8  12
ENDBRANCH   1   7
BRANCH   5  19
HETATM   19  N3  UNL     1       2.159   0.913  -0.486  1.00  0.00    -0.188 N 
HETATM   20  H11 UNL     1       1.499   1.658  -0.145  1.00  0.00     0.184 HD
BRANCH  19  21
HETATM   21  C14 UNL     1       3.440   1.361  -0.886  1.00  0.00     0.726 A 
HETATM   22  N4  UNL     1       3.750   2.652  -0.820  1.00  0.00    -0.075 NA
HETATM   23  C15 UNL     1       4.917   3.208  -1.164  1.00  0.00     0.138 A 
HETATM   24  C16 UNL     1       5.921   2.397  -1.638  1.00  0.00     0.040 A 
HETATM   25  C17 UNL     1       5.643   1.052  -1.724  1.00  0.00     0.138 A 
HETATM   26  N5  UNL     1       4.439   0.606  -1.351  1.00  0.00    -0.075 NA
ENDBRANCH  19  21
ENDBRANCH   5  19
TORSDOF 5
