REMARK  1 active torsions:
REMARK  status: ('A' for Active; 'I' for Inactive)
REMARK    1  A    between atoms: C16_22  and  O2_23 
ROOT
HETATM    1  O1  UNL     1       0.007   2.248   0.469  1.00  0.00    -0.267 OA
HETATM    2  C1  UNL     1       0.870   2.359  -0.411  1.00  0.00     0.263 C 
HETATM    3  N1  UNL     1      -0.151   2.770  -1.231  1.00  0.00    -0.322 N 
HETATM    4  C2  UNL     1      -1.511   2.840  -0.744  1.00  0.00     0.037 A 
HETATM    5  C3  UNL     1      -2.278   3.977  -0.603  1.00  0.00     0.029 A 
HETATM    6  C4  UNL     1      -3.564   3.864  -0.122  1.00  0.00     0.004 A 
HETATM    7  C5  UNL     1      -4.110   2.647   0.223  1.00  0.00     0.030 A 
HETATM    8  C6  UNL     1      -3.358   1.502   0.088  1.00  0.00     0.051 A 
HETATM    9  C7  UNL     1      -2.072   1.603  -0.391  1.00  0.00     0.059 A 
HETATM   10  N2  UNL     1      -3.894   0.234   0.435  1.00  0.00    -0.188 N 
HETATM   11  C8  UNL     1      -3.257  -0.987   0.089  1.00  0.00     0.727 A 
HETATM   12  N3  UNL     1      -3.828  -1.437  -1.040  1.00  0.00    -0.075 NA
HETATM   13  C9  UNL     1      -3.434  -2.603  -1.634  1.00  0.00     0.138 A 
HETATM   14  C10 UNL     1      -2.411  -3.235  -0.948  1.00  0.00     0.048 A 
HETATM   15  C11 UNL     1      -1.807  -2.774   0.230  1.00  0.00     0.059 A 
HETATM   16  N4  UNL     1      -2.262  -1.618   0.740  1.00  0.00    -0.067 NA
HETATM   17  C12 UNL     1      -0.733  -3.564   0.843  1.00  0.00     0.106 C 
HETATM   18  C13 UNL     1       0.549  -2.876   0.972  1.00  0.00     0.095 C 
HETATM   19  N5  UNL     1       1.735  -3.404   0.953  1.00  0.00    -0.277 NA
HETATM   20  C14 UNL     1       2.858  -2.501   1.101  1.00  0.00     0.114 C 
HETATM   21  C15 UNL     1       3.634  -1.628   0.487  1.00  0.00     0.028 C 
HETATM   22  C16 UNL     1       4.716  -0.618   0.231  1.00  0.00     0.176 C 
HETATM   23  C17 UNL     1       4.121   0.768   0.329  1.00  0.00    -0.018 A 
HETATM   24  C18 UNL     1       4.736   2.011   0.829  1.00  0.00     0.060 A 
HETATM   25  S1  UNL     1       3.272   3.203   0.606  1.00  0.00    -0.096 SA
HETATM   26  C19 UNL     1       2.209   2.021  -0.034  1.00  0.00     0.073 A 
HETATM   27  C20 UNL     1       2.835   0.839  -0.095  1.00  0.00     0.035 A 
HETATM   28  H1  UNL     1      -0.310   3.091  -2.190  1.00  0.00     0.169 HD
HETATM   29  H6  UNL     1      -4.786   0.125   0.962  1.00  0.00     0.184 HD
ENDROOT
BRANCH  22  30
HETATM   30  O2  UNL     1       5.346  -0.843  -0.972  1.00  0.00    -0.387 OA
HETATM   31  H15 UNL     1       6.309  -0.687  -0.868  1.00  0.00     0.210 HD
ENDBRANCH  22  30
TORSDOF 1
