REMARK  1 active torsions:
REMARK  status: ('A' for Active; 'I' for Inactive)
REMARK    1  A    between atoms: C15_20  and  C16_21 
ROOT
HETATM    1  C1  UNL     1      -0.097  -0.883   3.279  1.00  0.00     0.180 C 
HETATM    2  N1  UNL     1      -0.829  -0.433   2.120  1.00  0.00    -0.275 N 
HETATM    3  C2  UNL     1      -1.036  -1.216   1.121  1.00  0.00     0.124 A 
HETATM    4  C3  UNL     1      -0.492  -2.569   1.234  1.00  0.00     0.107 C 
HETATM    5  C4  UNL     1       0.539  -2.825   0.168  1.00  0.00    -0.019 C 
HETATM    6  C5  UNL     1       1.151  -3.370  -0.864  1.00  0.00    -0.006 C 
HETATM    7  C6  UNL     1       2.330  -3.297  -1.713  1.00  0.00    -0.000 C 
HETATM    8  C7  UNL     1       2.775  -2.280  -1.034  1.00  0.00     0.126 C 
HETATM    9  N2  UNL     1       3.674  -1.261  -0.709  1.00  0.00    -0.409 N 
HETATM   10  C8  UNL     1       3.058   0.027  -1.051  1.00  0.00     0.142 C 
HETATM   11  C9  UNL     1       3.971   1.144  -0.748  1.00  0.00    -0.008 C 
HETATM   12  C10 UNL     1       4.044   2.223  -0.019  1.00  0.00    -0.001 C 
HETATM   13  C11 UNL     1       3.080   2.778   0.894  1.00  0.00     0.024 C 
HETATM   14  C12 UNL     1       1.927   2.778   1.516  1.00  0.00     0.143 C 
HETATM   15  O1  UNL     1       0.805   3.009   2.286  1.00  0.00    -0.314 OA
HETATM   16  C13 UNL     1      -0.213   3.868   1.895  1.00  0.00     0.279 C 
HETATM   17  N3  UNL     1      -0.771   2.720   1.846  1.00  0.00    -0.167 NA
HETATM   18  N4  UNL     1      -2.082   2.529   1.474  1.00  0.00    -0.307 N 
HETATM   19  C14 UNL     1      -2.655   1.944   0.309  1.00  0.00     0.201 C 
HETATM   20  C15 UNL     1      -2.322   0.523   0.075  1.00  0.00     0.067 C 
HETATM   21  N6  UNL     1      -1.570   0.077   0.985  1.00  0.00    -0.240 N 
HETATM   22  H10 UNL     1       4.650  -1.231  -0.287  1.00  0.00     0.154 HD
HETATM   23  H18 UNL     1      -2.610   2.939   2.296  1.00  0.00     0.182 HD
ENDROOT
BRANCH  20  24
HETATM   24  C16 UNL     1      -2.959   0.025  -1.152  1.00  0.00     0.008 A 
HETATM   25  C17 UNL     1      -3.775   0.761  -2.003  1.00  0.00     0.016 A 
HETATM   26  C18 UNL     1      -4.293   0.144  -3.116  1.00  0.00     0.020 A 
HETATM   27  C19 UNL     1      -4.070  -1.169  -3.470  1.00  0.00     0.116 A 
HETATM   28  N5  UNL     1      -3.269  -1.893  -2.634  1.00  0.00    -0.272 NA
HETATM   29  C20 UNL     1      -2.753  -1.282  -1.528  1.00  0.00     0.129 A 
ENDBRANCH  20  24
TORSDOF 1
