REMARK  4 active torsions:
REMARK  status: ('A' for Active; 'I' for Inactive)
REMARK    1  A    between atoms: C2_2  and  N1_3 
REMARK    2  A    between atoms: N3_10  and  N4_11 
REMARK    3  A    between atoms: C11_15  and  N5_16 
REMARK    4  A    between atoms: N5_16  and  C12_17 
ROOT
HETATM    1  N4  UNL     1      -0.680  -0.100   0.494  1.00  0.00    -0.313 N 
HETATM    2  C8  UNL     1      -0.730  -1.468   0.241  1.00  0.00     0.147 C 
HETATM    3  C9  UNL     1       0.503  -2.140   0.844  1.00  0.00     0.050 C 
HETATM    4  C10 UNL     1       1.685  -1.559   0.149  1.00  0.00     0.002 C 
HETATM    5  C11 UNL     1       1.601  -0.263  -0.107  1.00  0.00     0.025 C 
HETATM    6  C17 UNL     1       0.477   0.643   0.221  1.00  0.00     0.199 C 
ENDROOT
BRANCH   1   7
HETATM    7  N3  UNL     1      -1.784   0.571   0.934  1.00  0.00    -0.238 N 
HETATM    8  C3  UNL     1      -2.911   0.635   0.032  1.00  0.00     0.124 C 
HETATM    9  N1  UNL     1      -2.841  -0.381  -0.793  1.00  0.00    -0.275 NA
HETATM   10  C4  UNL     1      -3.949   1.717   0.093  1.00  0.00     0.108 C 
HETATM   11  C5  UNL     1      -4.561   1.753   1.423  1.00  0.00     0.000 C 
HETATM   12  C6  UNL     1      -4.019   1.726   2.612  1.00  0.00     0.114 C 
HETATM   13  N2  UNL     1      -2.636   1.651   3.015  1.00  0.00    -0.254 NA
HETATM   14  C7  UNL     1      -1.694   1.142   2.258  1.00  0.00     0.233 C 
BRANCH   9  15
HETATM   15  C2  UNL     1      -3.905  -0.470  -1.774  1.00  0.00     0.146 C 
HETATM   16  C1  UNL     1      -5.235  -0.807  -1.140  1.00  0.00     0.028 C 
ENDBRANCH   9  15
ENDBRANCH   1   7
BRANCH   5  17
HETATM   17  N5  UNL     1       2.721   0.330  -0.775  1.00  0.00    -0.361 N 
HETATM   18  H16 UNL     1       2.557   1.104  -1.477  1.00  0.00     0.165 HD
BRANCH  17  19
HETATM   19  C12 UNL     1       4.126   0.030  -0.643  1.00  0.00     0.021 A 
HETATM   20  C13 UNL     1       4.735  -0.585  -1.617  1.00  0.00     0.026 A 
HETATM   21  C14 UNL     1       6.130  -0.946  -1.620  1.00  0.00     0.011 A 
HETATM   22  C15 UNL     1       6.835  -0.624  -0.546  1.00  0.00     0.079 A 
HETATM   23  S1  UNL     1       6.271   0.207   0.914  1.00  0.00     0.044 S 
HETATM   24  O1  UNL     1       6.994   1.545   1.013  1.00  0.00    -0.253 OA
HETATM   25  C16 UNL     1       4.521   0.553   0.686  1.00  0.00     0.170 A 
ENDBRANCH  17  19
ENDBRANCH   5  17
TORSDOF 4
