REMARK  6 active torsions:
REMARK  status: ('A' for Active; 'I' for Inactive)
REMARK    1  A    between atoms: C5_6  and  C6_7 
REMARK       I    between atoms: C6_7  and  N2_9 
REMARK    2  A    between atoms: N2_9  and  C7_10 
REMARK    3  A    between atoms: C8_11  and  C9_12 
REMARK    4  A    between atoms: C10_13  and  N3_14 
REMARK    5  A    between atoms: N3_14  and  C11_15 
REMARK    6  A    between atoms: C14_19  and  C15_20 
ROOT
HETATM    1  N1  UNL     1       9.744   3.812  -0.165  1.00  0.00    -0.190 NA
HETATM    2  C1  UNL     1       8.800   3.149  -0.293  1.00  0.00     0.119 C 
HETATM    3  C2  UNL     1       7.620   2.328  -0.434  1.00  0.00     0.136 A 
HETATM    4  C3  UNL     1       6.626   2.298   0.554  1.00  0.00     0.044 A 
HETATM    5  C4  UNL     1       5.514   1.499   0.378  1.00  0.00     0.021 A 
HETATM    6  C5  UNL     1       5.353   0.724  -0.752  1.00  0.00     0.050 A 
HETATM    7  C22 UNL     1       6.347   0.773  -1.707  1.00  0.00     0.135 A 
HETATM    8  N7  UNL     1       7.431   1.551  -1.536  1.00  0.00    -0.249 NA
ENDROOT
BRANCH   6   9
HETATM    9  C6  UNL     1       4.223  -0.154  -1.041  1.00  0.00     0.257 C 
HETATM   10  O1  UNL     1       4.105  -0.847  -2.072  1.00  0.00    -0.267 OA
HETATM   11  N2  UNL     1       3.127  -0.293  -0.138  1.00  0.00    -0.322 N 
HETATM   12  H3  UNL     1       3.105   0.235   0.763  1.00  0.00     0.169 HD
BRANCH  11  13
HETATM   13  C7  UNL     1       2.022  -1.154  -0.426  1.00  0.00     0.045 A 
HETATM   14  C8  UNL     1       0.881  -1.513   0.160  1.00  0.00    -0.008 A 
HETATM   15  C20 UNL     1       0.533  -2.394  -0.947  1.00  0.00     0.016 A 
HETATM   16  C21 UNL     1       1.667  -2.046  -1.541  1.00  0.00     0.031 A 
BRANCH  14  17
HETATM   17  C9  UNL     1       0.238  -1.158   1.415  1.00  0.00     0.031 C 
HETATM   18  C10 UNL     1      -0.917  -1.672   1.756  1.00  0.00     0.107 C 
BRANCH  18  19
HETATM   19  N3  UNL     1      -1.697  -2.602   1.018  1.00  0.00    -0.198 N 
HETATM   20  H6  UNL     1      -1.315  -3.559   0.852  1.00  0.00     0.183 HD
BRANCH  19  21
HETATM   21  C11 UNL     1      -2.982  -2.304   0.484  1.00  0.00     0.726 A 
HETATM   22  N4  UNL     1      -3.696  -3.209  -0.210  1.00  0.00    -0.075 NA
HETATM   23  C12 UNL     1      -4.912  -2.954  -0.725  1.00  0.00     0.139 A 
HETATM   24  C13 UNL     1      -5.421  -1.688  -0.509  1.00  0.00     0.053 A 
HETATM   25  C14 UNL     1      -4.722  -0.733   0.196  1.00  0.00     0.089 A 
HETATM   26  N6  UNL     1      -3.530  -1.072   0.668  1.00  0.00    -0.062 NA
BRANCH  25  27
HETATM   27  C15 UNL     1      -5.216   0.613   0.448  1.00  0.00     0.011 A 
HETATM   28  C16 UNL     1      -4.415   1.470   1.167  1.00  0.00     0.017 A 
HETATM   29  C17 UNL     1      -4.904   2.740   1.394  1.00  0.00     0.020 A 
HETATM   30  C18 UNL     1      -6.140   3.234   0.959  1.00  0.00     0.116 A 
HETATM   31  N5  UNL     1      -6.885   2.337   0.253  1.00  0.00    -0.272 NA
HETATM   32  C19 UNL     1      -6.435   1.093   0.017  1.00  0.00     0.130 A 
ENDBRANCH  25  27
ENDBRANCH  19  21
ENDBRANCH  18  19
ENDBRANCH  14  17
ENDBRANCH  11  13
ENDBRANCH   6   9
TORSDOF 6
