REMARK  6 active torsions:
REMARK  status: ('A' for Active; 'I' for Inactive)
REMARK    1  A    between atoms: N1_3  and  C3_4 
REMARK    2  A    between atoms: C4_5  and  C5_6 
REMARK    3  A    between atoms: C5_6  and  C6_7 
REMARK    4  A    between atoms: C9_11  and  N3_12 
REMARK    5  A    between atoms: N3_12  and  C10_13 
REMARK    6  A    between atoms: C16_19  and  O1_20 
ROOT
HETATM    1  C10 UNL     1      -0.736  -0.173  -0.365  1.00  0.00     0.033 A 
HETATM    2  C11 UNL     1      -1.210   0.911   0.273  1.00  0.00     0.055 A 
HETATM    3  C12 UNL     1      -2.613   0.607   0.533  1.00  0.00     0.039 A 
HETATM    4  C13 UNL     1      -2.965  -0.597   0.076  1.00  0.00    -0.041 A 
HETATM    5  C14 UNL     1      -1.780  -1.208  -0.548  1.00  0.00     0.094 A 
HETATM    6  C15 UNL     1      -4.372  -0.788   0.405  1.00  0.00     0.101 C 
HETATM    7  C16 UNL     1      -5.300  -1.020  -0.732  1.00  0.00     0.049 C 
HETATM    8  C18 UNL     1      -6.136  -0.107  -1.273  1.00  0.00     0.032 C 
HETATM    9  C19 UNL     1      -6.580   1.281  -1.197  1.00  0.00    -0.001 C 
HETATM   10  C20 UNL     1      -6.373   2.437  -0.571  1.00  0.00    -0.017 C 
HETATM   11  C21 UNL     1      -5.630   3.275   0.436  1.00  0.00     0.130 C 
HETATM   12  C22 UNL     1      -4.465   2.435   0.835  1.00  0.00     0.225 C 
HETATM   13  O2  UNL     1      -4.639   1.981  -0.307  1.00  0.00    -0.273 OA
HETATM   14  N4  UNL     1      -3.358   1.637   1.214  1.00  0.00    -0.327 N 
HETATM   15  H25 UNL     1      -3.248   2.046   2.143  1.00  0.00     0.169 HD
ENDROOT
BRANCH   1  16
HETATM   16  N3  UNL     1       0.570  -0.464  -0.873  1.00  0.00    -0.192 N 
HETATM   17  H11 UNL     1       0.664  -0.440  -1.908  1.00  0.00     0.184 HD
BRANCH  16  18
HETATM   18  C9  UNL     1       1.657  -0.764  -0.024  1.00  0.00     0.726 A 
HETATM   19  N2  UNL     1       1.497  -0.785   1.306  1.00  0.00    -0.075 NA
HETATM   20  C8  UNL     1       2.512  -1.069   2.159  1.00  0.00     0.138 A 
HETATM   21  C7  UNL     1       3.720  -1.335   1.544  1.00  0.00     0.048 A 
HETATM   22  C6  UNL     1       3.922  -1.322   0.168  1.00  0.00     0.058 A 
HETATM   23  N5  UNL     1       2.846  -1.028  -0.566  1.00  0.00    -0.067 NA
BRANCH  22  24
HETATM   24  C5  UNL     1       5.259  -1.622  -0.369  1.00  0.00     0.088 C 
BRANCH  24  25
HETATM   25  C4  UNL     1       6.091  -0.402  -0.511  1.00  0.00    -0.002 C 
HETATM   26  C3  UNL     1       7.251  -0.201   0.104  1.00  0.00     0.112 C 
BRANCH  26  27
HETATM   27  N1  UNL     1       8.343   0.689   0.302  1.00  0.00    -0.278 NA
HETATM   28  C2  UNL     1       8.718   1.437  -0.702  1.00  0.00     0.085 C 
HETATM   29  C1  UNL     1       9.873   2.284  -0.264  1.00  0.00     0.057 C 
ENDBRANCH  26  27
ENDBRANCH  24  25
ENDBRANCH  22  24
ENDBRANCH  16  18
ENDBRANCH   1  16
BRANCH   7  30
HETATM   30  O1  UNL     1      -5.274  -2.295  -1.254  1.00  0.00    -0.360 OA
HETATM   31  C17 UNL     1      -5.511  -3.435  -0.462  1.00  0.00     0.209 C 
ENDBRANCH   7  30
TORSDOF 6
