REMARK  3 active torsions:
REMARK  status: ('A' for Active; 'I' for Inactive)
REMARK    1  A    between atoms: C3_3  and  C4_4 
REMARK    2  A    between atoms: C9_10  and  N2_11 
REMARK    3  A    between atoms: N2_11  and  C10_12 
ROOT
HETATM    1  C4  UNL     1      -2.586   0.353   0.097  1.00  0.00     0.093 C 
HETATM    2  C5  UNL     1      -2.931   1.792  -0.075  1.00  0.00    -0.006 C 
HETATM    3  C6  UNL     1      -1.747   2.269   0.277  1.00  0.00    -0.042 C 
HETATM    4  C7  UNL     1      -0.574   2.822  -0.546  1.00  0.00     0.156 C 
HETATM    5  N1  UNL     1       0.331   1.623  -0.503  1.00  0.00    -0.382 N 
HETATM    6  C8  UNL     1      -0.058   0.314   0.033  1.00  0.00     0.109 A 
HETATM    7  C9  UNL     1       0.896  -0.604  -0.252  1.00  0.00     0.156 A 
HETATM    8  N3  UNL     1       0.704  -1.925   0.165  1.00  0.00    -0.224 NA
HETATM    9  C16 UNL     1      -0.321  -2.346   0.807  1.00  0.00     0.207 A 
HETATM   10  N4  UNL     1      -1.327  -1.392   1.109  1.00  0.00    -0.347 N 
HETATM   11  C17 UNL     1      -1.328   0.041   0.792  1.00  0.00     0.192 A 
HETATM   12  O1  UNL     1      -1.251   0.745   1.992  1.00  0.00    -0.350 OA
HETATM   13  C18 UNL     1      -1.500   2.120   1.784  1.00  0.00     0.207 C 
HETATM   14  H10 UNL     1       1.292   1.761  -0.885  1.00  0.00     0.160 HD
HETATM   15  H17 UNL     1      -2.223  -1.647   1.621  1.00  0.00     0.163 HD
ENDROOT
BRANCH   7  16
HETATM   16  N2  UNL     1       2.042  -0.204  -0.968  1.00  0.00    -0.339 N 
HETATM   17  H11 UNL     1       2.078   0.206  -1.946  1.00  0.00     0.167 HD
BRANCH  16  18
HETATM   18  C10 UNL     1       3.308  -0.354  -0.331  1.00  0.00     0.035 A 
HETATM   19  C11 UNL     1       3.411  -0.875   0.948  1.00  0.00     0.029 A 
HETATM   20  C12 UNL     1       4.629  -1.029   1.583  1.00  0.00     0.004 A 
HETATM   21  C13 UNL     1       5.800  -0.661   0.949  1.00  0.00     0.019 A 
HETATM   22  C14 UNL     1       5.735  -0.138  -0.325  1.00  0.00     0.013 A 
HETATM   23 BR1  UNL     1       7.312   0.406  -1.291  1.00  0.00    -0.051 Br
HETATM   24  C15 UNL     1       4.509  -0.004  -0.913  1.00  0.00     0.048 A 
ENDBRANCH  16  18
ENDBRANCH   7  16
BRANCH   1  25
HETATM   25  C3  UNL     1      -2.779  -0.403  -1.173  1.00  0.00    -0.017 C 
HETATM   26  C2  UNL     1      -3.782  -1.229  -1.432  1.00  0.00    -0.034 C 
HETATM   27  C1  UNL     1      -4.946  -1.653  -0.640  1.00  0.00     0.036 C 
ENDBRANCH   1  25
TORSDOF 3
