REMARK  6 active torsions:
REMARK  status: ('A' for Active; 'I' for Inactive)
REMARK    1  A    between atoms: O1_2  and  C2_3 
REMARK    2  A    between atoms: C6_7  and  N1_8 
REMARK    3  A    between atoms: N1_8  and  C7_9 
REMARK    4  A    between atoms: C11_13  and  N2_14 
REMARK    5  A    between atoms: N2_14  and  C12_15 
REMARK    6  A    between atoms: C15_19  and  C16_20 
ROOT
HETATM    1  C7  UNL     1       1.791  -0.392  -0.841  1.00  0.00     0.034 A 
HETATM    2  C8  UNL     1       1.326   0.792  -1.363  1.00  0.00     0.029 A 
HETATM    3  C9  UNL     1       0.057   1.350  -1.135  1.00  0.00     0.004 A 
HETATM    4  C10 UNL     1      -0.684   0.524  -0.286  1.00  0.00     0.030 A 
HETATM    5  C11 UNL     1      -0.323  -0.658   0.280  1.00  0.00     0.051 A 
HETATM    6  C21 UNL     1       0.938  -1.095  -0.023  1.00  0.00     0.059 A 
ENDROOT
BRANCH   5   7
HETATM    7  N2  UNL     1      -1.150  -1.419   1.139  1.00  0.00    -0.188 N 
HETATM    8  H10 UNL     1      -0.794  -2.326   1.520  1.00  0.00     0.184 HD
BRANCH   7   9
HETATM    9  C12 UNL     1      -2.440  -1.181   1.611  1.00  0.00     0.727 A 
HETATM   10  N3  UNL     1      -2.785  -1.266   2.936  1.00  0.00    -0.075 NA
HETATM   11  C13 UNL     1      -4.080  -1.012   3.277  1.00  0.00     0.139 A 
HETATM   12  C14 UNL     1      -4.985  -0.682   2.287  1.00  0.00     0.053 A 
HETATM   13  C15 UNL     1      -4.638  -0.593   0.945  1.00  0.00     0.089 A 
HETATM   14  N5  UNL     1      -3.348  -0.858   0.686  1.00  0.00    -0.062 NA
BRANCH  13  15
HETATM   15  C16 UNL     1      -5.576  -0.248  -0.110  1.00  0.00     0.011 A 
HETATM   16  C17 UNL     1      -6.901   0.041   0.084  1.00  0.00     0.017 A 
HETATM   17  C18 UNL     1      -7.763   0.359  -0.938  1.00  0.00     0.020 A 
HETATM   18  C19 UNL     1      -7.176   0.361  -2.190  1.00  0.00     0.116 A 
HETATM   19  N4  UNL     1      -5.873   0.085  -2.452  1.00  0.00    -0.272 NA
HETATM   20  C20 UNL     1      -5.057  -0.223  -1.406  1.00  0.00     0.130 A 
ENDBRANCH  13  15
ENDBRANCH   7   9
ENDBRANCH   5   7
BRANCH   1  21
HETATM   21  N1  UNL     1       3.061  -0.948  -1.039  1.00  0.00    -0.358 N 
HETATM   22  H6  UNL     1       3.000  -1.389  -1.993  1.00  0.00     0.166 HD
BRANCH  21  23
HETATM   23  C6  UNL     1       4.110  -0.855  -0.074  1.00  0.00     0.027 C 
HETATM   24  C5  UNL     1       4.917  -1.749   0.391  1.00  0.00    -0.001 C 
HETATM   25  C4  UNL     1       6.172  -1.511   0.629  1.00  0.00     0.017 C 
HETATM   26  C3  UNL     1       6.660  -0.173   0.307  1.00  0.00     0.033 C 
HETATM   27  C2  UNL     1       5.790   0.814   0.271  1.00  0.00     0.051 C 
HETATM   28  C22 UNL     1       4.375   0.479   0.564  1.00  0.00     0.122 C 
BRANCH  27  29
HETATM   29  O1  UNL     1       6.051   2.144  -0.013  1.00  0.00    -0.360 OA
HETATM   30  C1  UNL     1       7.244   2.556  -0.676  1.00  0.00     0.209 C 
ENDBRANCH  27  29
ENDBRANCH  21  23
ENDBRANCH   1  21
TORSDOF 6
