REMARK  3 active torsions:
REMARK  status: ('A' for Active; 'I' for Inactive)
REMARK    1  A    between atoms: O1_2  and  C2_3 
REMARK    2  A    between atoms: C13_15  and  N2_16 
REMARK    3  A    between atoms: C16_20  and  C17_21 
ROOT
HETATM    1  C2  UNL     1      -3.863   0.582   0.173  1.00  0.00     0.076 A 
HETATM    2  C3  UNL     1      -2.713   1.272  -0.153  1.00  0.00     0.038 A 
HETATM    3  C4  UNL     1      -1.471   0.679  -0.030  1.00  0.00     0.016 A 
HETATM    4  C5  UNL     1      -1.480  -0.615   0.434  1.00  0.00    -0.006 A 
HETATM    5  C6  UNL     1      -2.491  -1.451   0.810  1.00  0.00     0.025 A 
HETATM    6  C7  UNL     1      -3.592  -0.682   0.605  1.00  0.00    -0.006 A 
HETATM    7  C8  UNL     1      -4.782  -1.617   0.702  1.00  0.00     0.160 C 
HETATM    8  N1  UNL     1      -4.313  -2.710  -0.233  1.00  0.00    -0.394 N 
HETATM    9  C9  UNL     1      -3.491  -2.062  -1.246  1.00  0.00     0.083 C 
HETATM   10  C10 UNL     1      -2.165  -2.041  -1.602  1.00  0.00     0.018 C 
HETATM   11  C11 UNL     1      -1.078  -2.772  -0.962  1.00  0.00     0.016 C 
HETATM   12  C12 UNL     1      -0.140  -2.516  -0.053  1.00  0.00     0.006 C 
HETATM   13  C13 UNL     1      -0.183  -1.280   0.434  1.00  0.00     0.081 C 
HETATM   14  H9  UNL     1      -4.210  -3.671  -0.615  1.00  0.00     0.159 HD
ENDROOT
BRANCH  13  15
HETATM   15  N2  UNL     1       0.872  -0.504   0.946  1.00  0.00    -0.226 N 
HETATM   16  C14 UNL     1       0.736   0.314   2.094  1.00  0.00     0.229 A 
HETATM   17  N3  UNL     1       1.663   1.028   2.579  1.00  0.00    -0.277 NA
HETATM   18  C15 UNL     1       2.976   1.094   2.016  1.00  0.00     0.212 A 
HETATM   19  C16 UNL     1       3.089   0.232   0.821  1.00  0.00     0.087 A 
HETATM   20  N5  UNL     1       2.125  -0.498   0.334  1.00  0.00    -0.168 NA
BRANCH  19  21
HETATM   21  C17 UNL     1       4.408   0.246   0.187  1.00  0.00     0.016 A 
HETATM   22  C18 UNL     1       5.395  -0.707   0.325  1.00  0.00     0.017 A 
HETATM   23  C19 UNL     1       6.592  -0.555  -0.339  1.00  0.00     0.020 A 
HETATM   24  C20 UNL     1       6.731   0.574  -1.120  1.00  0.00     0.117 A 
HETATM   25  N4  UNL     1       5.799   1.535  -1.288  1.00  0.00    -0.265 NA
HETATM   26  C21 UNL     1       4.620   1.368  -0.623  1.00  0.00     0.042 A 
HETATM   27  C22 UNL     1       3.614   2.440  -0.827  1.00  0.00     0.071 C 
ENDBRANCH  19  21
ENDBRANCH  13  15
BRANCH   1  28
HETATM   28  O1  UNL     1      -5.143   1.080   0.084  1.00  0.00    -0.355 OA
HETATM   29  C1  UNL     1      -5.270   2.411  -0.382  1.00  0.00     0.210 C 
ENDBRANCH   1  28
TORSDOF 3
