REMARK  9 active torsions:
REMARK  status: ('A' for Active; 'I' for Inactive)
REMARK    1  A    between atoms: O1_2  and  C2_3 
REMARK    2  A    between atoms: C6_7  and  C7_8 
REMARK       I    between atoms: C7_8  and  N1_10 
REMARK    3  A    between atoms: N1_10  and  C8_11 
REMARK    4  A    between atoms: C8_11  and  C9_12 
REMARK    5  A    between atoms: C9_12  and  C10_13 
REMARK    6  A    between atoms: C11_14  and  C12_15 
REMARK    7  A    between atoms: C12_15  and  N2_16 
REMARK    8  A    between atoms: N2_16  and  C13_17 
REMARK    9  A    between atoms: C16_21  and  C17_22 
ROOT
HETATM    1  C10 UNL     1      -0.961   1.357  -2.385  1.00  0.00    -0.026 C 
HETATM    2  C11 UNL     1       0.120   1.023  -1.715  1.00  0.00    -0.011 C 
ENDROOT
BRANCH   2   3
HETATM    3  C12 UNL     1       0.443   0.266  -0.501  1.00  0.00     0.150 C 
BRANCH   3   4
HETATM    4  N2  UNL     1       1.110   1.193   0.424  1.00  0.00    -0.345 N 
HETATM    5  H13 UNL     1       0.630   1.409   1.323  1.00  0.00     0.164 HD
BRANCH   4   6
HETATM    6  C13 UNL     1       2.355   1.778   0.113  1.00  0.00     0.277 A 
HETATM    7  N3  UNL     1       2.693   2.860  -0.600  1.00  0.00    -0.215 NA
HETATM    8  C14 UNL     1       4.025   3.222  -0.755  1.00  0.00     0.125 A 
HETATM    9  C15 UNL     1       4.946   2.352  -0.099  1.00  0.00     0.065 A 
HETATM   10  C16 UNL     1       4.653   1.172   0.685  1.00  0.00     0.124 A 
HETATM   11  N5  UNL     1       3.478   1.406   0.444  1.00  0.00    -0.369 NA
BRANCH  10  12
HETATM   12  C17 UNL     1       5.965   0.768   1.064  1.00  0.00     0.022 A 
HETATM   13  C18 UNL     1       7.257   1.111   0.843  1.00  0.00     0.018 A 
HETATM   14  C19 UNL     1       8.254   0.424   1.467  1.00  0.00     0.020 A 
HETATM   15  C20 UNL     1       7.985  -0.643   2.338  1.00  0.00     0.116 A 
HETATM   16  N4  UNL     1       6.689  -1.051   2.607  1.00  0.00    -0.272 NA
HETATM   17  C21 UNL     1       5.727  -0.303   1.937  1.00  0.00     0.131 A 
ENDBRANCH  10  12
ENDBRANCH   4   6
ENDBRANCH   3   4
ENDBRANCH   2   3
BRANCH   1  18
HETATM   18  C9  UNL     1      -2.254   0.885  -1.849  1.00  0.00     0.021 C 
BRANCH  18  19
HETATM   19  C8  UNL     1      -3.496   0.585  -1.563  1.00  0.00     0.143 C 
BRANCH  19  20
HETATM   20  N1  UNL     1      -4.303  -0.126  -0.602  1.00  0.00    -0.349 N 
HETATM   21  C7  UNL     1      -5.008  -1.064  -1.459  1.00  0.00     0.254 C 
HETATM   22  O2  UNL     1      -4.441  -0.620  -2.459  1.00  0.00    -0.268 OA
HETATM   23  H6  UNL     1      -4.449  -0.080   0.460  1.00  0.00     0.163 HD
BRANCH  21  24
HETATM   24  C6  UNL     1      -5.967  -1.999  -0.787  1.00  0.00     0.066 C 
HETATM   25  C2  UNL     1      -6.279  -2.035   0.617  1.00  0.00     0.095 C 
HETATM   26  C3  UNL     1      -6.822  -3.245   0.658  1.00  0.00     0.011 C 
HETATM   27  C4  UNL     1      -7.424  -3.565  -0.482  1.00  0.00     0.016 C 
HETATM   28  C5  UNL     1      -6.617  -2.887  -1.526  1.00  0.00     0.021 C 
BRANCH  25  29
HETATM   29  O1  UNL     1      -6.096  -1.139   1.656  1.00  0.00    -0.354 OA
HETATM   30  C1  UNL     1      -5.724  -1.737   2.913  1.00  0.00     0.210 C 
ENDBRANCH  25  29
ENDBRANCH  21  24
ENDBRANCH  19  20
ENDBRANCH  18  19
ENDBRANCH   1  18
TORSDOF 9
