REMARK  5 active torsions:
REMARK  status: ('A' for Active; 'I' for Inactive)
REMARK    1  A    between atoms: C5_6  and  C6_7 
REMARK       I    between atoms: C6_7  and  N2_9 
REMARK    2  A    between atoms: N2_9  and  C7_10 
REMARK    3  A    between atoms: C9_12  and  N3_13 
REMARK    4  A    between atoms: N3_13  and  C10_14 
REMARK    5  A    between atoms: C13_18  and  C14_19 
ROOT
HETATM    1  N1  UNL     1     -10.715   0.044  -1.351  1.00  0.00    -0.191 NA
HETATM    2  C1  UNL     1      -9.559  -0.039  -1.184  1.00  0.00     0.099 C 
HETATM    3  C2  UNL     1      -8.142  -0.126  -0.973  1.00  0.00     0.044 A 
HETATM    4  C3  UNL     1      -7.567   0.430   0.151  1.00  0.00     0.024 A 
HETATM    5  C4  UNL     1      -6.210   0.369   0.393  1.00  0.00     0.018 A 
HETATM    6  C5  UNL     1      -5.362  -0.260  -0.494  1.00  0.00     0.032 A 
HETATM    7  C21 UNL     1      -5.936  -0.828  -1.637  1.00  0.00     0.018 A 
HETATM    8  C22 UNL     1      -7.311  -0.772  -1.894  1.00  0.00     0.024 A 
ENDROOT
BRANCH   6   9
HETATM    9  C6  UNL     1      -3.915  -0.397  -0.362  1.00  0.00     0.256 C 
HETATM   10  O1  UNL     1      -3.183  -0.985  -1.205  1.00  0.00    -0.267 OA
HETATM   11  N2  UNL     1      -3.247   0.147   0.766  1.00  0.00    -0.323 N 
HETATM   12  H3  UNL     1      -3.734   0.656   1.534  1.00  0.00     0.169 HD
BRANCH  11  13
HETATM   13  C7  UNL     1      -1.883   0.141   1.106  1.00  0.00     0.033 A 
HETATM   14  C8  UNL     1      -0.942   1.044   1.332  1.00  0.00     0.032 A 
HETATM   15  C9  UNL     1       0.342   0.414   1.657  1.00  0.00     0.148 A 
HETATM   16  C19 UNL     1       0.015  -1.051   1.588  1.00  0.00     0.005 A 
HETATM   17  C20 UNL     1      -1.280  -1.196   1.267  1.00  0.00     0.027 A 
BRANCH  15  18
HETATM   18  N3  UNL     1       1.371   0.676   0.701  1.00  0.00    -0.211 N 
HETATM   19  H6  UNL     1       1.169   1.268  -0.132  1.00  0.00     0.178 HD
BRANCH  18  20
HETATM   20  C10 UNL     1       2.655   0.111   0.925  1.00  0.00     0.723 A 
HETATM   21  N4  UNL     1       2.825  -0.648   2.040  1.00  0.00    -0.075 NA
HETATM   22  C11 UNL     1       4.040  -1.213   2.300  1.00  0.00     0.139 A 
HETATM   23  C12 UNL     1       5.033  -0.946   1.354  1.00  0.00     0.053 A 
HETATM   24  C13 UNL     1       4.856  -0.176   0.225  1.00  0.00     0.089 A 
HETATM   25  N6  UNL     1       3.628   0.353   0.029  1.00  0.00    -0.062 NA
BRANCH  24  26
HETATM   26  C14 UNL     1       5.948   0.053  -0.713  1.00  0.00     0.011 A 
HETATM   27  C15 UNL     1       7.237  -0.426  -0.629  1.00  0.00     0.017 A 
HETATM   28  C16 UNL     1       8.162  -0.117  -1.606  1.00  0.00     0.020 A 
HETATM   29  C17 UNL     1       7.836   0.668  -2.682  1.00  0.00     0.116 A 
HETATM   30  N5  UNL     1       6.579   1.152  -2.790  1.00  0.00    -0.272 NA
HETATM   31  C18 UNL     1       5.687   0.843  -1.831  1.00  0.00     0.130 A 
ENDBRANCH  24  26
ENDBRANCH  18  20
ENDBRANCH  15  18
ENDBRANCH  11  13
ENDBRANCH   6   9
TORSDOF 5
