REMARK  9 active torsions:
REMARK  status: ('A' for Active; 'I' for Inactive)
REMARK    1  A    between atoms: C2_2  and  N1_3 
REMARK    2  A    between atoms: C2_2  and  C17_21 
REMARK    3  A    between atoms: N1_3  and  C3_4 
REMARK    4  A    between atoms: C8_10  and  C9_11 
REMARK    5  A    between atoms: C9_11  and  C10_12 
REMARK    6  A    between atoms: C9_11  and  C12_15 
REMARK    7  A    between atoms: C10_12  and  C11_13 
REMARK    8  A    between atoms: C11_13  and  N3_14 
REMARK    9  A    between atoms: C22_26  and  C23_27 
ROOT
HETATM    1  C3  UNL     1      -0.057   0.865   0.315  1.00  0.00     0.056 C 
HETATM    2  C4  UNL     1       0.696   1.857  -0.199  1.00  0.00     0.031 C 
HETATM    3  C5  UNL     1       0.414   3.314  -0.222  1.00  0.00    -0.000 C 
HETATM    4  C6  UNL     1      -0.367   3.857   0.718  1.00  0.00    -0.007 C 
HETATM    5  C7  UNL     1      -1.149   3.508   1.916  1.00  0.00     0.147 C 
HETATM    6  N2  UNL     1      -1.639   2.140   1.831  1.00  0.00    -0.384 N 
HETATM    7  C8  UNL     1      -1.347   1.029   0.975  1.00  0.00     0.066 C 
HETATM    8  H11 UNL     1      -2.370   1.915   2.558  1.00  0.00     0.160 HD
ENDROOT
BRANCH   1   9
HETATM    9  N1  UNL     1       0.440  -0.484   0.214  1.00  0.00    -0.380 N 
HETATM   10  H5  UNL     1       0.021  -1.215   0.825  1.00  0.00     0.160 HD
BRANCH   9  11
HETATM   11  C2  UNL     1       1.508  -0.917  -0.661  1.00  0.00     0.112 C 
HETATM   12  C1  UNL     1       1.617  -2.447  -0.564  1.00  0.00     0.037 C 
BRANCH  11  13
HETATM   13  C17 UNL     1       2.794  -0.431  -0.065  1.00  0.00    -0.023 A 
HETATM   14  C18 UNL     1       2.913  -0.195   1.284  1.00  0.00     0.010 A 
HETATM   15  C19 UNL     1       4.100   0.254   1.860  1.00  0.00     0.001 A 
HETATM   16  C20 UNL     1       5.175   0.459   1.014  1.00  0.00     0.001 A 
HETATM   17  C21 UNL     1       5.106   0.236  -0.345  1.00  0.00     0.015 A 
HETATM   18  C22 UNL     1       3.903  -0.208  -0.853  1.00  0.00     0.010 A 
BRANCH  18  19
HETATM   19  C23 UNL     1       3.871  -0.431  -2.294  1.00  0.00     0.270 C 
HETATM   20  O1  UNL     1       4.770  -0.283  -3.162  1.00  0.00    -0.301 OA
ENDBRANCH  18  19
ENDBRANCH  11  13
ENDBRANCH   9  11
ENDBRANCH   1   9
BRANCH   7  21
HETATM   21  C9  UNL     1      -2.208   0.100   0.699  1.00  0.00     0.005 C 
BRANCH  21  22
HETATM   22  C10 UNL     1      -3.463   0.306   1.381  1.00  0.00     0.031 C 
BRANCH  22  23
HETATM   23  C11 UNL     1      -4.606  -0.294   1.368  1.00  0.00     0.081 C 
BRANCH  23  24
HETATM   24  N3  UNL     1      -5.929  -0.719   1.572  1.00  0.00    -0.408 N 
HETATM   25  H14 UNL     1      -6.182  -1.427   2.312  1.00  0.00     0.155 HD
HETATM   26  H15 UNL     1      -6.740  -0.339   0.995  1.00  0.00     0.155 HD
ENDBRANCH  23  24
ENDBRANCH  22  23
ENDBRANCH  21  22
BRANCH  21  27
HETATM   27  C12 UNL     1      -2.179  -1.025  -0.165  1.00  0.00    -0.006 A 
HETATM   28  C13 UNL     1      -1.759  -0.719  -1.466  1.00  0.00     0.015 A 
HETATM   29  C14 UNL     1      -1.656  -1.711  -2.440  1.00  0.00     0.020 A 
HETATM   30  C15 UNL     1      -1.971  -3.018  -2.126  1.00  0.00     0.116 A 
HETATM   31  N4  UNL     1      -2.373  -3.282  -0.862  1.00  0.00    -0.272 NA
HETATM   32  C16 UNL     1      -2.474  -2.349   0.071  1.00  0.00     0.128 A 
ENDBRANCH  21  27
ENDBRANCH   7  21
TORSDOF 9
