REMARK  4 active torsions:
REMARK  status: ('A' for Active; 'I' for Inactive)
REMARK    1  A    between atoms: O1_2  and  C2_3 
REMARK    2  A    between atoms: C7_8  and  C8_9 
REMARK       I    between atoms: C8_9  and  N1_11 
REMARK    3  A    between atoms: N1_11  and  C9_12 
REMARK    4  A    between atoms: C17_23  and  C18_24 
ROOT
HETATM    1  C9  UNL     1      -0.306  -1.239   0.190  1.00  0.00     0.048 A 
HETATM    2  C10 UNL     1       0.834  -0.538   0.480  1.00  0.00     0.062 A 
HETATM    3  C11 UNL     1       2.127  -0.746   0.231  1.00  0.00     0.059 A 
HETATM    4  C12 UNL     1       1.951  -1.972  -0.460  1.00  0.00     0.109 A 
HETATM    5  C13 UNL     1       1.468  -3.142  -1.087  1.00  0.00     0.071 A 
HETATM    6  P1  UNL     1      -0.198  -2.733  -0.683  1.00  0.00     0.000 P 
HETATM    7  N2  UNL     1       2.031  -4.273  -1.784  1.00  0.00    -0.362 N 
HETATM    8  C14 UNL     1       3.436  -4.393  -1.517  1.00  0.00     0.270 C 
HETATM    9  N3  UNL     1       4.327  -3.648  -1.272  1.00  0.00    -0.414 NA
HETATM   10  C15 UNL     1       5.247  -2.749  -1.007  1.00  0.00     0.186 C 
HETATM   11  C16 UNL     1       5.034  -1.569  -0.475  1.00  0.00     0.064 C 
HETATM   12  C17 UNL     1       4.519  -0.356   0.109  1.00  0.00     0.071 C 
HETATM   13  N5  UNL     1       3.465  -0.940  -0.015  1.00  0.00    -0.248 NA
HETATM   14  H13 UNL     1       1.227  -4.638  -2.263  1.00  0.00     0.162 HD
ENDROOT
BRANCH   1  15
HETATM   15  N1  UNL     1      -1.487  -0.635   0.650  1.00  0.00    -0.322 N 
HETATM   16  C8  UNL     1      -2.361   0.265   0.026  1.00  0.00     0.252 C 
HETATM   17  O2  UNL     1      -1.802   0.411  -1.124  1.00  0.00    -0.268 OA
HETATM   18  H10 UNL     1      -1.791  -0.883   1.612  1.00  0.00     0.169 HD
BRANCH  16  19
HETATM   19  C7  UNL     1      -3.576   0.990   0.288  1.00  0.00     0.018 C 
HETATM   20  C5  UNL     1      -4.398   1.098   1.303  1.00  0.00    -0.068 C 
HETATM   21  C4  UNL     1      -5.653   1.940   1.365  1.00  0.00     0.064 C 
HETATM   22  C6  UNL     1      -3.969   0.275   2.478  1.00  0.00     0.044 C 
HETATM   23  C3  UNL     1      -6.391   1.716   0.085  1.00  0.00     0.010 C 
HETATM   24  C2  UNL     1      -5.557   1.680  -0.972  1.00  0.00     0.046 C 
HETATM   25  C23 UNL     1      -4.082   1.848  -0.838  1.00  0.00     0.108 C 
BRANCH  24  26
HETATM   26  O1  UNL     1      -6.265   1.469  -2.165  1.00  0.00    -0.360 OA
HETATM   27  C1  UNL     1      -5.757   0.634  -3.203  1.00  0.00     0.209 C 
ENDBRANCH  24  26
ENDBRANCH  16  19
ENDBRANCH   1  15
BRANCH  12  28
HETATM   28  C18 UNL     1       5.107   0.891   0.569  1.00  0.00     0.010 A 
HETATM   29  C19 UNL     1       4.137   1.735   1.032  1.00  0.00     0.017 A 
HETATM   30  C20 UNL     1       4.647   2.946   1.489  1.00  0.00     0.020 A 
HETATM   31  C21 UNL     1       6.006   3.237   1.463  1.00  0.00     0.116 A 
HETATM   32  N4  UNL     1       6.878   2.324   0.981  1.00  0.00    -0.272 NA
HETATM   33  C22 UNL     1       6.457   1.128   0.521  1.00  0.00     0.130 A 
ENDBRANCH  12  28
TORSDOF 4
