REMARK  5 active torsions:
REMARK  status: ('A' for Active; 'I' for Inactive)
REMARK    1  A    between atoms: C5_5  and  C6_6 
REMARK    2  A    between atoms: C6_6  and  N1_7 
REMARK    3  A    between atoms: N1_7  and  C7_8 
REMARK    4  A    between atoms: C12_13  and  N2_14 
REMARK    5  A    between atoms: N2_14  and  C13_15 
ROOT
HETATM    1  C7  UNL     1      -1.878   1.817  -0.786  1.00  0.00     0.030 A 
HETATM    2  C8  UNL     1      -2.382   2.475   0.311  1.00  0.00     0.030 A 
HETATM    3  C9  UNL     1      -1.635   3.032   1.328  1.00  0.00     0.011 A 
HETATM    4  C10 UNL     1      -0.251   2.897   1.199  1.00  0.00    -0.035 A 
HETATM    5  C11 UNL     1       0.612   3.499   2.278  1.00  0.00     0.050 C 
HETATM    6  C12 UNL     1       0.282   2.239   0.104  1.00  0.00     0.043 A 
HETATM    7  C22 UNL     1      -0.508   1.713  -0.862  1.00  0.00     0.059 A 
ENDROOT
BRANCH   6   8
HETATM    8  N2  UNL     1       1.697   2.214   0.143  1.00  0.00    -0.319 N 
HETATM    9  H14 UNL     1       2.205   3.142   0.278  1.00  0.00     0.169 HD
BRANCH   8  10
HETATM   10  C13 UNL     1       2.424   1.032   0.012  1.00  0.00     0.272 C 
HETATM   11  N3  UNL     1       1.952   0.205  -0.872  1.00  0.00    -0.219 NA
HETATM   12  C14 UNL     1       2.561  -1.073  -1.156  1.00  0.00     0.123 C 
HETATM   13  C15 UNL     1       3.775  -1.514  -0.772  1.00  0.00     0.054 C 
HETATM   14  C16 UNL     1       4.847  -0.919   0.010  1.00  0.00     0.097 C 
HETATM   15  C17 UNL     1       6.150  -1.542   0.030  1.00  0.00     0.012 A 
HETATM   16  N5  UNL     1       4.660   0.149   0.695  1.00  0.00    -0.124 NA
HETATM   17  C18 UNL     1       6.593  -2.661  -0.612  1.00  0.00     0.017 A 
HETATM   18  C21 UNL     1       7.108  -0.915   0.834  1.00  0.00     0.130 A 
HETATM   19  C19 UNL     1       7.894  -3.117  -0.461  1.00  0.00     0.020 A 
HETATM   20  C20 UNL     1       8.776  -2.434   0.356  1.00  0.00     0.116 A 
HETATM   21  N4  UNL     1       8.372  -1.327   1.004  1.00  0.00    -0.272 NA
HETATM   22  O1  UNL     1       3.549   0.930   0.859  1.00  0.00    -0.174 OA
ENDBRANCH   8  10
ENDBRANCH   6   8
BRANCH   1  23
HETATM   23  N1  UNL     1      -2.681   1.284  -1.806  1.00  0.00    -0.386 N 
HETATM   24  H8  UNL     1      -2.163   0.815  -2.595  1.00  0.00     0.160 HD
BRANCH  23  25
HETATM   25  C6  UNL     1      -4.087   1.204  -2.068  1.00  0.00     0.158 C 
BRANCH  25  26
HETATM   26  C5  UNL     1      -4.803   0.287  -1.181  1.00  0.00    -0.041 A 
HETATM   27  C4  UNL     1      -5.446   0.472   0.012  1.00  0.00     0.009 A 
HETATM   28  C3  UNL     1      -6.081  -0.543   0.685  1.00  0.00     0.007 A 
HETATM   29  C2  UNL     1      -6.118  -1.830   0.205  1.00  0.00    -0.062 A 
HETATM   30  C1  UNL     1      -6.829  -2.879   0.973  1.00  0.00     0.048 C 
HETATM   31  C24 UNL     1      -5.476  -2.064  -1.006  1.00  0.00     0.007 A 
HETATM   32  C23 UNL     1      -4.852  -1.018  -1.647  1.00  0.00     0.009 A 
ENDBRANCH  25  26
ENDBRANCH  23  25
ENDBRANCH   1  23
TORSDOF 5
