REMARK  5 active torsions:
REMARK  status: ('A' for Active; 'I' for Inactive)
REMARK    1  A    between atoms: O1_2  and  C2_3 
REMARK    2  A    between atoms: C7_8  and  C8_9 
REMARK    3  A    between atoms: C8_9  and  C9_11 
REMARK    4  A    between atoms: C13_15  and  N1_16 
REMARK    5  A    between atoms: C17_21  and  N3_22 
ROOT
HETATM    1  C9  UNL     1       2.096  -0.995   1.444  1.00  0.00     0.017 A 
HETATM    2  C10 UNL     1       1.703  -1.532   2.662  1.00  0.00     0.015 A 
HETATM    3  C11 UNL     1       0.396  -1.341   3.096  1.00  0.00     0.003 A 
HETATM    4  C12 UNL     1      -0.523  -0.634   2.353  1.00  0.00     0.029 A 
HETATM    5  C13 UNL     1      -0.128  -0.110   1.159  1.00  0.00     0.033 A 
HETATM    6  C23 UNL     1       1.163  -0.300   0.731  1.00  0.00     0.044 A 
ENDROOT
BRANCH   5   7
HETATM    7  N1  UNL     1      -1.080   0.613   0.404  1.00  0.00    -0.351 N 
HETATM    8  C14 UNL     1      -2.427   0.735   0.952  1.00  0.00     0.253 C 
HETATM    9  N2  UNL     1      -2.703  -0.341   0.252  1.00  0.00    -0.272 NA
HETATM   10  C15 UNL     1      -4.059  -0.847   0.331  1.00  0.00     0.111 C 
HETATM   11  C16 UNL     1      -4.992   0.030  -0.168  1.00  0.00     0.027 C 
HETATM   12  C17 UNL     1      -6.304   0.615  -0.578  1.00  0.00     0.246 C 
HETATM   13  C18 UNL     1      -6.286   0.593  -2.091  1.00  0.00     0.086 C 
HETATM   14  C19 UNL     1      -5.085   1.338  -2.619  1.00  0.00     0.091 C 
HETATM   15  N4  UNL     1      -3.830   1.551  -2.921  1.00  0.00    -0.277 NA
HETATM   16  C20 UNL     1      -2.848   0.541  -2.638  1.00  0.00     0.113 C 
HETATM   17  C21 UNL     1      -1.792   0.512  -1.846  1.00  0.00     0.012 C 
HETATM   18  C22 UNL     1      -0.998   1.295  -0.883  1.00  0.00     0.154 C 
BRANCH  12  19
HETATM   19  N3  UNL     1      -7.395  -0.247  -0.125  1.00  0.00     0.086 N 
HETATM   20  H15 UNL     1      -7.072  -1.230   0.042  1.00  0.00     0.313 HD
HETATM   21  H16 UNL     1      -8.230  -0.179  -0.720  1.00  0.00     0.313 HD
ENDBRANCH  12  19
ENDBRANCH   5   7
BRANCH   1  22
HETATM   22  C8  UNL     1       3.478  -1.247   1.086  1.00  0.00     0.195 C 
HETATM   23  O2  UNL     1       4.026  -2.283   1.609  1.00  0.00    -0.287 OA
BRANCH  22  24
HETATM   24  C7  UNL     1       4.465  -0.598   0.244  1.00  0.00     0.048 A 
HETATM   25  C2  UNL     1       5.748  -0.395   0.760  1.00  0.00     0.082 A 
HETATM   26  C3  UNL     1       6.767   0.216   0.035  1.00  0.00     0.038 A 
HETATM   27  C4  UNL     1       6.513   0.640  -1.242  1.00  0.00     0.003 A 
HETATM   28  C5  UNL     1       5.261   0.457  -1.784  1.00  0.00     0.001 A 
HETATM   29  C6  UNL     1       4.293  -0.147  -1.035  1.00  0.00     0.018 A 
BRANCH  25  30
HETATM   30  O1  UNL     1       6.003  -0.825   2.052  1.00  0.00    -0.355 OA
HETATM   31  C1  UNL     1       7.285  -0.648   2.630  1.00  0.00     0.210 C 
ENDBRANCH  25  30
ENDBRANCH  22  24
ENDBRANCH   1  22
TORSDOF 5
