REMARK  8 active torsions:
REMARK  status: ('A' for Active; 'I' for Inactive)
REMARK    1  A    between atoms: C2_2  and  C3_3 
REMARK    2  A    between atoms: C3_3  and  C4_4 
REMARK    3  A    between atoms: C5_5  and  C6_6 
REMARK    4  A    between atoms: C5_5  and  N2_15 
REMARK    5  A    between atoms: C6_6  and  N1_7 
REMARK       I    between atoms: N1_7  and  C7_8 
REMARK    6  A    between atoms: C7_8  and  C8_10 
REMARK    7  A    between atoms: C8_10  and  C9_11 
REMARK    8  A    between atoms: C10_12  and  O2_13 
ROOT
HETATM    1  C4  UNL     1       0.023   0.838   0.514  1.00  0.00     0.002 C 
HETATM    2  C5  UNL     1      -0.270  -0.522   0.420  1.00  0.00     0.044 C 
ENDROOT
BRANCH   2   3
HETATM    3  C6  UNL     1       0.707  -1.620   0.910  1.00  0.00     0.181 C 
BRANCH   3   4
HETATM    4  N1  UNL     1       1.917  -1.044   1.401  1.00  0.00    -0.355 N 
HETATM    5  C7  UNL     1       2.847  -0.306   0.608  1.00  0.00     0.221 C 
HETATM    6  O1  UNL     1       2.680  -0.099  -0.642  1.00  0.00    -0.273 OA
HETATM    7  H11 UNL     1       2.178  -1.148   2.414  1.00  0.00     0.162 HD
BRANCH   5   8
HETATM    8  C8  UNL     1       4.091   0.268   1.235  1.00  0.00     0.131 C 
BRANCH   8   9
HETATM    9  C9  UNL     1       4.820   0.964   0.127  1.00  0.00     0.006 C 
HETATM   10  C10 UNL     1       4.752   1.239  -1.165  1.00  0.00     0.130 C 
BRANCH  10  11
HETATM   11  O2  UNL     1       5.638   1.949  -1.958  1.00  0.00    -0.368 OA
HETATM   12  C11 UNL     1       6.832   1.335  -2.353  1.00  0.00     0.208 C 
ENDBRANCH  10  11
ENDBRANCH   8   9
ENDBRANCH   5   8
ENDBRANCH   3   4
ENDBRANCH   2   3
BRANCH   2  13
HETATM   13  N2  UNL     1      -1.446  -0.978  -0.312  1.00  0.00    -0.272 N 
HETATM   14  C12 UNL     1      -1.911  -0.642  -1.641  1.00  0.00     0.297 C 
HETATM   15  N3  UNL     1      -3.241  -1.121  -1.782  1.00  0.00    -0.275 NA
HETATM   16  C13 UNL     1      -3.899  -1.938  -1.085  1.00  0.00     0.032 C 
HETATM   17  C14 UNL     1      -5.269  -2.056  -0.629  1.00  0.00     0.084 C 
HETATM   18  C19 UNL     1      -2.807  -2.926  -0.632  1.00  0.00     0.205 C 
HETATM   19  C15 UNL     1      -5.385  -2.394   0.839  1.00  0.00    -0.002 C 
HETATM   20  C16 UNL     1      -4.778  -2.415   2.062  1.00  0.00     0.115 C 
HETATM   21  N4  UNL     1      -3.339  -2.231   2.399  1.00  0.00    -0.247 NA
HETATM   22  C17 UNL     1      -2.417  -1.524   1.713  1.00  0.00     0.116 C 
HETATM   23  C18 UNL     1      -1.595  -0.383   2.134  1.00  0.00     0.093 C 
HETATM   24  N5  UNL     1      -2.253  -1.894   0.340  1.00  0.00    -0.270 N 
ENDBRANCH   2  13
BRANCH   1  25
HETATM   25  C3  UNL     1      -0.620   2.134   0.170  1.00  0.00     0.029 C 
BRANCH  25  26
HETATM   26  C2  UNL     1       0.232   2.909  -0.785  1.00  0.00    -0.001 C 
HETATM   27  C1  UNL     1      -0.394   4.213  -1.145  1.00  0.00     0.005 C 
ENDBRANCH  25  26
ENDBRANCH   1  25
TORSDOF 8
