REMARK  5 active torsions:
REMARK  status: ('A' for Active; 'I' for Inactive)
REMARK    1  A    between atoms: C7_7  and  C8_8 
REMARK    2  A    between atoms: C8_8  and  N1_9 
REMARK    3  A    between atoms: N1_9  and  O1_10 
REMARK    4  A    between atoms: O1_10  and  C9_11 
REMARK    5  A    between atoms: C14_16  and  N2_17 
REMARK       I    between atoms: N2_17  and  C15_18 
REMARK       I    between atoms: C15_18  and  N3_19 
ROOT
HETATM    1  C9  UNL     1       0.520   0.364  -0.040  1.00  0.00     0.100 A 
HETATM    2  C10 UNL     1       0.274  -0.989   0.153  1.00  0.00     0.040 A 
HETATM    3  C11 UNL     1       1.354  -1.844   0.070  1.00  0.00     0.012 A 
HETATM    4  C12 UNL     1       2.634  -1.404  -0.191  1.00  0.00    -0.035 A 
HETATM    5  C13 UNL     1       3.770  -2.372  -0.270  1.00  0.00     0.050 C 
HETATM    6  C14 UNL     1       2.895  -0.066  -0.384  1.00  0.00     0.045 A 
HETATM    7  C16 UNL     1       1.817   0.752  -0.297  1.00  0.00     0.069 A 
ENDROOT
BRANCH   1   8
HETATM    8  O1  UNL     1      -0.537   1.237   0.037  1.00  0.00    -0.242 OA
BRANCH   8   9
HETATM    9  N1  UNL     1      -1.147   1.533   1.204  1.00  0.00    -0.292 N 
HETATM   10  H10 UNL     1      -0.641   2.143   1.848  1.00  0.00     0.188 HD
BRANCH   9  11
HETATM   11  C8  UNL     1      -2.560   1.696   1.158  1.00  0.00     0.186 C 
BRANCH  11  12
HETATM   12  C7  UNL     1      -3.335   0.544   0.712  1.00  0.00    -0.033 A 
HETATM   13  C2  UNL     1      -3.528   0.101  -0.571  1.00  0.00    -0.054 A 
HETATM   14  C1  UNL     1      -2.930   0.846  -1.695  1.00  0.00     0.049 C 
HETATM   15  C3  UNL     1      -4.266  -1.008  -0.930  1.00  0.00     0.007 A 
HETATM   16  C4  UNL     1      -4.871  -1.751   0.067  1.00  0.00     0.001 A 
HETATM   17  C5  UNL     1      -4.709  -1.352   1.361  1.00  0.00     0.001 A 
HETATM   18  C6  UNL     1      -3.966  -0.240   1.679  1.00  0.00     0.009 A 
ENDBRANCH  11  12
ENDBRANCH   9  11
ENDBRANCH   8   9
ENDBRANCH   1   8
BRANCH   6  19
HETATM   19  N2  UNL     1       4.226   0.336  -0.648  1.00  0.00    -0.309 N 
HETATM   20  C15 UNL     1       4.755   1.626  -0.879  1.00  0.00     0.318 C 
HETATM   21  N3  UNL     1       6.121   1.908  -1.135  1.00  0.00    -0.352 N 
HETATM   22  O2  UNL     1       3.997   2.607  -0.863  1.00  0.00    -0.247 OA
HETATM   23  H17 UNL     1       6.871   1.855  -1.868  1.00  0.00     0.160 HD
HETATM   24  H18 UNL     1       6.768   2.337  -0.421  1.00  0.00     0.160 HD
HETATM   25  H16 UNL     1       4.988  -0.387  -0.694  1.00  0.00     0.170 HD
ENDBRANCH   6  19
TORSDOF 5
