REMARK  5 active torsions:
REMARK  status: ('A' for Active; 'I' for Inactive)
REMARK    1  A    between atoms: C4_4  and  C5_5 
REMARK       I    between atoms: C5_5  and  N1_7 
REMARK    2  A    between atoms: N1_7  and  C6_8 
REMARK    3  A    between atoms: S1_13  and  N2_14 
REMARK    4  A    between atoms: N2_14  and  C11_15 
REMARK    5  A    between atoms: C14_19  and  C15_20 
ROOT
HETATM    1  C6  UNL     1      -1.778   0.321  -0.755  1.00  0.00     0.042 A 
HETATM    2  C7  UNL     1      -1.163   0.450  -1.897  1.00  0.00     0.031 A 
HETATM    3  C8  UNL     1       0.203   0.838  -2.213  1.00  0.00     0.017 A 
HETATM    4  C9  UNL     1       1.108   1.147  -1.281  1.00  0.00    -0.012 A 
HETATM    5  C10 UNL     1       2.509   1.546  -1.575  1.00  0.00     0.057 C 
HETATM    6  S1  UNL     1       0.481   1.039   0.403  1.00  0.00    -0.054 SA
HETATM    7  C20 UNL     1      -1.083   0.584   0.523  1.00  0.00     0.090 A 
ENDROOT
BRANCH   6   8
HETATM    8  N2  UNL     1       1.618   1.018   1.769  1.00  0.00    -0.163 N 
HETATM    9  H11 UNL     1       1.753   1.594   2.644  1.00  0.00     0.192 HD
BRANCH   8  10
HETATM   10  C11 UNL     1       2.604  -0.008   1.713  1.00  0.00     0.732 A 
HETATM   11  N3  UNL     1       2.401  -1.243   2.259  1.00  0.00    -0.074 NA
HETATM   12  C12 UNL     1       3.351  -2.194   2.191  1.00  0.00     0.139 A 
HETATM   13  C13 UNL     1       4.526  -1.861   1.549  1.00  0.00     0.053 A 
HETATM   14  C14 UNL     1       4.771  -0.627   0.984  1.00  0.00     0.089 A 
HETATM   15  N5  UNL     1       3.765   0.254   1.103  1.00  0.00    -0.062 NA
BRANCH  14  16
HETATM   16  C15 UNL     1       6.019  -0.296   0.310  1.00  0.00     0.011 A 
HETATM   17  C16 UNL     1       7.077  -1.151   0.160  1.00  0.00     0.017 A 
HETATM   18  C17 UNL     1       8.203  -0.734  -0.492  1.00  0.00     0.020 A 
HETATM   19  C18 UNL     1       8.340   0.552  -1.028  1.00  0.00     0.116 A 
HETATM   20  N4  UNL     1       7.266   1.365  -0.854  1.00  0.00    -0.272 NA
HETATM   21  C19 UNL     1       6.150   0.972  -0.216  1.00  0.00     0.130 A 
ENDBRANCH  14  16
ENDBRANCH   8  10
ENDBRANCH   6   8
BRANCH   1  22
HETATM   22  N1  UNL     1      -3.153  -0.077  -0.616  1.00  0.00    -0.322 N 
HETATM   23  C5  UNL     1      -4.218   0.651  -0.016  1.00  0.00     0.255 C 
HETATM   24  O1  UNL     1      -4.070   1.793   0.492  1.00  0.00    -0.267 OA
HETATM   25  H5  UNL     1      -3.306  -1.027  -1.030  1.00  0.00     0.169 HD
BRANCH  23  26
HETATM   26  C4  UNL     1      -5.545   0.044   0.013  1.00  0.00     0.029 A 
HETATM   27  C3  UNL     1      -6.718   0.701   0.605  1.00  0.00     0.019 A 
HETATM   28  C2  UNL     1      -7.755  -0.108   0.469  1.00  0.00    -0.079 A 
HETATM   29  C1  UNL     1      -9.135   0.200   0.944  1.00  0.00     0.043 C 
HETATM   30  C22 UNL     1      -7.350  -1.367  -0.226  1.00  0.00     0.061 A 
HETATM   31  C21 UNL     1      -5.912  -1.134  -0.459  1.00  0.00    -0.006 A 
ENDBRANCH  23  26
ENDBRANCH   1  22
TORSDOF 5
