REMARK  7 active torsions:
REMARK  status: ('A' for Active; 'I' for Inactive)
REMARK    1  A    between atoms: C5_5  and  C6_6 
REMARK    2  A    between atoms: C6_6  and  C7_7 
REMARK    3  A    between atoms: C7_7  and  N1_8 
REMARK       I    between atoms: N1_8  and  C8_9 
REMARK    4  A    between atoms: C8_9  and  C9_11 
REMARK    5  A    between atoms: C10_12  and  N2_13 
REMARK    6  A    between atoms: N2_13  and  C11_14 
REMARK    7  A    between atoms: C14_18  and  C15_19 
ROOT
HETATM    1  C9  UNL     1      -0.106  -0.841   0.414  1.00  0.00     0.091 C 
HETATM    2  C10 UNL     1      -0.894  -0.869   1.462  1.00  0.00     0.112 C 
ENDROOT
BRANCH   2   3
HETATM    3  N2  UNL     1      -2.136  -0.181   1.469  1.00  0.00    -0.198 N 
HETATM    4  H14 UNL     1      -2.283   0.522   2.220  1.00  0.00     0.183 HD
BRANCH   3   5
HETATM    5  C11 UNL     1      -3.144  -0.432   0.497  1.00  0.00     0.726 A 
HETATM    6  N3  UNL     1      -2.939  -1.344  -0.466  1.00  0.00    -0.075 NA
HETATM    7  C12 UNL     1      -3.886  -1.606  -1.411  1.00  0.00     0.139 A 
HETATM    8  C13 UNL     1      -5.049  -0.875  -1.300  1.00  0.00     0.053 A 
HETATM    9  C14 UNL     1      -5.296   0.067  -0.326  1.00  0.00     0.089 A 
HETATM   10  N5  UNL     1      -4.293   0.241   0.548  1.00  0.00    -0.062 NA
BRANCH   9  11
HETATM   11  C15 UNL     1      -6.537   0.825  -0.234  1.00  0.00     0.011 A 
HETATM   12  C16 UNL     1      -7.607   0.701  -1.094  1.00  0.00     0.017 A 
HETATM   13  C17 UNL     1      -8.746   1.462  -0.930  1.00  0.00     0.020 A 
HETATM   14  C18 UNL     1      -8.818   2.374   0.123  1.00  0.00     0.116 A 
HETATM   15  N4  UNL     1      -7.767   2.495   0.966  1.00  0.00    -0.272 NA
HETATM   16  C19 UNL     1      -6.670   1.738   0.780  1.00  0.00     0.130 A 
ENDBRANCH   9  11
ENDBRANCH   3   5
ENDBRANCH   2   3
BRANCH   1  17
HETATM   17  C8  UNL     1       1.201  -1.523   0.311  1.00  0.00     0.242 C 
HETATM   18  N1  UNL     1       2.070  -1.495  -0.839  1.00  0.00    -0.357 N 
HETATM   19  H11 UNL     1       1.596  -0.906  -1.586  1.00  0.00     0.162 HD
HETATM   20  O1  UNL     1       1.513  -2.166   1.365  1.00  0.00    -0.269 OA
BRANCH  18  21
HETATM   21  C7  UNL     1       3.325  -2.213  -0.793  1.00  0.00     0.127 C 
BRANCH  21  22
HETATM   22  C6  UNL     1       4.258  -1.771   0.284  1.00  0.00     0.054 C 
BRANCH  22  23
HETATM   23  C5  UNL     1       4.682  -0.349   0.190  1.00  0.00    -0.068 C 
HETATM   24  C4  UNL     1       5.570   0.219   1.230  1.00  0.00     0.063 C 
HETATM   25  C3  UNL     1       6.906   0.610   0.757  1.00  0.00    -0.009 C 
HETATM   26  C2  UNL     1       6.895   1.631  -0.105  1.00  0.00    -0.025 C 
HETATM   27  C1  UNL     1       8.180   2.131  -0.663  1.00  0.00     0.056 C 
HETATM   28  S1  UNL     1       5.160   2.108  -0.337  1.00  0.00    -0.107 SA
HETATM   29  C20 UNL     1       4.344   0.545  -0.765  1.00  0.00     0.053 C 
ENDBRANCH  22  23
ENDBRANCH  21  22
ENDBRANCH  18  21
ENDBRANCH   1  17
TORSDOF 7
