REMARK  6 active torsions:
REMARK  status: ('A' for Active; 'I' for Inactive)
REMARK    1  A    between atoms: C2_2  and  C3_3 
REMARK    2  A    between atoms: C3_3  and  N1_4 
REMARK    3  A    between atoms: C4_5  and  C5_6 
REMARK    4  A    between atoms: C5_6  and  C6_7 
REMARK    5  A    between atoms: N3_10  and  C8_11 
REMARK    6  A    between atoms: C10_13  and  N4_14 
ROOT
HETATM    1  C6  UNL     1       0.808   0.639   0.510  1.00  0.00     0.032 C 
HETATM    2  N2  UNL     1       0.184   0.251   1.584  1.00  0.00    -0.275 NA
HETATM    3  C7  UNL     1      -0.886  -0.710   1.416  1.00  0.00     0.297 C 
HETATM    4  N3  UNL     1      -1.728  -0.352   0.288  1.00  0.00    -0.276 N 
HETATM    5  N5  UNL     1      -1.077  -0.059  -0.892  1.00  0.00    -0.327 N 
HETATM    6  C15 UNL     1       0.344   0.044  -0.760  1.00  0.00     0.194 C 
HETATM    7  H21 UNL     1      -1.532   0.627  -1.508  1.00  0.00     0.180 HD
ENDROOT
BRANCH   4   8
HETATM    8  C8  UNL     1      -3.153  -0.244   0.170  1.00  0.00     0.060 A 
HETATM    9  C9  UNL     1      -3.575   1.036  -0.194  1.00  0.00     0.060 A 
HETATM   10  C10 UNL     1      -4.908   1.366  -0.365  1.00  0.00     0.028 A 
HETATM   11  C11 UNL     1      -5.852   0.355  -0.157  1.00  0.00     0.029 A 
HETATM   12  C12 UNL     1      -5.435  -0.897   0.200  1.00  0.00     0.011 A 
HETATM   13  C13 UNL     1      -4.105  -1.224   0.370  1.00  0.00    -0.034 A 
HETATM   14  C14 UNL     1      -3.561  -2.540   0.751  1.00  0.00     0.050 C 
BRANCH  10  15
HETATM   15  N4  UNL     1      -5.310   2.684  -0.738  1.00  0.00    -0.399 N 
HETATM   16  H14 UNL     1      -5.851   3.395  -0.172  1.00  0.00     0.156 HD
HETATM   17  H15 UNL     1      -4.965   2.843  -1.718  1.00  0.00     0.156 HD
ENDBRANCH  10  15
ENDBRANCH   4   8
BRANCH   1  18
HETATM   18  C5  UNL     1       1.905   1.609   0.583  1.00  0.00     0.102 C 
BRANCH  18  19
HETATM   19  C4  UNL     1       3.207   1.128   0.080  1.00  0.00     0.089 C 
HETATM   20  N1  UNL     1       3.464   0.016  -0.499  1.00  0.00    -0.305 NA
BRANCH  20  21
HETATM   21  C3  UNL     1       4.790  -0.315  -0.936  1.00  0.00     0.147 C 
BRANCH  21  22
HETATM   22  C2  UNL     1       5.651  -0.476   0.297  1.00  0.00     0.017 C 
HETATM   23  C1  UNL     1       7.085  -0.830  -0.076  1.00  0.00     0.007 C 
ENDBRANCH  21  22
ENDBRANCH  20  21
ENDBRANCH  18  19
ENDBRANCH   1  18
TORSDOF 6
