REMARK  10 active torsions:
REMARK  status: ('A' for Active; 'I' for Inactive)
REMARK    1  A    between atoms: N1_1  and  C1_2 
REMARK    2  A    between atoms: C2_3  and  C3_4 
REMARK    3  A    between atoms: C3_4  and  C4_5 
REMARK    4  A    between atoms: C4_5  and  C5_6 
REMARK    5  A    between atoms: N2_9  and  C7_10 
REMARK    6  A    between atoms: C7_10  and  N3_11 
REMARK    7  A    between atoms: N3_11  and  C8_12 
REMARK    8  A    between atoms: C12_16  and  O1_17 
REMARK    9  A    between atoms: O1_17  and  C13_18 
REMARK   10  A    between atoms: C13_18  and  C14_21 
ROOT
HETATM    1  N3  UNL     1       0.193   0.363  -0.288  1.00  0.00    -0.372 N 
HETATM    2  H11 UNL     1       0.021   1.275   0.193  1.00  0.00     0.161 HD
ENDROOT
BRANCH   1   3
HETATM    3  C7  UNL     1      -0.957  -0.464  -0.610  1.00  0.00     0.270 C 
BRANCH   3   4
HETATM    4  N2  UNL     1      -2.179   0.140  -0.195  1.00  0.00    -0.275 NA
HETATM    5  C3  UNL     1      -3.160  -0.410   0.408  1.00  0.00     0.035 C 
BRANCH   5   6
HETATM    6  C2  UNL     1      -4.044   0.736   0.524  1.00  0.00     0.043 C 
HETATM    7  C1  UNL     1      -5.246   0.910   1.042  1.00  0.00     0.082 C 
BRANCH   7   8
HETATM    8  N1  UNL     1      -6.440   1.570   1.430  1.00  0.00    -0.408 N 
HETATM    9  H1  UNL     1      -6.473   2.016   2.387  1.00  0.00     0.155 HD
HETATM   10  H2  UNL     1      -7.244   1.584   0.734  1.00  0.00     0.155 HD
ENDBRANCH   7   8
ENDBRANCH   5   6
BRANCH   5  11
HETATM   11  C4  UNL     1      -3.859  -1.574   1.039  1.00  0.00     0.088 C 
BRANCH  11  12
HETATM   12  C5  UNL     1      -3.022  -2.797   0.970  1.00  0.00     0.009 C 
HETATM   13  C6  UNL     1      -3.454  -3.897   0.323  1.00  0.00     0.184 C 
HETATM   14  F1  UNL     1      -4.671  -3.676  -0.191  1.00  0.00    -0.220 F 
ENDBRANCH  11  12
ENDBRANCH   5  11
ENDBRANCH   3   4
ENDBRANCH   1   3
BRANCH   1  15
HETATM   15  C8  UNL     1       1.506  -0.059  -0.618  1.00  0.00     0.031 A 
HETATM   16  C9  UNL     1       1.701  -1.262  -1.249  1.00  0.00     0.029 A 
HETATM   17  C10 UNL     1       3.014  -1.587  -1.530  1.00  0.00     0.005 A 
HETATM   18  C11 UNL     1       4.095  -0.790  -1.217  1.00  0.00     0.037 A 
HETATM   19  C12 UNL     1       3.882   0.421  -0.580  1.00  0.00     0.077 A 
HETATM   20  C15 UNL     1       2.575   0.749  -0.298  1.00  0.00     0.066 A 
BRANCH  19  21
HETATM   21  O1  UNL     1       4.868   1.315  -0.210  1.00  0.00    -0.279 OA
BRANCH  21  22
HETATM   22  C13 UNL     1       5.335   2.355  -1.046  1.00  0.00     0.418 C 
HETATM   23  F2  UNL     1       5.871   1.872  -2.227  1.00  0.00    -0.169 F 
HETATM   24  F3  UNL     1       4.363   3.251  -1.396  1.00  0.00    -0.169 F 
BRANCH  22  25
HETATM   25  C14 UNL     1       6.448   3.071  -0.274  1.00  0.00     0.455 C 
HETATM   26  F4  UNL     1       7.468   2.190   0.019  1.00  0.00    -0.205 F 
HETATM   27  F5  UNL     1       6.996   4.094  -1.037  1.00  0.00    -0.205 F 
ENDBRANCH  22  25
ENDBRANCH  21  22
ENDBRANCH  19  21
ENDBRANCH   1  15
TORSDOF 10
