REMARK  8 active torsions:
REMARK  status: ('A' for Active; 'I' for Inactive)
REMARK    1  A    between atoms: C2_2  and  N1_3 
REMARK    2  A    between atoms: C3_4  and  C4_5 
REMARK    3  A    between atoms: C5_6  and  C6_7 
REMARK    4  A    between atoms: C9_11  and  N3_12 
REMARK    5  A    between atoms: N3_12  and  C10_13 
REMARK    6  A    between atoms: C14_17  and  O1_18 
REMARK    7  A    between atoms: O1_18  and  C15_19 
REMARK    8  A    between atoms: C15_19  and  C16_22 
ROOT
HETATM    1  N3  UNL     1      -0.870  -0.127   0.600  1.00  0.00    -0.188 N 
HETATM    2  H9  UNL     1      -0.605   0.756   0.090  1.00  0.00     0.184 HD
ENDROOT
BRANCH   1   3
HETATM    3  C9  UNL     1       0.179  -1.035   0.885  1.00  0.00     0.727 A 
HETATM    4  N2  UNL     1       0.073  -2.207   1.509  1.00  0.00    -0.075 NA
HETATM    5  C8  UNL     1       1.062  -3.064   1.777  1.00  0.00     0.139 A 
HETATM    6  C7  UNL     1       2.330  -2.722   1.377  1.00  0.00     0.052 A 
HETATM    7  C6  UNL     1       2.493  -1.519   0.727  1.00  0.00     0.077 A 
HETATM    8  N4  UNL     1       1.422  -0.746   0.517  1.00  0.00    -0.063 NA
BRANCH   7   9
HETATM    9  C5  UNL     1       3.816  -1.108   0.278  1.00  0.00     0.034 C 
HETATM   10  C4  UNL     1       4.110   0.026  -0.352  1.00  0.00     0.022 C 
BRANCH  10  11
HETATM   11  C3  UNL     1       5.452   0.399  -0.785  1.00  0.00     0.116 C 
HETATM   12  N1  UNL     1       5.679   1.505  -1.385  1.00  0.00    -0.274 NA
BRANCH  12  13
HETATM   13  C2  UNL     1       7.029   1.785  -1.773  1.00  0.00     0.106 C 
HETATM   14  C1  UNL     1       7.841   2.302  -0.889  1.00  0.00     0.032 C 
ENDBRANCH  12  13
ENDBRANCH  10  11
ENDBRANCH   7   9
ENDBRANCH   1   3
BRANCH   1  15
HETATM   15  C10 UNL     1      -2.241  -0.268   0.921  1.00  0.00     0.052 A 
HETATM   16  C11 UNL     1      -2.820  -1.308   1.610  1.00  0.00     0.030 A 
HETATM   17  C12 UNL     1      -4.155  -1.428   1.910  1.00  0.00     0.005 A 
HETATM   18  C13 UNL     1      -5.013  -0.448   1.505  1.00  0.00     0.037 A 
HETATM   19  C14 UNL     1      -4.493   0.623   0.809  1.00  0.00     0.077 A 
HETATM   20  C17 UNL     1      -3.146   0.696   0.534  1.00  0.00     0.067 A 
BRANCH  19  21
HETATM   21  O1  UNL     1      -5.378   1.604   0.409  1.00  0.00    -0.282 OA
BRANCH  21  22
HETATM   22  C15 UNL     1      -6.071   1.617  -0.803  1.00  0.00     0.385 C 
HETATM   23  F1  UNL     1      -6.871   2.754  -0.877  1.00  0.00    -0.172 F 
HETATM   24  F2  UNL     1      -6.881   0.482  -0.854  1.00  0.00    -0.172 F 
BRANCH  22  25
HETATM   25  C16 UNL     1      -5.139   1.648  -1.980  1.00  0.00     0.334 C 
HETATM   26  F3  UNL     1      -4.326   0.533  -1.968  1.00  0.00    -0.246 F 
ENDBRANCH  22  25
ENDBRANCH  21  22
ENDBRANCH  19  21
ENDBRANCH   1  15
TORSDOF 8
