REMARK  6 active torsions:
REMARK  status: ('A' for Active; 'I' for Inactive)
REMARK    1  A    between atoms: C1_2  and  C2_4 
REMARK    2  A    between atoms: C2_4  and  O1_7 
REMARK    3  A    between atoms: O1_7  and  C3_8 
REMARK    4  A    between atoms: C6_12  and  N1_13 
REMARK    5  A    between atoms: N1_13  and  C7_14 
REMARK    6  A    between atoms: C10_18  and  C11_19 
ROOT
HETATM    1  N1  UNL     1      -0.120  -1.427   0.783  1.00  0.00    -0.182 N 
HETATM    2  H5  UNL     1      -0.678  -2.239   0.459  1.00  0.00     0.185 HD
ENDROOT
BRANCH   1   3
HETATM    3  C6  UNL     1       1.238  -1.829   0.897  1.00  0.00     0.089 A 
HETATM    4  S1  UNL     1       1.972  -2.832   2.174  1.00  0.00    -0.108 SA
HETATM    5  C5  UNL     1       3.716  -3.013   1.722  1.00  0.00     0.110 A 
HETATM    6  C4  UNL     1       3.945  -2.267   0.466  1.00  0.00     0.021 A 
HETATM    7  C3  UNL     1       3.340  -1.518  -0.459  1.00  0.00     0.075 A 
HETATM    8  C16 UNL     1       1.903  -1.329  -0.165  1.00  0.00     0.074 A 
BRANCH   7   9
HETATM    9  O1  UNL     1       3.961  -0.970  -1.566  1.00  0.00    -0.280 OA
BRANCH   9  10
HETATM   10  C2  UNL     1       4.015   0.392  -1.849  1.00  0.00     0.418 C 
HETATM   11  F3  UNL     1       2.727   0.883  -1.945  1.00  0.00    -0.169 F 
HETATM   12  F4  UNL     1       4.624   1.133  -0.834  1.00  0.00    -0.169 F 
BRANCH  10  13
HETATM   13  C1  UNL     1       4.712   0.697  -3.151  1.00  0.00     0.455 C 
HETATM   14  F1  UNL     1       6.016   0.225  -3.112  1.00  0.00    -0.205 F 
HETATM   15  F2  UNL     1       4.007   0.091  -4.187  1.00  0.00    -0.205 F 
ENDBRANCH  10  13
ENDBRANCH   9  10
ENDBRANCH   7   9
ENDBRANCH   1   3
BRANCH   1  16
HETATM   16  C7  UNL     1      -0.719  -0.181   1.039  1.00  0.00     0.727 A 
HETATM   17  N2  UNL     1      -0.164   0.889   1.595  1.00  0.00    -0.075 NA
HETATM   18  C8  UNL     1      -0.819   2.070   1.756  1.00  0.00     0.139 A 
HETATM   19  C9  UNL     1      -2.141   2.212   1.329  1.00  0.00     0.053 A 
HETATM   20  C10 UNL     1      -2.706   1.084   0.749  1.00  0.00     0.087 A 
HETATM   21  N4  UNL     1      -1.936   0.045   0.681  1.00  0.00    -0.062 NA
BRANCH  20  22
HETATM   22  C11 UNL     1      -4.045   1.077   0.185  1.00  0.00    -0.004 A 
HETATM   23  C12 UNL     1      -4.985   2.072   0.164  1.00  0.00     0.033 A 
HETATM   24  C13 UNL     1      -6.224   2.042  -0.427  1.00  0.00     0.117 A 
HETATM   25  N3  UNL     1      -6.541   0.887  -1.061  1.00  0.00    -0.273 NA
HETATM   26  C14 UNL     1      -5.702  -0.149  -1.105  1.00  0.00     0.117 A 
HETATM   27  C15 UNL     1      -4.471  -0.078  -0.500  1.00  0.00     0.033 A 
ENDBRANCH  20  22
ENDBRANCH   1  16
TORSDOF 6
