REMARK  6 active torsions:
REMARK  status: ('A' for Active; 'I' for Inactive)
REMARK    1  A    between atoms: C4_4  and  C5_5 
REMARK    2  A    between atoms: C5_5  and  N1_6 
REMARK    3  A    between atoms: N1_6  and  C6_7 
REMARK    4  A    between atoms: C10_11  and  N2_12 
REMARK    5  A    between atoms: N2_12  and  C11_13 
REMARK    6  A    between atoms: C14_17  and  C15_18 
ROOT
HETATM    1  C6  UNL     1       2.247   0.422  -1.181  1.00  0.00     0.030 A 
HETATM    2  C7  UNL     1       2.566  -0.895  -1.408  1.00  0.00     0.029 A 
HETATM    3  C8  UNL     1       1.677  -1.940  -1.300  1.00  0.00     0.004 A 
HETATM    4  C9  UNL     1       0.385  -1.592  -0.935  1.00  0.00     0.030 A 
HETATM    5  C10 UNL     1      -0.023  -0.309  -0.690  1.00  0.00     0.051 A 
HETATM    6  C20 UNL     1       0.940   0.647  -0.827  1.00  0.00     0.059 A 
ENDROOT
BRANCH   5   7
HETATM    7  N2  UNL     1      -1.322   0.054  -0.321  1.00  0.00    -0.188 N 
HETATM    8  H10 UNL     1      -1.528   1.086  -0.160  1.00  0.00     0.184 HD
BRANCH   7   9
HETATM    9  C11 UNL     1      -2.435  -0.803  -0.130  1.00  0.00     0.727 A 
HETATM   10  N3  UNL     1      -2.490  -2.123  -0.256  1.00  0.00    -0.075 NA
HETATM   11  C12 UNL     1      -3.529  -2.919  -0.077  1.00  0.00     0.139 A 
HETATM   12  C13 UNL     1      -4.723  -2.344   0.288  1.00  0.00     0.053 A 
HETATM   13  C14 UNL     1      -4.744  -0.978   0.439  1.00  0.00     0.089 A 
HETATM   14  N5  UNL     1      -3.628  -0.305   0.226  1.00  0.00    -0.062 NA
BRANCH  13  15
HETATM   15  C15 UNL     1      -5.938  -0.234   0.821  1.00  0.00     0.011 A 
HETATM   16  C16 UNL     1      -5.859   1.137   0.947  1.00  0.00     0.017 A 
HETATM   17  C17 UNL     1      -6.994   1.864   1.313  1.00  0.00     0.020 A 
HETATM   18  C18 UNL     1      -8.205   1.250   1.555  1.00  0.00     0.116 A 
HETATM   19  N4  UNL     1      -8.257  -0.107   1.424  1.00  0.00    -0.272 NA
HETATM   20  C19 UNL     1      -7.163  -0.809   1.072  1.00  0.00     0.130 A 
ENDBRANCH  13  15
ENDBRANCH   7   9
ENDBRANCH   5   7
BRANCH   1  21
HETATM   21  N1  UNL     1       3.137   1.513  -1.274  1.00  0.00    -0.386 N 
HETATM   22  H6  UNL     1       2.737   2.484  -1.092  1.00  0.00     0.160 HD
BRANCH  21  23
HETATM   23  C5  UNL     1       4.539   1.598  -1.574  1.00  0.00     0.158 C 
BRANCH  23  24
HETATM   24  C4  UNL     1       5.426   0.987  -0.559  1.00  0.00    -0.041 A 
HETATM   25  C3  UNL     1       5.683   1.877   0.495  1.00  0.00     0.009 A 
HETATM   26  C2  UNL     1       6.491   1.572   1.571  1.00  0.00     0.001 A 
HETATM   27  C1  UNL     1       7.089   0.352   1.654  1.00  0.00     0.000 A 
HETATM   28  C22 UNL     1       6.850  -0.533   0.632  1.00  0.00     0.001 A 
HETATM   29  C21 UNL     1       6.047  -0.236  -0.445  1.00  0.00     0.009 A 
ENDBRANCH  23  24
ENDBRANCH  21  23
ENDBRANCH   1  21
TORSDOF 6
