REMARK  3 active torsions:
REMARK  status: ('A' for Active; 'I' for Inactive)
REMARK    1  A    between atoms: N1_2  and  C2_3 
REMARK    2  A    between atoms: C5_6  and  N2_7 
REMARK    3  A    between atoms: N3_9  and  C7_10 
ROOT
HETATM    1  N2  UNL     1       0.428   0.633  -1.034  1.00  0.00    -0.278 N 
HETATM    2  C6  UNL     1      -0.702  -0.264  -0.880  1.00  0.00     0.278 C 
HETATM    3  N3  UNL     1      -1.897   0.425  -0.474  1.00  0.00    -0.335 N 
HETATM    4  C13 UNL     1      -2.098   1.763  -0.957  1.00  0.00     0.111 C 
HETATM    5  C14 UNL     1      -1.122   2.530  -1.457  1.00  0.00     0.124 C 
HETATM    6  N5  UNL     1       0.190   1.936  -1.495  1.00  0.00    -0.307 N 
HETATM    7  H18 UNL     1       0.951   2.537  -1.886  1.00  0.00     0.186 HD
ENDROOT
BRANCH   1   8
HETATM    8  C5  UNL     1       1.799   0.358  -0.769  1.00  0.00     0.036 A 
HETATM    9  C4  UNL     1       2.637  -0.277  -1.847  1.00  0.00     0.088 A 
HETATM   10  C3  UNL     1       3.966  -0.392  -1.189  1.00  0.00     0.008 A 
HETATM   11  C2  UNL     1       3.896   0.094   0.054  1.00  0.00     0.026 A 
HETATM   12  C15 UNL     1       2.550   0.556   0.302  1.00  0.00     0.055 A 
BRANCH  11  13
HETATM   13  N1  UNL     1       5.033   0.104   0.907  1.00  0.00    -0.394 N 
HETATM   14  C1  UNL     1       5.520  -0.792   1.949  1.00  0.00     0.146 C 
HETATM   15  H4  UNL     1       5.632   0.939   0.734  1.00  0.00     0.159 HD
ENDBRANCH  11  13
ENDBRANCH   1   8
BRANCH   3  16
HETATM   16  C7  UNL     1      -2.930  -0.076   0.371  1.00  0.00     0.060 A 
HETATM   17  C8  UNL     1      -3.153   0.650   1.541  1.00  0.00     0.033 A 
HETATM   18  C9  UNL     1      -4.137   0.229   2.411  1.00  0.00     0.022 A 
HETATM   19  C10 UNL     1      -4.897  -0.910   2.121  1.00  0.00     0.117 A 
HETATM   20  N4  UNL     1      -4.659  -1.590   0.985  1.00  0.00    -0.264 NA
HETATM   21  C11 UNL     1      -3.703  -1.193   0.125  1.00  0.00     0.057 A 
HETATM   22  C12 UNL     1      -3.434  -1.937  -1.130  1.00  0.00     0.072 C 
ENDBRANCH   3  16
TORSDOF 3
