REMARK  8 active torsions:
REMARK  status: ('A' for Active; 'I' for Inactive)
REMARK    1  A    between atoms: C5_5  and  N1_6 
REMARK    2  A    between atoms: C7_8  and  N2_9 
REMARK    3  A    between atoms: N2_9  and  C8_10 
REMARK    4  A    between atoms: C8_10  and  N3_11 
REMARK    5  A    between atoms: C9_12  and  C10_13 
REMARK    6  A    between atoms: C9_12  and  C12_16 
REMARK    7  A    between atoms: C10_13  and  C11_14 
REMARK    8  A    between atoms: C11_14  and  N4_15 
ROOT
HETATM    1  C8  UNL     1       0.042  -0.365   1.129  1.00  0.00     0.271 C 
ENDROOT
BRANCH   1   2
HETATM    2  N2  UNL     1      -0.733  -0.459  -0.098  1.00  0.00    -0.371 N 
HETATM    3  H9  UNL     1      -0.279  -0.583  -1.030  1.00  0.00     0.161 HD
BRANCH   2   4
HETATM    4  C7  UNL     1      -2.133  -0.385  -0.045  1.00  0.00     0.037 A 
HETATM    5  C2  UNL     1      -2.980  -0.461  -1.131  1.00  0.00    -0.035 A 
HETATM    6  C1  UNL     1      -2.366  -0.637  -2.480  1.00  0.00     0.050 C 
HETATM    7  C3  UNL     1      -4.345  -0.384  -1.033  1.00  0.00     0.011 A 
HETATM    8  C4  UNL     1      -4.955  -0.221   0.195  1.00  0.00     0.029 A 
HETATM    9  C5  UNL     1      -4.164  -0.138   1.321  1.00  0.00     0.027 A 
HETATM   10  C6  UNL     1      -2.793  -0.221   1.172  1.00  0.00     0.058 A 
BRANCH   9  11
HETATM   11  N1  UNL     1      -4.681   0.031   2.646  1.00  0.00    -0.399 N 
HETATM   12  H6  UNL     1      -4.761   0.910   3.238  1.00  0.00     0.156 HD
HETATM   13  H7  UNL     1      -4.962  -0.945   2.881  1.00  0.00     0.156 HD
ENDBRANCH   9  11
ENDBRANCH   2   4
ENDBRANCH   1   2
BRANCH   1  14
HETATM   14  N3  UNL     1       1.453  -0.461   0.876  1.00  0.00    -0.269 NA
HETATM   15  C9  UNL     1       2.056   0.230  -0.033  1.00  0.00     0.073 C 
BRANCH  15  16
HETATM   16  C10 UNL     1       1.522   1.214  -0.974  1.00  0.00     0.108 C 
BRANCH  16  17
HETATM   17  C11 UNL     1       1.527   2.447  -0.494  1.00  0.00    -0.023 C 
BRANCH  17  18
HETATM   18  N4  UNL     1       1.326   3.623  -0.026  1.00  0.00    -0.258 NA
HETATM   19  H13 UNL     1       0.441   3.758   0.543  1.00  0.00     0.197 HD
ENDBRANCH  17  18
ENDBRANCH  16  17
ENDBRANCH  15  16
BRANCH  15  20
HETATM   20  C12 UNL     1       3.486  -0.042  -0.100  1.00  0.00     0.010 A 
HETATM   21  C13 UNL     1       4.116  -0.947   0.730  1.00  0.00     0.017 A 
HETATM   22  C14 UNL     1       5.480  -1.204   0.665  1.00  0.00     0.020 A 
HETATM   23  C15 UNL     1       6.247  -0.542  -0.255  1.00  0.00     0.116 A 
HETATM   24  N5  UNL     1       5.653   0.357  -1.087  1.00  0.00    -0.272 NA
HETATM   25  C16 UNL     1       4.330   0.583  -0.998  1.00  0.00     0.130 A 
ENDBRANCH  15  20
ENDBRANCH   1  14
TORSDOF 8
