REMARK  5 active torsions:
REMARK  status: ('A' for Active; 'I' for Inactive)
REMARK    1  A    between atoms: C4_4  and  N1_5 
REMARK    2  A    between atoms: C4_4  and  C5_6 
REMARK    3  A    between atoms: C6_7  and  N2_8 
REMARK    4  A    between atoms: N2_8  and  C7_9 
REMARK    5  A    between atoms: C10_13  and  C11_14 
ROOT
HETATM    1  C1  UNL     1       4.726   2.697  -0.039  1.00  0.00     0.017 C 
HETATM    2  C2  UNL     1       5.017   1.526  -0.138  1.00  0.00    -0.087 C 
HETATM    3  C3  UNL     1       5.359   0.154  -0.279  1.00  0.00     0.092 C 
HETATM    4  C4  UNL     1       4.477  -0.802   0.001  1.00  0.00     0.035 C 
ENDROOT
BRANCH   4   5
HETATM    5  N1  UNL     1       4.769  -2.197  -0.123  1.00  0.00    -0.399 N 
HETATM    6  H3  UNL     1       4.851  -2.474  -1.125  1.00  0.00     0.156 HD
HETATM    7  H4  UNL     1       4.892  -2.880   0.681  1.00  0.00     0.156 HD
ENDBRANCH   4   5
BRANCH   4   8
HETATM    8  C5  UNL     1       3.118  -0.457   0.466  1.00  0.00     0.047 C 
HETATM    9  C6  UNL     1       2.192  -1.376   0.762  1.00  0.00     0.108 C 
BRANCH   9  10
HETATM   10  N2  UNL     1       0.887  -0.981   1.210  1.00  0.00    -0.198 N 
HETATM   11  H7  UNL     1       0.591  -0.918   2.201  1.00  0.00     0.183 HD
BRANCH  10  12
HETATM   12  C7  UNL     1      -0.051  -0.656   0.182  1.00  0.00     0.726 A 
HETATM   13  N3  UNL     1       0.334  -0.738  -1.119  1.00  0.00    -0.075 NA
HETATM   14  C8  UNL     1      -0.544  -0.433  -2.114  1.00  0.00     0.139 A 
HETATM   15  C9  UNL     1      -1.814  -0.047  -1.740  1.00  0.00     0.053 A 
HETATM   16  C10 UNL     1      -2.224   0.042  -0.428  1.00  0.00     0.089 A 
HETATM   17  N5  UNL     1      -1.318  -0.270   0.513  1.00  0.00    -0.062 NA
BRANCH  16  18
HETATM   18  C11 UNL     1      -3.556   0.446   0.001  1.00  0.00     0.011 A 
HETATM   19  C12 UNL     1      -3.794   0.480   1.359  1.00  0.00     0.017 A 
HETATM   20  C13 UNL     1      -5.082   0.872   1.733  1.00  0.00     0.020 A 
HETATM   21  C14 UNL     1      -6.090   1.214   0.858  1.00  0.00     0.116 A 
HETATM   22  N4  UNL     1      -5.803   1.164  -0.467  1.00  0.00    -0.272 NA
HETATM   23  C15 UNL     1      -4.560   0.787  -0.878  1.00  0.00     0.130 A 
ENDBRANCH  16  18
ENDBRANCH  10  12
ENDBRANCH   9  10
ENDBRANCH   4   8
TORSDOF 5
