REMARK  5 active torsions:
REMARK  status: ('A' for Active; 'I' for Inactive)
REMARK    1  A    between atoms: C2_2  and  C3_3 
REMARK    2  A    between atoms: C12_13  and  N2_14 
REMARK       I    between atoms: N2_14  and  C13_15 
REMARK    3  A    between atoms: C13_15  and  C14_17 
REMARK    4  A    between atoms: C22_25  and  N3_26 
REMARK    5  A    between atoms: N3_26  and  N4_27 
ROOT
HETATM    1  C3  UNL     1       4.099   1.466   0.103  1.00  0.00     0.076 C 
HETATM    2  C4  UNL     1       5.238   1.422   0.879  1.00  0.00     0.147 C 
HETATM    3  N1  UNL     1       5.849   0.334   0.326  1.00  0.00    -0.271 NA
HETATM    4  C5  UNL     1       5.611  -0.908   0.824  1.00  0.00     0.116 C 
HETATM    5  C6  UNL     1       5.042  -1.898   0.070  1.00  0.00     0.019 C 
HETATM    6  C7  UNL     1       3.940  -2.126  -0.728  1.00  0.00     0.002 C 
HETATM    7  C8  UNL     1       2.692  -2.665  -0.474  1.00  0.00     0.012 C 
HETATM    8  C9  UNL     1       1.462  -2.035  -0.470  1.00  0.00    -0.022 A 
HETATM    9  C10 UNL     1       0.367  -2.745  -0.915  1.00  0.00     0.014 A 
HETATM   10  C11 UNL     1      -0.916  -2.255  -0.970  1.00  0.00     0.030 A 
HETATM   11  C12 UNL     1      -1.158  -0.962  -0.557  1.00  0.00     0.035 A 
HETATM   12  C20 UNL     1      -0.041  -0.247  -0.107  1.00  0.00     0.045 A 
HETATM   13  C21 UNL     1       1.261  -0.749  -0.053  1.00  0.00     0.026 A 
HETATM   14  C22 UNL     1       2.176   0.153   0.426  1.00  0.00     0.180 C 
HETATM   15  N5  UNL     1       3.209   0.549  -0.311  1.00  0.00    -0.226 NA
ENDROOT
BRANCH  11  16
HETATM   16  N2  UNL     1      -2.434  -0.351  -0.568  1.00  0.00    -0.323 N 
HETATM   17  C13 UNL     1      -3.391  -0.348   0.462  1.00  0.00     0.256 C 
HETATM   18  O1  UNL     1      -3.018  -0.981   1.502  1.00  0.00    -0.267 OA
HETATM   19  H11 UNL     1      -2.625   0.142  -1.487  1.00  0.00     0.169 HD
BRANCH  17  20
HETATM   20  C14 UNL     1      -4.679   0.331   0.309  1.00  0.00     0.032 A 
HETATM   21  C15 UNL     1      -5.128   1.022  -0.778  1.00  0.00     0.017 A 
HETATM   22  C16 UNL     1      -6.356   1.618  -0.809  1.00  0.00     0.001 A 
HETATM   23  C17 UNL     1      -7.215   1.553   0.267  1.00  0.00     0.000 A 
HETATM   24  C18 UNL     1      -6.762   0.854   1.369  1.00  0.00     0.001 A 
HETATM   25  C19 UNL     1      -5.528   0.249   1.413  1.00  0.00     0.017 A 
ENDBRANCH  17  20
ENDBRANCH  11  16
BRANCH  14  26
HETATM   26  N3  UNL     1       1.856   0.505   1.622  1.00  0.00    -0.161 NA
BRANCH  26  27
HETATM   27  N4  UNL     1       0.714  -0.048   2.200  1.00  0.00    -0.321 N 
HETATM   28  H18 UNL     1      -0.284  -0.302   2.367  1.00  0.00     0.179 HD
HETATM   29  H19 UNL     1       1.334  -0.450   2.921  1.00  0.00     0.179 HD
ENDBRANCH  26  27
ENDBRANCH  14  26
BRANCH   1  30
HETATM   30  C2  UNL     1       3.814   2.819  -0.364  1.00  0.00     0.023 C 
HETATM   31  C1  UNL     1       2.798   3.196  -1.124  1.00  0.00     0.013 C 
ENDBRANCH   1  30
TORSDOF 5
