REMARK  2 active torsions:
REMARK  status: ('A' for Active; 'I' for Inactive)
REMARK    1  A    between atoms: C2_2  and  C3_4 
REMARK    2  A    between atoms: C12_15  and  C13_16 
ROOT
HETATM    1  C3  UNL     1      -2.913   1.253  -0.040  1.00  0.00     0.017 C 
HETATM    2  C4  UNL     1      -3.125   0.023   0.381  1.00  0.00     0.016 C 
HETATM    3  C5  UNL     1      -2.769  -1.391   0.232  1.00  0.00     0.005 C 
HETATM    4  C6  UNL     1      -1.982  -2.233  -0.501  1.00  0.00    -0.066 C 
HETATM    5  C7  UNL     1      -1.986  -3.678  -0.210  1.00  0.00     0.045 C 
HETATM    6  C8  UNL     1      -1.221  -1.971  -1.663  1.00  0.00     0.172 C 
HETATM    7  N1  UNL     1       0.167  -1.949  -1.835  1.00  0.00    -0.218 N 
HETATM    8  C9  UNL     1       0.669  -0.747  -1.210  1.00  0.00     0.723 A 
HETATM    9  N2  UNL     1      -0.247   0.243  -1.265  1.00  0.00    -0.062 NA
HETATM   10  C10 UNL     1       0.013   1.432  -0.752  1.00  0.00     0.083 A 
HETATM   11  C11 UNL     1       1.193   1.773  -0.135  1.00  0.00     0.061 A 
HETATM   12  C12 UNL     1       2.100   0.744  -0.098  1.00  0.00     0.064 A 
HETATM   13  N4  UNL     1       1.847  -0.467  -0.614  1.00  0.00    -0.067 NA
HETATM   14  P1  UNL     1      -1.669   1.884  -1.286  1.00  0.00    -0.036 P 
HETATM   15  H11 UNL     1       0.973  -2.437  -2.221  1.00  0.00     0.178 HD
HETATM   16  H19 UNL     1      -1.848   3.261  -1.552  1.00  0.00     0.069 HD
ENDROOT
BRANCH  12  17
HETATM   17  C13 UNL     1       3.334   1.142   0.562  1.00  0.00     0.067 A 
HETATM   18  C14 UNL     1       4.525   1.023  -0.344  1.00  0.00     0.004 A 
HETATM   19  C15 UNL     1       5.633   0.323  -0.311  1.00  0.00     0.112 A 
HETATM   20  N3  UNL     1       5.795  -0.542   0.830  1.00  0.00    -0.277 NA
HETATM   21  C16 UNL     1       4.812  -0.506   1.669  1.00  0.00     0.090 A 
HETATM   22  C17 UNL     1       3.524   0.226   1.753  1.00  0.00     0.061 A 
ENDBRANCH  12  17
BRANCH   1  23
HETATM   23  C2  UNL     1      -3.705   2.324   0.610  1.00  0.00     0.156 C 
HETATM   24  C1  UNL     1      -4.708   2.174   1.674  1.00  0.00     0.097 C 
HETATM   25  O1  UNL     1      -3.526   3.505   0.236  1.00  0.00    -0.293 OA
ENDBRANCH   1  23
TORSDOF 2
