REMARK  6 active torsions:
REMARK  status: ('A' for Active; 'I' for Inactive)
REMARK    1  A    between atoms: N3_12  and  C10_13 
REMARK    2  A    between atoms: C14_17  and  N4_18 
REMARK    3  A    between atoms: N4_18  and  C15_19 
REMARK    4  A    between atoms: C16_20  and  C17_21 
REMARK    5  A    between atoms: C18_22  and  C19_23 
REMARK    6  A    between atoms: C19_23  and  O1_24 
ROOT
HETATM    1  C10 UNL     1      -1.062   0.478  -0.140  1.00  0.00     0.039 A 
HETATM    2  C11 UNL     1      -1.020   1.711   0.508  1.00  0.00     0.030 A 
HETATM    3  C12 UNL     1      -0.053   1.962   1.462  1.00  0.00     0.004 A 
HETATM    4  C13 UNL     1       0.900   1.023   1.812  1.00  0.00     0.029 A 
HETATM    5  C14 UNL     1       0.823  -0.184   1.147  1.00  0.00     0.034 A 
HETATM    6  C20 UNL     1      -0.123  -0.482   0.188  1.00  0.00     0.059 A 
ENDROOT
BRANCH   1   7
HETATM    7  N3  UNL     1      -2.036   0.170  -1.128  1.00  0.00    -0.319 N 
HETATM    8  C6  UNL     1      -3.252  -0.428  -0.596  1.00  0.00     0.117 A 
HETATM    9  C2  UNL     1      -3.970   0.503   0.328  1.00  0.00     0.044 C 
HETATM   10  C5  UNL     1      -2.958  -1.689   0.123  1.00  0.00     0.028 C 
HETATM   11  C7  UNL     1      -4.136  -0.675  -1.767  1.00  0.00     0.034 A 
HETATM   12  C1  UNL     1      -4.637   1.648  -0.371  1.00  0.00     0.069 C 
HETATM   13  N1  UNL     1      -3.970   0.275   1.609  1.00  0.00    -0.266 NA
HETATM   14  C3  UNL     1      -3.287  -0.868   2.164  1.00  0.00     0.128 C 
HETATM   15  C4  UNL     1      -3.417  -1.885   1.333  1.00  0.00    -0.008 C 
HETATM   16  C8  UNL     1      -3.909  -0.420  -3.066  1.00  0.00     0.117 A 
HETATM   17  N2  UNL     1      -2.673   0.169  -3.455  1.00  0.00    -0.256 NA
HETATM   18  C9  UNL     1      -1.826   0.428  -2.514  1.00  0.00     0.211 A 
ENDBRANCH   1   7
BRANCH   5  19
HETATM   19  N4  UNL     1       1.784  -1.184   1.474  1.00  0.00    -0.366 N 
HETATM   20  H12 UNL     1       1.790  -2.122   1.014  1.00  0.00     0.165 HD
BRANCH  19  21
HETATM   21  C15 UNL     1       2.795  -0.970   2.447  1.00  0.00     0.088 C 
HETATM   22  C16 UNL     1       4.053  -0.729   2.164  1.00  0.00     0.017 C 
BRANCH  22  23
HETATM   23  C17 UNL     1       4.506  -0.665   0.791  1.00  0.00    -0.001 C 
HETATM   24  C18 UNL     1       5.780  -0.421   0.541  1.00  0.00    -0.001 C 
BRANCH  24  25
HETATM   25  C19 UNL     1       6.399  -0.324  -0.810  1.00  0.00     0.191 C 
BRANCH  25  26
HETATM   26  O1  UNL     1       6.933   0.963  -0.897  1.00  0.00    -0.397 OA
HETATM   27  H19 UNL     1       7.253   1.270  -0.003  1.00  0.00     0.209 HD
ENDBRANCH  25  26
ENDBRANCH  24  25
ENDBRANCH  22  23
ENDBRANCH  19  21
ENDBRANCH   5  19
TORSDOF 6
