REMARK  5 active torsions:
REMARK  status: ('A' for Active; 'I' for Inactive)
REMARK       I    between atoms: C1_2  and  N1_3 
REMARK    1  A    between atoms: C1_2  and  C16_22 
REMARK    2  A    between atoms: N1_3  and  C2_4 
REMARK    3  A    between atoms: C5_7  and  N2_8 
REMARK    4  A    between atoms: N2_8  and  C6_9 
REMARK    5  A    between atoms: C9_13  and  C10_14 
ROOT
HETATM    1  C2  UNL     1      -2.155   0.002   1.638  1.00  0.00     0.033 A 
HETATM    2  C3  UNL     1      -2.070  -0.677   2.771  1.00  0.00     0.009 A 
HETATM    3  C4  UNL     1      -0.642  -0.904   3.127  1.00  0.00     0.087 A 
HETATM    4  C5  UNL     1       0.105  -0.245   2.012  1.00  0.00     0.032 A 
HETATM    5  C15 UNL     1      -0.783   0.261   1.182  1.00  0.00     0.055 A 
ENDROOT
BRANCH   4   6
HETATM    6  N2  UNL     1       1.501  -0.173   1.869  1.00  0.00    -0.192 N 
HETATM    7  H5  UNL     1       2.063  -0.155   2.743  1.00  0.00     0.184 HD
BRANCH   6   8
HETATM    8  C6  UNL     1       2.115  -0.127   0.587  1.00  0.00     0.727 A 
HETATM    9  N3  UNL     1       1.371  -0.152  -0.519  1.00  0.00    -0.075 NA
HETATM   10  C7  UNL     1       2.003  -0.106  -1.726  1.00  0.00     0.139 A 
HETATM   11  C8  UNL     1       3.395  -0.035  -1.821  1.00  0.00     0.053 A 
HETATM   12  C9  UNL     1       4.113  -0.013  -0.654  1.00  0.00     0.089 A 
HETATM   13  N5  UNL     1       3.478  -0.058   0.529  1.00  0.00    -0.062 NA
BRANCH  12  14
HETATM   14  C10 UNL     1       5.568   0.060  -0.610  1.00  0.00     0.011 A 
HETATM   15  C11 UNL     1       6.194   0.077   0.619  1.00  0.00     0.017 A 
HETATM   16  C12 UNL     1       7.584   0.145   0.763  1.00  0.00     0.020 A 
HETATM   17  C13 UNL     1       8.368   0.198  -0.393  1.00  0.00     0.116 A 
HETATM   18  N4  UNL     1       7.740   0.180  -1.582  1.00  0.00    -0.272 NA
HETATM   19  C14 UNL     1       6.396   0.114  -1.712  1.00  0.00     0.130 A 
ENDBRANCH  12  14
ENDBRANCH   6   8
ENDBRANCH   4   6
BRANCH   1  20
HETATM   20  N1  UNL     1      -3.404   0.350   1.077  1.00  0.00    -0.323 N 
HETATM   21  C1  UNL     1      -3.851  -0.058  -0.209  1.00  0.00     0.256 C 
HETATM   22  O1  UNL     1      -3.066  -0.778  -0.877  1.00  0.00    -0.267 OA
HETATM   23  H1  UNL     1      -4.031   0.946   1.653  1.00  0.00     0.169 HD
BRANCH  21  24
HETATM   24  C16 UNL     1      -5.138   0.300  -0.788  1.00  0.00     0.032 A 
HETATM   25  C17 UNL     1      -5.405  -0.186  -2.048  1.00  0.00     0.017 A 
HETATM   26  C18 UNL     1      -6.641   0.161  -2.598  1.00  0.00     0.001 A 
HETATM   27  C19 UNL     1      -7.580   0.933  -1.982  1.00  0.00     0.000 A 
HETATM   28  C20 UNL     1      -7.254   1.397  -0.706  1.00  0.00     0.001 A 
HETATM   29  C21 UNL     1      -6.046   1.085  -0.114  1.00  0.00     0.017 A 
ENDBRANCH  21  24
ENDBRANCH   1  20
TORSDOF 5
