REMARK  8 active torsions:
REMARK  status: ('A' for Active; 'I' for Inactive)
REMARK    1  A    between atoms: O1_1  and  C1_2 
REMARK    2  A    between atoms: C1_2  and  C2_3 
REMARK    3  A    between atoms: C5_6  and  O2_7 
REMARK    4  A    between atoms: C7_9  and  C8_10 
REMARK    5  A    between atoms: C8_10  and  N1_11 
REMARK    6  A    between atoms: N1_11  and  C9_12 
REMARK    7  A    between atoms: C12_17  and  N4_18 
REMARK    8  A    between atoms: N4_18  and  C13_19 
ROOT
HETATM    1  C9  UNL     1       0.615  -1.039  -0.568  1.00  0.00     0.092 A 
HETATM    2  C10 UNL     1      -0.103  -1.786  -1.489  1.00  0.00     0.151 A 
HETATM    3  N2  UNL     1       0.266  -3.068  -1.733  1.00  0.00    -0.252 NA
HETATM    4  C11 UNL     1       1.326  -3.623  -1.086  1.00  0.00     0.235 A 
HETATM    5  N3  UNL     1       1.998  -2.876  -0.203  1.00  0.00    -0.222 NA
HETATM    6  C12 UNL     1       1.684  -1.626   0.073  1.00  0.00     0.157 A 
ENDROOT
BRANCH   1   7
HETATM    7  N1  UNL     1       0.141   0.291  -0.413  1.00  0.00    -0.381 N 
HETATM    8  H10 UNL     1       0.783   0.775   0.287  1.00  0.00     0.160 HD
BRANCH   7   9
HETATM    9  C8  UNL     1      -0.916   1.126  -0.927  1.00  0.00     0.159 C 
BRANCH   9  10
HETATM   10  C7  UNL     1      -2.280   0.706  -0.579  1.00  0.00    -0.029 A 
HETATM   11  C2  UNL     1      -2.805   0.902   0.678  1.00  0.00    -0.027 A 
HETATM   12  C3  UNL     1      -4.103   0.516   0.997  1.00  0.00     0.012 A 
HETATM   13  C4  UNL     1      -4.941  -0.084   0.083  1.00  0.00     0.037 A 
HETATM   14  C5  UNL     1      -4.454  -0.295  -1.175  1.00  0.00     0.066 A 
HETATM   15  C6  UNL     1      -3.168   0.095  -1.468  1.00  0.00     0.046 A 
BRANCH  11  16
HETATM   16  C1  UNL     1      -2.019   1.535   1.768  1.00  0.00     0.203 C 
BRANCH  16  17
HETATM   17  O1  UNL     1      -1.992   2.913   1.467  1.00  0.00    -0.396 OA
HETATM   18  H1  UNL     1      -2.853   3.191   1.020  1.00  0.00     0.209 HD
ENDBRANCH  16  17
ENDBRANCH  11  16
BRANCH  14  19
HETATM   19  O2  UNL     1      -5.237  -0.901  -2.173  1.00  0.00    -0.361 OA
HETATM   20  H6  UNL     1      -5.641  -1.804  -1.902  1.00  0.00     0.217 HD
ENDBRANCH  14  19
ENDBRANCH   9  10
ENDBRANCH   7   9
ENDBRANCH   1   7
BRANCH   6  21
HETATM   21  N4  UNL     1       2.388  -0.832   1.008  1.00  0.00    -0.339 N 
HETATM   22  H13 UNL     1       1.804  -0.983   1.854  1.00  0.00     0.167 HD
BRANCH  21  23
HETATM   23  C13 UNL     1       3.561  -0.070   0.778  1.00  0.00     0.032 C 
HETATM   24  C14 UNL     1       3.887   0.592   1.904  1.00  0.00     0.014 C 
HETATM   25  C15 UNL     1       4.900   1.439   2.241  1.00  0.00    -0.077 C 
HETATM   26  B1  UNL     1       5.497   2.231   0.175  1.00  0.00     0.221 B 
HETATM   27  C16 UNL     1       5.342   0.661  -0.622  1.00  0.00    -0.054 C 
HETATM   28 BR1  UNL     1       6.719  -0.006  -1.755  1.00  0.00    -0.069 Br
HETATM   29  C17 UNL     1       4.208  -0.063  -0.405  1.00  0.00     0.031 C 
ENDBRANCH  21  23
ENDBRANCH   6  21
TORSDOF 8
