REMARK  4 active torsions:
REMARK  status: ('A' for Active; 'I' for Inactive)
REMARK       I    between atoms: C2_2  and  N1_4 
REMARK    1  A    between atoms: N1_4  and  C3_5 
REMARK    2  A    between atoms: C8_10  and  N2_11 
REMARK    3  A    between atoms: N2_11  and  C9_12 
REMARK    4  A    between atoms: C11_16  and  C12_17 
ROOT
HETATM    1  N2  UNL     1      -0.011  -1.494  -0.532  1.00  0.00    -0.189 N 
HETATM    2  H10 UNL     1      -0.492  -2.440  -0.569  1.00  0.00     0.184 HD
ENDROOT
BRANCH   1   3
HETATM    3  C8  UNL     1       1.360  -1.473  -0.223  1.00  0.00     0.057 A 
HETATM    4  C6  UNL     1       2.067  -2.660  -0.012  1.00  0.00    -0.035 A 
HETATM    5  C5  UNL     1       3.404  -2.703   0.298  1.00  0.00     0.011 A 
HETATM    6  C7  UNL     1       1.299  -3.945  -0.136  1.00  0.00     0.050 C 
HETATM    7  C4  UNL     1       4.128  -1.550   0.417  1.00  0.00     0.030 A 
HETATM    8  C3  UNL     1       3.489  -0.349   0.220  1.00  0.00     0.036 A 
HETATM    9  C17 UNL     1       2.146  -0.354  -0.088  1.00  0.00     0.060 A 
BRANCH   8  10
HETATM   10  N1  UNL     1       4.241   0.845   0.344  1.00  0.00    -0.327 N 
HETATM   11  C2  UNL     1       4.542   1.724   1.414  1.00  0.00     0.218 C 
HETATM   12  C1  UNL     1       5.397   2.856   0.974  1.00  0.00     0.117 C 
HETATM   13  O1  UNL     1       4.071   1.448   2.542  1.00  0.00    -0.274 OA
HETATM   14  H4  UNL     1       4.563   0.941  -0.664  1.00  0.00     0.169 HD
ENDBRANCH   8  10
ENDBRANCH   1   3
BRANCH   1  15
HETATM   15  C9  UNL     1      -0.796  -0.340  -0.792  1.00  0.00     0.706 A 
HETATM   16  N3  UNL     1      -0.241   0.581  -1.499  1.00  0.00    -0.183 NA
HETATM   17  B1  UNL     1      -1.000   1.845  -1.826  1.00  0.00     0.328 B 
HETATM   18  C10 UNL     1      -2.486   1.997  -1.280  1.00  0.00     0.035 A 
HETATM   19  H11 UNL     1      -0.436   2.829  -2.187  1.00  0.00     0.003 HD
HETATM   20  C11 UNL     1      -2.865   0.798  -0.504  1.00  0.00     0.058 A 
HETATM   21  N5  UNL     1      -2.123  -0.237  -0.285  1.00  0.00    -0.069 NA
BRANCH  20  22
HETATM   22  C12 UNL     1      -4.190   0.714   0.097  1.00  0.00     0.006 A 
HETATM   23  C13 UNL     1      -4.601  -0.369   0.827  1.00  0.00     0.016 A 
HETATM   24  C14 UNL     1      -5.867  -0.441   1.398  1.00  0.00     0.020 A 
HETATM   25  C15 UNL     1      -6.758   0.619   1.228  1.00  0.00     0.116 A 
HETATM   26  N4  UNL     1      -6.347   1.680   0.510  1.00  0.00    -0.272 NA
HETATM   27  C16 UNL     1      -5.122   1.748  -0.041  1.00  0.00     0.129 A 
ENDBRANCH  20  22
ENDBRANCH   1  15
TORSDOF 4
