REMARK  6 active torsions:
REMARK  status: ('A' for Active; 'I' for Inactive)
REMARK    1  A    between atoms: C5_5  and  N1_6 
REMARK    2  A    between atoms: N1_6  and  C6_7 
REMARK    3  A    between atoms: C6_7  and  O1_9 
REMARK    4  A    between atoms: C9_11  and  N2_12 
REMARK    5  A    between atoms: N2_12  and  C10_13 
REMARK    6  A    between atoms: C13_17  and  C14_18 
ROOT
HETATM    1  N2  UNL     1       0.408   0.898  -0.136  1.00  0.00    -0.188 N 
HETATM    2  H13 UNL     1       0.871   1.855  -0.140  1.00  0.00     0.184 HD
ENDROOT
BRANCH   1   3
HETATM    3  C9  UNL     1      -1.001   0.930  -0.237  1.00  0.00     0.057 A 
HETATM    4  C2  UNL     1      -1.685   2.148  -0.334  1.00  0.00    -0.035 A 
HETATM    5  C1  UNL     1      -0.903   3.424  -0.328  1.00  0.00     0.050 C 
HETATM    6  C3  UNL     1      -3.056   2.204  -0.433  1.00  0.00     0.011 A 
HETATM    7  C4  UNL     1      -3.832   1.066  -0.444  1.00  0.00     0.030 A 
HETATM    8  C5  UNL     1      -3.205  -0.157  -0.352  1.00  0.00     0.032 A 
HETATM    9  C8  UNL     1      -1.835  -0.166  -0.254  1.00  0.00     0.059 A 
BRANCH   8  10
HETATM   10  N1  UNL     1      -3.954  -1.362  -0.355  1.00  0.00    -0.364 N 
HETATM   11  H6  UNL     1      -3.458  -2.277  -0.291  1.00  0.00     0.162 HD
BRANCH  10  12
HETATM   12  C6  UNL     1      -5.395  -1.361  -0.446  1.00  0.00     0.213 C 
HETATM   13  C7  UNL     1      -6.028  -0.654   0.719  1.00  0.00     0.063 C 
BRANCH  12  14
HETATM   14  O1  UNL     1      -5.922  -2.622  -0.614  1.00  0.00    -0.377 OA
HETATM   15  H11 UNL     1      -5.939  -3.161   0.201  1.00  0.00     0.212 HD
ENDBRANCH  12  14
ENDBRANCH  10  12
ENDBRANCH   8  10
ENDBRANCH   1   3
BRANCH   1  16
HETATM   16  C10 UNL     1       1.256  -0.235  -0.031  1.00  0.00     0.727 A 
HETATM   17  N3  UNL     1       0.876  -1.517  -0.009  1.00  0.00    -0.075 NA
HETATM   18  C11 UNL     1       1.712  -2.557   0.091  1.00  0.00     0.139 A 
HETATM   19  C12 UNL     1       3.056  -2.284   0.176  1.00  0.00     0.053 A 
HETATM   20  C13 UNL     1       3.505  -0.984   0.158  1.00  0.00     0.089 A 
HETATM   21  N5  UNL     1       2.580  -0.022   0.055  1.00  0.00    -0.062 NA
BRANCH  20  22
HETATM   22  C14 UNL     1       4.906  -0.591   0.243  1.00  0.00     0.011 A 
HETATM   23  C15 UNL     1       5.206   0.754   0.213  1.00  0.00     0.017 A 
HETATM   24  C16 UNL     1       6.549   1.088   0.296  1.00  0.00     0.020 A 
HETATM   25  C17 UNL     1       7.596   0.183   0.406  1.00  0.00     0.116 A 
HETATM   26  N4  UNL     1       7.239  -1.128   0.431  1.00  0.00    -0.272 NA
HETATM   27  C18 UNL     1       5.942  -1.493   0.352  1.00  0.00     0.130 A 
ENDBRANCH  20  22
ENDBRANCH   1  16
TORSDOF 6
