REMARK  4 active torsions:
REMARK  status: ('A' for Active; 'I' for Inactive)
REMARK    1  A    between atoms: C6_7  and  C7_8 
REMARK    2  A    between atoms: N3_10  and  C8_11 
REMARK    3  A    between atoms: C10_13  and  N4_14 
REMARK    4  A    between atoms: C11_15  and  C12_16 
ROOT
HETATM    1  C7  UNL     1      -1.933  -0.758   0.551  1.00  0.00     0.087 A 
HETATM    2  N2  UNL     1      -0.870  -0.383  -0.094  1.00  0.00    -0.169 NA
HETATM    3  N3  UNL     1       0.251  -0.050   0.673  1.00  0.00    -0.231 N 
HETATM    4  C16 UNL     1       0.102  -0.158   2.080  1.00  0.00     0.228 A 
HETATM    5  N5  UNL     1      -0.951  -0.528   2.696  1.00  0.00    -0.277 NA
HETATM    6  C17 UNL     1      -2.163  -0.895   2.007  1.00  0.00     0.212 A 
ENDROOT
BRANCH   3   7
HETATM    7  C8  UNL     1       1.549   0.389   0.307  1.00  0.00     0.043 C 
HETATM    8  C9  UNL     1       2.289  -0.611  -0.146  1.00  0.00     0.057 C 
HETATM    9  C10 UNL     1       3.662  -0.410  -0.584  1.00  0.00     0.041 C 
HETATM   10  C11 UNL     1       4.387   0.681  -0.766  1.00  0.00     0.028 C 
HETATM   11  C13 UNL     1       3.987   2.065  -0.564  1.00  0.00     0.013 C 
HETATM   12  C14 UNL     1       2.853   2.474  -0.016  1.00  0.00    -0.020 C 
HETATM   13  C15 UNL     1       1.661   1.842   0.554  1.00  0.00     0.086 C 
BRANCH   9  14
HETATM   14  N4  UNL     1       4.366  -1.610  -0.875  1.00  0.00    -0.398 N 
HETATM   15  H8  UNL     1       4.046  -2.089  -1.755  1.00  0.00     0.156 HD
HETATM   16  H9  UNL     1       5.155  -2.146  -0.404  1.00  0.00     0.156 HD
ENDBRANCH   9  14
BRANCH  10  17
HETATM   17  C12 UNL     1       5.754   0.459  -1.223  1.00  0.00     0.272 C 
HETATM   18  O1  UNL     1       6.504   1.448  -1.418  1.00  0.00    -0.301 OA
ENDBRANCH  10  17
ENDBRANCH   3   7
BRANCH   1  19
HETATM   19  C6  UNL     1      -3.086  -1.100  -0.265  1.00  0.00     0.015 A 
HETATM   20  C2  UNL     1      -3.892  -0.052  -0.711  1.00  0.00    -0.047 A 
HETATM   21  C1  UNL     1      -3.597   1.368  -0.376  1.00  0.00     0.049 C 
HETATM   22  C3  UNL     1      -5.013  -0.298  -1.495  1.00  0.00     0.027 A 
HETATM   23  C4  UNL     1      -5.253  -1.625  -1.784  1.00  0.00     0.116 A 
HETATM   24  N1  UNL     1      -4.491  -2.658  -1.365  1.00  0.00    -0.272 NA
HETATM   25  C5  UNL     1      -3.389  -2.419  -0.595  1.00  0.00     0.130 A 
ENDBRANCH   1  19
TORSDOF 4
