REMARK  3 active torsions:
REMARK  status: ('A' for Active; 'I' for Inactive)
REMARK       I    between atoms: C2_2  and  N1_4 
REMARK    1  A    between atoms: N1_4  and  C3_5 
REMARK    2  A    between atoms: C8_10  and  N2_11 
REMARK    3  A    between atoms: N2_11  and  C9_12 
ROOT
HETATM    1  C3  UNL     1       2.973  -0.740   0.512  1.00  0.00     0.036 A 
HETATM    2  C4  UNL     1       3.609  -1.893   0.121  1.00  0.00     0.030 A 
HETATM    3  C5  UNL     1       2.871  -2.850  -0.501  1.00  0.00     0.011 A 
HETATM    4  C6  UNL     1       1.529  -2.709  -0.750  1.00  0.00    -0.035 A 
HETATM    5  C7  UNL     1       0.770  -3.787  -1.434  1.00  0.00     0.050 C 
HETATM    6  C8  UNL     1       0.831  -1.555  -0.373  1.00  0.00     0.057 A 
HETATM    7  C16 UNL     1       1.625  -0.618   0.253  1.00  0.00     0.060 A 
ENDROOT
BRANCH   6   8
HETATM    8  N2  UNL     1      -0.548  -1.405  -0.626  1.00  0.00    -0.188 N 
HETATM    9  H10 UNL     1      -0.996  -2.233  -1.118  1.00  0.00     0.184 HD
BRANCH   8  10
HETATM   10  C9  UNL     1      -1.395  -0.317  -0.315  1.00  0.00     0.727 A 
HETATM   11  N3  UNL     1      -1.044   0.819   0.299  1.00  0.00    -0.074 NA
HETATM   12  C10 UNL     1      -1.861   1.839   0.585  1.00  0.00     0.147 A 
HETATM   13  C11 UNL     1      -3.161   1.703   0.217  1.00  0.00     0.005 A 
HETATM   14  C12 UNL     1      -3.597   0.566  -0.418  1.00  0.00     0.068 A 
HETATM   15  C15 UNL     1      -4.115   2.802   0.507  1.00  0.00     0.190 C 
HETATM   16  N4  UNL     1      -2.682  -0.366  -0.639  1.00  0.00    -0.066 NA
HETATM   17  C13 UNL     1      -5.017   0.407  -0.825  1.00  0.00     0.107 C 
HETATM   18  C14 UNL     1      -5.898   1.338  -0.055  1.00  0.00     0.090 C 
HETATM   19  N5  UNL     1      -5.480   2.379   0.519  1.00  0.00    -0.301 NA
ENDBRANCH   8  10
ENDBRANCH   6   8
BRANCH   1  20
HETATM   20  N1  UNL     1       3.726   0.275   1.165  1.00  0.00    -0.327 N 
HETATM   21  C2  UNL     1       4.412   1.352   0.549  1.00  0.00     0.218 C 
HETATM   22  C1  UNL     1       5.165   2.345   1.376  1.00  0.00     0.117 C 
HETATM   23  O1  UNL     1       4.388   1.476  -0.714  1.00  0.00    -0.274 OA
HETATM   24  H4  UNL     1       3.785   0.230   2.194  1.00  0.00     0.169 HD
ENDBRANCH   1  20
TORSDOF 3
