REMARK  3 active torsions:
REMARK  status: ('A' for Active; 'I' for Inactive)
REMARK       I    between atoms: C2_2  and  N1_4 
REMARK    1  A    between atoms: N1_4  and  C3_5 
REMARK    2  A    between atoms: C8_10  and  N2_11 
REMARK    3  A    between atoms: N2_11  and  C9_12 
ROOT
HETATM    1  N2  UNL     1       0.518  -1.670  -0.501  1.00  0.00    -0.189 N 
HETATM    2  H10 UNL     1       0.908  -2.663  -0.527  1.00  0.00     0.184 HD
ENDROOT
BRANCH   1   3
HETATM    3  C8  UNL     1      -0.858  -1.455  -0.251  1.00  0.00     0.057 A 
HETATM    4  C6  UNL     1      -1.656  -2.599  -0.125  1.00  0.00    -0.035 A 
HETATM    5  C5  UNL     1      -3.005  -2.490   0.128  1.00  0.00     0.011 A 
HETATM    6  C7  UNL     1      -1.053  -3.974  -0.265  1.00  0.00     0.050 C 
HETATM    7  C4  UNL     1      -3.531  -1.241   0.251  1.00  0.00     0.030 A 
HETATM    8  C3  UNL     1      -2.822  -0.089   0.142  1.00  0.00     0.036 A 
HETATM    9  C17 UNL     1      -1.478  -0.240  -0.111  1.00  0.00     0.060 A 
BRANCH   8  10
HETATM   10  N1  UNL     1      -3.320   1.208   0.260  1.00  0.00    -0.327 N 
HETATM   11  C2  UNL     1      -4.637   1.641   0.515  1.00  0.00     0.218 C 
HETATM   12  C1  UNL     1      -5.108   3.034   0.630  1.00  0.00     0.117 C 
HETATM   13  O1  UNL     1      -5.530   0.801   0.665  1.00  0.00    -0.274 OA
HETATM   14  H4  UNL     1      -2.694   2.054   0.160  1.00  0.00     0.169 HD
ENDBRANCH   8  10
ENDBRANCH   1   3
BRANCH   1  15
HETATM   15  C9  UNL     1       1.491  -0.647  -0.722  1.00  0.00     0.705 C 
HETATM   16  N3  UNL     1       1.012   0.300  -1.468  1.00  0.00    -0.077 NA
HETATM   17  C10 UNL     1       1.602   1.492  -1.939  1.00  0.00     0.137 C 
HETATM   18  C11 UNL     1       2.789   1.969  -1.567  1.00  0.00     0.035 C 
HETATM   19  C12 UNL     1       3.786   1.443  -0.619  1.00  0.00     0.010 A 
HETATM   20  C13 UNL     1       4.833   2.281  -0.350  1.00  0.00     0.130 A 
HETATM   21  C16 UNL     1       3.772   0.200   0.022  1.00  0.00     0.062 A 
HETATM   22  N4  UNL     1       5.798   1.892   0.505  1.00  0.00    -0.272 NA
HETATM   23  C14 UNL     1       5.765   0.692   1.111  1.00  0.00     0.118 A 
HETATM   24  C15 UNL     1       4.738  -0.224   0.896  1.00  0.00     0.050 A 
HETATM   25  N5  UNL     1       2.760  -0.797  -0.140  1.00  0.00    -0.189 N 
HETATM   26  H16 UNL     1       2.947  -1.768   0.201  1.00  0.00     0.184 HD
ENDBRANCH   1  15
TORSDOF 3
