REMARK  4 active torsions:
REMARK  status: ('A' for Active; 'I' for Inactive)
REMARK    1  A    between atoms: C5_5  and  N1_6 
REMARK    2  A    between atoms: N1_6  and  C6_7 
REMARK    3  A    between atoms: C8_9  and  S1_10 
REMARK    4  A    between atoms: N2_11  and  C9_12 
ROOT
HETATM    1  C6  UNL     1      -0.400  -1.164  -0.955  1.00  0.00     0.120 C 
HETATM    2  C7  UNL     1       0.808  -1.616  -0.673  1.00  0.00     0.060 C 
HETATM    3  C8  UNL     1       2.223  -1.511  -0.197  1.00  0.00     0.193 C 
HETATM    4  N2  UNL     1       2.791  -0.219  -0.526  1.00  0.00    -0.273 N 
HETATM    5  N3  UNL     1       2.036   0.737  -1.213  1.00  0.00    -0.290 N 
HETATM    6  C15 UNL     1       1.255   1.919  -1.103  1.00  0.00     0.224 C 
HETATM    7  N4  UNL     1       0.432   2.287  -0.181  1.00  0.00    -0.234 NA
HETATM    8  C16 UNL     1       0.119   1.552   0.977  1.00  0.00     0.256 C 
HETATM    9  N5  UNL     1      -0.483   0.477   0.627  1.00  0.00    -0.166 NA
HETATM   10  N6  UNL     1      -0.714   0.226  -0.729  1.00  0.00    -0.262 N 
HETATM   11  H14 UNL     1       2.183   0.300  -2.148  1.00  0.00     0.188 HD
HETATM   12  H17 UNL     1      -1.051   1.066  -1.268  1.00  0.00     0.191 HD
ENDROOT
BRANCH   1  13
HETATM   13  N1  UNL     1      -1.702  -1.461  -1.440  1.00  0.00    -0.351 N 
HETATM   14  H6  UNL     1      -1.831  -1.441  -2.494  1.00  0.00     0.166 HD
BRANCH  13  15
HETATM   15  C5  UNL     1      -2.742  -1.760  -0.549  1.00  0.00     0.101 C 
HETATM   16  C4  UNL     1      -3.807  -1.104  -0.152  1.00  0.00    -0.018 A 
HETATM   17  C3  UNL     1      -4.055   0.216  -0.686  1.00  0.00     0.037 A 
HETATM   18  C17 UNL     1      -4.652  -1.791   0.809  1.00  0.00     0.030 A 
HETATM   19  C2  UNL     1      -5.166   0.803  -0.222  1.00  0.00     0.005 A 
HETATM   20  C1  UNL     1      -5.540   2.166  -0.690  1.00  0.00     0.068 C 
HETATM   21  N7  UNL     1      -6.026   0.157   0.728  1.00  0.00    -0.369 N 
HETATM   22  C18 UNL     1      -5.748  -1.146   1.231  1.00  0.00     0.089 A 
HETATM   23  H20 UNL     1      -6.892   0.592   1.102  1.00  0.00     0.165 HD
ENDBRANCH  13  15
ENDBRANCH   1  13
BRANCH   3  24
HETATM   24  S1  UNL     1       3.227  -2.852  -0.934  1.00  0.00    -0.151 SA
HETATM   25  H9  UNL     1       2.389  -3.950  -1.284  1.00  0.00     0.104 HD
ENDBRANCH   3  24
BRANCH   4  26
HETATM   26  C9  UNL     1       4.103   0.223  -0.219  1.00  0.00     0.054 A 
HETATM   27  C10 UNL     1       4.659   1.437  -0.556  1.00  0.00     0.031 A 
HETATM   28  C11 UNL     1       5.943   1.778  -0.212  1.00  0.00     0.004 A 
HETATM   29  C12 UNL     1       6.734   0.920   0.487  1.00  0.00     0.024 A 
HETATM   30  C13 UNL     1       6.267  -0.305   0.864  1.00  0.00     0.036 A 
HETATM   31 CL1  UNL     1       7.215  -1.474   1.766  1.00  0.00    -0.084 Cl
HETATM   32  C14 UNL     1       4.970  -0.610   0.498  1.00  0.00     0.055 A 
ENDBRANCH   4  26
TORSDOF 4
