REMARK  6 active torsions:
REMARK  status: ('A' for Active; 'I' for Inactive)
REMARK    1  A    between atoms: B1_1  and  C1_2 
REMARK    2  A    between atoms: C6_8  and  N1_10 
REMARK    3  A    between atoms: N1_10  and  C8_11 
REMARK    4  A    between atoms: C11_14  and  N2_15 
REMARK    5  A    between atoms: N2_15  and  C12_16 
REMARK    6  A    between atoms: C15_20  and  C16_21 
ROOT
HETATM    1  C8  UNL     1      -1.765  -0.365   0.204  1.00  0.00     0.042 C 
HETATM    2  C9  UNL     1      -1.722  -0.366  -1.116  1.00  0.00     0.005 C 
HETATM    3  C10 UNL     1      -0.999  -1.373  -1.589  1.00  0.00     0.044 C 
HETATM    4  C11 UNL     1       0.058  -1.473  -0.565  1.00  0.00     0.052 C 
HETATM    5  C21 UNL     1      -0.410  -0.852   0.537  1.00  0.00     0.060 C 
ENDROOT
BRANCH   4   6
HETATM    6  N2  UNL     1       1.384  -2.018  -0.396  1.00  0.00    -0.188 N 
HETATM    7  H12 UNL     1       1.806  -2.945  -0.589  1.00  0.00     0.184 HD
BRANCH   6   8
HETATM    8  C12 UNL     1       2.459  -1.267   0.129  1.00  0.00     0.727 A 
HETATM    9  N3  UNL     1       2.341  -1.130   1.476  1.00  0.00    -0.075 NA
HETATM   10  C13 UNL     1       3.294  -0.440   2.166  1.00  0.00     0.139 A 
HETATM   11  C14 UNL     1       4.414   0.154   1.568  1.00  0.00     0.053 A 
HETATM   12  C15 UNL     1       4.457  -0.031   0.219  1.00  0.00     0.089 A 
HETATM   13  N5  UNL     1       3.525  -0.702  -0.434  1.00  0.00    -0.062 NA
BRANCH  12  14
HETATM   14  C16 UNL     1       5.570   0.503  -0.540  1.00  0.00     0.011 A 
HETATM   15  C17 UNL     1       6.607   1.212  -0.036  1.00  0.00     0.017 A 
HETATM   16  C18 UNL     1       7.685   1.720  -0.712  1.00  0.00     0.020 A 
HETATM   17  C19 UNL     1       7.672   1.452  -2.068  1.00  0.00     0.116 A 
HETATM   18  N4  UNL     1       6.710   0.764  -2.690  1.00  0.00    -0.272 NA
HETATM   19  C20 UNL     1       5.677   0.301  -1.928  1.00  0.00     0.130 A 
ENDBRANCH  12  14
ENDBRANCH   6   8
ENDBRANCH   4   6
BRANCH   1  20
HETATM   20  N1  UNL     1      -2.787  -0.017   1.130  1.00  0.00    -0.377 N 
HETATM   21  H10 UNL     1      -2.511  -0.056   2.156  1.00  0.00     0.160 HD
BRANCH  20  22
HETATM   22  C6  UNL     1      -4.127   0.375   0.780  1.00  0.00     0.043 A 
HETATM   23  C1  UNL     1      -4.852  -0.635  -0.027  1.00  0.00    -0.101 A 
HETATM   24  C2  UNL     1      -5.587  -0.663  -1.118  1.00  0.00     0.016 A 
HETATM   25  C3  UNL     1      -5.706   0.644  -1.737  1.00  0.00     0.029 A 
HETATM   26 CL1  UNL     1      -6.632   0.885  -3.185  1.00  0.00    -0.085 Cl
HETATM   27  C4  UNL     1      -5.061   1.599  -1.103  1.00  0.00    -0.000 A 
HETATM   28  C5  UNL     1      -4.223   1.711   0.101  1.00  0.00     0.063 A 
HETATM   29  C7  UNL     1      -4.927   0.468   2.087  1.00  0.00     0.043 C 
BRANCH  23  30
HETATM   30  B1  UNL     1      -4.687  -2.025   0.680  1.00  0.00     0.172 B 
HETATM   31  H1  UNL     1      -4.332  -2.920  -0.040  1.00  0.00    -0.026 HD
HETATM   32  H2  UNL     1      -5.059  -2.215   1.795  1.00  0.00    -0.026 HD
ENDBRANCH  23  30
ENDBRANCH  20  22
ENDBRANCH   1  20
TORSDOF 6
