REMARK  3 active torsions:
REMARK  status: ('A' for Active; 'I' for Inactive)
REMARK    1  A    between atoms: C2_2  and  N1_3 
REMARK    2  A    between atoms: N1_3  and  C3_4 
REMARK    3  A    between atoms: C6_7  and  N2_8 
ROOT
HETATM    1  C3  UNL     1       0.751  -1.176  -0.046  1.00  0.00     0.021 C 
HETATM    2  C4  UNL     1      -0.298  -1.500   0.553  1.00  0.00     0.026 C 
HETATM    3  C5  UNL     1      -1.396  -1.313   1.357  1.00  0.00     0.028 C 
HETATM    4  C6  UNL     1      -2.053  -0.509   2.116  1.00  0.00     0.020 C 
HETATM    5  C7  UNL     1      -3.379  -0.240   2.706  1.00  0.00     0.172 C 
HETATM    6  N3  UNL     1      -3.971   1.039   2.372  1.00  0.00    -0.392 N 
HETATM    7  C8  UNL     1      -4.407   1.357   1.088  1.00  0.00     0.220 C 
HETATM    8  C9  UNL     1      -3.904   2.769   0.715  1.00  0.00     0.023 C 
HETATM    9  C10 UNL     1      -2.716   3.187   0.097  1.00  0.00     0.032 C 
HETATM   10  C11 UNL     1      -1.708   2.116  -0.256  1.00  0.00     0.064 A 
HETATM   11  N4  UNL     1      -0.468   2.483   0.207  1.00  0.00    -0.260 NA
HETATM   12  C12 UNL     1       0.449   1.466   0.245  1.00  0.00     0.130 A 
HETATM   13  C13 UNL     1       0.116   0.199  -0.155  1.00  0.00     0.003 A 
HETATM   14  C14 UNL     1      -1.177  -0.100  -0.638  1.00  0.00     0.026 A 
HETATM   15  C15 UNL     1      -2.147   0.860  -0.704  1.00  0.00    -0.002 A 
HETATM   16  C16 UNL     1      -3.490   0.477  -1.110  1.00  0.00     0.169 C 
HETATM   17  N5  UNL     1      -4.183   0.424   0.022  1.00  0.00    -0.289 NA
HETATM   18  H11 UNL     1      -4.514   1.454   3.141  1.00  0.00     0.155 HD
ENDROOT
BRANCH   1  19
HETATM   19  N1  UNL     1       1.892  -0.922  -0.727  1.00  0.00    -0.280 NA
HETATM   20  H4  UNL     1       2.115  -1.357   0.232  1.00  0.00     0.129 HD
BRANCH  19  21
HETATM   21  C2  UNL     1       3.257  -0.891  -0.945  1.00  0.00     0.033 A 
HETATM   22  C1  UNL     1       4.125  -0.151   0.055  1.00  0.00     0.037 C 
HETATM   23  C17 UNL     1       3.840  -2.267  -1.089  1.00  0.00     0.000 A 
HETATM   24  C18 UNL     1       4.455  -2.998  -1.990  1.00  0.00     0.021 A 
HETATM   25  C19 UNL     1       4.636  -2.273  -3.232  1.00  0.00     0.030 A 
HETATM   26 CL1  UNL     1       5.426  -3.024  -4.585  1.00  0.00    -0.085 Cl
HETATM   27  C20 UNL     1       4.168  -1.042  -3.245  1.00  0.00    -0.001 A 
HETATM   28  C21 UNL     1       3.481  -0.172  -2.284  1.00  0.00     0.058 A 
ENDBRANCH  19  21
ENDBRANCH   1  19
BRANCH   4  29
HETATM   29  N2  UNL     1      -1.738   0.787   2.477  1.00  0.00    -0.401 N 
HETATM   30  H7  UNL     1      -1.502   1.779   2.587  1.00  0.00     0.156 HD
HETATM   31  H8  UNL     1      -1.500   1.663   2.942  1.00  0.00     0.156 HD
ENDBRANCH   4  29
TORSDOF 3
