REMARK  0 active torsions:
REMARK  status: ('A' for Active; 'I' for Inactive)
ROOT
HETATM    1  C1  UNL     1       4.264   0.152  -1.724  1.00  0.00     0.050 C 
HETATM    2  C2  UNL     1       3.394  -0.694  -0.872  1.00  0.00    -0.035 A 
HETATM    3  C3  UNL     1       3.465  -2.067  -0.983  1.00  0.00     0.011 A 
HETATM    4  C4  UNL     1       2.713  -2.941  -0.250  1.00  0.00     0.041 A 
HETATM    5  C5  UNL     1       1.842  -2.361   0.642  1.00  0.00     0.172 A 
HETATM    6  C6  UNL     1       1.750  -0.992   0.775  1.00  0.00     0.071 A 
HETATM    7  C7  UNL     1       2.515  -0.130   0.028  1.00  0.00     0.057 A 
HETATM    8  N1  UNL     1       2.485   1.285   0.098  1.00  0.00    -0.188 N 
HETATM    9  C8  UNL     1       1.519   2.228   0.526  1.00  0.00     0.727 A 
HETATM   10  N2  UNL     1       1.859   3.290   1.277  1.00  0.00    -0.075 NA
HETATM   11  C9  UNL     1       0.955   4.194   1.692  1.00  0.00     0.139 A 
HETATM   12  C10 UNL     1      -0.375   4.059   1.356  1.00  0.00     0.053 A 
HETATM   13  C11 UNL     1      -0.739   2.975   0.587  1.00  0.00     0.094 A 
HETATM   14  N3  UNL     1       0.226   2.090   0.195  1.00  0.00    -0.061 NA
HETATM   15  C12 UNL     1      -2.017   2.481   0.034  1.00  0.00     0.142 C 
HETATM   16  N4  UNL     1      -2.092   2.356  -1.234  1.00  0.00    -0.298 NA
HETATM   17  C13 UNL     1      -3.348   1.864  -1.797  1.00  0.00     0.168 C 
HETATM   18  C14 UNL     1      -3.686   0.514  -1.173  1.00  0.00     0.105 C 
HETATM   19 CL1  UNL     1      -5.116  -0.181  -1.914  1.00  0.00    -0.123 Cl
HETATM   20  C15 UNL     1      -2.501  -0.361  -1.058  1.00  0.00     0.048 C 
HETATM   21  C16 UNL     1      -2.725  -1.701  -0.459  1.00  0.00    -0.029 C 
HETATM   22  C17 UNL     1      -2.145  -2.121   0.693  1.00  0.00    -0.026 C 
HETATM   23  C18 UNL     1      -1.862  -3.097   1.784  1.00  0.00     0.107 C 
HETATM   24  C19 UNL     1      -0.393  -3.325   1.817  1.00  0.00     0.360 A 
HETATM   25  O1  UNL     1      -0.123  -2.434   0.941  1.00  0.00    -0.145 OA
HETATM   26  N5  UNL     1       0.976  -3.153   1.488  1.00  0.00     0.118 N 
HETATM   27  H7  UNL     1       3.344   1.805  -0.226  1.00  0.00     0.184 HD
HETATM   28  H20 UNL     1       1.571  -3.840   2.043  1.00  0.00     0.329 HD
ENDROOT
TORSDOF 0
