REMARK  3 active torsions:
REMARK  status: ('A' for Active; 'I' for Inactive)
REMARK    1  A    between atoms: C5_5  and  N1_6 
REMARK       I    between atoms: N1_6  and  C6_7 
REMARK    2  A    between atoms: C6_7  and  C7_9 
REMARK    3  A    between atoms: C14_17  and  N2_18 
ROOT
HETATM    1  C1  UNL     1      -5.177  -1.278  -0.188  1.00  0.00     0.068 C 
HETATM    2  C2  UNL     1      -3.808  -0.741   0.054  1.00  0.00     0.007 C 
HETATM    3  C3  UNL     1      -2.955  -1.626   0.546  1.00  0.00     0.027 C 
HETATM    4  C4  UNL     1      -1.554  -1.413   0.889  1.00  0.00     0.031 C 
HETATM    5  C5  UNL     1      -0.779  -0.360   0.677  1.00  0.00     0.038 C 
HETATM    6  C13 UNL     1      -1.162   0.905   0.017  1.00  0.00     0.080 C 
HETATM    7  C14 UNL     1      -2.374   1.322  -0.386  1.00  0.00     0.132 C 
HETATM    8  N3  UNL     1      -3.616   0.631  -0.275  1.00  0.00    -0.345 N 
HETATM    9  H13 UNL     1      -4.468   1.207  -0.456  1.00  0.00     0.167 HD
ENDROOT
BRANCH   5  10
HETATM   10  N1  UNL     1       0.601  -0.320   1.087  1.00  0.00    -0.323 N 
HETATM   11  C6  UNL     1       1.456  -0.123  -0.058  1.00  0.00     0.256 C 
HETATM   12  O1  UNL     1       0.839  -0.027  -1.172  1.00  0.00    -0.267 OA
HETATM   13  H6  UNL     1       1.008  -0.411   2.054  1.00  0.00     0.169 HD
BRANCH  11  14
HETATM   14  C7  UNL     1       2.896  -0.045   0.078  1.00  0.00     0.032 A 
HETATM   15  C8  UNL     1       3.622  -0.141   1.247  1.00  0.00     0.018 A 
HETATM   16  C9  UNL     1       5.007  -0.049   1.246  1.00  0.00     0.025 A 
HETATM   17  C10 UNL     1       5.695   0.143   0.044  1.00  0.00     0.034 A 
HETATM   18 CL1  UNL     1       7.444   0.264  -0.001  1.00  0.00    -0.084 Cl
HETATM   19  C11 UNL     1       4.988   0.240  -1.125  1.00  0.00     0.025 A 
HETATM   20  C12 UNL     1       3.612   0.146  -1.099  1.00  0.00     0.018 A 
ENDBRANCH  11  14
ENDBRANCH   5  10
BRANCH   7  21
HETATM   21  N2  UNL     1      -2.483   2.612  -1.011  1.00  0.00    -0.208 N 
HETATM   22  F1  UNL     1      -1.460   3.171  -1.692  1.00  0.00    -0.100 F 
HETATM   23  H12 UNL     1      -3.374   3.124  -0.934  1.00  0.00     0.201 HD
ENDBRANCH   7  21
TORSDOF 3
