REMARK  2 active torsions:
REMARK  status: ('A' for Active; 'I' for Inactive)
REMARK    1  A    between atoms: C5_6  and  N1_7 
REMARK    2  A    between atoms: N1_7  and  C6_8 
ROOT
HETATM    1  C6  UNL     1       0.712  -0.373   0.646  1.00  0.00     0.160 A 
HETATM    2  N2  UNL     1       1.103  -1.530   1.202  1.00  0.00    -0.222 NA
HETATM    3  C7  UNL     1       0.194  -2.286   1.823  1.00  0.00     0.238 A 
HETATM    4  N3  UNL     1      -1.073  -1.862   1.868  1.00  0.00    -0.215 NA
HETATM    5  C8  UNL     1      -1.525  -0.714   1.331  1.00  0.00     0.201 A 
HETATM    6  C9  UNL     1      -0.616   0.071   0.694  1.00  0.00     0.128 A 
HETATM    7  N4  UNL     1      -0.963   1.294   0.081  1.00  0.00    -0.383 N 
HETATM    8  C10 UNL     1      -1.841   1.827  -0.905  1.00  0.00     0.120 C 
HETATM    9  C11 UNL     1      -3.264   1.873  -0.445  1.00  0.00     0.025 C 
HETATM   10  C12 UNL     1      -3.781   0.559  -0.133  1.00  0.00     0.027 C 
HETATM   11  C13 UNL     1      -4.613  -0.431  -0.337  1.00  0.00     0.001 C 
HETATM   12  C14 UNL     1      -4.678  -1.674   0.392  1.00  0.00    -0.001 C 
HETATM   13  C15 UNL     1      -3.733  -1.679   1.364  1.00  0.00     0.140 C 
HETATM   14  O1  UNL     1      -2.863  -0.585   1.556  1.00  0.00    -0.303 OA
HETATM   15  H6  UNL     1      -0.319   1.987   0.580  1.00  0.00     0.159 HD
ENDROOT
BRANCH   1  16
HETATM   16  N1  UNL     1       1.631   0.463  -0.022  1.00  0.00    -0.339 N 
HETATM   17  H4  UNL     1       1.295   1.365  -0.476  1.00  0.00     0.167 HD
BRANCH  16  18
HETATM   18  C5  UNL     1       3.023   0.307  -0.214  1.00  0.00     0.035 A 
HETATM   19  C4  UNL     1       3.778   1.144  -1.044  1.00  0.00     0.029 A 
HETATM   20  C3  UNL     1       5.130   1.008  -1.237  1.00  0.00     0.004 A 
HETATM   21  C2  UNL     1       5.826   0.009  -0.600  1.00  0.00     0.019 A 
HETATM   22  C1  UNL     1       5.143  -0.842   0.225  1.00  0.00     0.013 A 
HETATM   23 BR1  UNL     1       6.153  -2.203   1.079  1.00  0.00    -0.051 Br
HETATM   24  C16 UNL     1       3.787  -0.669   0.390  1.00  0.00     0.048 A 
ENDBRANCH  16  18
ENDBRANCH   1  16
TORSDOF 2
