REMARK  7 active torsions:
REMARK  status: ('A' for Active; 'I' for Inactive)
REMARK       I    between atoms: C1_2  and  N1_3 
REMARK    1  A    between atoms: C1_2  and  C14_20 
REMARK    2  A    between atoms: N1_3  and  C2_4 
REMARK    3  A    between atoms: C2_4  and  C3_5 
REMARK    4  A    between atoms: C3_5  and  C4_6 
REMARK    5  A    between atoms: C4_6  and  N2_7 
REMARK    6  A    between atoms: N2_7  and  C5_8 
REMARK    7  A    between atoms: C8_12  and  C9_13 
ROOT
HETATM    1  C4  UNL     1       0.077  -1.922  -1.403  1.00  0.00     0.163 C 
ENDROOT
BRANCH   1   2
HETATM    2  C3  UNL     1       1.066  -1.955  -0.538  1.00  0.00    -0.093 C 
BRANCH   2   3
HETATM    3  C2  UNL     1       2.066  -1.650   0.277  1.00  0.00     0.148 C 
BRANCH   3   4
HETATM    4  N1  UNL     1       3.081  -0.791  -0.140  1.00  0.00    -0.326 N 
HETATM    5  C1  UNL     1       4.128  -0.502   0.781  1.00  0.00     0.256 C 
HETATM    6  O1  UNL     1       4.057  -1.041   1.892  1.00  0.00    -0.267 OA
HETATM    7  H1  UNL     1       3.107  -0.356  -1.086  1.00  0.00     0.169 HD
BRANCH   5   8
HETATM    8  C14 UNL     1       5.253   0.377   0.483  1.00  0.00     0.032 A 
HETATM    9  C15 UNL     1       6.182   0.549   1.489  1.00  0.00     0.018 A 
HETATM   10  C16 UNL     1       7.267   1.384   1.233  1.00  0.00     0.025 A 
HETATM   11  C17 UNL     1       7.488   2.056   0.045  1.00  0.00     0.034 A 
HETATM   12 CL1  UNL     1       8.865   3.078  -0.195  1.00  0.00    -0.084 Cl
HETATM   13  C18 UNL     1       6.506   1.830  -0.918  1.00  0.00     0.025 A 
HETATM   14  C19 UNL     1       5.409   1.017  -0.729  1.00  0.00     0.018 A 
ENDBRANCH   5   8
ENDBRANCH   3   4
ENDBRANCH   2   3
ENDBRANCH   1   2
BRANCH   1  15
HETATM   15  N2  UNL     1      -0.900  -0.910  -1.270  1.00  0.00    -0.191 N 
HETATM   16  H4  UNL     1      -0.813   0.066  -1.609  1.00  0.00     0.184 HD
BRANCH  15  17
HETATM   17  C5  UNL     1      -2.106  -1.285  -0.609  1.00  0.00     0.727 A 
HETATM   18  N3  UNL     1      -2.260  -2.559  -0.150  1.00  0.00    -0.075 NA
HETATM   19  C6  UNL     1      -3.384  -2.965   0.484  1.00  0.00     0.139 A 
HETATM   20  C7  UNL     1      -4.402  -2.054   0.666  1.00  0.00     0.053 A 
HETATM   21  C8  UNL     1      -4.257  -0.763   0.205  1.00  0.00     0.089 A 
HETATM   22  N5  UNL     1      -3.119  -0.411  -0.418  1.00  0.00    -0.062 NA
BRANCH  21  23
HETATM   23  C9  UNL     1      -5.283   0.260   0.356  1.00  0.00     0.011 A 
HETATM   24  C10 UNL     1      -5.032   1.521  -0.143  1.00  0.00     0.017 A 
HETATM   25  C11 UNL     1      -5.998   2.513  -0.009  1.00  0.00     0.020 A 
HETATM   26  C12 UNL     1      -7.224   2.302   0.611  1.00  0.00     0.116 A 
HETATM   27  N4  UNL     1      -7.426   1.040   1.088  1.00  0.00    -0.272 NA
HETATM   28  C13 UNL     1      -6.503   0.070   0.968  1.00  0.00     0.130 A 
ENDBRANCH  21  23
ENDBRANCH  15  17
ENDBRANCH   1  15
TORSDOF 7
