REMARK  5 active torsions:
REMARK  status: ('A' for Active; 'I' for Inactive)
REMARK    1  A    between atoms: P1_2  and  N1_3 
REMARK    2  A    between atoms: N4_13  and  C9_14 
REMARK    3  A    between atoms: C11_16  and  C12_17 
REMARK    4  A    between atoms: C13_18  and  N5_20 
REMARK       I    between atoms: N5_20  and  C15_21 
REMARK    5  A    between atoms: C15_21  and  C16_23 
ROOT
HETATM    1  C9  UNL     1      -2.374   0.610  -1.100  1.00  0.00     0.031 C 
HETATM    2  C10 UNL     1      -3.647   1.094  -1.692  1.00  0.00     0.070 C 
HETATM    3  C11 UNL     1      -1.207   0.999  -1.526  1.00  0.00     0.028 C 
ENDROOT
BRANCH   1   4
HETATM    4  N4  UNL     1      -2.541  -0.311  -0.034  1.00  0.00    -0.254 N 
HETATM    5  N1  UNL     1      -2.735   0.269   1.248  1.00  0.00    -0.247 N 
HETATM    6  C2  UNL     1      -2.908  -0.774   2.184  1.00  0.00     0.150 A 
HETATM    7  N2  UNL     1      -3.173  -1.771   3.229  1.00  0.00    -0.255 NA
HETATM    8  C3  UNL     1      -2.341  -2.076   2.145  1.00  0.00     0.217 A 
HETATM    9  C4  UNL     1      -2.659  -2.700   0.858  1.00  0.00     0.020 A 
HETATM   10  C5  UNL     1      -2.872  -4.018   0.594  1.00  0.00     0.128 A 
HETATM   11  C8  UNL     1      -2.531  -1.751  -0.132  1.00  0.00     0.068 A 
HETATM   12  N3  UNL     1      -2.948  -4.379  -0.688  1.00  0.00    -0.272 NA
HETATM   13  C6  UNL     1      -2.821  -3.487  -1.669  1.00  0.00     0.118 A 
HETATM   14  C7  UNL     1      -2.604  -2.110  -1.495  1.00  0.00     0.051 A 
BRANCH   5  15
HETATM   15  P1  UNL     1      -2.773   1.980   1.700  1.00  0.00    -0.004 P 
HETATM   16  C1  UNL     1      -4.481   2.681   1.736  1.00  0.00     0.066 C 
HETATM   17  H4  UNL     1      -1.840   2.813   0.998  1.00  0.00     0.082 HD
ENDBRANCH   5  15
ENDBRANCH   1   4
BRANCH   3  18
HETATM   18  C12 UNL     1       0.010   0.490  -0.906  1.00  0.00     0.026 C 
HETATM   19  C13 UNL     1       1.181   0.882  -1.334  1.00  0.00     0.008 C 
HETATM   20  C14 UNL     1       1.256   1.851  -2.458  1.00  0.00     0.068 C 
BRANCH  19  21
HETATM   21  N5  UNL     1       2.386   0.403  -0.750  1.00  0.00    -0.327 N 
HETATM   22  C15 UNL     1       3.404   1.144  -0.120  1.00  0.00     0.255 C 
HETATM   23  O1  UNL     1       3.193   2.391  -0.083  1.00  0.00    -0.267 OA
HETATM   24  H17 UNL     1       2.422  -0.634  -0.855  1.00  0.00     0.169 HD
BRANCH  22  25
HETATM   25  C16 UNL     1       4.588   0.486   0.430  1.00  0.00     0.032 A 
HETATM   26  C17 UNL     1       4.842  -0.870   0.404  1.00  0.00     0.018 A 
HETATM   27  C18 UNL     1       6.011  -1.346   0.968  1.00  0.00     0.025 A 
HETATM   28  C19 UNL     1       6.939  -0.492   1.563  1.00  0.00     0.034 A 
HETATM   29 CL1  UNL     1       8.397  -1.188   2.255  1.00  0.00    -0.084 Cl
HETATM   30  C20 UNL     1       6.686   0.882   1.593  1.00  0.00     0.025 A 
HETATM   31  C21 UNL     1       5.512   1.335   1.023  1.00  0.00     0.018 A 
ENDBRANCH  22  25
ENDBRANCH  19  21
ENDBRANCH   3  18
TORSDOF 5
