REMARK  8 active torsions:
REMARK  status: ('A' for Active; 'I' for Inactive)
REMARK    1  A    between atoms: C2_2  and  C3_3 
REMARK    2  A    between atoms: C3_3  and  C4_4 
REMARK    3  A    between atoms: C4_4  and  C5_5 
REMARK    4  A    between atoms: C5_5  and  C6_6 
REMARK       I    between atoms: C6_6  and  N1_8 
REMARK    5  A    between atoms: N1_8  and  C7_9 
REMARK    6  A    between atoms: C10_12  and  N2_13 
REMARK    7  A    between atoms: N2_13  and  C11_14 
REMARK    8  A    between atoms: C14_18  and  C15_19 
ROOT
HETATM    1  N2  UNL     1      -1.996   0.873  -0.528  1.00  0.00    -0.192 N 
HETATM    2  H15 UNL     1      -2.113   1.825  -0.961  1.00  0.00     0.184 HD
ENDROOT
BRANCH   1   3
HETATM    3  C10 UNL     1      -0.671   0.345  -0.548  1.00  0.00     0.032 A 
HETATM    4  C9  UNL     1      -0.396  -0.934  -0.764  1.00  0.00     0.028 A 
HETATM    5  C8  UNL     1       1.062  -1.042  -0.700  1.00  0.00     0.027 A 
HETATM    6  C7  UNL     1       1.629   0.124  -0.455  1.00  0.00     0.017 A 
HETATM    7  C19 UNL     1       0.562   1.144  -0.331  1.00  0.00     0.114 A 
BRANCH   6   8
HETATM    8  N1  UNL     1       3.007   0.427  -0.320  1.00  0.00    -0.330 N 
HETATM    9  C6  UNL     1       4.025  -0.521  -0.434  1.00  0.00     0.221 C 
HETATM   10  O1  UNL     1       3.808  -1.736  -0.668  1.00  0.00    -0.273 OA
HETATM   11  H12 UNL     1       3.360   1.388  -0.124  1.00  0.00     0.168 HD
BRANCH   9  12
HETATM   12  C5  UNL     1       5.500  -0.168  -0.285  1.00  0.00     0.103 C 
BRANCH  12  13
HETATM   13  C4  UNL     1       6.347  -1.365  -0.455  1.00  0.00     0.009 C 
BRANCH  13  14
HETATM   14  C3  UNL     1       7.808  -1.213  -0.392  1.00  0.00     0.000 C 
BRANCH  14  15
HETATM   15  C2  UNL     1       8.424  -0.686   0.857  1.00  0.00    -0.005 C 
HETATM   16  C1  UNL     1       8.032   0.723   1.203  1.00  0.00     0.005 C 
ENDBRANCH  14  15
ENDBRANCH  13  14
ENDBRANCH  12  13
ENDBRANCH   9  12
ENDBRANCH   6   8
ENDBRANCH   1   3
BRANCH   1  17
HETATM   17  C11 UNL     1      -3.092   0.165   0.036  1.00  0.00     0.727 A 
HETATM   18  N3  UNL     1      -2.840  -1.049   0.569  1.00  0.00    -0.075 NA
HETATM   19  C12 UNL     1      -3.875  -1.751   1.118  1.00  0.00     0.139 A 
HETATM   20  C13 UNL     1      -5.110  -1.142   1.078  1.00  0.00     0.053 A 
HETATM   21  C14 UNL     1      -5.360   0.108   0.527  1.00  0.00     0.085 A 
HETATM   22  N4  UNL     1      -4.300   0.737   0.008  1.00  0.00    -0.062 NA
BRANCH  21  23
HETATM   23  C15 UNL     1      -6.692   0.694   0.515  1.00  0.00    -0.003 C 
HETATM   24  C16 UNL     1      -6.793   1.894  -0.037  1.00  0.00     0.144 C 
HETATM   25  O2  UNL     1      -8.038   2.548  -0.100  1.00  0.00    -0.358 OA
HETATM   26  C17 UNL     1      -9.139   1.939  -0.792  1.00  0.00     0.205 C 
HETATM   27  P1  UNL     1      -9.213   0.169  -0.230  1.00  0.00    -0.099 P 
HETATM   28  C18 UNL     1      -7.879   0.012   1.085  1.00  0.00     0.076 C 
HETATM   29  H21 UNL     1      -8.796  -0.667  -1.363  1.00  0.00     0.060 HD
ENDBRANCH  21  23
ENDBRANCH   1  17
TORSDOF 8
