REMARK  7 active torsions:
REMARK  status: ('A' for Active; 'I' for Inactive)
REMARK    1  A    between atoms: C2_2  and  C3_3 
REMARK    2  A    between atoms: C3_3  and  C4_4 
REMARK    3  A    between atoms: C4_4  and  C5_5 
REMARK    4  A    between atoms: C5_5  and  C6_6 
REMARK    5  A    between atoms: C6_6  and  C7_8 
REMARK    6  A    between atoms: C11_12  and  N1_13 
REMARK    7  A    between atoms: N1_13  and  C12_14 
ROOT
HETATM    1  C7  UNL     1       1.364  -0.351   0.501  1.00  0.00     0.012 A 
HETATM    2  C8  UNL     1       1.458   0.880   1.113  1.00  0.00     0.015 A 
HETATM    3  C9  UNL     1       0.330   1.658   1.262  1.00  0.00     0.003 A 
HETATM    4  C10 UNL     1      -0.862   1.160   0.784  1.00  0.00     0.029 A 
HETATM    5  C11 UNL     1      -1.050  -0.049   0.164  1.00  0.00     0.034 A 
HETATM    6  C21 UNL     1       0.140  -0.770   0.055  1.00  0.00     0.044 A 
ENDROOT
BRANCH   5   7
HETATM    7  N1  UNL     1      -2.242  -0.588  -0.345  1.00  0.00    -0.339 N 
HETATM    8  H15 UNL     1      -2.209  -1.577  -0.737  1.00  0.00     0.167 HD
BRANCH   7   9
HETATM    9  C12 UNL     1      -3.484   0.063  -0.373  1.00  0.00     0.157 A 
HETATM   10  N2  UNL     1      -3.404   1.316  -0.578  1.00  0.00    -0.241 NA
HETATM   11  C13 UNL     1      -4.430   2.273  -0.669  1.00  0.00     0.115 A 
HETATM   12  C14 UNL     1      -5.721   2.051  -0.464  1.00  0.00    -0.003 A 
HETATM   13  C15 UNL     1      -6.617   0.925  -0.105  1.00  0.00     0.069 A 
HETATM   14  C16 UNL     1      -5.960  -0.386  -0.060  1.00  0.00    -0.022 A 
HETATM   15  C17 UNL     1      -6.935  -1.339   0.133  1.00  0.00     0.011 A 
HETATM   16  C20 UNL     1      -4.648  -0.823  -0.166  1.00  0.00     0.108 A 
HETATM   17  C18 UNL     1      -6.567  -2.686   0.212  1.00  0.00     0.020 A 
HETATM   18  C19 UNL     1      -5.254  -3.088   0.103  1.00  0.00     0.117 A 
HETATM   19  N3  UNL     1      -4.311  -2.145  -0.085  1.00  0.00    -0.257 NA
ENDBRANCH   7   9
ENDBRANCH   5   7
BRANCH   1  20
HETATM   20  C6  UNL     1       2.537  -1.196   0.328  1.00  0.00     0.159 C 
HETATM   21  O1  UNL     1       2.428  -2.319  -0.237  1.00  0.00    -0.292 OA
BRANCH  20  22
HETATM   22  C5  UNL     1       3.882  -0.819   0.780  1.00  0.00     0.084 C 
BRANCH  22  23
HETATM   23  C4  UNL     1       4.750  -0.255  -0.334  1.00  0.00     0.008 C 
BRANCH  23  24
HETATM   24  C3  UNL     1       6.109   0.104   0.223  1.00  0.00     0.000 C 
BRANCH  24  25
HETATM   25  C2  UNL     1       6.990   0.670  -0.882  1.00  0.00    -0.005 C 
HETATM   26  C1  UNL     1       8.334   1.010  -0.272  1.00  0.00     0.005 C 
ENDBRANCH  24  25
ENDBRANCH  23  24
ENDBRANCH  22  23
ENDBRANCH  20  22
ENDBRANCH   1  20
TORSDOF 7
