REMARK  7 active torsions:
REMARK  status: ('A' for Active; 'I' for Inactive)
REMARK    1  A    between atoms: C2_2  and  C3_3 
REMARK    2  A    between atoms: C3_3  and  C4_4 
REMARK    3  A    between atoms: C4_4  and  C5_5 
REMARK    4  A    between atoms: C5_5  and  C6_6 
REMARK       I    between atoms: C6_6  and  N1_8 
REMARK    5  A    between atoms: N1_8  and  C7_9 
REMARK    6  A    between atoms: N2_14  and  C12_15 
REMARK    7  A    between atoms: C15_19  and  C16_20 
ROOT
HETATM    1  C7  UNL     1       0.239  -2.381  -1.175  1.00  0.00     0.126 A 
HETATM    2  C8  UNL     1       1.119  -3.150  -1.780  1.00  0.00     0.049 A 
HETATM    3  C9  UNL     1       0.814  -4.299  -2.585  1.00  0.00     0.001 A 
HETATM    4  C10 UNL     1      -0.455  -4.598  -2.716  1.00  0.00    -0.006 A 
HETATM    5  C11 UNL     1      -1.536  -3.840  -2.097  1.00  0.00     0.176 A 
HETATM    6  N2  UNL     1      -1.131  -2.673  -1.346  1.00  0.00    -0.161 N 
ENDROOT
BRANCH   6   7
HETATM    7  C12 UNL     1      -2.256  -1.919  -0.844  1.00  0.00     0.731 A 
HETATM    8  N3  UNL     1      -3.452  -2.531  -0.886  1.00  0.00    -0.075 NA
HETATM    9  C13 UNL     1      -4.611  -1.962  -0.463  1.00  0.00     0.139 A 
HETATM   10  C14 UNL     1      -4.592  -0.685   0.041  1.00  0.00     0.053 A 
HETATM   11  C15 UNL     1      -3.355  -0.090   0.069  1.00  0.00     0.089 A 
HETATM   12  N5  UNL     1      -2.250  -0.698  -0.359  1.00  0.00    -0.062 NA
BRANCH  11  13
HETATM   13  C16 UNL     1      -3.235   1.266   0.584  1.00  0.00     0.011 A 
HETATM   14  C17 UNL     1      -4.287   2.015   1.060  1.00  0.00     0.017 A 
HETATM   15  C18 UNL     1      -4.158   3.301   1.544  1.00  0.00     0.020 A 
HETATM   16  C19 UNL     1      -2.920   3.901   1.566  1.00  0.00     0.116 A 
HETATM   17  N4  UNL     1      -1.855   3.184   1.099  1.00  0.00    -0.272 NA
HETATM   18  C20 UNL     1      -2.028   1.930   0.636  1.00  0.00     0.130 A 
ENDBRANCH  11  13
ENDBRANCH   6   7
BRANCH   1  19
HETATM   19  N1  UNL     1       0.585  -1.264  -0.390  1.00  0.00    -0.312 N 
HETATM   20  C6  UNL     1       1.876  -0.752  -0.126  1.00  0.00     0.223 C 
HETATM   21  O1  UNL     1       2.937  -1.244  -0.575  1.00  0.00    -0.273 OA
HETATM   22  H12 UNL     1      -0.038  -0.636   0.129  1.00  0.00     0.170 HD
BRANCH  20  23
HETATM   23  C5  UNL     1       2.311   0.407   0.683  1.00  0.00     0.103 C 
BRANCH  23  24
HETATM   24  C4  UNL     1       3.826   0.457   0.591  1.00  0.00     0.009 C 
BRANCH  24  25
HETATM   25  C3  UNL     1       4.410   1.588   1.366  1.00  0.00     0.000 C 
BRANCH  25  26
HETATM   26  C2  UNL     1       3.922   2.943   0.902  1.00  0.00    -0.005 C 
HETATM   27  C1  UNL     1       4.287   3.162  -0.548  1.00  0.00     0.005 C 
ENDBRANCH  25  26
ENDBRANCH  24  25
ENDBRANCH  23  24
ENDBRANCH  20  23
ENDBRANCH   1  19
TORSDOF 7
