REMARK  10 active torsions:
REMARK  status: ('A' for Active; 'I' for Inactive)
REMARK    1  A    between atoms: C2_2  and  C3_3 
REMARK    2  A    between atoms: C6_6  and  N1_7 
REMARK    3  A    between atoms: N1_7  and  C7_8 
REMARK    4  A    between atoms: C11_12  and  N2_13 
REMARK       I    between atoms: N2_13  and  C12_14 
REMARK    5  A    between atoms: C12_14  and  C13_16 
REMARK    6  A    between atoms: C13_16  and  C14_17 
REMARK    7  A    between atoms: C14_17  and  C15_18 
REMARK    8  A    between atoms: C15_18  and  C16_19 
REMARK    9  A    between atoms: C16_19  and  C17_20 
REMARK   10  A    between atoms: N4_26  and  O2_27 
ROOT
HETATM    1  C7  UNL     1      -1.691  -1.839   0.536  1.00  0.00     0.035 A 
HETATM    2  C8  UNL     1      -1.822  -2.485   1.763  1.00  0.00     0.029 A 
HETATM    3  C9  UNL     1      -0.846  -2.338   2.723  1.00  0.00     0.004 A 
HETATM    4  C10 UNL     1       0.254  -1.537   2.427  1.00  0.00     0.029 A 
HETATM    5  C11 UNL     1       0.369  -0.899   1.195  1.00  0.00     0.036 A 
HETATM    6  C19 UNL     1      -0.608  -1.048   0.239  1.00  0.00     0.059 A 
ENDROOT
BRANCH   1   7
HETATM    7  N1  UNL     1      -2.737  -2.031  -0.431  1.00  0.00    -0.344 N 
HETATM    8  H7  UNL     1      -2.655  -2.557  -1.341  1.00  0.00     0.167 HD
BRANCH   7   9
HETATM    9  C6  UNL     1      -4.011  -1.433  -0.102  1.00  0.00     0.109 C 
HETATM   10  C5  UNL     1      -4.808  -0.930  -1.241  1.00  0.00     0.138 C 
HETATM   11  C4  UNL     1      -5.839   0.065  -0.876  1.00  0.00     0.046 C 
HETATM   12  C3  UNL     1      -6.024   1.047  -1.734  1.00  0.00     0.027 C 
HETATM   13  N4  UNL     1      -6.669   0.103   0.279  1.00  0.00    -0.238 N 
HETATM   14  C21 UNL     1      -6.382  -0.334   1.601  1.00  0.00     0.142 C 
HETATM   15  C20 UNL     1      -5.313  -1.021   1.992  1.00  0.00     0.138 C 
HETATM   16  N3  UNL     1      -4.265  -1.439   1.143  1.00  0.00    -0.246 NA
BRANCH  12  17
HETATM   17  C2  UNL     1      -6.978   2.126  -1.580  1.00  0.00    -0.008 C 
HETATM   18  C1  UNL     1      -7.104   3.069  -2.487  1.00  0.00     0.011 C 
ENDBRANCH  12  17
BRANCH  13  19
HETATM   19  O2  UNL     1      -7.913   0.634   0.086  1.00  0.00    -0.283 OA
HETATM   20  H28 UNL     1      -8.512   0.298   0.829  1.00  0.00     0.245 HD
ENDBRANCH  13  19
ENDBRANCH   7   9
ENDBRANCH   1   7
BRANCH   5  21
HETATM   21  N2  UNL     1       1.570  -0.147   1.146  1.00  0.00    -0.327 N 
HETATM   22  C12 UNL     1       2.822  -0.672   0.743  1.00  0.00     0.222 C 
HETATM   23  O1  UNL     1       3.223  -1.792   0.358  1.00  0.00    -0.273 OA
HETATM   24  H11 UNL     1       1.534   0.861   1.425  1.00  0.00     0.169 HD
BRANCH  22  25
HETATM   25  C13 UNL     1       4.079   0.129   0.701  1.00  0.00     0.103 C 
BRANCH  25  26
HETATM   26  C14 UNL     1       5.265  -0.686   0.311  1.00  0.00     0.009 C 
BRANCH  26  27
HETATM   27  C15 UNL     1       6.517   0.154   0.292  1.00  0.00     0.000 C 
BRANCH  27  28
HETATM   28  C16 UNL     1       6.448   1.291  -0.702  1.00  0.00    -0.000 C 
BRANCH  28  29
HETATM   29  C17 UNL     1       7.748   2.099  -0.661  1.00  0.00    -0.005 C 
HETATM   30  C18 UNL     1       8.913   1.172  -1.008  1.00  0.00     0.005 C 
ENDBRANCH  28  29
ENDBRANCH  27  28
ENDBRANCH  26  27
ENDBRANCH  25  26
ENDBRANCH  22  25
ENDBRANCH   5  21
TORSDOF 10
