REMARK  9 active torsions:
REMARK  status: ('A' for Active; 'I' for Inactive)
REMARK    1  A    between atoms: C2_2  and  C3_3 
REMARK    2  A    between atoms: C3_3  and  C4_4 
REMARK    3  A    between atoms: C4_4  and  C5_5 
REMARK    4  A    between atoms: C5_5  and  C6_6 
REMARK    5  A    between atoms: C5_5  and  N1_8 
REMARK    6  A    between atoms: N1_8  and  C7_9 
REMARK    7  A    between atoms: C11_13  and  N2_14 
REMARK    8  A    between atoms: N2_14  and  C12_15 
REMARK    9  A    between atoms: C15_19  and  C16_20 
ROOT
HETATM    1  C7  UNL     1       1.489  -0.248  -0.549  1.00  0.00     0.030 A 
HETATM    2  C8  UNL     1       1.414   0.803   0.333  1.00  0.00     0.029 A 
HETATM    3  C9  UNL     1       0.260   1.534   0.571  1.00  0.00     0.004 A 
HETATM    4  C10 UNL     1      -0.900   1.199  -0.115  1.00  0.00     0.030 A 
HETATM    5  C11 UNL     1      -0.837   0.152  -0.998  1.00  0.00     0.051 A 
HETATM    6  C21 UNL     1       0.327  -0.557  -1.213  1.00  0.00     0.059 A 
ENDROOT
BRANCH   5   7
HETATM    7  N2  UNL     1      -1.989  -0.227  -1.718  1.00  0.00    -0.188 N 
HETATM    8  H16 UNL     1      -1.996  -1.016  -2.401  1.00  0.00     0.184 HD
BRANCH   7   9
HETATM    9  C12 UNL     1      -3.243   0.433  -1.579  1.00  0.00     0.727 A 
HETATM   10  N3  UNL     1      -3.554   1.487  -2.372  1.00  0.00    -0.075 NA
HETATM   11  C13 UNL     1      -4.749   2.128  -2.251  1.00  0.00     0.139 A 
HETATM   12  C14 UNL     1      -5.595   1.633  -1.281  1.00  0.00     0.053 A 
HETATM   13  C15 UNL     1      -5.315   0.564  -0.456  1.00  0.00     0.089 A 
HETATM   14  N5  UNL     1      -4.111   0.004  -0.658  1.00  0.00    -0.062 NA
BRANCH  13  15
HETATM   15  C16 UNL     1      -6.246   0.078   0.557  1.00  0.00     0.011 A 
HETATM   16  C17 UNL     1      -7.485   0.608   0.808  1.00  0.00     0.017 A 
HETATM   17  C18 UNL     1      -8.296   0.078   1.790  1.00  0.00     0.020 A 
HETATM   18  C19 UNL     1      -7.820  -1.003   2.511  1.00  0.00     0.116 A 
HETATM   19  N4  UNL     1      -6.607  -1.554   2.294  1.00  0.00    -0.272 NA
HETATM   20  C20 UNL     1      -5.849  -1.000   1.322  1.00  0.00     0.130 A 
ENDBRANCH  13  15
ENDBRANCH   7   9
ENDBRANCH   5   7
BRANCH   1  21
HETATM   21  N1  UNL     1       2.665  -0.997  -0.793  1.00  0.00    -0.379 N 
HETATM   22  H12 UNL     1       2.663  -1.768  -1.463  1.00  0.00     0.160 HD
BRANCH  21  23
HETATM   23  C5  UNL     1       3.920  -0.699  -0.101  1.00  0.00     0.143 C 
BRANCH  23  24
HETATM   24  C4  UNL     1       5.013  -1.619  -0.539  1.00  0.00     0.032 C 
BRANCH  24  25
HETATM   25  C3  UNL     1       6.280  -1.281   0.181  1.00  0.00     0.002 C 
BRANCH  25  26
HETATM   26  C2  UNL     1       6.758   0.123  -0.065  1.00  0.00    -0.004 C 
HETATM   27  C1  UNL     1       8.058   0.403   0.690  1.00  0.00     0.005 C 
ENDBRANCH  25  26
ENDBRANCH  24  25
ENDBRANCH  23  24
BRANCH  23  28
HETATM   28  C6  UNL     1       3.708  -0.844   1.376  1.00  0.00     0.256 C 
HETATM   29  O1  UNL     1       3.065  -1.080   2.366  1.00  0.00    -0.305 OA
ENDBRANCH  23  28
ENDBRANCH  21  23
ENDBRANCH   1  21
TORSDOF 9
