REMARK  5 active torsions:
REMARK  status: ('A' for Active; 'I' for Inactive)
REMARK    1  A    between atoms: C2_2  and  C3_3 
REMARK    2  A    between atoms: C3_3  and  C4_4 
REMARK    3  A    between atoms: C4_4  and  C5_5 
REMARK    4  A    between atoms: C5_5  and  C6_6 
REMARK    5  A    between atoms: C6_6  and  C7_8 
ROOT
HETATM    1  C7  UNL     1       0.014   0.196   0.215  1.00  0.00    -0.008 C 
HETATM    2  C8  UNL     1      -0.920   0.460   1.119  1.00  0.00     0.011 C 
HETATM    3  C9  UNL     1      -1.754  -0.381   2.019  1.00  0.00    -0.003 C 
HETATM    4  C10 UNL     1      -2.511  -1.065   2.829  1.00  0.00    -0.024 C 
HETATM    5  C11 UNL     1      -2.868  -2.417   3.307  1.00  0.00     0.066 C 
HETATM    6  C12 UNL     1      -1.995  -3.425   2.678  1.00  0.00     0.664 C 
HETATM    7  N1  UNL     1      -1.656  -4.664   2.441  1.00  0.00     0.029 NA
HETATM    8  C13 UNL     1      -0.469  -4.819   1.575  1.00  0.00     0.261 C 
HETATM    9  C14 UNL     1       0.182  -4.253   0.491  1.00  0.00     0.147 A 
HETATM   10  C15 UNL     1       1.255  -4.118  -0.546  1.00  0.00     0.110 A 
HETATM   11  N2  UNL     1       1.167  -4.913   0.330  1.00  0.00    -0.395 N 
HETATM   12  C16 UNL     1       0.601  -3.054  -1.232  1.00  0.00    -0.001 A 
HETATM   13  C17 UNL     1       0.401  -3.887  -2.330  1.00  0.00     0.126 A 
HETATM   14  N3  UNL     1      -0.189  -3.615  -3.490  1.00  0.00    -0.272 NA
HETATM   15  C18 UNL     1      -0.666  -2.325  -3.603  1.00  0.00     0.116 A 
HETATM   16  C19 UNL     1      -0.506  -1.418  -2.537  1.00  0.00     0.027 A 
HETATM   17  C20 UNL     1       0.132  -1.764  -1.325  1.00  0.00    -0.042 A 
HETATM   18  C21 UNL     1       0.504  -1.207  -0.031  1.00  0.00     0.081 C 
HETATM   19  H20 UNL     1       1.604  -5.706   0.759  1.00  0.00     0.155 HD
ENDROOT
BRANCH   1  20
HETATM   20  C6  UNL     1       0.493   1.419  -0.371  1.00  0.00     0.155 C 
HETATM   21  O1  UNL     1       1.328   0.826  -1.116  1.00  0.00    -0.293 OA
BRANCH  20  22
HETATM   22  C5  UNL     1       0.825   2.719  -0.826  1.00  0.00     0.083 C 
BRANCH  22  23
HETATM   23  C4  UNL     1       0.054   3.899  -0.240  1.00  0.00     0.008 C 
BRANCH  23  24
HETATM   24  C3  UNL     1       0.617   5.190  -0.844  1.00  0.00     0.000 C 
BRANCH  24  25
HETATM   25  C2  UNL     1       2.067   5.391  -0.553  1.00  0.00    -0.005 C 
HETATM   26  C1  UNL     1       2.523   6.714  -1.174  1.00  0.00     0.005 C 
ENDBRANCH  24  25
ENDBRANCH  23  24
ENDBRANCH  22  23
ENDBRANCH  20  22
ENDBRANCH   1  20
TORSDOF 5
