REMARK  5 active torsions:
REMARK  status: ('A' for Active; 'I' for Inactive)
REMARK    1  A    between atoms: C2_2  and  C3_3 
REMARK    2  A    between atoms: C3_3  and  C4_4 
REMARK    3  A    between atoms: C4_4  and  C5_5 
REMARK    4  A    between atoms: C5_5  and  C6_6 
REMARK       I    between atoms: C6_6  and  N1_8 
REMARK    5  A    between atoms: N1_8  and  C7_9 
ROOT
HETATM    1  C7  UNL     1       0.217   0.685   0.104  1.00  0.00     0.027 C 
HETATM    2  C8  UNL     1       0.662   1.957   0.209  1.00  0.00     0.009 C 
HETATM    3  C9  UNL     1       2.065   1.796   0.567  1.00  0.00     0.046 C 
HETATM    4  C10 UNL     1       3.179   2.452   0.845  1.00  0.00     0.015 C 
HETATM    5  C11 UNL     1       4.345   1.623   1.143  1.00  0.00     0.066 A 
HETATM    6  N2  UNL     1       5.192   1.696   2.176  1.00  0.00    -0.261 NA
HETATM    7  C12 UNL     1       6.272   0.922   2.359  1.00  0.00     0.117 A 
HETATM    8  C13 UNL     1       6.633  -0.057   1.476  1.00  0.00     0.020 A 
HETATM    9  C14 UNL     1       5.796  -0.199   0.367  1.00  0.00     0.017 A 
HETATM   10  C15 UNL     1       4.696   0.628   0.235  1.00  0.00     0.022 A 
HETATM   11  C16 UNL     1       4.116   0.088  -1.015  1.00  0.00     0.089 A 
HETATM   12  C17 UNL     1       4.630   0.079  -2.257  1.00  0.00     0.053 A 
HETATM   13  C18 UNL     1       3.752  -0.547  -3.153  1.00  0.00     0.139 A 
HETATM   14  N3  UNL     1       2.565  -1.066  -2.811  1.00  0.00    -0.075 NA
HETATM   15  C19 UNL     1       2.104  -1.030  -1.555  1.00  0.00     0.723 A 
HETATM   16  N4  UNL     1       2.958  -0.428  -0.724  1.00  0.00    -0.062 NA
HETATM   17  N5  UNL     1       0.960  -1.472  -0.809  1.00  0.00    -0.217 N 
HETATM   18  C20 UNL     1       0.765  -0.653   0.383  1.00  0.00     0.195 C 
HETATM   19  H21 UNL     1       0.623  -2.270  -1.382  1.00  0.00     0.178 HD
ENDROOT
BRANCH   1  20
HETATM   20  N1  UNL     1      -1.159   0.431  -0.258  1.00  0.00    -0.329 N 
HETATM   21  C6  UNL     1      -2.095  -0.257   0.534  1.00  0.00     0.222 C 
HETATM   22  O1  UNL     1      -2.102  -0.812   1.648  1.00  0.00    -0.273 OA
HETATM   23  H12 UNL     1      -1.458   0.796  -1.181  1.00  0.00     0.168 HD
BRANCH  21  24
HETATM   24  C5  UNL     1      -3.486  -0.434   0.009  1.00  0.00     0.103 C 
BRANCH  24  25
HETATM   25  C4  UNL     1      -4.326  -1.187   0.992  1.00  0.00     0.009 C 
BRANCH  25  26
HETATM   26  C3  UNL     1      -5.726  -1.383   0.493  1.00  0.00     0.000 C 
BRANCH  26  27
HETATM   27  C2  UNL     1      -6.420  -0.086   0.238  1.00  0.00    -0.005 C 
HETATM   28  C1  UNL     1      -7.817  -0.417  -0.256  1.00  0.00     0.005 C 
ENDBRANCH  26  27
ENDBRANCH  25  26
ENDBRANCH  24  25
ENDBRANCH  21  24
ENDBRANCH   1  20
TORSDOF 5
