REMARK  3 active torsions:
REMARK  status: ('A' for Active; 'I' for Inactive)
REMARK    1  A    between atoms: C5_5  and  N1_6 
REMARK       I    between atoms: N1_6  and  C6_7 
REMARK    2  A    between atoms: C6_7  and  C7_9 
REMARK    3  A    between atoms: C11_13  and  N2_14 
ROOT
HETATM    1  C7  UNL     1       0.409   0.803  -0.659  1.00  0.00     0.012 A 
HETATM    2  C8  UNL     1       0.423   2.078  -0.991  1.00  0.00     0.012 A 
HETATM    3  C9  UNL     1      -0.878   2.684  -1.243  1.00  0.00    -0.001 A 
HETATM    4  C10 UNL     1      -1.909   1.867  -1.104  1.00  0.00     0.009 A 
HETATM    5  C11 UNL     1      -2.071   0.438  -0.742  1.00  0.00     0.250 A 
HETATM    6  C17 UNL     1      -0.716  -0.151  -0.484  1.00  0.00     0.084 A 
ENDROOT
BRANCH   1   7
HETATM    7  C6  UNL     1       1.686   0.149  -0.397  1.00  0.00     0.252 C 
HETATM    8  N1  UNL     1       2.925   0.804  -0.480  1.00  0.00    -0.323 N 
HETATM    9  H6  UNL     1       3.015   1.811  -0.737  1.00  0.00     0.169 HD
HETATM   10  O1  UNL     1       1.898  -1.057  -0.066  1.00  0.00    -0.268 OA
BRANCH   8  11
HETATM   11  C5  UNL     1       4.211   0.296  -0.255  1.00  0.00     0.036 A 
HETATM   12  C4  UNL     1       5.000  -0.275  -1.243  1.00  0.00     0.030 A 
HETATM   13  C3  UNL     1       6.271  -0.765  -0.966  1.00  0.00     0.011 A 
HETATM   14  C2  UNL     1       6.796  -0.700   0.306  1.00  0.00    -0.040 A 
HETATM   15  C1  UNL     1       8.162  -1.238   0.553  1.00  0.00     0.050 C 
HETATM   16  C19 UNL     1       6.012  -0.129   1.305  1.00  0.00     0.042 A 
HETATM   17  C18 UNL     1       4.737   0.363   1.029  1.00  0.00     0.053 A 
HETATM   18 CL1  UNL     1       6.728  -0.070   2.911  1.00  0.00    -0.084 Cl
ENDBRANCH   8  11
ENDBRANCH   1   7
BRANCH   5  19
HETATM   19  N2  UNL     1      -2.941   0.315   0.421  1.00  0.00     0.100 N 
HETATM   20  C12 UNL     1      -4.237   0.914   0.176  1.00  0.00     0.303 C 
HETATM   21  C13 UNL     1      -5.235   0.431   1.215  1.00  0.00     0.302 C 
HETATM   22  N3  UNL     1      -5.554  -0.939   0.959  1.00  0.00     0.087 N 
HETATM   23  C14 UNL     1      -6.694  -1.007   0.051  1.00  0.00     0.310 C 
HETATM   24  C15 UNL     1      -4.441  -1.653   0.384  1.00  0.00     0.302 C 
HETATM   25  C16 UNL     1      -3.093  -1.084   0.779  1.00  0.00     0.303 C 
ENDBRANCH   5  19
TORSDOF 3
