REMARK  7 active torsions:
REMARK  status: ('A' for Active; 'I' for Inactive)
REMARK    1  A    between atoms: C4_4  and  N1_5 
REMARK       I    between atoms: N1_5  and  C5_6 
REMARK    2  A    between atoms: C5_6  and  C6_8 
REMARK    3  A    between atoms: C6_8  and  C7_9 
REMARK    4  A    between atoms: C7_9  and  C8_10 
REMARK    5  A    between atoms: C8_10  and  C9_11 
REMARK    6  A    between atoms: C11_13  and  N2_14 
REMARK    7  A    between atoms: N2_14  and  C12_15 
ROOT
HETATM    1  C1  UNL     1       2.171   3.915  -2.015  1.00  0.00     0.023 C 
HETATM    2  C2  UNL     1       1.495   2.937  -1.428  1.00  0.00    -0.041 A 
HETATM    3  C3  UNL     1       0.381   2.187  -2.016  1.00  0.00     0.042 A 
HETATM    4  C4  UNL     1      -0.045   1.289  -1.137  1.00  0.00     0.063 A 
HETATM    5  C11 UNL     1       0.762   1.386   0.094  1.00  0.00     0.076 A 
HETATM    6  C21 UNL     1       1.649   2.350  -0.102  1.00  0.00     0.043 A 
ENDROOT
BRANCH   5   7
HETATM    7  N2  UNL     1       0.632   0.596   1.290  1.00  0.00    -0.186 N 
HETATM    8  H16 UNL     1      -0.210   0.639   1.877  1.00  0.00     0.184 HD
BRANCH   7   9
HETATM    9  C12 UNL     1       1.674  -0.298   1.733  1.00  0.00     0.727 A 
HETATM   10  N3  UNL     1       1.569  -1.041   2.843  1.00  0.00    -0.075 NA
HETATM   11  C13 UNL     1       2.583  -1.853   3.192  1.00  0.00     0.139 A 
HETATM   12  C14 UNL     1       3.729  -1.936   2.432  1.00  0.00     0.053 A 
HETATM   13  C15 UNL     1       3.834  -1.172   1.292  1.00  0.00     0.089 A 
HETATM   14  C16 UNL     1       4.989  -1.180   0.422  1.00  0.00     0.011 A 
HETATM   15  N5  UNL     1       2.804  -0.371   0.969  1.00  0.00    -0.062 NA
HETATM   16  C17 UNL     1       4.963  -0.361  -0.692  1.00  0.00     0.017 A 
HETATM   17  C20 UNL     1       6.109  -1.954   0.639  1.00  0.00     0.130 A 
HETATM   18  C18 UNL     1       6.053  -0.327  -1.570  1.00  0.00     0.020 A 
HETATM   19  C19 UNL     1       7.138  -1.119  -1.303  1.00  0.00     0.116 A 
HETATM   20  N4  UNL     1       7.138  -1.912  -0.205  1.00  0.00    -0.272 NA
ENDBRANCH   7   9
ENDBRANCH   5   7
BRANCH   4  21
HETATM   21  N1  UNL     1      -1.131   0.365  -1.359  1.00  0.00    -0.325 N 
HETATM   22  C5  UNL     1      -2.248   0.429  -0.484  1.00  0.00     0.222 C 
HETATM   23  O1  UNL     1      -2.540   1.147   0.506  1.00  0.00    -0.273 OA
HETATM   24  H4  UNL     1      -1.160  -0.350  -2.115  1.00  0.00     0.169 HD
BRANCH  22  25
HETATM   25  C6  UNL     1      -3.384  -0.502  -0.677  1.00  0.00     0.103 C 
BRANCH  25  26
HETATM   26  C7  UNL     1      -4.474  -0.300   0.323  1.00  0.00     0.009 C 
BRANCH  26  27
HETATM   27  C8  UNL     1      -5.604  -1.272   0.083  1.00  0.00     0.000 C 
BRANCH  27  28
HETATM   28  C9  UNL     1      -6.723  -1.075   1.096  1.00  0.00    -0.005 C 
HETATM   29  C10 UNL     1      -7.297   0.323   1.017  1.00  0.00     0.005 C 
ENDBRANCH  27  28
ENDBRANCH  26  27
ENDBRANCH  25  26
ENDBRANCH  22  25
ENDBRANCH   4  21
TORSDOF 7
