REMARK  7 active torsions:
REMARK  status: ('A' for Active; 'I' for Inactive)
REMARK    1  A    between atoms: N1_1  and  C1_2 
REMARK    2  A    between atoms: C1_2  and  C2_3 
REMARK    3  A    between atoms: C2_3  and  C3_4 
REMARK    4  A    between atoms: C7_9  and  O1_10 
REMARK    5  A    between atoms: O1_10  and  C8_11 
REMARK    6  A    between atoms: C11_14  and  N3_15 
REMARK    7  A    between atoms: N3_15  and  C12_16 
ROOT
HETATM    1  C8  UNL     1       0.600  -0.220  -0.208  1.00  0.00     0.114 A 
HETATM    2  C9  UNL     1       1.538  -1.122   0.234  1.00  0.00     0.043 A 
HETATM    3  C10 UNL     1       2.902  -0.984   0.198  1.00  0.00     0.032 A 
HETATM    4  C11 UNL     1       3.411   0.178  -0.336  1.00  0.00     0.037 A 
HETATM    5  C13 UNL     1       2.551   1.170  -0.819  1.00  0.00     0.074 A 
HETATM    6  C14 UNL     1       1.165   0.953  -0.746  1.00  0.00     0.152 A 
HETATM    7  F1  UNL     1       0.564   2.066  -1.281  1.00  0.00    -0.203 F 
ENDROOT
BRANCH   1   8
HETATM    8  O1  UNL     1      -0.724  -0.058  -0.312  1.00  0.00    -0.307 OA
BRANCH   8   9
HETATM    9  C7  UNL     1      -1.755  -0.832   0.029  1.00  0.00     0.089 A 
HETATM   10  C3  UNL     1      -2.898  -0.118  -0.330  1.00  0.00     0.024 A 
HETATM   11  C4  UNL     1      -4.193  -0.618  -0.122  1.00  0.00     0.131 A 
HETATM   12  N2  UNL     1      -4.356  -1.847   0.450  1.00  0.00    -0.272 NA
HETATM   13  C5  UNL     1      -3.283  -2.567   0.810  1.00  0.00     0.119 A 
HETATM   14  C6  UNL     1      -2.053  -2.041   0.589  1.00  0.00     0.057 A 
BRANCH  10  15
HETATM   15  C2  UNL     1      -3.046   1.216  -0.958  1.00  0.00     0.091 C 
BRANCH  15  16
HETATM   16  C1  UNL     1      -3.406   2.154  -0.096  1.00  0.00    -0.024 C 
BRANCH  16  17
HETATM   17  N1  UNL     1      -4.011   3.028   0.621  1.00  0.00    -0.258 NA
HETATM   18  H1  UNL     1      -5.070   2.986   0.690  1.00  0.00     0.197 HD
ENDBRANCH  16  17
ENDBRANCH  15  16
ENDBRANCH  10  15
ENDBRANCH   8   9
ENDBRANCH   1   8
BRANCH   4  19
HETATM   19  N3  UNL     1       4.830   0.272  -0.350  1.00  0.00    -0.334 N 
HETATM   20  H8  UNL     1       5.387  -0.071  -1.163  1.00  0.00     0.168 HD
BRANCH  19  21
HETATM   21  C12 UNL     1       5.467   0.850   0.783  1.00  0.00     0.353 C 
HETATM   22  O2  UNL     1       4.780   1.258   1.753  1.00  0.00    -0.283 OA
ENDBRANCH  19  21
ENDBRANCH   4  19
TORSDOF 7
