REMARK  8 active torsions:
REMARK  status: ('A' for Active; 'I' for Inactive)
REMARK    1  A    between atoms: C2_2  and  C3_3 
REMARK    2  A    between atoms: C3_3  and  C4_4 
REMARK    3  A    between atoms: C4_4  and  C5_5 
REMARK    4  A    between atoms: C5_5  and  C6_6 
REMARK       I    between atoms: C6_6  and  N1_8 
REMARK    5  A    between atoms: N1_8  and  C7_9 
REMARK    6  A    between atoms: C11_13  and  N2_14 
REMARK    7  A    between atoms: N2_14  and  C12_15 
REMARK    8  A    between atoms: C15_19  and  C16_20 
ROOT
HETATM    1  C7  UNL     1      -1.335  -0.069  -0.364  1.00  0.00     0.036 A 
HETATM    2  C8  UNL     1      -1.503   0.140  -1.707  1.00  0.00     0.029 A 
HETATM    3  C9  UNL     1      -0.470   0.279  -2.610  1.00  0.00     0.004 A 
HETATM    4  C10 UNL     1       0.806   0.197  -2.102  1.00  0.00     0.030 A 
HETATM    5  C11 UNL     1       1.060  -0.011  -0.766  1.00  0.00     0.051 A 
HETATM    6  C21 UNL     1      -0.033  -0.137   0.059  1.00  0.00     0.059 A 
ENDROOT
BRANCH   5   7
HETATM    7  N2  UNL     1       2.355  -0.102  -0.198  1.00  0.00    -0.188 N 
HETATM    8  H16 UNL     1       2.427  -0.264   0.842  1.00  0.00     0.184 HD
BRANCH   7   9
HETATM    9  C12 UNL     1       3.585   0.003  -0.891  1.00  0.00     0.727 A 
HETATM   10  N3  UNL     1       3.794   0.204  -2.187  1.00  0.00    -0.075 NA
HETATM   11  C13 UNL     1       4.965   0.300  -2.818  1.00  0.00     0.139 A 
HETATM   12  C14 UNL     1       6.113   0.182  -2.070  1.00  0.00     0.053 A 
HETATM   13  C15 UNL     1       5.960  -0.028  -0.721  1.00  0.00     0.089 A 
HETATM   14  N5  UNL     1       4.727  -0.104  -0.212  1.00  0.00    -0.062 NA
BRANCH  13  15
HETATM   15  C16 UNL     1       7.097  -0.170   0.178  1.00  0.00     0.011 A 
HETATM   16  C17 UNL     1       8.410  -0.109  -0.226  1.00  0.00     0.017 A 
HETATM   17  C18 UNL     1       9.493  -0.242   0.616  1.00  0.00     0.020 A 
HETATM   18  C19 UNL     1       9.247  -0.452   1.965  1.00  0.00     0.116 A 
HETATM   19  N4  UNL     1       7.951  -0.512   2.368  1.00  0.00    -0.272 NA
HETATM   20  C20 UNL     1       6.926  -0.378   1.518  1.00  0.00     0.130 A 
ENDBRANCH  13  15
ENDBRANCH   7   9
ENDBRANCH   5   7
BRANCH   1  21
HETATM   21  N1  UNL     1      -2.354  -0.218   0.604  1.00  0.00    -0.327 N 
HETATM   22  C6  UNL     1      -3.754  -0.188   0.423  1.00  0.00     0.222 C 
HETATM   23  O1  UNL     1      -4.206  -0.009  -0.720  1.00  0.00    -0.273 OA
HETATM   24  H12 UNL     1      -2.125  -0.374   1.608  1.00  0.00     0.169 HD
BRANCH  22  25
HETATM   25  C5  UNL     1      -4.765  -0.352   1.489  1.00  0.00     0.103 C 
BRANCH  25  26
HETATM   26  C4  UNL     1      -6.119  -0.246   0.818  1.00  0.00     0.009 C 
BRANCH  26  27
HETATM   27  C3  UNL     1      -7.223  -0.403   1.841  1.00  0.00     0.000 C 
BRANCH  27  28
HETATM   28  C2  UNL     1      -8.534  -0.283   1.080  1.00  0.00    -0.005 C 
HETATM   29  C1  UNL     1      -8.600   1.074   0.411  1.00  0.00     0.005 C 
ENDBRANCH  27  28
ENDBRANCH  26  27
ENDBRANCH  25  26
ENDBRANCH  22  25
ENDBRANCH   1  21
TORSDOF 8
