REMARK  2 active torsions:
REMARK  status: ('A' for Active; 'I' for Inactive)
REMARK    1  A    between atoms: C5_6  and  N1_7 
REMARK    2  A    between atoms: N1_7  and  C6_8 
ROOT
HETATM    1  C6  UNL     1       0.140   1.378  -0.242  1.00  0.00     0.145 A 
HETATM    2  N2  UNL     1       0.832   2.235  -1.003  1.00  0.00    -0.223 NA
HETATM    3  C7  UNL     1       0.371   2.692  -2.155  1.00  0.00     0.238 A 
HETATM    4  N3  UNL     1      -0.828   2.337  -2.665  1.00  0.00    -0.217 NA
HETATM    5  C8  UNL     1      -1.597   1.469  -1.960  1.00  0.00     0.186 A 
HETATM    6  O1  UNL     1      -2.774   0.924  -2.144  1.00  0.00    -0.290 OA
HETATM    7  C9  UNL     1      -3.088   0.123  -1.135  1.00  0.00     0.089 A 
HETATM    8  C10 UNL     1      -4.210  -0.645  -0.911  1.00  0.00     0.038 A 
HETATM    9  C11 UNL     1      -4.205  -1.368   0.260  1.00  0.00     0.003 A 
HETATM   10  C12 UNL     1      -3.180  -1.379   1.207  1.00  0.00     0.001 A 
HETATM   11  C13 UNL     1      -2.069  -0.584   0.930  1.00  0.00     0.015 A 
HETATM   12  C14 UNL     1      -2.036   0.154  -0.234  1.00  0.00     0.016 A 
HETATM   13  C15 UNL     1      -1.092   1.008  -0.759  1.00  0.00     0.076 A 
ENDROOT
BRANCH   1  14
HETATM   14  N1  UNL     1       0.719   0.953   0.981  1.00  0.00    -0.340 N 
HETATM   15  H4  UNL     1       0.435   1.122   1.994  1.00  0.00     0.167 HD
BRANCH  14  16
HETATM   16  C5  UNL     1       1.898   0.156   0.834  1.00  0.00     0.035 A 
HETATM   17  C4  UNL     1       2.372  -0.177  -0.439  1.00  0.00     0.029 A 
HETATM   18  C3  UNL     1       3.538  -0.943  -0.535  1.00  0.00     0.004 A 
HETATM   19  C2  UNL     1       4.245  -1.384   0.597  1.00  0.00     0.019 A 
HETATM   20  C1  UNL     1       3.796  -1.067   1.884  1.00  0.00     0.013 A 
HETATM   21 BR1  UNL     1       4.746  -1.645   3.413  1.00  0.00    -0.051 Br
HETATM   22  C16 UNL     1       2.647  -0.316   1.874  1.00  0.00     0.048 A 
ENDBRANCH  14  16
ENDBRANCH   1  14
TORSDOF 2
