REMARK  6 active torsions:
REMARK  status: ('A' for Active; 'I' for Inactive)
REMARK    1  A    between atoms: C2_2  and  C3_3 
REMARK    2  A    between atoms: C3_3  and  C4_4 
REMARK    3  A    between atoms: C4_4  and  C5_5 
REMARK    4  A    between atoms: C5_5  and  C6_6 
REMARK    5  A    between atoms: C10_10  and  N1_11 
REMARK    6  A    between atoms: N1_11  and  O1_12 
ROOT
HETATM    1  C6  UNL     1       1.382  -0.521   0.685  1.00  0.00     0.062 C 
HETATM    2  C7  UNL     1       0.891   0.786   0.175  1.00  0.00     0.011 C 
HETATM    3  C8  UNL     1       0.121   1.837  -0.138  1.00  0.00     0.023 C 
HETATM    4  C9  UNL     1      -1.274   2.344  -0.019  1.00  0.00     0.006 C 
HETATM    5  C10 UNL     1      -2.580   2.281   0.361  1.00  0.00     0.033 C 
HETATM    6  C11 UNL     1      -2.891   1.032   1.134  1.00  0.00     0.098 C 
HETATM    7  C12 UNL     1      -3.738   0.118   0.375  1.00  0.00    -0.037 A 
HETATM    8  C13 UNL     1      -4.964   0.453  -0.135  1.00  0.00     0.027 A 
HETATM    9  C14 UNL     1      -5.702  -0.474  -0.840  1.00  0.00     0.116 A 
HETATM   10  N2  UNL     1      -5.305  -1.743  -1.083  1.00  0.00    -0.272 NA
HETATM   11  C15 UNL     1      -4.086  -2.091  -0.581  1.00  0.00     0.130 A 
HETATM   12  C16 UNL     1      -3.321  -1.190   0.128  1.00  0.00     0.017 A 
HETATM   13  C17 UNL     1      -2.058  -1.835   0.551  1.00  0.00     0.072 A 
HETATM   14  C18 UNL     1      -2.003  -3.127   1.009  1.00  0.00     0.052 A 
HETATM   15  C19 UNL     1      -0.718  -3.543   1.371  1.00  0.00     0.121 A 
HETATM   16  N3  UNL     1       0.354  -2.752   1.278  1.00  0.00    -0.245 NA
HETATM   17  C20 UNL     1       0.250  -1.495   0.824  1.00  0.00     0.131 A 
HETATM   18  N4  UNL     1      -0.965  -1.092   0.477  1.00  0.00    -0.232 NA
ENDROOT
BRANCH   1  19
HETATM   19  C5  UNL     1       2.346  -1.067  -0.340  1.00  0.00     0.013 C 
BRANCH  19  20
HETATM   20  C4  UNL     1       3.524  -0.185  -0.577  1.00  0.00     0.001 C 
BRANCH  20  21
HETATM   21  C3  UNL     1       4.341   0.058   0.672  1.00  0.00    -0.000 C 
BRANCH  21  22
HETATM   22  C2  UNL     1       5.529   0.959   0.395  1.00  0.00    -0.005 C 
HETATM   23  C1  UNL     1       6.398   0.261  -0.657  1.00  0.00     0.005 C 
ENDBRANCH  21  22
ENDBRANCH  20  21
ENDBRANCH  19  20
ENDBRANCH   1  19
BRANCH   5  24
HETATM   24  N1  UNL     1      -3.343   3.408  -0.008  1.00  0.00    -0.273 N 
HETATM   25  H16 UNL     1      -3.648   4.283   0.495  1.00  0.00     0.193 HD
BRANCH  24  26
HETATM   26  O1  UNL     1      -3.874   3.557  -1.246  1.00  0.00    -0.290 OA
HETATM   27  H17 UNL     1      -3.484   2.922  -1.893  1.00  0.00     0.244 HD
ENDBRANCH  24  26
ENDBRANCH   5  24
TORSDOF 6
