REMARK  5 active torsions:
REMARK  status: ('A' for Active; 'I' for Inactive)
REMARK    1  A    between atoms: N1_5  and  C5_6 
REMARK    2  A    between atoms: C8_9  and  N2_10 
REMARK    3  A    between atoms: C16_21  and  O1_22 
REMARK    4  A    between atoms: O1_22  and  C17_23 
REMARK    5  A    between atoms: C17_23  and  C18_24 
ROOT
HETATM    1  C5  UNL     1      -1.214   0.291   0.570  1.00  0.00     0.204 A 
HETATM    2  C6  UNL     1      -2.140  -0.608  -0.296  1.00  0.00     0.011 A 
HETATM    3  C7  UNL     1      -1.990  -1.355  -1.432  1.00  0.00     0.051 A 
HETATM    4  C8  UNL     1      -3.054  -2.161  -1.973  1.00  0.00     0.112 C 
HETATM    5  N3  UNL     1      -3.799  -3.045  -1.387  1.00  0.00    -0.226 NA
HETATM    6  C9  UNL     1      -3.626  -3.350   0.007  1.00  0.00     0.257 C 
HETATM    7  N4  UNL     1      -3.138  -3.324   1.223  1.00  0.00    -0.166 NA
HETATM    8  N5  UNL     1      -2.058  -2.466   1.448  1.00  0.00    -0.283 N 
HETATM    9  C10 UNL     1      -0.960  -2.861   0.573  1.00  0.00     0.092 C 
HETATM   10  C11 UNL     1      -0.877  -2.188  -0.630  1.00  0.00     0.061 A 
HETATM   11  C12 UNL     1      -0.555  -0.582  -1.133  1.00  0.00     0.021 A 
HETATM   12  C13 UNL     1      -0.779  -1.429  -2.221  1.00  0.00     0.009 A 
HETATM   13  C14 UNL     1       0.541  -0.952  -2.411  1.00  0.00     0.038 A 
HETATM   14  C15 UNL     1       1.524  -0.138  -1.875  1.00  0.00     0.017 A 
HETATM   15  C16 UNL     1       1.379   0.591  -0.705  1.00  0.00     0.072 A 
HETATM   16  C24 UNL     1       0.055   0.338  -0.192  1.00  0.00     0.006 A 
HETATM   17  C25 UNL     1      -1.957  -1.341   2.373  1.00  0.00     0.153 C 
HETATM   18  C26 UNL     1      -0.969  -0.310   1.907  1.00  0.00     0.072 C 
ENDROOT
BRANCH  15  19
HETATM   19  O1  UNL     1       1.678   1.423   0.318  1.00  0.00    -0.347 OA
BRANCH  19  20
HETATM   20  C17 UNL     1       2.896   2.065   0.449  1.00  0.00     0.214 C 
BRANCH  20  21
HETATM   21  C18 UNL     1       4.016   1.101   0.557  1.00  0.00    -0.034 A 
HETATM   22  C19 UNL     1       4.252   0.723   1.885  1.00  0.00     0.009 A 
HETATM   23  C20 UNL     1       5.265  -0.174   2.212  1.00  0.00     0.001 A 
HETATM   24  C21 UNL     1       6.080  -0.726   1.229  1.00  0.00     0.000 A 
HETATM   25  C22 UNL     1       5.816  -0.329  -0.065  1.00  0.00     0.001 A 
HETATM   26  C23 UNL     1       4.819   0.556  -0.405  1.00  0.00     0.009 A 
ENDBRANCH  20  21
ENDBRANCH  19  20
ENDBRANCH  15  19
BRANCH   1  27
HETATM   27  N1  UNL     1      -1.955   1.492   0.676  1.00  0.00     0.110 N 
HETATM   28  C2  UNL     1      -2.219   2.349  -0.401  1.00  0.00     0.222 C 
HETATM   29  C1  UNL     1      -1.163   2.758  -1.366  1.00  0.00     0.043 C 
HETATM   30  C3  UNL     1      -2.391   3.489   0.626  1.00  0.00     0.066 C 
HETATM   31  C4  UNL     1      -1.420   2.580   1.411  1.00  0.00     0.277 C 
ENDBRANCH   1  27
BRANCH   4  32
HETATM   32  N2  UNL     1      -3.376  -1.994  -3.347  1.00  0.00    -0.386 N 
HETATM   33  H10 UNL     1      -2.878  -2.336  -4.178  1.00  0.00     0.157 HD
HETATM   34  H11 UNL     1      -4.198  -1.479  -3.696  1.00  0.00     0.157 HD
ENDBRANCH   4  32
TORSDOF 5
