REMARK  5 active torsions:
REMARK  status: ('A' for Active; 'I' for Inactive)
REMARK    1  A    between atoms: C5_5  and  N1_6 
REMARK    2  A    between atoms: C7_8  and  C8_9 
REMARK    3  A    between atoms: C11_12  and  O1_13 
REMARK    4  A    between atoms: O1_13  and  C12_14 
REMARK    5  A    between atoms: C12_14  and  C13_15 
ROOT
HETATM    1  N1  UNL     1      -4.149   0.757  -0.544  1.00  0.00    -0.325 N 
HETATM    2  C6  UNL     1      -3.279   1.119   0.439  1.00  0.00     0.103 A 
HETATM    3  C7  UNL     1      -2.126   0.323   0.422  1.00  0.00    -0.015 A 
HETATM    4  C20 UNL     1      -2.377  -0.527  -0.635  1.00  0.00     0.048 A 
HETATM    5  C21 UNL     1      -3.594  -0.268  -1.217  1.00  0.00     0.143 A 
HETATM    6  N2  UNL     1      -3.828  -1.154  -2.299  1.00  0.00    -0.240 NA
HETATM    7  C22 UNL     1      -2.820  -1.965  -2.434  1.00  0.00     0.150 A 
HETATM    8  C23 UNL     1      -1.823  -1.638  -1.398  1.00  0.00     0.080 A 
HETATM    9  N3  UNL     1      -0.684  -2.204  -1.191  1.00  0.00    -0.298 NA
HETATM   10  H17 UNL     1      -0.356  -3.000  -1.787  1.00  0.00     0.187 HD
ENDROOT
BRANCH   3  11
HETATM   11  C8  UNL     1      -0.970   0.426   1.342  1.00  0.00     0.069 A 
HETATM   12  C9  UNL     1      -0.499  -0.859   1.856  1.00  0.00    -0.011 A 
HETATM   13  C10 UNL     1       0.751  -1.117   1.540  1.00  0.00     0.033 A 
HETATM   14  C11 UNL     1       1.185   0.046   0.761  1.00  0.00     0.066 A 
HETATM   15  C19 UNL     1       0.233   0.958   0.619  1.00  0.00     0.023 A 
BRANCH  14  16
HETATM   16  O1  UNL     1       2.487   0.148   0.235  1.00  0.00    -0.347 OA
BRANCH  16  17
HETATM   17  C12 UNL     1       3.566  -0.486   0.920  1.00  0.00     0.214 C 
BRANCH  17  18
HETATM   18  C13 UNL     1       4.865  -0.277   0.262  1.00  0.00    -0.034 A 
HETATM   19  C14 UNL     1       5.675   0.799   0.574  1.00  0.00     0.009 A 
HETATM   20  C15 UNL     1       6.900   0.986  -0.055  1.00  0.00     0.001 A 
HETATM   21  C16 UNL     1       7.336   0.078  -1.027  1.00  0.00     0.000 A 
HETATM   22  C17 UNL     1       6.510  -1.012  -1.339  1.00  0.00     0.001 A 
HETATM   23  C18 UNL     1       5.291  -1.158  -0.681  1.00  0.00     0.009 A 
ENDBRANCH  17  18
ENDBRANCH  16  17
ENDBRANCH  14  16
ENDBRANCH   3  11
BRANCH   1  24
HETATM   24  C5  UNL     1      -5.390   1.432  -0.710  1.00  0.00     0.081 A 
HETATM   25  C2  UNL     1      -6.142   1.576   0.575  1.00  0.00    -0.046 A 
HETATM   26  C1  UNL     1      -6.579   1.792   1.815  1.00  0.00     0.018 C 
HETATM   27  C3  UNL     1      -6.685   1.086  -0.678  1.00  0.00     0.037 A 
HETATM   28  C4  UNL     1      -6.177   0.904  -1.858  1.00  0.00     0.045 A 
ENDBRANCH   1  24
TORSDOF 5
