REMARK  7 active torsions:
REMARK  status: ('A' for Active; 'I' for Inactive)
REMARK    1  A    between atoms: C2_2  and  C4_6 
REMARK    2  A    between atoms: N1_3  and  C3_4 
REMARK    3  A    between atoms: C3_4  and  N2_5 
REMARK    4  A    between atoms: N3_8  and  C6_9 
REMARK    5  A    between atoms: C9_12  and  N4_13 
REMARK    6  A    between atoms: C14_18  and  C15_19 
REMARK    7  A    between atoms: C19_23  and  O1_24 
ROOT
HETATM    1  C4  UNL     1      -1.465  -0.891  -0.277  1.00  0.00     0.016 A 
HETATM    2  C5  UNL     1      -0.396  -1.401  -0.971  1.00  0.00     0.105 A 
HETATM    3  N3  UNL     1       0.670  -0.583  -0.914  1.00  0.00    -0.358 N 
HETATM    4  C13 UNL     1       0.284   0.466  -0.174  1.00  0.00     0.104 A 
HETATM    5  C14 UNL     1      -1.045   0.306   0.243  1.00  0.00     0.003 A 
ENDROOT
BRANCH   3   6
HETATM    6  C6  UNL     1       1.954  -0.817  -1.533  1.00  0.00     0.122 C 
HETATM    7  C7  UNL     1       2.164   0.018  -2.774  1.00  0.00     0.030 C 
HETATM    8  C8  UNL     1       3.102   0.891  -1.976  1.00  0.00     0.040 C 
HETATM    9  C9  UNL     1       3.136  -0.200  -0.933  1.00  0.00     0.246 C 
BRANCH   9  10
HETATM   10  N4  UNL     1       3.101   0.290   0.420  1.00  0.00     0.095 N 
HETATM   11  C10 UNL     1       4.434   0.843   0.714  1.00  0.00     0.275 C 
HETATM   12  C11 UNL     1       4.884  -0.530   1.170  1.00  0.00     0.060 C 
HETATM   13  C12 UNL     1       3.403  -0.742   1.395  1.00  0.00     0.275 C 
ENDBRANCH   9  10
ENDBRANCH   3   6
BRANCH   1  14
HETATM   14  C2  UNL     1      -2.796  -1.425  -0.075  1.00  0.00     0.039 C 
HETATM   15  C1  UNL     1      -3.875  -0.726   0.667  1.00  0.00     0.071 C 
HETATM   16  N1  UNL     1      -3.270  -2.522  -0.507  1.00  0.00    -0.264 NA
BRANCH  16  17
HETATM   17  C3  UNL     1      -2.691  -3.562  -1.263  1.00  0.00     0.414 C 
BRANCH  17  18
HETATM   18  N2  UNL     1      -3.703  -4.610  -1.515  1.00  0.00     0.097 N 
HETATM   19  H6  UNL     1      -3.461  -5.147  -2.390  1.00  0.00     0.315 HD
HETATM   20  H7  UNL     1      -4.639  -4.213  -1.632  1.00  0.00     0.315 HD
ENDBRANCH  17  18
ENDBRANCH  16  17
ENDBRANCH   1  14
BRANCH   5  21
HETATM   21  C15 UNL     1      -1.596   1.334   1.098  1.00  0.00    -0.021 A 
HETATM   22  C16 UNL     1      -2.136   1.301   2.386  1.00  0.00     0.012 A 
HETATM   23  C17 UNL     1      -2.618   2.433   2.999  1.00  0.00     0.004 A 
HETATM   24  C18 UNL     1      -2.604   3.653   2.399  1.00  0.00     0.036 A 
HETATM   25  C19 UNL     1      -2.084   3.755   1.126  1.00  0.00     0.066 A 
HETATM   26  C20 UNL     1      -1.603   2.613   0.522  1.00  0.00     0.049 A 
BRANCH  25  27
HETATM   27  O1  UNL     1      -2.066   4.992   0.511  1.00  0.00    -0.361 OA
HETATM   28  H25 UNL     1      -2.887   5.539   0.315  1.00  0.00     0.217 HD
ENDBRANCH  25  27
ENDBRANCH   5  21
TORSDOF 7
