REMARK  5 active torsions:
REMARK  status: ('A' for Active; 'I' for Inactive)
REMARK    1  A    between atoms: N1_1  and  C1_2 
REMARK    2  A    between atoms: C3_4  and  N2_5 
REMARK    3  A    between atoms: C7_9  and  O1_10 
REMARK    4  A    between atoms: O1_10  and  C8_11 
REMARK    5  A    between atoms: C8_11  and  C9_12 
ROOT
HETATM    1  N2  UNL     1      -2.298   2.179   0.024  1.00  0.00    -0.285 N 
HETATM    2  C4  UNL     1      -1.114   1.763  -0.522  1.00  0.00     0.019 C 
HETATM    3  C5  UNL     1      -0.120   1.404  -1.002  1.00  0.00    -0.052 C 
HETATM    4  C6  UNL     1       1.057   0.963  -1.596  1.00  0.00     0.102 C 
HETATM    5  C7  UNL     1       1.376  -0.303  -1.557  1.00  0.00     0.077 C 
HETATM    6  C15 UNL     1       0.754  -1.517  -0.916  1.00  0.00     0.037 C 
HETATM    7  C16 UNL     1       0.967  -2.780  -0.831  1.00  0.00     0.005 C 
HETATM    8  C17 UNL     1      -0.111  -3.410   0.033  1.00  0.00     0.025 C 
HETATM    9  C18 UNL     1      -1.185  -3.578   0.826  1.00  0.00     0.008 C 
HETATM   10  C19 UNL     1      -2.175  -4.442   1.644  1.00  0.00     0.076 C 
HETATM   11  C20 UNL     1      -1.604  -3.442   2.669  1.00  0.00     0.128 C 
HETATM   12  N3  UNL     1      -2.006  -2.518   1.524  1.00  0.00    -0.383 N 
HETATM   13  C21 UNL     1      -2.802  -1.365   1.744  1.00  0.00     0.127 C 
HETATM   14  C22 UNL     1      -3.561  -0.724   0.633  1.00  0.00     0.007 C 
HETATM   15  C23 UNL     1      -4.019   0.665   0.993  1.00  0.00     0.033 C 
HETATM   16  C24 UNL     1      -3.369   1.190  -0.229  1.00  0.00     0.102 C 
HETATM   17  C25 UNL     1      -2.750  -0.171  -0.456  1.00  0.00     0.033 C 
ENDROOT
BRANCH   1  18
HETATM   18  C3  UNL     1      -2.396   3.421   0.711  1.00  0.00     0.142 A 
HETATM   19  C2  UNL     1      -2.462   3.826   2.011  1.00  0.00     0.095 A 
HETATM   20  C1  UNL     1      -2.534   5.163   2.293  1.00  0.00     0.105 A 
HETATM   21  N5  UNL     1      -2.540   6.074   1.316  1.00  0.00    -0.230 NA
HETATM   22  C26 UNL     1      -2.476   5.702   0.035  1.00  0.00     0.237 A 
HETATM   23  N4  UNL     1      -2.405   4.394  -0.253  1.00  0.00    -0.224 NA
BRANCH  20  24
HETATM   24  N1  UNL     1      -2.616   5.416   3.695  1.00  0.00    -0.287 NA
HETATM   25  H1  UNL     1      -3.193   5.573   4.543  1.00  0.00     0.125 HD
HETATM   26  H2  UNL     1      -3.525   5.512   4.192  1.00  0.00     0.125 HD
ENDBRANCH  20  24
ENDBRANCH   1  18
BRANCH   5  27
HETATM   27  O1  UNL     1       2.547  -0.785  -2.168  1.00  0.00    -0.346 OA
BRANCH  27  28
HETATM   28  C8  UNL     1       3.705  -0.020  -1.824  1.00  0.00     0.214 C 
BRANCH  28  29
HETATM   29  C9  UNL     1       4.980  -0.621  -2.187  1.00  0.00    -0.034 A 
HETATM   30  C10 UNL     1       5.670  -1.463  -1.306  1.00  0.00     0.009 A 
HETATM   31  C11 UNL     1       6.884  -1.961  -1.757  1.00  0.00     0.001 A 
HETATM   32  C12 UNL     1       7.431  -1.683  -2.983  1.00  0.00     0.000 A 
HETATM   33  C13 UNL     1       6.749  -0.844  -3.868  1.00  0.00     0.001 A 
HETATM   34  C14 UNL     1       5.550  -0.368  -3.390  1.00  0.00     0.009 A 
ENDBRANCH  28  29
ENDBRANCH  27  28
ENDBRANCH   5  27
TORSDOF 5
