REMARK  2 active torsions:
REMARK  status: ('A' for Active; 'I' for Inactive)
REMARK    1  A    between atoms: C2_2  and  C3_3 
REMARK    2  A    between atoms: C4_4  and  N1_5 
ROOT
HETATM    1  C3  UNL     1      -1.337  -1.207  -0.530  1.00  0.00    -0.051 C 
HETATM    2  C4  UNL     1      -1.060   0.067  -0.023  1.00  0.00     0.044 C 
HETATM    3  C8  UNL     1       0.329   0.390   0.394  1.00  0.00     0.115 C 
HETATM    4  C9  UNL     1       0.393  -1.007   1.011  1.00  0.00     0.020 C 
HETATM    5  C10 UNL     1       0.941  -1.550  -0.180  1.00  0.00    -0.047 C 
HETATM    6  C11 UNL     1      -0.222  -2.273  -0.685  1.00  0.00     0.075 C 
HETATM    7  C12 UNL     1       2.345  -1.053  -0.294  1.00  0.00    -0.028 C 
HETATM    8  C13 UNL     1       3.454  -0.848   0.460  1.00  0.00     0.091 C 
HETATM    9  N2  UNL     1       3.066  -0.113   1.711  1.00  0.00    -0.398 N 
HETATM   10  C14 UNL     1       1.890   0.477   2.410  1.00  0.00     0.122 C 
HETATM   11  C15 UNL     1       0.849   1.107   1.497  1.00  0.00     0.063 C 
HETATM   12  C16 UNL     1       2.857  -0.347  -1.549  1.00  0.00     0.056 C 
HETATM   13  C17 UNL     1       4.138   0.298  -1.461  1.00  0.00     0.020 C 
HETATM   14  C18 UNL     1       1.957   0.936  -1.499  1.00  0.00     0.094 C 
HETATM   15  N3  UNL     1       0.870   0.845  -0.747  1.00  0.00    -0.284 NA
HETATM   16  H16 UNL     1       4.032  -0.037   2.175  1.00  0.00     0.158 HD
ENDROOT
BRANCH   2  17
HETATM   17  N1  UNL     1      -2.143   0.984   0.061  1.00  0.00    -0.381 N 
HETATM   18  C5  UNL     1      -3.251   1.502   0.876  1.00  0.00     0.124 C 
HETATM   19  C6  UNL     1      -2.907   2.864   0.259  1.00  0.00     0.040 C 
HETATM   20  C7  UNL     1      -2.591   1.965  -0.940  1.00  0.00     0.124 C 
ENDBRANCH   2  17
BRANCH   1  21
HETATM   21  C2  UNL     1      -2.720  -1.538  -0.919  1.00  0.00     0.032 C 
HETATM   22  C1  UNL     1      -3.249  -2.726  -0.106  1.00  0.00     0.010 C 
ENDBRANCH   1  21
TORSDOF 2
