REMARK  4 active torsions:
REMARK  status: ('A' for Active; 'I' for Inactive)
REMARK    1  A    between atoms: C1_1  and  C14_18 
REMARK    2  A    between atoms: C2_2  and  N1_3 
REMARK    3  A    between atoms: C7_10  and  C8_11 
REMARK    4  A    between atoms: C8_11  and  N4_12 
ROOT
HETATM    1  N1  UNL     1       0.771  -0.352   1.139  1.00  0.00    -0.367 N 
HETATM    2  C3  UNL     1       1.258  -0.686   2.489  1.00  0.00     0.274 C 
HETATM    3  N2  UNL     1       1.433   0.604   3.141  1.00  0.00    -0.263 NA
HETATM    4  C4  UNL     1       0.693   1.646   3.318  1.00  0.00     0.227 C 
HETATM    5  N3  UNL     1      -0.640   1.978   2.940  1.00  0.00    -0.258 NA
HETATM    6  C5  UNL     1      -1.612   1.412   2.297  1.00  0.00     0.098 C 
HETATM    7  C6  UNL     1      -1.548   0.053   1.704  1.00  0.00     0.055 C 
HETATM    8  C7  UNL     1      -2.519  -0.251   0.584  1.00  0.00     0.016 C 
HETATM    9  C12 UNL     1      -1.326  -0.766  -0.194  1.00  0.00     0.033 C 
HETATM   10  C13 UNL     1      -0.474   0.167   0.621  1.00  0.00     0.095 C 
ENDROOT
BRANCH   1  11
HETATM   11  C2  UNL     1       1.773  -0.609   0.160  1.00  0.00     0.088 C 
HETATM   12  C1  UNL     1       3.018  -0.198   0.325  1.00  0.00     0.028 C 
BRANCH  12  13
HETATM   13  C14 UNL     1       4.061  -0.441  -0.647  1.00  0.00    -0.035 A 
HETATM   14  C15 UNL     1       3.864  -1.118  -1.831  1.00  0.00     0.011 A 
HETATM   15  C16 UNL     1       4.897  -1.319  -2.721  1.00  0.00     0.001 A 
HETATM   16  C17 UNL     1       6.174  -0.865  -2.491  1.00  0.00     0.000 A 
HETATM   17  C18 UNL     1       6.383  -0.192  -1.321  1.00  0.00     0.001 A 
HETATM   18  C19 UNL     1       5.347   0.006  -0.436  1.00  0.00     0.011 A 
ENDBRANCH  12  13
ENDBRANCH   1  11
BRANCH   8  19
HETATM   19  C8  UNL     1      -3.225   0.944   0.083  1.00  0.00     0.122 C 
BRANCH  19  20
HETATM   20  N4  UNL     1      -4.156   0.882  -0.921  1.00  0.00    -0.412 N 
HETATM   21  C9  UNL     1      -5.415   0.284  -0.881  1.00  0.00     0.118 C 
HETATM   22  C10 UNL     1      -5.130  -0.365  -2.219  1.00  0.00     0.039 C 
HETATM   23  C11 UNL     1      -3.963   0.632  -2.279  1.00  0.00     0.118 C 
ENDBRANCH  19  20
ENDBRANCH   8  19
TORSDOF 4
