REMARK  10 active torsions:
REMARK  status: ('A' for Active; 'I' for Inactive)
REMARK    1  A    between atoms: N1_1  and  C1_2 
REMARK    2  A    between atoms: C4_7  and  C5_8 
REMARK    3  A    between atoms: C5_8  and  S1_9 
REMARK    4  A    between atoms: S1_9  and  C6_10 
REMARK    5  A    between atoms: C6_10  and  C7_11 
REMARK    6  A    between atoms: C7_11  and  N4_12 
REMARK    7  A    between atoms: N4_12  and  C8_13 
REMARK    8  A    between atoms: C10_15  and  C11_16 
REMARK    9  A    between atoms: C11_16  and  C12_17 
REMARK   10  A    between atoms: C12_17  and  N5_18 
ROOT
HETATM    1  C7  UNL     1       1.776   1.381   0.768  1.00  0.00     0.149 C 
ENDROOT
BRANCH   1   2
HETATM    2  C6  UNL     1       2.969   1.459   1.329  1.00  0.00    -0.063 C 
BRANCH   2   3
HETATM    3  S1  UNL     1       4.516   1.627   1.825  1.00  0.00    -0.057 SA
BRANCH   3   4
HETATM    4  C5  UNL     1       5.577   0.971   0.735  1.00  0.00     0.075 C 
BRANCH   4   5
HETATM    5  C4  UNL     1       5.480  -0.442   0.422  1.00  0.00     0.034 A 
HETATM    6  C1  UNL     1       6.496  -0.828  -0.440  1.00  0.00     0.134 A 
HETATM    7  N2  UNL     1       6.485  -2.152  -0.792  1.00  0.00    -0.224 NA
HETATM    8  C2  UNL     1       5.504  -2.952  -0.280  1.00  0.00     0.234 A 
HETATM    9  N3  UNL     1       4.543  -2.486   0.563  1.00  0.00    -0.253 NA
HETATM   10  C3  UNL     1       4.497  -1.206   0.945  1.00  0.00     0.133 A 
BRANCH   6  11
HETATM   11  N1  UNL     1       7.512   0.011  -0.962  1.00  0.00    -0.383 N 
HETATM   12  H1  UNL     1       8.001   0.721  -0.337  1.00  0.00     0.157 HD
HETATM   13  H2  UNL     1       7.760  -0.100  -1.991  1.00  0.00     0.157 HD
ENDBRANCH   6  11
ENDBRANCH   4   5
ENDBRANCH   3   4
ENDBRANCH   2   3
ENDBRANCH   1   2
BRANCH   1  14
HETATM   14  N4  UNL     1       1.125   0.149   0.635  1.00  0.00    -0.363 N 
HETATM   15  H7  UNL     1       1.312  -0.591   1.336  1.00  0.00     0.161 HD
BRANCH  14  16
HETATM   16  C8  UNL     1       0.223  -0.085  -0.442  1.00  0.00     0.321 C 
HETATM   17  C9  UNL     1      -0.987   0.826  -0.544  1.00  0.00     0.092 C 
HETATM   18  C10 UNL     1      -1.688  -0.462  -0.997  1.00  0.00     0.228 C 
HETATM   19  N6  UNL     1      -0.740  -1.162  -0.147  1.00  0.00     0.111 N 
HETATM   20  H22 UNL     1      -1.011  -1.223   0.860  1.00  0.00     0.319 HD
BRANCH  18  21
HETATM   21  C11 UNL     1      -3.130  -0.502  -0.549  1.00  0.00     0.066 C 
BRANCH  21  22
HETATM   22  C12 UNL     1      -3.808   0.691  -1.172  1.00  0.00     0.274 C 
BRANCH  22  23
HETATM   23  N5  UNL     1      -5.183   0.848  -0.887  1.00  0.00     0.088 N 
HETATM   24  C13 UNL     1      -5.614   1.182   0.430  1.00  0.00     0.274 C 
HETATM   25  C14 UNL     1      -6.953   0.522   0.062  1.00  0.00     0.060 C 
HETATM   26  C15 UNL     1      -6.045  -0.288  -0.865  1.00  0.00     0.274 C 
ENDBRANCH  22  23
ENDBRANCH  21  22
ENDBRANCH  18  21
ENDBRANCH  14  16
ENDBRANCH   1  14
TORSDOF 10
