REMARK  8 active torsions:
REMARK  status: ('A' for Active; 'I' for Inactive)
REMARK    1  A    between atoms: O1_1  and  C1_2 
REMARK    2  A    between atoms: C5_6  and  C6_7 
REMARK    3  A    between atoms: C6_7  and  C16_20 
REMARK    4  A    between atoms: C7_8  and  P1_9 
REMARK    5  A    between atoms: P1_9  and  N1_10 
REMARK    6  A    between atoms: N1_10  and  C8_11 
REMARK    7  A    between atoms: C10_13  and  C11_14 
REMARK    8  A    between atoms: C11_14  and  N2_15 
ROOT
HETATM    1  C6  UNL     1      -2.550  -1.019  -0.166  1.00  0.00    -0.026 C 
HETATM    2  C7  UNL     1      -1.956  -1.556   0.856  1.00  0.00     0.031 C 
ENDROOT
BRANCH   1   3
HETATM    3  C5  UNL     1      -2.529   0.402  -0.441  1.00  0.00    -0.024 A 
HETATM    4  C4  UNL     1      -1.885   1.284   0.379  1.00  0.00     0.012 A 
HETATM    5  C3  UNL     1      -1.812   2.635   0.196  1.00  0.00     0.004 A 
HETATM    6  C2  UNL     1      -2.434   3.217  -0.914  1.00  0.00     0.036 A 
HETATM    7  C1  UNL     1      -3.101   2.361  -1.776  1.00  0.00     0.066 A 
HETATM    8  C19 UNL     1      -3.115   1.015  -1.500  1.00  0.00     0.048 A 
BRANCH   7   9
HETATM    9  O1  UNL     1      -3.722   2.940  -2.882  1.00  0.00    -0.361 OA
HETATM   10  H1  UNL     1      -4.731   3.044  -2.969  1.00  0.00     0.217 HD
ENDBRANCH   7   9
ENDBRANCH   1   3
BRANCH   1  11
HETATM   11  C16 UNL     1      -3.223  -1.992  -1.000  1.00  0.00    -0.048 C 
HETATM   12  B1  UNL     1      -4.278  -1.801  -2.558  1.00  0.00     0.348 B 
HETATM   13  N3  UNL     1      -6.045  -2.714  -1.708  1.00  0.00    -0.350 NA
HETATM   14  C17 UNL     1      -5.466  -3.885  -1.389  1.00  0.00     0.207 C 
HETATM   15  N4  UNL     1      -4.239  -4.253  -0.992  1.00  0.00    -0.256 NA
HETATM   16  C18 UNL     1      -3.218  -3.358  -0.819  1.00  0.00     0.115 C 
ENDBRANCH   1  11
BRANCH   2  17
HETATM   17  P1  UNL     1      -0.962  -1.244   2.305  1.00  0.00    -0.032 P 
HETATM   18  H6  UNL     1      -1.630  -1.410   3.546  1.00  0.00     0.078 HD
BRANCH  17  19
HETATM   19  N1  UNL     1       0.660  -1.908   2.168  1.00  0.00    -0.294 NA
HETATM   20  H7  UNL     1       0.689  -2.791   1.603  1.00  0.00     0.127 HD
BRANCH  19  21
HETATM   21  C8  UNL     1       1.628  -1.001   1.622  1.00  0.00     0.060 C 
HETATM   22  C9  UNL     1       1.396  -0.475   0.245  1.00  0.00     0.026 C 
HETATM   23  C10 UNL     1       1.765   0.895   0.695  1.00  0.00     0.017 C 
HETATM   24  C15 UNL     1       1.564   0.408   2.135  1.00  0.00     0.026 C 
BRANCH  23  25
HETATM   25  C11 UNL     1       3.185   1.338   0.535  1.00  0.00     0.277 C 
BRANCH  25  26
HETATM   26  N2  UNL     1       3.681   1.346  -0.805  1.00  0.00     0.088 N 
HETATM   27  C12 UNL     1       5.078   1.811  -0.784  1.00  0.00     0.274 C 
HETATM   28  C13 UNL     1       5.487   0.697  -1.723  1.00  0.00     0.060 C 
HETATM   29  C14 UNL     1       4.159   0.066  -1.302  1.00  0.00     0.274 C 
ENDBRANCH  25  26
ENDBRANCH  23  25
ENDBRANCH  19  21
ENDBRANCH  17  19
ENDBRANCH   2  17
TORSDOF 8
