REMARK  5 active torsions:
REMARK  status: ('A' for Active; 'I' for Inactive)
REMARK    1  A    between atoms: C2_2  and  C16_21 
REMARK    2  A    between atoms: C3_3  and  N1_4 
REMARK    3  A    between atoms: N1_4  and  C4_5 
REMARK    4  A    between atoms: C11_15  and  O1_16 
REMARK    5  A    between atoms: C16_21  and  N4_22 
ROOT
HETATM    1  C4  UNL     1      -0.709  -0.785   0.598  1.00  0.00     0.094 A 
HETATM    2  N2  UNL     1      -1.542  -1.203   1.630  1.00  0.00    -0.273 NA
HETATM    3  C5  UNL     1      -2.847  -1.104   1.285  1.00  0.00     0.069 C 
HETATM    4  C6  UNL     1      -4.046  -1.044   0.917  1.00  0.00    -0.040 C 
HETATM    5  C7  UNL     1      -5.044  -1.375  -0.009  1.00  0.00    -0.068 C 
HETATM    6  B1  UNL     1      -4.233  -2.668  -1.234  1.00  0.00     0.222 B 
HETATM    7  C8  UNL     1      -2.283  -2.821  -0.432  1.00  0.00     0.024 C 
HETATM    8  N3  UNL     1      -1.065  -3.025   0.134  1.00  0.00    -0.307 NA
HETATM    9  C9  UNL     1      -0.071  -1.984  -0.115  1.00  0.00     0.165 A 
HETATM   10  C10 UNL     1       0.673  -1.188   0.942  1.00  0.00     0.089 A 
HETATM   11  C11 UNL     1       0.445  -0.221   1.920  1.00  0.00     0.059 C 
HETATM   12  C12 UNL     1      -0.436   0.743   2.674  1.00  0.00     0.033 C 
HETATM   13  C13 UNL     1      -1.715   1.109   2.803  1.00  0.00     0.002 C 
HETATM   14  C14 UNL     1      -3.136   0.941   2.453  1.00  0.00     0.001 C 
HETATM   15  C15 UNL     1      -4.058   0.198   1.764  1.00  0.00     0.011 C 
HETATM   16  H8  UNL     1      -1.842  -0.875   0.731  1.00  0.00     0.178 HD
ENDROOT
BRANCH   1  17
HETATM   17  N1  UNL     1      -0.937   0.332  -0.264  1.00  0.00    -0.402 N 
HETATM   18  H7  UNL     1      -1.942   0.241  -0.586  1.00  0.00     0.155 HD
BRANCH  17  19
HETATM   19  C3  UNL     1      -0.087   0.792  -1.239  1.00  0.00     0.121 C 
HETATM   20  C2  UNL     1       1.156   1.517  -1.122  1.00  0.00     0.027 C 
HETATM   21  C1  UNL     1       1.045   2.866  -0.394  1.00  0.00     0.013 C 
BRANCH  20  22
HETATM   22  C16 UNL     1       2.437   0.891  -0.771  1.00  0.00     0.278 C 
BRANCH  22  23
HETATM   23  N4  UNL     1       2.709  -0.393  -1.356  1.00  0.00     0.088 N 
HETATM   24  C17 UNL     1       2.903  -0.404  -2.780  1.00  0.00     0.274 C 
HETATM   25  C18 UNL     1       4.388  -0.343  -2.601  1.00  0.00     0.060 C 
HETATM   26  C19 UNL     1       4.095  -0.773  -1.193  1.00  0.00     0.274 C 
ENDBRANCH  22  23
ENDBRANCH  20  22
ENDBRANCH  17  19
ENDBRANCH   1  17
BRANCH  11  27
HETATM   27  O1  UNL     1       1.759  -0.334   2.447  1.00  0.00    -0.364 OA
HETATM   28  H13 UNL     1       1.804  -0.748   3.393  1.00  0.00     0.217 HD
ENDBRANCH  11  27
TORSDOF 5
