REMARK  6 active torsions:
REMARK  status: ('A' for Active; 'I' for Inactive)
REMARK    1  A    between atoms: O1_1  and  N1_2 
REMARK    2  A    between atoms: N1_2  and  C1_3 
REMARK    3  A    between atoms: N4_7  and  C3_8 
REMARK    4  A    between atoms: C4_9  and  C5_10 
REMARK    5  A    between atoms: C12_17  and  C13_18 
REMARK    6  A    between atoms: C13_18  and  N5_19 
ROOT
HETATM    1  C1  UNL     1       1.068   3.632  -0.099  1.00  0.00     0.167 C 
HETATM    2  N2  UNL     1       0.039   3.949   0.653  1.00  0.00    -0.158 NA
HETATM    3  N3  UNL     1      -0.981   3.085   1.126  1.00  0.00    -0.294 N 
HETATM    4  C2  UNL     1      -1.788   2.024   0.539  1.00  0.00     0.266 C 
HETATM    5  N4  UNL     1      -1.051   0.803   0.297  1.00  0.00    -0.364 N 
HETATM    6  C10 UNL     1       0.347   0.447   0.465  1.00  0.00     0.116 A 
HETATM    7  C11 UNL     1       0.769  -0.867  -0.155  1.00  0.00     0.040 A 
HETATM    8  C12 UNL     1       1.730  -0.130  -0.979  1.00  0.00     0.047 A 
HETATM    9  C17 UNL     1       1.259   1.186  -0.430  1.00  0.00    -0.048 A 
HETATM   10  C18 UNL     1       1.637   2.428  -0.747  1.00  0.00     0.059 C 
HETATM   11  H3  UNL     1      -1.259   3.199   2.149  1.00  0.00     0.184 HD
ENDROOT
BRANCH   5  12
HETATM   12  C3  UNL     1      -2.162   0.011  -0.191  1.00  0.00     0.088 C 
HETATM   13  C4  UNL     1      -3.070  -0.476   0.672  1.00  0.00     0.024 C 
BRANCH  13  14
HETATM   14  C5  UNL     1      -4.194  -1.275   0.192  1.00  0.00    -0.053 A 
HETATM   15  C6  UNL     1      -4.371  -1.551  -1.090  1.00  0.00     0.007 A 
HETATM   16  C7  UNL     1      -5.573  -2.366  -1.282  1.00  0.00    -0.003 A 
HETATM   17  C8  UNL     1      -6.100  -2.561  -0.074  1.00  0.00    -0.022 A 
HETATM   18  C9  UNL     1      -5.267  -1.882   0.982  1.00  0.00     0.065 A 
ENDBRANCH  13  14
ENDBRANCH   5  12
BRANCH   8  19
HETATM   19  C13 UNL     1       3.177  -0.309  -0.668  1.00  0.00     0.281 C 
BRANCH  19  20
HETATM   20  N5  UNL     1       3.585  -1.672  -0.803  1.00  0.00     0.089 N 
HETATM   21  C14 UNL     1       5.049  -1.831  -0.752  1.00  0.00     0.274 C 
HETATM   22  C15 UNL     1       4.840  -2.945   0.236  1.00  0.00     0.060 C 
HETATM   23  C16 UNL     1       3.386  -2.487   0.391  1.00  0.00     0.274 C 
ENDBRANCH  19  20
ENDBRANCH   8  19
BRANCH   1  24
HETATM   24  N1  UNL     1       1.884   4.781  -0.374  1.00  0.00    -0.250 N 
HETATM   25  H2  UNL     1       2.857   4.584  -0.698  1.00  0.00     0.196 HD
BRANCH  24  26
HETATM   26  O1  UNL     1       1.312   6.014  -0.187  1.00  0.00    -0.288 OA
HETATM   27  H1  UNL     1       0.367   6.010  -0.509  1.00  0.00     0.244 HD
ENDBRANCH  24  26
ENDBRANCH   1  24
TORSDOF 6
