REMARK  8 active torsions:
REMARK  status: ('A' for Active; 'I' for Inactive)
REMARK    1  A    between atoms: C2_2  and  C3_3 
REMARK    2  A    between atoms: C12_14  and  C13_15 
REMARK    3  A    between atoms: C13_15  and  C14_16 
REMARK    4  A    between atoms: C14_16  and  C15_17 
REMARK    5  A    between atoms: C15_17  and  O1_18 
REMARK    6  A    between atoms: O1_18  and  C16_19 
REMARK    7  A    between atoms: C16_19  and  C17_20 
REMARK    8  A    between atoms: C22_26  and  N3_27 
ROOT
HETATM    1  C3  UNL     1      -4.448  -2.321  -0.201  1.00  0.00     0.081 C 
HETATM    2  C4  UNL     1      -4.562  -2.183   1.303  1.00  0.00     0.046 C 
HETATM    3  C5  UNL     1      -4.362  -0.739   1.771  1.00  0.00     0.270 C 
HETATM    4  N1  UNL     1      -5.309   0.149   1.278  1.00  0.00     0.083 N 
HETATM    5  C6  UNL     1      -5.201   1.504   1.574  1.00  0.00     0.274 C 
HETATM    6  C7  UNL     1      -4.226   2.388   0.921  1.00  0.00     0.017 C 
HETATM    7  C8  UNL     1      -3.980   2.072  -0.548  1.00  0.00     0.032 C 
HETATM    8  C9  UNL     1      -2.534   2.300  -0.303  1.00  0.00     0.092 C 
HETATM    9  C10 UNL     1      -2.777   2.231   1.187  1.00  0.00     0.032 C 
HETATM   10  N2  UNL     1      -1.681   1.243  -0.721  1.00  0.00    -0.336 N 
HETATM   11  C11 UNL     1      -0.389   1.397  -1.150  1.00  0.00     0.101 A 
HETATM   12  C12 UNL     1       0.158   0.183  -1.499  1.00  0.00    -0.021 A 
HETATM   13  C21 UNL     1      -0.835  -0.720  -1.272  1.00  0.00     0.064 A 
HETATM   14  C22 UNL     1      -0.871  -2.079  -1.437  1.00  0.00     0.138 A 
HETATM   15  N4  UNL     1      -2.012  -2.757  -1.126  1.00  0.00    -0.215 NA
HETATM   16  C23 UNL     1      -3.068  -2.042  -0.665  1.00  0.00     0.138 A 
HETATM   17  N5  UNL     1      -3.000  -0.718  -0.517  1.00  0.00    -0.214 NA
HETATM   18  C24 UNL     1      -1.916  -0.048  -0.808  1.00  0.00     0.146 A 
HETATM   19  H9  UNL     1      -6.270  -0.184   1.530  1.00  0.00     0.315 HD
ENDROOT
BRANCH  12  20
HETATM   20  C13 UNL     1       1.508  -0.101  -2.012  1.00  0.00     0.070 C 
BRANCH  20  21
HETATM   21  C14 UNL     1       2.421  -0.698  -1.006  1.00  0.00     0.002 C 
BRANCH  21  22
HETATM   22  C15 UNL     1       3.521  -0.069  -0.686  1.00  0.00     0.131 C 
BRANCH  22  23
HETATM   23  O1  UNL     1       4.721   0.422  -0.207  1.00  0.00    -0.361 OA
BRANCH  23  24
HETATM   24  C16 UNL     1       5.754  -0.453   0.231  1.00  0.00     0.206 C 
BRANCH  24  25
HETATM   25  C17 UNL     1       7.024   0.282   0.504  1.00  0.00     0.145 C 
HETATM   26  C18 UNL     1       6.856   1.150   1.756  1.00  0.00     0.036 C 
HETATM   27  C19 UNL     1       8.316   1.406   2.088  1.00  0.00     0.029 C 
HETATM   28  C20 UNL     1       9.001   0.190   1.517  1.00  0.00     0.168 C 
HETATM   29  O2  UNL     1       8.027  -0.592   0.926  1.00  0.00    -0.384 OA
ENDBRANCH  24  25
ENDBRANCH  23  24
ENDBRANCH  22  23
ENDBRANCH  21  22
ENDBRANCH  20  21
ENDBRANCH  12  20
BRANCH  14  30
HETATM   30  N3  UNL     1       0.195  -2.877  -1.912  1.00  0.00    -0.383 N 
HETATM   31  H32 UNL     1       0.646  -3.143  -2.837  1.00  0.00     0.157 HD
HETATM   32  H33 UNL     1       0.850  -3.454  -1.338  1.00  0.00     0.157 HD
ENDBRANCH  14  30
BRANCH   1  33
HETATM   33  C2  UNL     1      -5.457  -1.551  -0.939  1.00  0.00    -0.025 C 
HETATM   34  C1  UNL     1      -5.157  -1.606  -2.227  1.00  0.00     0.008 C 
ENDBRANCH   1  33
TORSDOF 8
