REMARK  6 active torsions:
REMARK  status: ('A' for Active; 'I' for Inactive)
REMARK    1  A    between atoms: C3_3  and  C4_4 
REMARK    2  A    between atoms: C4_4  and  O1_5 
REMARK    3  A    between atoms: C4_4  and  C5_6 
REMARK    4  A    between atoms: C9_11  and  C10_12 
REMARK    5  A    between atoms: C10_12  and  N2_13 
REMARK    6  A    between atoms: C17_21  and  N4_22 
ROOT
HETATM    1  C1  UNL     1       7.124  -0.112   0.997  1.00  0.00     0.112 C 
HETATM    2  C2  UNL     1       5.848   0.549   0.706  1.00  0.00    -0.108 C 
HETATM    3  C3  UNL     1       4.800   1.101   0.447  1.00  0.00    -0.070 C 
ENDROOT
BRANCH   3   4
HETATM    4  C4  UNL     1       3.519   1.776   0.123  1.00  0.00     0.230 C 
BRANCH   4   5
HETATM    5  O1  UNL     1       3.682   2.652  -0.946  1.00  0.00    -0.379 OA
HETATM    6  H5  UNL     1       4.659   2.794  -1.130  1.00  0.00     0.211 HD
ENDBRANCH   4   5
BRANCH   4   7
HETATM    7  C5  UNL     1       2.527   0.708  -0.172  1.00  0.00     0.022 C 
HETATM    8  C6  UNL     1       1.401   0.576   0.548  1.00  0.00     0.041 C 
HETATM    9  N1  UNL     1       0.407   0.849   1.561  1.00  0.00    -0.379 N 
HETATM   10  C15 UNL     1       0.513  -0.559   0.124  1.00  0.00     0.185 C 
HETATM   11  C7  UNL     1      -0.550   0.344   0.660  1.00  0.00     0.059 C 
HETATM   12  H6  UNL     1       0.740   1.270   2.475  1.00  0.00     0.160 HD
HETATM   13  C8  UNL     1      -1.258   1.223  -0.288  1.00  0.00     0.040 C 
HETATM   14  C14 UNL     1      -1.813  -0.273   1.164  1.00  0.00     0.040 C 
HETATM   15  C9  UNL     1      -2.549   0.851   0.462  1.00  0.00     0.019 C 
HETATM   16  N3  UNL     1       0.467  -0.714  -1.293  1.00  0.00    -0.289 NA
HETATM   17  C16 UNL     1       1.522  -0.559  -1.971  1.00  0.00     0.124 C 
HETATM   18  C17 UNL     1       2.830  -0.214  -1.300  1.00  0.00     0.292 C 
BRANCH  15  19
HETATM   19  C10 UNL     1      -3.585   0.352  -0.521  1.00  0.00     0.277 C 
BRANCH  19  20
HETATM   20  N2  UNL     1      -4.791   0.011   0.148  1.00  0.00     0.088 N 
HETATM   21  C11 UNL     1      -4.697  -1.153   1.002  1.00  0.00     0.274 C 
HETATM   22  C12 UNL     1      -6.201  -1.345   0.714  1.00  0.00     0.060 C 
HETATM   23  C13 UNL     1      -5.770  -0.731  -0.621  1.00  0.00     0.274 C 
ENDBRANCH  19  20
ENDBRANCH  15  19
BRANCH  18  24
HETATM   24  N4  UNL     1       3.445  -1.444  -0.879  1.00  0.00     0.092 N 
HETATM   25  H23 UNL     1       3.147  -2.280  -1.447  1.00  0.00     0.314 HD
HETATM   26  H24 UNL     1       3.382  -1.645   0.130  1.00  0.00     0.314 HD
ENDBRANCH  18  24
ENDBRANCH   4   7
ENDBRANCH   3   4
TORSDOF 6
