REMARK  0 active torsions:
REMARK  status: ('A' for Active; 'I' for Inactive)
ROOT
HETATM    1  C1  UNL     1      -5.488  -1.228  -0.380  1.00  0.00     0.043 C 
HETATM    2  C2  UNL     1      -3.980  -1.249  -0.593  1.00  0.00     0.221 C 
HETATM    3  C3  UNL     1      -3.378  -0.201   0.282  1.00  0.00     0.063 C 
HETATM    4  C4  UNL     1      -1.894  -0.242   0.408  1.00  0.00     0.115 C 
HETATM    5  C5  UNL     1      -1.384  -1.398  -0.448  1.00  0.00     0.164 C 
HETATM    6  N1  UNL     1      -0.028  -1.512  -0.597  1.00  0.00    -0.292 NA
HETATM    7  C6  UNL     1       0.912  -2.263  -0.832  1.00  0.00     0.111 C 
HETATM    8  C7  UNL     1       2.365  -2.156  -0.947  1.00  0.00     0.024 C 
HETATM    9  C8  UNL     1       3.323  -1.252  -0.859  1.00  0.00    -0.047 C 
HETATM   10  C9  UNL     1       4.675  -1.905  -1.112  1.00  0.00     0.039 C 
HETATM   11  C10 UNL     1       5.575  -1.570   0.030  1.00  0.00     0.030 C 
HETATM   12  C11 UNL     1       6.039  -0.158   0.104  1.00  0.00     0.168 C 
HETATM   13  O1  UNL     1       5.239   0.680   0.852  1.00  0.00    -0.388 OA
HETATM   14  C12 UNL     1       3.891   0.373   0.814  1.00  0.00     0.204 C 
HETATM   15  C13 UNL     1       3.353   0.203  -0.575  1.00  0.00     0.180 C 
HETATM   16  O2  UNL     1       2.211   0.923  -0.867  1.00  0.00    -0.351 OA
HETATM   17  C14 UNL     1       1.977   2.268  -0.656  1.00  0.00     0.145 C 
HETATM   18  C15 UNL     1       0.663   2.338  -0.361  1.00  0.00    -0.008 C 
HETATM   19  C16 UNL     1       0.119   0.931  -0.410  1.00  0.00     0.166 C 
HETATM   20  N2  UNL     1      -1.233   0.999   0.049  1.00  0.00    -0.354 N 
HETATM   21  C17 UNL     1      -1.555   2.366   0.017  1.00  0.00     0.132 C 
HETATM   22  C18 UNL     1      -0.493   3.152  -0.009  1.00  0.00    -0.002 C 
HETATM   23  C19 UNL     1      -0.377   4.594   0.257  1.00  0.00     0.048 C 
HETATM   24  C20 UNL     1      -1.690   5.259  -0.061  1.00  0.00     0.051 C 
HETATM   25  C21 UNL     1      -2.858   4.347  -0.029  1.00  0.00     0.092 C 
HETATM   26  N3  UNL     1      -2.829   3.035   0.006  1.00  0.00    -0.247 NA
HETATM   27  C22 UNL     1      -2.082  -2.655  -0.077  1.00  0.00     0.251 C 
HETATM   28  C23 UNL     1      -2.341  -2.991   1.333  1.00  0.00     0.068 C 
HETATM   29  C24 UNL     1      -3.766  -3.246   0.823  1.00  0.00     0.275 C 
HETATM   30  N4  UNL     1      -3.487  -2.575  -0.408  1.00  0.00     0.099 N 
ENDROOT
TORSDOF 0
