REMARK  2 active torsions:
REMARK  status: ('A' for Active; 'I' for Inactive)
REMARK    1  A    between atoms: N1_1  and  C1_2 
REMARK    2  A    between atoms: C10_13  and  O1_14 
ROOT
HETATM    1  C1  UNL     1       1.606  -1.638   1.075  1.00  0.00     0.292 C 
HETATM    2  C2  UNL     1       1.004  -1.762   2.463  1.00  0.00     0.128 C 
HETATM    3  N2  UNL     1      -0.018  -2.555   2.268  1.00  0.00    -0.273 NA
HETATM    4  P1  UNL     1      -0.229  -3.096   0.545  1.00  0.00     0.030 P 
HETATM    5  C3  UNL     1      -0.487  -1.490  -0.354  1.00  0.00     0.009 C 
HETATM    6  C4  UNL     1       0.631  -1.020   0.162  1.00  0.00     0.003 C 
HETATM    7  C5  UNL     1       0.972   0.345  -0.207  1.00  0.00    -0.001 C 
HETATM    8  C6  UNL     1       2.032   0.529  -1.163  1.00  0.00    -0.021 A 
HETATM    9  C7  UNL     1       2.665  -0.495  -1.798  1.00  0.00     0.012 A 
HETATM   10  C8  UNL     1       3.689  -0.370  -2.705  1.00  0.00     0.004 A 
HETATM   11  C9  UNL     1       4.144   0.893  -3.026  1.00  0.00     0.036 A 
HETATM   12  C10 UNL     1       3.549   1.994  -2.420  1.00  0.00     0.066 A 
HETATM   13  C11 UNL     1       2.538   1.777  -1.531  1.00  0.00     0.048 A 
HETATM   14  C12 UNL     1       0.381   1.396   0.301  1.00  0.00     0.098 C 
HETATM   15  N3  UNL     1      -0.625   1.647   1.224  1.00  0.00    -0.389 N 
HETATM   16  C13 UNL     1      -0.756   1.523   2.648  1.00  0.00     0.122 C 
HETATM   17  C14 UNL     1      -2.112   0.863   2.894  1.00  0.00     0.027 C 
HETATM   18  C15 UNL     1      -2.812   1.057   1.564  1.00  0.00     0.033 C 
HETATM   19  C16 UNL     1      -1.975   2.171   0.970  1.00  0.00     0.128 C 
HETATM   20  C17 UNL     1      -2.636  -0.138   0.680  1.00  0.00     0.279 C 
HETATM   21  N4  UNL     1      -2.179   0.240  -0.644  1.00  0.00     0.098 N 
HETATM   22  C18 UNL     1      -3.220  -0.106  -1.612  1.00  0.00     0.276 C 
HETATM   23  C19 UNL     1      -2.665  -1.514  -1.554  1.00  0.00     0.071 C 
HETATM   24  C20 UNL     1      -1.361  -0.757  -1.259  1.00  0.00     0.260 C 
HETATM   25  H5  UNL     1      -1.375  -3.954   0.435  1.00  0.00     0.087 HD
ENDROOT
BRANCH   1  26
HETATM   26  N1  UNL     1       1.999  -2.994   0.676  1.00  0.00     0.092 N 
HETATM   27  H1  UNL     1       2.181  -3.562   1.553  1.00  0.00     0.314 HD
HETATM   28  H2  UNL     1       2.931  -2.915   0.211  1.00  0.00     0.314 HD
ENDBRANCH   1  26
BRANCH  12  29
HETATM   29  O1  UNL     1       4.022   3.246  -2.758  1.00  0.00    -0.361 OA
HETATM   30  H9  UNL     1       3.349   4.012  -2.677  1.00  0.00     0.217 HD
ENDBRANCH  12  29
TORSDOF 2
