REMARK  7 active torsions:
REMARK  status: ('A' for Active; 'I' for Inactive)
REMARK    1  A    between atoms: C2_2  and  C3_3 
REMARK    2  A    between atoms: C7_8  and  C8_9 
REMARK    3  A    between atoms: N1_14  and  C12_15 
REMARK    4  A    between atoms: C14_17  and  B1_18 
REMARK    5  A    between atoms: B1_18  and  C15_19 
REMARK    6  A    between atoms: C15_19  and  N2_20 
REMARK    7  A    between atoms: C21_28  and  N5_29 
ROOT
HETATM    1  C3  UNL     1      -4.233   2.226   1.314  1.00  0.00     0.007 C 
HETATM    2  C4  UNL     1      -3.376   1.348   0.828  1.00  0.00    -0.052 C 
HETATM    3  C5  UNL     1      -3.793  -0.042   0.709  1.00  0.00     0.031 C 
HETATM    4  C6  UNL     1      -3.053  -1.016   0.247  1.00  0.00     0.138 C 
HETATM    5  O1  UNL     1      -2.134  -1.879  -0.258  1.00  0.00    -0.335 OA
HETATM    6  C7  UNL     1      -0.745  -1.822   0.000  1.00  0.00     0.259 C 
HETATM    7  N1  UNL     1      -0.167  -0.675  -0.672  1.00  0.00    -0.332 N 
HETATM    8  C19 UNL     1      -0.937   0.269  -1.418  1.00  0.00     0.140 A 
HETATM    9  N3  UNL     1      -0.727  -0.019  -2.714  1.00  0.00    -0.224 NA
HETATM   10  C20 UNL     1      -1.310   0.695  -3.718  1.00  0.00     0.237 A 
HETATM   11  N4  UNL     1      -2.124   1.721  -3.410  1.00  0.00    -0.224 NA
HETATM   12  C21 UNL     1      -2.311   1.979  -2.104  1.00  0.00     0.133 A 
HETATM   13  C22 UNL     1      -1.759   1.306  -1.040  1.00  0.00     0.037 A 
HETATM   14  C23 UNL     1      -1.992   1.631   0.376  1.00  0.00     0.085 C 
ENDROOT
BRANCH   7  15
HETATM   15  C12 UNL     1       1.231  -0.494  -0.582  1.00  0.00     0.083 A 
HETATM   16  C13 UNL     1       1.794   0.707  -1.280  1.00  0.00     0.021 A 
HETATM   17  C14 UNL     1       1.907   0.548   0.202  1.00  0.00    -0.030 A 
BRANCH  17  18
HETATM   18  B1  UNL     1       3.406   0.311   0.666  1.00  0.00     0.198 B 
HETATM   19  H19 UNL     1       4.244   0.999   0.173  1.00  0.00    -0.024 HD
BRANCH  18  20
HETATM   20  C15 UNL     1       3.814  -0.574   1.895  1.00  0.00     0.211 C 
BRANCH  20  21
HETATM   21  N2  UNL     1       4.982  -0.020   2.555  1.00  0.00     0.080 N 
HETATM   22  C16 UNL     1       6.153   0.083   1.742  1.00  0.00     0.273 C 
HETATM   23  C17 UNL     1       6.267   1.569   1.955  1.00  0.00     0.060 C 
HETATM   24  C18 UNL     1       4.952   1.429   2.664  1.00  0.00     0.273 C 
ENDBRANCH  20  21
ENDBRANCH  18  20
ENDBRANCH  17  18
ENDBRANCH   7  15
BRANCH   6  25
HETATM   25  C8  UNL     1      -0.189  -3.132  -0.502  1.00  0.00     0.170 C 
HETATM   26  C9  UNL     1      -0.443  -3.344  -1.960  1.00  0.00     0.038 C 
HETATM   27  C10 UNL     1      -0.781  -4.832  -1.979  1.00  0.00     0.029 C 
HETATM   28  C11 UNL     1      -1.448  -4.990  -0.648  1.00  0.00     0.168 C 
HETATM   29  O2  UNL     1      -0.816  -4.144   0.212  1.00  0.00    -0.381 OA
ENDBRANCH   6  25
BRANCH  12  30
HETATM   30  N5  UNL     1      -3.185   3.084  -1.802  1.00  0.00    -0.383 N 
HETATM   31  H29 UNL     1      -2.747   3.760  -1.108  1.00  0.00     0.157 HD
HETATM   32  H30 UNL     1      -4.131   3.172  -2.236  1.00  0.00     0.157 HD
ENDBRANCH  12  30
BRANCH   1  33
HETATM   33  C2  UNL     1      -3.993   3.630   1.501  1.00  0.00    -0.010 C 
HETATM   34  C1  UNL     1      -4.855   4.496   1.987  1.00  0.00     0.011 C 
ENDBRANCH   1  33
TORSDOF 7
