REMARK  4 active torsions:
REMARK  status: ('A' for Active; 'I' for Inactive)
REMARK    1  A    between atoms: C2_2  and  C3_3 
REMARK    2  A    between atoms: C10_11  and  N2_12 
REMARK    3  A    between atoms: C10_11  and  N3_14 
REMARK    4  A    between atoms: N3_14  and  C12_15 
ROOT
HETATM    1  C3  UNL     1       4.375   0.008  -0.032  1.00  0.00    -0.036 A 
HETATM    2  C4  UNL     1       4.132   0.823  -1.124  1.00  0.00     0.013 A 
HETATM    3  C5  UNL     1       2.794   0.914  -1.503  1.00  0.00     0.033 A 
HETATM    4  C6  UNL     1       1.744   0.249  -0.858  1.00  0.00     0.064 A 
HETATM    5  C7  UNL     1       2.122  -0.531   0.216  1.00  0.00    -0.001 A 
HETATM    6  C8  UNL     1       3.404  -0.682   0.661  1.00  0.00     0.022 A 
HETATM    7  C9  UNL     1       1.117  -1.314   1.021  1.00  0.00     0.316 C 
HETATM    8  N1  UNL     1       0.017  -0.434   1.286  1.00  0.00     0.142 N 
HETATM    9  C10 UNL     1      -1.059  -0.481   0.324  1.00  0.00     0.334 C 
HETATM   10  C18 UNL     1      -0.677   0.215  -0.947  1.00  0.00     0.176 C 
HETATM   11  N4  UNL     1       0.486   0.533  -1.465  1.00  0.00    -0.258 NA
HETATM   12  H9  UNL     1       0.331   0.552   1.463  1.00  0.00     0.322 HD
ENDROOT
BRANCH   9  13
HETATM   13  N2  UNL     1      -1.469  -1.817   0.149  1.00  0.00    -0.376 NA
HETATM   14  C11 UNL     1      -1.223  -2.603  -0.806  1.00  0.00     0.312 C 
ENDBRANCH   9  13
BRANCH   9  15
HETATM   15  N3  UNL     1      -2.141   0.322   0.892  1.00  0.00    -0.335 N 
HETATM   16  H12 UNL     1      -1.990   0.825   1.821  1.00  0.00     0.164 HD
BRANCH  15  17
HETATM   17  C12 UNL     1      -3.443   0.555   0.375  1.00  0.00     0.031 A 
HETATM   18  C13 UNL     1      -4.350   1.420   0.973  1.00  0.00     0.029 A 
HETATM   19  C14 UNL     1      -5.610   1.638   0.473  1.00  0.00     0.002 A 
HETATM   20  C15 UNL     1      -6.051   1.002  -0.666  1.00  0.00     0.000 A 
HETATM   21  C16 UNL     1      -5.182   0.132  -1.296  1.00  0.00     0.002 A 
HETATM   22  C17 UNL     1      -3.935  -0.051  -0.756  1.00  0.00     0.029 A 
ENDBRANCH  15  17
ENDBRANCH   9  15
BRANCH   1  23
HETATM   23  C2  UNL     1       5.770  -0.096   0.379  1.00  0.00     0.001 C 
HETATM   24  C1  UNL     1       6.727   0.551  -0.261  1.00  0.00     0.012 C 
ENDBRANCH   1  23
TORSDOF 4
