REMARK  8 active torsions:
REMARK  status: ('A' for Active; 'I' for Inactive)
REMARK    1  A    between atoms: N1_1  and  C1_2 
REMARK    2  A    between atoms: C5_8  and  C6_9 
REMARK    3  A    between atoms: C6_9  and  C7_10 
REMARK    4  A    between atoms: C8_11  and  O1_12 
REMARK    5  A    between atoms: O1_12  and  C9_13 
REMARK    6  A    between atoms: C9_13  and  C10_14 
REMARK    7  A    between atoms: N4_23  and  C18_24 
REMARK    8  A    between atoms: C20_26  and  C21_27 
ROOT
HETATM    1  C1  UNL     1       0.333   1.796   1.482  1.00  0.00     0.137 A 
HETATM    2  N2  UNL     1      -0.226   2.977   1.785  1.00  0.00    -0.224 NA
HETATM    3  C2  UNL     1      -1.387   3.324   1.193  1.00  0.00     0.237 A 
HETATM    4  N3  UNL     1      -2.012   2.534   0.307  1.00  0.00    -0.223 NA
HETATM    5  C3  UNL     1      -1.500   1.362  -0.023  1.00  0.00     0.146 A 
HETATM    6  C4  UNL     1      -0.316   1.001   0.575  1.00  0.00     0.068 A 
HETATM    7  C5  UNL     1       0.111  -0.236   0.156  1.00  0.00     0.009 A 
HETATM    8  C17 UNL     1      -0.887  -0.635  -0.749  1.00  0.00     0.106 A 
HETATM    9  N4  UNL     1      -1.818   0.333  -0.827  1.00  0.00    -0.335 N 
ENDROOT
BRANCH   7  10
HETATM   10  C6  UNL     1       1.241  -1.130   0.370  1.00  0.00    -0.011 C 
HETATM   11  C14 UNL     1       1.135  -2.456   0.598  1.00  0.00    -0.025 A 
HETATM   12  C15 UNL     1       1.375  -3.855   0.856  1.00  0.00     0.013 A 
HETATM   13  C16 UNL     1       0.087  -3.471   0.720  1.00  0.00     0.013 A 
BRANCH  10  14
HETATM   14  C7  UNL     1       2.646  -0.749   0.329  1.00  0.00     0.037 C 
HETATM   15  C8  UNL     1       3.694   0.044   0.203  1.00  0.00     0.135 C 
BRANCH  15  16
HETATM   16  O1  UNL     1       5.049   0.376   0.170  1.00  0.00    -0.360 OA
BRANCH  16  17
HETATM   17  C9  UNL     1       5.812  -0.189   1.229  1.00  0.00     0.206 C 
BRANCH  17  18
HETATM   18  C10 UNL     1       7.273   0.043   1.061  1.00  0.00     0.145 C 
HETATM   19  C11 UNL     1       7.791  -0.637  -0.187  1.00  0.00     0.036 C 
HETATM   20  C12 UNL     1       8.976   0.246  -0.525  1.00  0.00     0.029 C 
HETATM   21  C13 UNL     1       8.453   1.592  -0.079  1.00  0.00     0.168 C 
HETATM   22  O2  UNL     1       7.669   1.349   1.014  1.00  0.00    -0.384 OA
ENDBRANCH  17  18
ENDBRANCH  16  17
ENDBRANCH  15  16
ENDBRANCH  10  14
ENDBRANCH   7  10
BRANCH   1  23
HETATM   23  N1  UNL     1       1.542   1.438   2.128  1.00  0.00    -0.383 N 
HETATM   24  H1  UNL     1       2.447   1.956   2.053  1.00  0.00     0.157 HD
HETATM   25  H2  UNL     1       1.613   0.604   2.745  1.00  0.00     0.157 HD
ENDBRANCH   1  23
BRANCH   9  26
HETATM   26  C18 UNL     1      -2.976   0.221  -1.666  1.00  0.00     0.092 C 
HETATM   27  C19 UNL     1      -4.114  -0.581  -1.072  1.00  0.00     0.032 C 
HETATM   28  C20 UNL     1      -5.072   0.433  -1.640  1.00  0.00     0.007 C 
HETATM   29  C25 UNL     1      -3.878   1.390  -1.784  1.00  0.00     0.032 C 
BRANCH  28  30
HETATM   30  C21 UNL     1      -6.092   0.966  -0.632  1.00  0.00     0.121 C 
HETATM   31  N5  UNL     1      -6.864  -0.038  -0.127  1.00  0.00    -0.412 N 
HETATM   32  C22 UNL     1      -7.898  -0.034   0.784  1.00  0.00     0.118 A 
HETATM   33  C24 UNL     1      -6.867  -1.384  -0.405  1.00  0.00     0.118 A 
HETATM   34  C23 UNL     1      -8.092  -1.541   0.524  1.00  0.00     0.039 A 
ENDBRANCH  28  30
ENDBRANCH   9  26
TORSDOF 8
