REMARK  9 active torsions:
REMARK  status: ('A' for Active; 'I' for Inactive)
REMARK    1  A    between atoms: N1_2  and  C2_3 
REMARK    2  A    between atoms: N1_2  and  C16_22 
REMARK    3  A    between atoms: C4_7  and  N4_8 
REMARK    4  A    between atoms: C5_9  and  C6_10 
REMARK    5  A    between atoms: C10_14  and  O1_15 
REMARK    6  A    between atoms: O1_15  and  C11_16 
REMARK    7  A    between atoms: C11_16  and  C12_17 
REMARK    8  A    between atoms: C18_24  and  C19_25 
REMARK    9  A    between atoms: C19_25  and  N5_26 
ROOT
HETATM    1  C2  UNL     1       0.438   1.749   1.109  1.00  0.00     0.141 A 
HETATM    2  N2  UNL     1       1.642   1.866   1.700  1.00  0.00    -0.224 NA
HETATM    3  C3  UNL     1       2.233   3.097   1.729  1.00  0.00     0.237 A 
HETATM    4  N3  UNL     1       1.594   4.136   1.169  1.00  0.00    -0.224 NA
HETATM    5  C4  UNL     1       0.404   3.924   0.604  1.00  0.00     0.137 A 
HETATM    6  C5  UNL     1      -0.291   2.736   0.511  1.00  0.00     0.064 A 
ENDROOT
BRANCH   6   7
HETATM    7  C6  UNL     1      -1.523   2.499  -0.218  1.00  0.00    -0.008 A 
HETATM    8  C7  UNL     1      -2.238   3.636  -0.326  1.00  0.00     0.011 A 
HETATM    9  C8  UNL     1      -3.472   3.439  -1.057  1.00  0.00    -0.001 A 
HETATM   10  C9  UNL     1      -3.481   2.165  -1.397  1.00  0.00     0.009 A 
HETATM   11  C10 UNL     1      -2.227   1.427  -0.908  1.00  0.00     0.178 A 
BRANCH  11  12
HETATM   12  O1  UNL     1      -2.708   0.417  -0.126  1.00  0.00    -0.375 OA
BRANCH  12  13
HETATM   13  C11 UNL     1      -2.606  -0.837  -0.731  1.00  0.00     0.200 C 
BRANCH  13  14
HETATM   14  C12 UNL     1      -3.090  -1.949   0.163  1.00  0.00     0.145 C 
HETATM   15  C13 UNL     1      -4.533  -1.744   0.580  1.00  0.00     0.036 C 
HETATM   16  C14 UNL     1      -5.222  -3.039   0.273  1.00  0.00     0.029 C 
HETATM   17  C15 UNL     1      -4.073  -3.958  -0.037  1.00  0.00     0.168 C 
HETATM   18  O2  UNL     1      -2.997  -3.194  -0.429  1.00  0.00    -0.384 OA
ENDBRANCH  13  14
ENDBRANCH  12  13
ENDBRANCH  11  12
ENDBRANCH   6   7
BRANCH   1  19
HETATM   19  N1  UNL     1       0.066   0.413   1.340  1.00  0.00    -0.365 N 
HETATM   20  C1  UNL     1      -0.937   0.445   2.420  1.00  0.00     0.151 C 
BRANCH  19  21
HETATM   21  C16 UNL     1       0.591  -0.773   0.701  1.00  0.00     0.086 C 
HETATM   22  C17 UNL     1       1.514  -0.621  -0.443  1.00  0.00     0.031 C 
HETATM   23  C18 UNL     1       2.557  -1.436   0.260  1.00  0.00     0.018 C 
HETATM   24  C23 UNL     1       1.777  -1.281   1.550  1.00  0.00     0.031 C 
BRANCH  23  25
HETATM   25  C19 UNL     1       3.940  -0.855   0.293  1.00  0.00     0.277 C 
BRANCH  25  26
HETATM   26  N5  UNL     1       4.409  -0.678  -1.059  1.00  0.00     0.088 N 
HETATM   27  C20 UNL     1       4.675  -1.842  -1.837  1.00  0.00     0.274 C 
HETATM   28  C21 UNL     1       6.130  -1.809  -1.411  1.00  0.00     0.060 C 
HETATM   29  C22 UNL     1       5.837  -0.362  -1.146  1.00  0.00     0.274 C 
ENDBRANCH  25  26
ENDBRANCH  23  25
ENDBRANCH  19  21
ENDBRANCH   1  19
BRANCH   5  30
HETATM   30  N4  UNL     1      -0.128   5.110   0.026  1.00  0.00    -0.383 N 
HETATM   31  H5  UNL     1      -0.149   5.009  -1.022  1.00  0.00     0.157 HD
HETATM   32  H6  UNL     1      -0.379   5.824   0.773  1.00  0.00     0.157 HD
ENDBRANCH   5  30
TORSDOF 9
