REMARK  3 active torsions:
REMARK  status: ('A' for Active; 'I' for Inactive)
REMARK    1  A    between atoms: C4_5  and  C5_6 
REMARK    2  A    between atoms: C5_6  and  N2_7 
REMARK    3  A    between atoms: C13_17  and  N5_18 
ROOT
HETATM    1  C5  UNL     1       1.314   0.245  -0.857  1.00  0.00     0.213 C 
HETATM    2  C6  UNL     1       1.596   1.122   0.277  1.00  0.00     0.066 C 
HETATM    3  C7  UNL     1       0.799   2.421   0.450  1.00  0.00     0.131 C 
HETATM    4  N3  UNL     1      -0.592   2.025   0.742  1.00  0.00    -0.358 N 
HETATM    5  C8  UNL     1      -1.770   1.968   0.037  1.00  0.00     0.103 A 
HETATM    6  C9  UNL     1      -2.516   1.275   0.960  1.00  0.00    -0.008 A 
HETATM    7  C10 UNL     1      -2.042   0.888   2.141  1.00  0.00     0.040 A 
HETATM    8  C11 UNL     1      -0.754   1.412   1.938  1.00  0.00     0.032 A 
HETATM    9  C12 UNL     1      -0.092   0.984   3.186  1.00  0.00     0.208 C 
HETATM   10  N4  UNL     1      -0.146  -0.450   3.353  1.00  0.00    -0.271 NA
HETATM   11  C13 UNL     1       0.093  -1.363   2.483  1.00  0.00     0.099 C 
HETATM   12  C14 UNL     1       0.432  -2.158   1.265  1.00  0.00     0.088 C 
HETATM   13  C15 UNL     1       1.752  -1.759   0.639  1.00  0.00     0.049 C 
HETATM   14  C16 UNL     1       1.417  -1.216  -0.712  1.00  0.00     0.163 C 
HETATM   15  O1  UNL     1       0.224  -1.945  -1.042  1.00  0.00    -0.375 OA
HETATM   16  C17 UNL     1      -0.544  -1.868   0.104  1.00  0.00     0.157 C 
HETATM   17  C18 UNL     1      -1.702  -2.725   0.300  1.00  0.00     0.208 C 
HETATM   18  O2  UNL     1      -2.848  -2.738  -0.462  1.00  0.00    -0.349 OA
HETATM   19  C19 UNL     1      -3.684  -1.691  -0.669  1.00  0.00     0.069 A 
HETATM   20  C20 UNL     1      -4.805  -1.213  -1.275  1.00  0.00     0.037 A 
HETATM   21  C21 UNL     1      -5.363   0.042  -1.241  1.00  0.00     0.004 A 
HETATM   22  C22 UNL     1      -4.810   1.110  -0.515  1.00  0.00     0.012 A 
HETATM   23  C23 UNL     1      -3.694   0.858   0.166  1.00  0.00    -0.022 A 
HETATM   24  C24 UNL     1      -3.366  -0.515  -0.057  1.00  0.00     0.049 A 
ENDROOT
BRANCH   1  25
HETATM   25  C4  UNL     1       2.192   0.762  -2.029  1.00  0.00     0.266 C 
HETATM   26  C2  UNL     1       3.671   0.715  -1.756  1.00  0.00     0.045 C 
HETATM   27  C1  UNL     1       4.467  -0.031  -2.823  1.00  0.00     0.014 C 
HETATM   28  C3  UNL     1       3.753   2.203  -1.958  1.00  0.00     0.276 C 
HETATM   29  N1  UNL     1       2.299   2.205  -2.008  1.00  0.00     0.091 N 
HETATM   30  H7  UNL     1       1.909   2.696  -2.826  1.00  0.00     0.316 HD
ENDBRANCH   1  25
BRANCH   1  31
HETATM   31  N2  UNL     1      -0.004   0.456  -1.506  1.00  0.00     0.092 N 
HETATM   32  H9  UNL     1      -0.005   1.339  -2.055  1.00  0.00     0.314 HD
HETATM   33  H10 UNL     1      -0.252  -0.373  -2.089  1.00  0.00     0.314 HD
ENDBRANCH   1  31
BRANCH  11  34
HETATM   34  N5  UNL     1      -0.249  -2.104   3.686  1.00  0.00    -0.387 N 
HETATM   35  H19 UNL     1      -0.492  -2.637   4.574  1.00  0.00     0.157 HD
HETATM   36  H20 UNL     1      -0.643  -2.842   4.343  1.00  0.00     0.157 HD
ENDBRANCH  11  34
TORSDOF 3
