REMARK  7 active torsions:
REMARK  status: ('A' for Active; 'I' for Inactive)
REMARK    1  A    between atoms: C2_2  and  C3_3 
REMARK    2  A    between atoms: C3_3  and  N1_4 
REMARK    3  A    between atoms: C5_6  and  C6_7 
REMARK    4  A    between atoms: C10_11  and  O1_12 
REMARK    5  A    between atoms: O1_12  and  C11_13 
REMARK    6  A    between atoms: C11_13  and  C12_14 
REMARK    7  A    between atoms: C18_21  and  N2_22 
ROOT
HETATM    1  N1  UNL     1      -4.366   0.075   0.176  1.00  0.00    -0.340 N 
HETATM    2  C4  UNL     1      -3.244   0.622  -0.300  1.00  0.00     0.106 A 
HETATM    3  C5  UNL     1      -2.217  -0.328  -0.376  1.00  0.00     0.008 A 
HETATM    4  C17 UNL     1      -2.819  -1.473   0.089  1.00  0.00     0.068 A 
HETATM    5  C18 UNL     1      -2.194  -2.698   0.198  1.00  0.00     0.137 A 
HETATM    6  N3  UNL     1      -2.910  -3.739   0.670  1.00  0.00    -0.224 NA
HETATM    7  C19 UNL     1      -4.211  -3.519   1.012  1.00  0.00     0.237 A 
HETATM    8  N4  UNL     1      -4.810  -2.297   0.895  1.00  0.00    -0.223 NA
HETATM    9  C20 UNL     1      -4.129  -1.226   0.426  1.00  0.00     0.146 A 
ENDROOT
BRANCH   3  10
HETATM   10  C6  UNL     1      -0.904   0.080  -0.854  1.00  0.00    -0.021 A 
HETATM   11  C7  UNL     1      -0.895   0.756  -2.077  1.00  0.00     0.012 A 
HETATM   12  C8  UNL     1       0.234   1.240  -2.706  1.00  0.00     0.004 A 
HETATM   13  C9  UNL     1       1.434   1.035  -2.073  1.00  0.00     0.037 A 
HETATM   14  C10 UNL     1       1.477   0.374  -0.866  1.00  0.00     0.069 A 
HETATM   15  C16 UNL     1       0.329  -0.096  -0.265  1.00  0.00     0.049 A 
BRANCH  14  16
HETATM   16  O1  UNL     1       2.689   0.167  -0.226  1.00  0.00    -0.349 OA
BRANCH  16  17
HETATM   17  C11 UNL     1       3.840   0.665  -0.877  1.00  0.00     0.207 C 
BRANCH  17  18
HETATM   18  C12 UNL     1       5.108   0.406  -0.131  1.00  0.00     0.145 C 
HETATM   19  C13 UNL     1       5.098   0.975   1.265  1.00  0.00     0.036 C 
HETATM   20  C14 UNL     1       6.328   0.297   1.851  1.00  0.00     0.029 C 
HETATM   21  C15 UNL     1       6.547  -0.848   0.864  1.00  0.00     0.168 C 
HETATM   22  O2  UNL     1       5.391  -0.922   0.089  1.00  0.00    -0.384 OA
ENDBRANCH  17  18
ENDBRANCH  16  17
ENDBRANCH  14  16
ENDBRANCH   3  10
BRANCH   1  23
HETATM   23  C3  UNL     1      -5.650   0.709   0.409  1.00  0.00     0.135 C 
BRANCH  23  24
HETATM   24  C2  UNL     1      -5.799   1.278   1.755  1.00  0.00     0.010 C 
HETATM   25  C1  UNL     1      -6.033   2.588   1.972  1.00  0.00     0.007 C 
ENDBRANCH  23  24
ENDBRANCH   1  23
BRANCH   5  26
HETATM   26  N2  UNL     1      -0.856  -2.940  -0.160  1.00  0.00    -0.383 N 
HETATM   27  H20 UNL     1      -0.311  -3.031  -1.057  1.00  0.00     0.157 HD
HETATM   28  H21 UNL     1      -0.276  -3.055   0.714  1.00  0.00     0.157 HD
ENDBRANCH   5  26
TORSDOF 7
