REMARK  7 active torsions:
REMARK  status: ('A' for Active; 'I' for Inactive)
REMARK    1  A    between atoms: C1_1  and  C8_10 
REMARK    2  A    between atoms: C2_2  and  O1_3 
REMARK    3  A    between atoms: O1_3  and  C3_4 
REMARK    4  A    between atoms: C3_4  and  C4_5 
REMARK    5  A    between atoms: C8_10  and  C9_11 
REMARK    6  A    between atoms: C9_11  and  C10_12 
REMARK    7  A    between atoms: C10_12  and  C11_13 
ROOT
HETATM    1  C10 UNL     1      -1.492  -0.722  -0.665  1.00  0.00     0.036 C 
ENDROOT
BRANCH   1   2
HETATM    2  C9  UNL     1      -0.379  -0.062   0.071  1.00  0.00     0.008 C 
BRANCH   2   3
HETATM    3  C8  UNL     1       0.962  -0.436  -0.558  1.00  0.00     0.029 C 
BRANCH   3   4
HETATM    4  C1  UNL     1       1.102  -1.909  -0.471  1.00  0.00    -0.003 C 
HETATM    5  C2  UNL     1       2.126  -2.387   0.211  1.00  0.00     0.130 C 
BRANCH   5   6
HETATM    6  O1  UNL     1       2.952  -1.405   0.766  1.00  0.00    -0.361 OA
BRANCH   6   7
HETATM    7  C3  UNL     1       4.322  -1.495   0.422  1.00  0.00     0.206 C 
BRANCH   7   8
HETATM    8  C4  UNL     1       5.045  -0.356   1.113  1.00  0.00     0.145 C 
HETATM    9  C5  UNL     1       4.484   0.987   0.706  1.00  0.00     0.036 C 
HETATM   10  C6  UNL     1       5.763   1.793   0.586  1.00  0.00     0.029 C 
HETATM   11  C7  UNL     1       6.683   0.706   0.026  1.00  0.00     0.168 C 
HETATM   12  O2  UNL     1       6.379  -0.396   0.814  1.00  0.00    -0.384 OA
ENDBRANCH   7   8
ENDBRANCH   6   7
ENDBRANCH   5   6
ENDBRANCH   3   4
ENDBRANCH   2   3
ENDBRANCH   1   2
BRANCH   1  13
HETATM   13  C11 UNL     1      -2.859  -0.408  -0.108  1.00  0.00    -0.063 C 
HETATM   14  C12 UNL     1      -2.969   0.386   0.964  1.00  0.00     0.087 C 
HETATM   15  N1  UNL     1      -4.050   0.910   1.776  1.00  0.00    -0.381 N 
HETATM   16  C13 UNL     1      -5.372   1.429   1.683  1.00  0.00     0.271 C 
HETATM   17  H19 UNL     1      -3.676   0.857   2.780  1.00  0.00     0.160 HD
HETATM   18  N2  UNL     1      -5.561   2.572   0.857  1.00  0.00    -0.262 NA
HETATM   19  C14 UNL     1      -5.451   2.694  -0.396  1.00  0.00     0.252 C 
HETATM   20  N3  UNL     1      -5.128   1.344  -0.290  1.00  0.00    -0.149 NA
HETATM   21  N4  UNL     1      -5.647   0.452  -0.962  1.00  0.00    -0.192 NA
HETATM   22  C15 UNL     1      -5.231  -0.927  -0.768  1.00  0.00     0.178 C 
HETATM   23  C16 UNL     1      -3.773  -1.124  -1.003  1.00  0.00     0.059 C 
ENDBRANCH   1  13
TORSDOF 7
