REMARK  6 active torsions:
REMARK  status: ('A' for Active; 'I' for Inactive)
REMARK    1  A    between atoms: C2_2  and  N1_3 
REMARK    2  A    between atoms: C2_2  and  C17_22 
REMARK    3  A    between atoms: N1_3  and  C3_4 
REMARK    4  A    between atoms: C10_12  and  C11_13 
REMARK    5  A    between atoms: C12_14  and  C13_15 
REMARK    6  A    between atoms: C14_16  and  N3_17 
ROOT
HETATM    1  C3  UNL     1      -2.366   0.714  -0.671  1.00  0.00     0.062 A 
HETATM    2  C4  UNL     1      -3.379   1.578  -0.292  1.00  0.00     0.032 A 
HETATM    3  C5  UNL     1      -3.157   2.861   0.160  1.00  0.00     0.011 A 
HETATM    4  C6  UNL     1      -1.847   3.296   0.233  1.00  0.00    -0.033 A 
HETATM    5  C7  UNL     1      -1.546   4.674   0.715  1.00  0.00     0.050 C 
HETATM    6  C8  UNL     1      -0.797   2.512  -0.119  1.00  0.00     0.064 A 
HETATM    7  C9  UNL     1      -1.098   1.242  -0.561  1.00  0.00     0.088 A 
HETATM    8  N2  UNL     1      -0.140   0.265  -0.982  1.00  0.00    -0.338 N 
HETATM    9  C10 UNL     1       1.286   0.226  -0.745  1.00  0.00     0.124 C 
HETATM   10  N4  UNL     1       1.955   1.299  -0.598  1.00  0.00    -0.253 NA
HETATM   11  C16 UNL     1       1.733   2.706  -0.588  1.00  0.00     0.273 C 
HETATM   12  N5  UNL     1       0.484   3.120   0.019  1.00  0.00    -0.370 N 
HETATM   13  H9  UNL     1      -0.516  -0.536  -1.538  1.00  0.00     0.167 HD
HETATM   14  H20 UNL     1       0.494   3.962   0.637  1.00  0.00     0.161 HD
ENDROOT
BRANCH   1  15
HETATM   15  N1  UNL     1      -2.671  -0.599  -1.126  1.00  0.00    -0.354 N 
HETATM   16  H3  UNL     1      -2.714  -0.337  -2.145  1.00  0.00     0.166 HD
BRANCH  15  17
HETATM   17  C2  UNL     1      -2.878  -1.884  -0.591  1.00  0.00     0.033 C 
HETATM   18  C1  UNL     1      -1.955  -2.831  -0.588  1.00  0.00     0.044 C 
BRANCH  17  19
HETATM   19  C17 UNL     1      -4.158  -2.256   0.006  1.00  0.00    -0.010 A 
HETATM   20  C18 UNL     1      -5.328  -1.676   0.223  1.00  0.00     0.013 A 
HETATM   21  C19 UNL     1      -5.914  -2.847   0.853  1.00  0.00     0.002 A 
HETATM   22  C20 UNL     1      -4.762  -3.433   0.645  1.00  0.00     0.013 A 
ENDBRANCH  17  19
ENDBRANCH  15  17
ENDBRANCH   1  15
BRANCH   9  23
HETATM   23  C11 UNL     1       1.908  -1.092  -0.688  1.00  0.00     0.050 C 
HETATM   24  C12 UNL     1       3.186  -1.370  -0.482  1.00  0.00     0.005 C 
BRANCH  24  25
HETATM   25  C13 UNL     1       4.241  -0.391  -0.269  1.00  0.00     0.017 C 
HETATM   26  C14 UNL     1       5.480  -0.740  -0.071  1.00  0.00     0.082 C 
BRANCH  26  27
HETATM   27  N3  UNL     1       5.959  -2.092  -0.038  1.00  0.00    -0.403 N 
HETATM   28  C15 UNL     1       6.331  -2.671   1.225  1.00  0.00     0.145 C 
HETATM   29  H14 UNL     1       6.044  -2.661  -0.909  1.00  0.00     0.158 HD
ENDBRANCH  26  27
ENDBRANCH  24  25
ENDBRANCH   9  23
TORSDOF 6
