REMARK  7 active torsions:
REMARK  status: ('A' for Active; 'I' for Inactive)
REMARK    1  A    between atoms: C2_2  and  O1_3 
REMARK    2  A    between atoms: O1_3  and  C3_4 
REMARK    3  A    between atoms: C6_7  and  N1_8 
REMARK       I    between atoms: N1_8  and  C7_9 
REMARK    4  A    between atoms: C7_9  and  C8_11 
REMARK    5  A    between atoms: N2_18  and  C15_19 
REMARK    6  A    between atoms: C19_24  and  C20_25 
REMARK    7  A    between atoms: C21_26  and  N4_27 
ROOT
HETATM    1  C3  UNL     1      -0.932  -0.352  -1.599  1.00  0.00     0.166 A 
HETATM    2  C4  UNL     1      -0.041  -0.168  -2.531  1.00  0.00     0.037 A 
HETATM    3  C5  UNL     1       1.428  -0.154  -2.413  1.00  0.00     0.090 A 
HETATM    4  C6  UNL     1       1.827  -0.390  -1.007  1.00  0.00     0.032 A 
HETATM    5  C14 UNL     1       0.965  -0.583  -0.022  1.00  0.00     0.143 A 
HETATM    6  N2  UNL     1      -0.420  -0.569  -0.290  1.00  0.00    -0.131 N 
ENDROOT
BRANCH   6   7
HETATM    7  C15 UNL     1      -1.337  -0.778   0.782  1.00  0.00     0.734 C 
HETATM    8  N3  UNL     1      -0.831  -0.876   1.965  1.00  0.00    -0.075 NA
HETATM    9  C16 UNL     1      -1.437  -1.082   3.238  1.00  0.00     0.132 C 
HETATM   10  C17 UNL     1      -2.737  -0.920   3.464  1.00  0.00    -0.001 C 
HETATM   11  C18 UNL     1      -3.927  -0.529   2.664  1.00  0.00     0.088 C 
HETATM   12  C19 UNL     1      -3.749  -0.756   1.228  1.00  0.00     0.058 C 
HETATM   13  N5  UNL     1      -2.720  -0.859   0.457  1.00  0.00    -0.067 NA
BRANCH  12  14
HETATM   14  C20 UNL     1      -4.987  -0.904   0.476  1.00  0.00     0.038 C 
HETATM   15  C21 UNL     1      -6.164  -0.835   1.055  1.00  0.00     0.051 C 
BRANCH  15  16
HETATM   16  N4  UNL     1      -7.504  -0.932   0.626  1.00  0.00    -0.319 NA
HETATM   17  C22 UNL     1      -7.908  -1.053  -0.582  1.00  0.00     0.259 C 
ENDBRANCH  15  16
ENDBRANCH  12  14
ENDBRANCH   6   7
BRANCH   1  18
HETATM   18  O1  UNL     1      -2.280  -0.330  -1.911  1.00  0.00    -0.306 OA
BRANCH  18  19
HETATM   19  C2  UNL     1      -2.936   0.809  -2.304  1.00  0.00     0.134 C 
HETATM   20  C1  UNL     1      -2.762   1.867  -1.546  1.00  0.00     0.038 C 
ENDBRANCH  18  19
ENDBRANCH   1  18
BRANCH   4  21
HETATM   21  N1  UNL     1       3.197  -0.424  -0.624  1.00  0.00    -0.325 N 
HETATM   22  C7  UNL     1       4.113   0.652  -0.785  1.00  0.00     0.256 C 
HETATM   23  O2  UNL     1       3.717   1.714  -1.294  1.00  0.00    -0.267 OA
HETATM   24  H7  UNL     1       3.511  -1.326  -0.198  1.00  0.00     0.169 HD
BRANCH  22  25
HETATM   25  C8  UNL     1       5.506   0.567  -0.377  1.00  0.00     0.032 A 
HETATM   26  C9  UNL     1       6.305   1.674  -0.580  1.00  0.00     0.017 A 
HETATM   27  C10 UNL     1       7.647   1.621  -0.198  1.00  0.00     0.001 A 
HETATM   28  C11 UNL     1       8.206   0.505   0.375  1.00  0.00     0.000 A 
HETATM   29  C12 UNL     1       7.407  -0.610   0.582  1.00  0.00     0.001 A 
HETATM   30  C13 UNL     1       6.076  -0.542   0.197  1.00  0.00     0.017 A 
ENDBRANCH  22  25
ENDBRANCH   4  21
TORSDOF 7
