REMARK  8 active torsions:
REMARK  status: ('A' for Active; 'I' for Inactive)
REMARK    1  A    between atoms: O1_2  and  C2_3 
REMARK    2  A    between atoms: C2_3  and  C7_9 
REMARK    3  A    between atoms: C3_4  and  C4_5 
REMARK    4  A    between atoms: C5_6  and  N1_8 
REMARK    5  A    between atoms: C7_9  and  N2_10 
REMARK    6  A    between atoms: N2_10  and  C8_11 
REMARK    7  A    between atoms: C11_15  and  O2_16 
REMARK    8  A    between atoms: O2_16  and  C12_17 
ROOT
HETATM    1  C8  UNL     1       1.292  -0.502  -0.547  1.00  0.00     0.724 A 
HETATM    2  N3  UNL     1       1.080  -1.027  -1.764  1.00  0.00    -0.075 NA
HETATM    3  C9  UNL     1       1.960  -0.823  -2.766  1.00  0.00     0.141 A 
HETATM    4  C10 UNL     1       3.088  -0.066  -2.529  1.00  0.00     0.079 A 
HETATM    5  C11 UNL     1       3.272   0.458  -1.267  1.00  0.00     0.190 A 
HETATM    6  N5  UNL     1       2.368   0.226  -0.306  1.00  0.00    -0.038 NA
ENDROOT
BRANCH   1   7
HETATM    7  N2  UNL     1       0.325  -0.740   0.491  1.00  0.00    -0.216 N 
HETATM    8  H13 UNL     1       0.521  -0.341   1.458  1.00  0.00     0.178 HD
BRANCH   7   9
HETATM    9  C7  UNL     1      -0.893  -1.501   0.252  1.00  0.00     0.202 C 
BRANCH   9  10
HETATM   10  C2  UNL     1      -1.761  -0.894  -0.740  1.00  0.00     0.064 C 
HETATM   11  C3  UNL     1      -2.979  -0.412  -0.841  1.00  0.00     0.035 C 
BRANCH  10  12
HETATM   12  O1  UNL     1      -1.550  -0.599  -2.051  1.00  0.00    -0.359 OA
HETATM   13  C1  UNL     1      -1.878  -1.349  -3.178  1.00  0.00     0.209 C 
ENDBRANCH  10  12
BRANCH  11  14
HETATM   14  C4  UNL     1      -3.587  -0.566   0.494  1.00  0.00     0.021 C 
HETATM   15  C5  UNL     1      -4.588  -0.448   1.385  1.00  0.00    -0.021 C 
HETATM   16  C6  UNL     1      -5.349  -0.530   2.670  1.00  0.00     0.061 C 
BRANCH  15  17
HETATM   17  N1  UNL     1      -5.380   0.135   0.353  1.00  0.00    -0.306 NA
HETATM   18  H9  UNL     1      -6.136   0.034  -0.387  1.00  0.00     0.124 HD
HETATM   19  H10 UNL     1      -6.131   0.026  -0.379  1.00  0.00     0.124 HD
ENDBRANCH  15  17
ENDBRANCH  11  14
ENDBRANCH   9  10
ENDBRANCH   7   9
ENDBRANCH   1   7
BRANCH   5  20
HETATM   20  O2  UNL     1       4.373   1.232  -0.933  1.00  0.00    -0.290 OA
BRANCH  20  21
HETATM   21  C12 UNL     1       4.515   1.737   0.334  1.00  0.00     0.095 A 
HETATM   22  C13 UNL     1       5.208   1.037   1.311  1.00  0.00     0.040 A 
HETATM   23  C14 UNL     1       5.348   1.549   2.590  1.00  0.00     0.022 A 
HETATM   24  C15 UNL     1       4.776   2.774   2.850  1.00  0.00     0.116 A 
HETATM   25  N4  UNL     1       4.100   3.467   1.915  1.00  0.00    -0.270 NA
HETATM   26  C16 UNL     1       3.966   2.956   0.658  1.00  0.00     0.153 A 
ENDBRANCH  20  21
ENDBRANCH   5  20
TORSDOF 8
