REMARK  3 active torsions:
REMARK  status: ('A' for Active; 'I' for Inactive)
REMARK    1  A    between atoms: C2_2  and  N1_3 
REMARK    2  A    between atoms: N1_3  and  C3_4 
REMARK    3  A    between atoms: C7_8  and  N2_9 
ROOT
HETATM    1  N2  UNL     1      -0.162  -0.288   0.187  1.00  0.00    -0.194 NA
HETATM    2  C8  UNL     1       0.039   1.101   0.547  1.00  0.00     0.263 C 
HETATM    3  N3  UNL     1      -1.118   1.906   0.719  1.00  0.00    -0.280 NA
HETATM    4  C9  UNL     1      -2.309   1.473   0.691  1.00  0.00     0.031 C 
HETATM    5  C10 UNL     1      -3.555   2.034   0.165  1.00  0.00     0.084 C 
HETATM    6  C11 UNL     1      -4.225   1.141  -0.819  1.00  0.00    -0.002 C 
HETATM    7  C12 UNL     1      -4.179   0.024  -1.578  1.00  0.00     0.115 C 
HETATM    8  N4  UNL     1      -3.318  -1.131  -1.385  1.00  0.00    -0.247 NA
HETATM    9  C13 UNL     1      -2.063  -1.210  -1.000  1.00  0.00     0.112 C 
HETATM   10  C14 UNL     1      -0.921  -1.943  -1.604  1.00  0.00     0.092 C 
HETATM   11  N5  UNL     1      -1.511  -0.540   0.124  1.00  0.00    -0.290 N 
HETATM   12  C15 UNL     1      -2.155   0.083   1.323  1.00  0.00     0.199 C 
ENDROOT
BRANCH   1  13
HETATM   13  C7  UNL     1       0.686  -1.174   0.877  1.00  0.00     0.154 A 
HETATM   14  C3  UNL     1       2.100  -0.769   0.497  1.00  0.00     0.028 A 
HETATM   15  C4  UNL     1       2.805  -0.458   1.585  1.00  0.00     0.026 A 
HETATM   16  C5  UNL     1       1.937  -0.631   2.755  1.00  0.00     0.000 A 
HETATM   17  C6  UNL     1       0.718  -1.043   2.357  1.00  0.00     0.001 A 
BRANCH  14  18
HETATM   18  N1  UNL     1       2.598  -0.727  -0.850  1.00  0.00    -0.392 N 
HETATM   19  H6  UNL     1       2.449  -1.692  -1.273  1.00  0.00     0.159 HD
BRANCH  18  20
HETATM   20  C2  UNL     1       3.192   0.367  -1.549  1.00  0.00     0.115 C 
HETATM   21  C1  UNL     1       4.545   0.766  -1.008  1.00  0.00     0.026 C 
ENDBRANCH  18  20
ENDBRANCH  14  18
ENDBRANCH   1  13
TORSDOF 3
