REMARK  5 active torsions:
REMARK  status: ('A' for Active; 'I' for Inactive)
REMARK    1  A    between atoms: C5_5  and  N1_6 
REMARK       I    between atoms: N1_6  and  C6_7 
REMARK    2  A    between atoms: C6_7  and  C7_9 
REMARK    3  A    between atoms: C13_16  and  N2_17 
REMARK    4  A    between atoms: N2_17  and  C14_18 
REMARK    5  A    between atoms: C17_22  and  C18_23 
ROOT
HETATM    1  C1  UNL     1       0.838   3.768   1.750  1.00  0.00     0.050 C 
HETATM    2  C2  UNL     1      -0.238   3.017   1.020  1.00  0.00    -0.035 A 
HETATM    3  C3  UNL     1      -1.478   3.596   0.915  1.00  0.00     0.011 A 
HETATM    4  C4  UNL     1      -2.501   2.961   0.260  1.00  0.00     0.030 A 
HETATM    5  C5  UNL     1      -2.255   1.727  -0.289  1.00  0.00     0.037 A 
HETATM    6  C12 UNL     1      -1.007   1.196  -0.157  1.00  0.00     0.060 A 
HETATM    7  C13 UNL     1       0.068   1.772   0.484  1.00  0.00     0.057 A 
ENDROOT
BRANCH   7   8
HETATM    8  N2  UNL     1       1.359   1.213   0.616  1.00  0.00    -0.188 N 
HETATM    9  H12 UNL     1       2.049   1.809   1.142  1.00  0.00     0.184 HD
BRANCH   8  10
HETATM   10  C14 UNL     1       1.819  -0.034   0.128  1.00  0.00     0.727 A 
HETATM   11  N3  UNL     1       1.121  -0.944  -0.561  1.00  0.00    -0.075 NA
HETATM   12  C15 UNL     1       1.595  -2.116  -1.006  1.00  0.00     0.139 A 
HETATM   13  C16 UNL     1       2.903  -2.411  -0.734  1.00  0.00     0.053 A 
HETATM   14  C17 UNL     1       3.660  -1.525  -0.037  1.00  0.00     0.089 A 
HETATM   15  N5  UNL     1       3.088  -0.397   0.353  1.00  0.00    -0.062 NA
BRANCH  14  16
HETATM   16  C18 UNL     1       5.055  -1.742   0.303  1.00  0.00     0.011 A 
HETATM   17  C19 UNL     1       5.737  -0.777   1.015  1.00  0.00     0.017 A 
HETATM   18  C20 UNL     1       7.081  -0.977   1.348  1.00  0.00     0.020 A 
HETATM   19  C21 UNL     1       7.711  -2.134   0.962  1.00  0.00     0.116 A 
HETATM   20  N4  UNL     1       7.059  -3.066   0.276  1.00  0.00    -0.272 NA
HETATM   21  C22 UNL     1       5.763  -2.874  -0.045  1.00  0.00     0.130 A 
ENDBRANCH  14  16
ENDBRANCH   8  10
ENDBRANCH   7   8
BRANCH   5  22
HETATM   22  N1  UNL     1      -3.312   1.074  -0.963  1.00  0.00    -0.323 N 
HETATM   23  C6  UNL     1      -4.137   0.225  -0.172  1.00  0.00     0.254 C 
HETATM   24  O1  UNL     1      -3.832   0.150   1.045  1.00  0.00    -0.268 OA
HETATM   25  H6  UNL     1      -3.512   1.182  -1.991  1.00  0.00     0.169 HD
BRANCH  23  26
HETATM   26  C7  UNL     1      -5.253  -0.493  -0.773  1.00  0.00     0.032 A 
HETATM   27  C8  UNL     1      -5.545  -0.389  -2.060  1.00  0.00     0.014 A 
HETATM   28  C9  UNL     1      -6.709  -1.237  -2.305  1.00  0.00    -0.001 A 
HETATM   29  C10 UNL     1      -7.102  -1.835  -1.174  1.00  0.00    -0.002 A 
HETATM   30  C11 UNL     1      -6.181  -1.401  -0.065  1.00  0.00     0.143 A 
HETATM   31 CL1  UNL     1      -5.244  -2.798   0.514  1.00  0.00    -0.116 Cl
ENDBRANCH  23  26
ENDBRANCH   5  22
TORSDOF 5
