REMARK  6 active torsions:
REMARK  status: ('A' for Active; 'I' for Inactive)
REMARK       I    between atoms: C1_2  and  N1_3 
REMARK    1  A    between atoms: C1_2  and  C18_24 
REMARK    2  A    between atoms: N1_3  and  C2_4 
REMARK    3  A    between atoms: C2_4  and  C3_5 
REMARK    4  A    between atoms: C5_7  and  N2_8 
REMARK    5  A    between atoms: N2_8  and  C6_9 
REMARK    6  A    between atoms: C9_13  and  C10_14 
ROOT
HETATM    1  C3  UNL     1      -1.253  -0.391   0.962  1.00  0.00     0.032 A 
HETATM    2  C4  UNL     1      -0.046  -1.132   0.538  1.00  0.00     0.010 A 
HETATM    3  C5  UNL     1       1.013  -0.961  -0.231  1.00  0.00     0.045 A 
HETATM    4  C15 UNL     1       1.013   0.353  -0.862  1.00  0.00     0.025 A 
HETATM    5  C16 UNL     1      -0.036   1.077  -0.530  1.00  0.00    -0.024 A 
HETATM    6  C17 UNL     1      -1.247   0.965   0.308  1.00  0.00     0.037 A 
ENDROOT
BRANCH   3   7
HETATM    7  N2  UNL     1       2.047  -1.909  -0.445  1.00  0.00    -0.188 N 
HETATM    8  H6  UNL     1       1.905  -2.818   0.049  1.00  0.00     0.184 HD
BRANCH   7   9
HETATM    9  C6  UNL     1       3.112  -1.493  -1.287  1.00  0.00     0.727 A 
HETATM   10  N3  UNL     1       3.157  -1.672  -2.629  1.00  0.00    -0.075 NA
HETATM   11  C7  UNL     1       4.261  -1.202  -3.260  1.00  0.00     0.139 A 
HETATM   12  C8  UNL     1       5.268  -0.582  -2.563  1.00  0.00     0.053 A 
HETATM   13  C9  UNL     1       5.215  -0.403  -1.195  1.00  0.00     0.089 A 
HETATM   14  N5  UNL     1       4.102  -0.884  -0.609  1.00  0.00    -0.062 NA
BRANCH  13  15
HETATM   15  C10 UNL     1       6.274   0.254  -0.438  1.00  0.00     0.011 A 
HETATM   16  C11 UNL     1       7.425   0.757  -1.006  1.00  0.00     0.017 A 
HETATM   17  C12 UNL     1       8.387   1.369  -0.227  1.00  0.00     0.020 A 
HETATM   18  C13 UNL     1       8.179   1.471   1.145  1.00  0.00     0.116 A 
HETATM   19  N4  UNL     1       7.048   0.975   1.690  1.00  0.00    -0.272 NA
HETATM   20  C14 UNL     1       6.105   0.375   0.924  1.00  0.00     0.130 A 
ENDBRANCH  13  15
ENDBRANCH   7   9
ENDBRANCH   3   7
BRANCH   1  21
HETATM   21  C2  UNL     1      -2.516  -1.104   0.451  1.00  0.00     0.131 C 
BRANCH  21  22
HETATM   22  N1  UNL     1      -3.667  -0.331   0.898  1.00  0.00    -0.356 N 
HETATM   23  C1  UNL     1      -4.895  -0.877   0.493  1.00  0.00     0.251 C 
HETATM   24  O1  UNL     1      -4.829  -1.948  -0.194  1.00  0.00    -0.268 OA
HETATM   25  H1  UNL     1      -3.711   0.545   1.460  1.00  0.00     0.162 HD
BRANCH  23  26
HETATM   26  C18 UNL     1      -6.225  -0.354   0.771  1.00  0.00     0.032 A 
HETATM   27  C19 UNL     1      -7.303  -1.040   0.275  1.00  0.00     0.018 A 
HETATM   28  C20 UNL     1      -8.564  -0.506   0.564  1.00  0.00     0.025 A 
HETATM   29  C21 UNL     1      -8.794   0.633   1.294  1.00  0.00     0.034 A 
HETATM   30 CL1  UNL     1     -10.459   1.144   1.550  1.00  0.00    -0.084 Cl
HETATM   31  C22 UNL     1      -7.681   1.290   1.773  1.00  0.00     0.025 A 
HETATM   32  C23 UNL     1      -6.422   0.794   1.509  1.00  0.00     0.018 A 
ENDBRANCH  23  26
ENDBRANCH  21  22
ENDBRANCH   1  21
TORSDOF 6
