REMARK  2 active torsions:
REMARK  status: ('A' for Active; 'I' for Inactive)
REMARK    1  A    between atoms: C5_5  and  N1_6 
REMARK       I    between atoms: N1_6  and  C6_7 
REMARK    2  A    between atoms: C6_7  and  C7_9 
ROOT
HETATM    1  C1  UNL     1      -0.192  -4.216   0.772  1.00  0.00     0.048 C 
HETATM    2  C2  UNL     1       0.417  -3.152  -0.054  1.00  0.00    -0.033 A 
HETATM    3  C3  UNL     1       1.269  -3.481  -1.000  1.00  0.00     0.009 A 
HETATM    4  C4  UNL     1       1.789  -2.349  -1.732  1.00  0.00     0.030 A 
HETATM    5  C5  UNL     1       1.175  -1.292  -1.137  1.00  0.00     0.062 A 
HETATM    6  C13 UNL     1       0.260  -1.631  -0.033  1.00  0.00     0.181 A 
HETATM    7  N2  UNL     1       0.688  -1.174   1.247  1.00  0.00    -0.219 NA
HETATM    8  N3  UNL     1       0.481   0.148   1.559  1.00  0.00    -0.235 NA
HETATM    9  C14 UNL     1       1.110   1.111   2.427  1.00  0.00     0.074 C 
HETATM   10  C15 UNL     1       0.295   1.459   3.462  1.00  0.00     0.009 C 
HETATM   11  C16 UNL     1      -1.070   1.147   3.967  1.00  0.00    -0.014 C 
HETATM   12  C17 UNL     1      -1.712   0.315   3.206  1.00  0.00     0.074 C 
HETATM   13  C18 UNL     1      -2.688  -0.543   2.643  1.00  0.00     0.063 A 
HETATM   14  C19 UNL     1      -3.879  -1.154   2.686  1.00  0.00     0.048 A 
HETATM   15  C20 UNL     1      -4.213  -1.932   1.573  1.00  0.00     0.138 A 
HETATM   16  N4  UNL     1      -3.395  -2.066   0.518  1.00  0.00    -0.075 NA
HETATM   17  C21 UNL     1      -2.217  -1.426   0.542  1.00  0.00     0.724 A 
HETATM   18  N5  UNL     1      -1.890  -0.686   1.592  1.00  0.00    -0.067 NA
HETATM   19  N6  UNL     1      -1.099  -1.272  -0.295  1.00  0.00    -0.189 N 
HETATM   20  H11 UNL     1       0.138  -1.834   1.938  1.00  0.00     0.144 HD
HETATM   21  H12 UNL     1       1.323  -0.345   2.010  1.00  0.00     0.146 HD
HETATM   22  H19 UNL     1      -1.606  -0.841  -1.087  1.00  0.00     0.180 HD
ENDROOT
BRANCH   5  23
HETATM   23  N1  UNL     1       1.380   0.020  -1.528  1.00  0.00    -0.323 N 
HETATM   24  C6  UNL     1       1.707   1.357  -1.644  1.00  0.00     0.256 C 
HETATM   25  O1  UNL     1       2.263   1.623  -0.509  1.00  0.00    -0.267 OA
HETATM   26  H6  UNL     1       0.909  -0.020  -2.523  1.00  0.00     0.169 HD
BRANCH  24  27
HETATM   27  C7  UNL     1       1.567   2.390  -2.654  1.00  0.00     0.032 A 
HETATM   28  C8  UNL     1       1.979   3.624  -2.221  1.00  0.00     0.018 A 
HETATM   29  C9  UNL     1       1.851   4.644  -3.185  1.00  0.00     0.025 A 
HETATM   30  C10 UNL     1       1.354   4.368  -4.422  1.00  0.00     0.034 A 
HETATM   31 CL1  UNL     1       1.221   5.708  -5.578  1.00  0.00    -0.084 Cl
HETATM   32  C11 UNL     1       0.937   3.133  -4.869  1.00  0.00     0.025 A 
HETATM   33  C12 UNL     1       1.070   2.152  -3.917  1.00  0.00     0.018 A 
ENDBRANCH  24  27
ENDBRANCH   5  23
TORSDOF 2
