REMARK  1 active torsions:
REMARK  status: ('A' for Active; 'I' for Inactive)
REMARK    1  A    between atoms: C1_2  and  C2_3 
ROOT
HETATM    1  C2  UNL     1       2.074   0.674  -0.676  1.00  0.00    -0.015 C 
HETATM    2  C3  UNL     1       2.802  -0.402  -0.422  1.00  0.00     0.012 C 
HETATM    3  C4  UNL     1       2.591  -1.831  -0.489  1.00  0.00     0.018 C 
HETATM    4  C5  UNL     1       1.676  -2.717  -0.794  1.00  0.00     0.106 C 
HETATM    5  N1  UNL     1       0.342  -2.847  -1.238  1.00  0.00    -0.198 N 
HETATM    6  C6  UNL     1      -0.855  -2.634  -0.530  1.00  0.00     0.726 A 
HETATM    7  N2  UNL     1      -1.962  -3.238  -0.089  1.00  0.00    -0.075 NA
HETATM    8  C7  UNL     1      -2.892  -2.496   0.593  1.00  0.00     0.139 A 
HETATM    9  C8  UNL     1      -2.753  -1.142   0.857  1.00  0.00     0.053 A 
HETATM   10  C9  UNL     1      -1.581  -0.631   0.359  1.00  0.00     0.089 A 
HETATM   11  N3  UNL     1      -0.675  -1.339  -0.301  1.00  0.00    -0.062 NA
HETATM   12  C10 UNL     1      -1.218   0.772   0.498  1.00  0.00     0.018 A 
HETATM   13  C11 UNL     1      -1.942   1.506   1.410  1.00  0.00     0.017 A 
HETATM   14  C12 UNL     1      -1.693   2.867   1.632  1.00  0.00     0.020 A 
HETATM   15  C13 UNL     1      -0.685   3.481   0.904  1.00  0.00     0.117 A 
HETATM   16  N4  UNL     1      -0.000   2.733   0.024  1.00  0.00    -0.264 NA
HETATM   17  C14 UNL     1      -0.221   1.429  -0.205  1.00  0.00     0.051 A 
HETATM   18  C15 UNL     1       0.699   0.897  -1.216  1.00  0.00     0.101 C 
HETATM   19  H5  UNL     1      -0.125  -3.106  -2.123  1.00  0.00     0.183 HD
ENDROOT
BRANCH   1  20
HETATM   20  C1  UNL     1       2.734   1.983  -0.446  1.00  0.00     0.266 C 
HETATM   21  O1  UNL     1       3.897   2.234  -0.041  1.00  0.00    -0.302 OA
ENDBRANCH   1  20
TORSDOF 1
