REMARK  3 active torsions:
REMARK  status: ('A' for Active; 'I' for Inactive)
REMARK    1  A    between atoms: C3_3  and  C4_4 
REMARK    2  A    between atoms: C4_4  and  C5_5 
REMARK    3  A    between atoms: C6_6  and  C7_7 
ROOT
HETATM    1  C7  UNL     1       0.309  -0.736  -0.780  1.00  0.00     0.009 C 
HETATM    2  C8  UNL     1      -0.989  -0.567  -0.599  1.00  0.00    -0.029 C 
HETATM    3  C9  UNL     1      -1.588   0.195  -1.660  1.00  0.00     0.124 C 
HETATM    4  N1  UNL     1      -2.633   0.767  -2.226  1.00  0.00    -0.273 NA
HETATM    5  C10 UNL     1      -3.829   0.566  -1.411  1.00  0.00     0.112 C 
HETATM    6  C11 UNL     1      -4.203   1.287  -0.342  1.00  0.00    -0.004 C 
HETATM    7  C12 UNL     1      -5.005   1.773   0.853  1.00  0.00     0.055 C 
HETATM    8  C13 UNL     1      -4.080   1.591   2.058  1.00  0.00    -0.027 C 
HETATM    9  C14 UNL     1      -2.823   1.091   1.979  1.00  0.00    -0.025 C 
HETATM   10  C15 UNL     1      -1.454   0.604   2.278  1.00  0.00     0.082 C 
HETATM   11  C16 UNL     1      -1.219  -0.814   1.877  1.00  0.00     0.020 A 
HETATM   12  N2  UNL     1      -0.796  -2.007   2.034  1.00  0.00    -0.296 NA
HETATM   13  C17 UNL     1      -1.206  -2.545   0.800  1.00  0.00     0.164 A 
HETATM   14  C18 UNL     1      -1.712  -1.121   0.538  1.00  0.00     0.087 A 
ENDROOT
BRANCH   1  15
HETATM   15  C6  UNL     1       1.105  -0.245  -1.888  1.00  0.00    -0.003 C 
HETATM   16  C5  UNL     1       2.422  -0.489  -1.957  1.00  0.00    -0.023 C 
BRANCH  16  17
HETATM   17  C4  UNL     1       3.332  -1.230  -1.050  1.00  0.00     0.054 C 
BRANCH  17  18
HETATM   18  C3  UNL     1       4.377  -0.239  -0.595  1.00  0.00    -0.027 C 
HETATM   19  C2  UNL     1       5.693  -0.276  -0.754  1.00  0.00    -0.035 C 
HETATM   20  C1  UNL     1       6.603   0.806  -0.233  1.00  0.00     0.036 C 
ENDBRANCH  17  18
ENDBRANCH  16  17
ENDBRANCH   1  15
TORSDOF 3
