REMARK  9 active torsions:
REMARK  status: ('A' for Active; 'I' for Inactive)
REMARK    1  A    between atoms: C5_5  and  C6_6 
REMARK       I    between atoms: C6_6  and  N1_8 
REMARK    2  A    between atoms: N1_8  and  C7_9 
REMARK    3  A    between atoms: C12_14  and  C13_15 
REMARK    4  A    between atoms: C15_19  and  C16_20 
REMARK    5  A    between atoms: C16_20  and  C17_21 
REMARK    6  A    between atoms: C17_21  and  C18_22 
REMARK    7  A    between atoms: C18_22  and  C19_23 
REMARK    8  A    between atoms: C19_23  and  C20_24 
REMARK    9  A    between atoms: C20_24  and  N3_25 
ROOT
HETATM    1  C7  UNL     1       1.492  -1.997   0.489  1.00  0.00     0.035 A 
HETATM    2  C8  UNL     1       2.063  -3.167   0.930  1.00  0.00     0.030 A 
HETATM    3  C9  UNL     1       1.272  -4.249   1.170  1.00  0.00     0.010 A 
HETATM    4  C10 UNL     1      -0.093  -4.217   0.987  1.00  0.00    -0.048 A 
HETATM    5  C11 UNL     1      -0.891  -5.422   1.267  1.00  0.00     0.049 C 
HETATM    6  C12 UNL     1      -0.754  -3.069   0.542  1.00  0.00     0.018 A 
HETATM    7  C21 UNL     1       0.148  -2.014   0.324  1.00  0.00     0.045 A 
ENDROOT
BRANCH   6   8
HETATM    8  C13 UNL     1      -2.223  -2.968   0.323  1.00  0.00     0.140 C 
HETATM    9  N2  UNL     1      -2.808  -4.138   0.607  1.00  0.00    -0.340 NA
HETATM   10  B1  UNL     1      -4.369  -3.665  -1.208  1.00  0.00     0.339 B 
HETATM   11  C14 UNL     1      -4.857  -2.188  -0.274  1.00  0.00    -0.026 C 
HETATM   12  C15 UNL     1      -3.777  -1.302  -0.390  1.00  0.00     0.046 C 
HETATM   13  N4  UNL     1      -2.543  -1.736  -0.094  1.00  0.00    -0.232 NA
BRANCH  12  14
HETATM   14  C16 UNL     1      -3.959   0.123  -0.786  1.00  0.00     0.031 C 
BRANCH  14  15
HETATM   15  C17 UNL     1      -2.893   0.893  -0.884  1.00  0.00     0.010 C 
BRANCH  15  16
HETATM   16  C18 UNL     1      -2.980   2.291  -1.263  1.00  0.00     0.053 C 
BRANCH  16  17
HETATM   17  C19 UNL     1      -4.095   2.994  -1.129  1.00  0.00    -0.118 C 
BRANCH  17  18
HETATM   18  C20 UNL     1      -5.379   3.320  -1.072  1.00  0.00     0.332 C 
BRANCH  18  19
HETATM   19  N3  UNL     1      -6.175   3.094  -2.204  1.00  0.00     0.096 N 
HETATM   20  H17 UNL     1      -6.942   2.554  -2.660  1.00  0.00     0.314 HD
HETATM   21  H18 UNL     1      -6.941   2.550  -2.649  1.00  0.00     0.314 HD
ENDBRANCH  18  19
ENDBRANCH  17  18
ENDBRANCH  16  17
ENDBRANCH  15  16
ENDBRANCH  14  15
ENDBRANCH  12  14
ENDBRANCH   6   8
BRANCH   1  22
HETATM   22  N1  UNL     1       2.269  -0.838   0.222  1.00  0.00    -0.323 N 
HETATM   23  C6  UNL     1       2.602   0.195   1.130  1.00  0.00     0.256 C 
HETATM   24  O1  UNL     1       2.225   0.189   2.325  1.00  0.00    -0.267 OA
HETATM   25  H6  UNL     1       2.584  -0.831  -0.772  1.00  0.00     0.169 HD
BRANCH  23  26
HETATM   26  C5  UNL     1       3.413   1.337   0.723  1.00  0.00     0.032 A 
HETATM   27  C4  UNL     1       3.714   2.320   1.631  1.00  0.00     0.017 A 
HETATM   28  C3  UNL     1       4.481   3.425   1.294  1.00  0.00     0.007 A 
HETATM   29  C2  UNL     1       4.976   3.567  -0.005  1.00  0.00    -0.062 A 
HETATM   30  C1  UNL     1       5.800   4.727  -0.424  1.00  0.00     0.048 C 
HETATM   31  C23 UNL     1       4.684   2.594  -0.920  1.00  0.00     0.007 A 
HETATM   32  C22 UNL     1       3.921   1.515  -0.549  1.00  0.00     0.017 A 
ENDBRANCH  23  26
ENDBRANCH   1  22
TORSDOF 9
