REMARK  8 active torsions:
REMARK  status: ('A' for Active; 'I' for Inactive)
REMARK    1  A    between atoms: N1_2  and  C2_3 
REMARK    2  A    between atoms: C2_3  and  C3_4 
REMARK    3  A    between atoms: N2_9  and  C8_10 
REMARK    4  A    between atoms: C8_10  and  N3_11 
REMARK    5  A    between atoms: C8_10  and  C9_12 
REMARK    6  A    between atoms: C9_12  and  C10_13 
REMARK    7  A    between atoms: C10_13  and  C11_14 
REMARK    8  A    between atoms: C11_14  and  C12_15 
ROOT
HETATM    1  C8  UNL     1      -0.862  -0.106   1.284  1.00  0.00     0.149 C 
ENDROOT
BRANCH   1   2
HETATM    2  N2  UNL     1      -1.662  -0.980   0.509  1.00  0.00    -0.305 N 
HETATM    3  C3  UNL     1      -2.679  -0.636  -0.428  1.00  0.00     0.043 A 
HETATM    4  C4  UNL     1      -3.308  -1.620  -1.047  1.00  0.00     0.004 A 
HETATM    5  C5  UNL     1      -3.059  -3.061  -0.863  1.00  0.00     0.057 A 
HETATM    6  C6  UNL     1      -1.995  -3.333   0.119  1.00  0.00    -0.005 A 
HETATM    7  C7  UNL     1      -1.354  -2.368   0.750  1.00  0.00     0.095 A 
BRANCH   3   8
HETATM    8  C2  UNL     1      -2.914   0.821  -0.598  1.00  0.00     0.326 C 
BRANCH   8   9
HETATM    9  N1  UNL     1      -3.315   1.433   0.667  1.00  0.00     0.084 N 
HETATM   10  C1  UNL     1      -3.521   2.858   0.400  1.00  0.00     0.307 C 
HETATM   11  H4  UNL     1      -4.237   1.056   0.997  1.00  0.00     0.315 HD
ENDBRANCH   8   9
ENDBRANCH   3   8
ENDBRANCH   1   2
BRANCH   1  12
HETATM   12  N3  UNL     1      -0.949   0.420   2.595  1.00  0.00    -0.379 N 
HETATM   13  H12 UNL     1      -0.209   0.238   3.305  1.00  0.00     0.158 HD
HETATM   14  H13 UNL     1      -1.457   0.973   3.293  1.00  0.00     0.158 HD
ENDBRANCH   1  12
BRANCH   1  15
HETATM   15  C9  UNL     1       0.213   0.315   0.633  1.00  0.00    -0.102 C 
BRANCH  15  16
HETATM   16  C10 UNL     1       1.399   0.529   0.084  1.00  0.00     0.080 C 
BRANCH  16  17
HETATM   17  C11 UNL     1       2.468  -0.434   0.365  1.00  0.00     0.058 C 
BRANCH  17  18
HETATM   18  C12 UNL     1       3.778   0.201   0.059  1.00  0.00    -0.039 A 
HETATM   19  C13 UNL     1       4.378   0.128  -1.201  1.00  0.00     0.010 A 
HETATM   20  C14 UNL     1       5.591   0.765  -1.332  1.00  0.00     0.020 A 
HETATM   21  C15 UNL     1       6.226   1.452  -0.315  1.00  0.00     0.116 A 
HETATM   22  N4  UNL     1       5.594   1.484   0.873  1.00  0.00    -0.273 NA
HETATM   23  C16 UNL     1       4.408   0.884   1.073  1.00  0.00     0.123 A 
ENDBRANCH  17  18
ENDBRANCH  16  17
ENDBRANCH  15  16
ENDBRANCH   1  15
TORSDOF 8
