REMARK  8 active torsions:
REMARK  status: ('A' for Active; 'I' for Inactive)
REMARK    1  A    between atoms: N1_1  and  C1_2 
REMARK    2  A    between atoms: C2_3  and  C3_4 
REMARK    3  A    between atoms: C3_4  and  C4_5 
REMARK    4  A    between atoms: C4_5  and  C5_6 
REMARK    5  A    between atoms: N4_12  and  C9_13 
REMARK    6  A    between atoms: C9_13  and  N5_14 
REMARK    7  A    between atoms: N5_14  and  C10_15 
REMARK    8  A    between atoms: C15_20  and  C16_21 
ROOT
HETATM    1  C3  UNL     1      -1.385  -1.530  -0.064  1.00  0.00     0.037 C 
HETATM    2  N4  UNL     1      -0.373  -1.196  -0.773  1.00  0.00    -0.274 NA
ENDROOT
BRANCH   1   3
HETATM    3  C2  UNL     1      -1.420  -2.889   0.460  1.00  0.00     0.043 C 
HETATM    4  C1  UNL     1      -2.435  -3.274   1.193  1.00  0.00     0.082 C 
BRANCH   4   5
HETATM    5  N1  UNL     1      -3.617  -2.624   1.639  1.00  0.00    -0.408 N 
HETATM    6  H1  UNL     1      -4.570  -2.521   1.244  1.00  0.00     0.155 HD
HETATM    7  H2  UNL     1      -3.709  -2.096   2.529  1.00  0.00     0.155 HD
ENDBRANCH   4   5
ENDBRANCH   1   3
BRANCH   1   8
HETATM    8  C4  UNL     1      -2.460  -0.575   0.205  1.00  0.00     0.113 C 
BRANCH   8   9
HETATM    9  C5  UNL     1      -2.234   0.756  -0.420  1.00  0.00     0.019 C 
HETATM   10  N2  UNL     1      -1.230   1.088  -1.125  1.00  0.00    -0.276 NA
HETATM   11  C6  UNL     1      -1.174   2.441  -1.659  1.00  0.00     0.296 C 
HETATM   12  N3  UNL     1      -2.473   2.673  -2.240  1.00  0.00    -0.284 NA
HETATM   13  C7  UNL     1      -3.528   2.383  -1.573  1.00  0.00     0.091 C 
HETATM   14  C8  UNL     1      -3.286   1.807  -0.200  1.00  0.00     0.101 C 
ENDBRANCH   8   9
ENDBRANCH   1   8
BRANCH   2  15
HETATM   15  C9  UNL     1       0.722  -2.096  -1.072  1.00  0.00     0.270 C 
BRANCH  15  16
HETATM   16  N5  UNL     1       1.880  -1.485  -1.610  1.00  0.00    -0.377 N 
HETATM   17  H14 UNL     1       2.201  -1.695  -2.573  1.00  0.00     0.160 HD
BRANCH  16  18
HETATM   18  C10 UNL     1       2.630  -0.543  -0.793  1.00  0.00     0.005 A 
HETATM   19  C11 UNL     1       2.410  -0.142   0.466  1.00  0.00     0.081 A 
HETATM   20  C12 UNL     1       3.607   0.745   0.515  1.00  0.00     0.059 A 
HETATM   21  C15 UNL     1       3.611   0.415  -0.320  1.00  0.00     0.034 A 
HETATM   22  C13 UNL     1       4.838   1.408   0.005  1.00  0.00     0.054 A 
HETATM   23  N6  UNL     1       3.595   1.238   1.943  1.00  0.00    -0.408 N 
HETATM   24  C16 UNL     1       3.086   1.617   0.726  1.00  0.00     0.146 A 
HETATM   25  C14 UNL     1       4.731   0.801  -1.183  1.00  0.00    -0.027 A 
HETATM   26  H20 UNL     1       3.601   1.573   2.980  1.00  0.00     0.154 HD
ENDBRANCH  16  18
ENDBRANCH  15  16
ENDBRANCH   2  15
TORSDOF 8
