REMARK  7 active torsions:
REMARK  status: ('A' for Active; 'I' for Inactive)
REMARK    1  A    between atoms: C5_5  and  C6_6 
REMARK       I    between atoms: C6_6  and  N1_8 
REMARK    2  A    between atoms: N1_8  and  C7_9 
REMARK    3  A    between atoms: C12_14  and  C13_15 
REMARK    4  A    between atoms: C13_15  and  C14_16 
REMARK    5  A    between atoms: C13_15  and  N3_19 
REMARK    6  A    between atoms: C15_17  and  N2_18 
REMARK    7  A    between atoms: C16_20  and  C17_21 
ROOT
HETATM    1  C7  UNL     1       1.416  -0.806  -1.378  1.00  0.00     0.035 A 
HETATM    2  C8  UNL     1       1.390  -0.394  -2.695  1.00  0.00     0.030 A 
HETATM    3  C9  UNL     1       0.128  -0.225  -3.247  1.00  0.00     0.009 A 
HETATM    4  C10 UNL     1      -1.045  -0.446  -2.550  1.00  0.00    -0.053 A 
HETATM    5  C11 UNL     1      -2.397  -0.285  -3.079  1.00  0.00     0.049 C 
HETATM    6  C12 UNL     1      -0.994  -0.858  -1.234  1.00  0.00    -0.022 A 
HETATM    7  C22 UNL     1       0.269  -1.038  -0.647  1.00  0.00     0.039 A 
ENDROOT
BRANCH   6   8
HETATM    8  C13 UNL     1      -2.091  -1.154  -0.294  1.00  0.00     0.165 C 
BRANCH   8   9
HETATM    9  C14 UNL     1      -1.878  -0.561   1.058  1.00  0.00     0.021 C 
HETATM   10  C15 UNL     1      -2.172  -1.202   2.207  1.00  0.00     0.078 C 
BRANCH  10  11
HETATM   11  N2  UNL     1      -2.708  -2.507   2.030  1.00  0.00    -0.408 N 
HETATM   12  H15 UNL     1      -3.572  -2.577   1.418  1.00  0.00     0.155 HD
HETATM   13  H16 UNL     1      -2.331  -3.405   2.446  1.00  0.00     0.155 HD
ENDBRANCH  10  11
ENDBRANCH   8   9
BRANCH   8  14
HETATM   14  N3  UNL     1      -3.394  -1.207  -0.767  1.00  0.00    -0.287 NA
HETATM   15  C16 UNL     1      -4.484  -0.658  -0.646  1.00  0.00     0.124 C 
BRANCH  15  16
HETATM   16  C17 UNL     1      -5.474   0.285  -0.149  1.00  0.00    -0.002 A 
HETATM   17  C18 UNL     1      -5.069   1.208   0.789  1.00  0.00     0.016 A 
HETATM   18  C19 UNL     1      -6.009   2.103   1.260  1.00  0.00     0.020 A 
HETATM   19  C20 UNL     1      -7.289   1.977   0.729  1.00  0.00     0.116 A 
HETATM   20  N4  UNL     1      -7.630   1.054  -0.187  1.00  0.00    -0.272 NA
HETATM   21  C21 UNL     1      -6.736   0.170  -0.664  1.00  0.00     0.129 A 
ENDBRANCH  15  16
ENDBRANCH   8  14
ENDBRANCH   6   8
BRANCH   1  22
HETATM   22  N1  UNL     1       2.733  -0.972  -0.834  1.00  0.00    -0.323 N 
HETATM   23  C6  UNL     1       3.183   0.249  -0.247  1.00  0.00     0.256 C 
HETATM   24  O1  UNL     1       2.325   1.163  -0.348  1.00  0.00    -0.267 OA
HETATM   25  H6  UNL     1       3.365  -1.820  -0.815  1.00  0.00     0.169 HD
BRANCH  23  26
HETATM   26  C5  UNL     1       4.505   0.382   0.393  1.00  0.00     0.032 A 
HETATM   27  C4  UNL     1       5.435  -0.632   0.500  1.00  0.00     0.017 A 
HETATM   28  C3  UNL     1       6.618  -0.315   1.134  1.00  0.00     0.007 A 
HETATM   29  C2  UNL     1       6.934   0.915   1.657  1.00  0.00    -0.062 A 
HETATM   30  C1  UNL     1       8.228   1.198   2.330  1.00  0.00     0.048 C 
HETATM   31  C24 UNL     1       5.969   1.888   1.521  1.00  0.00     0.007 A 
HETATM   32  C23 UNL     1       4.756   1.663   0.902  1.00  0.00     0.017 A 
ENDBRANCH  23  26
ENDBRANCH   1  22
TORSDOF 7
