REMARK  1 active torsions:
REMARK  status: ('A' for Active; 'I' for Inactive)
REMARK    1  A    between atoms: C6_7  and  C7_8 
ROOT
HETATM    1  C1  UNL     1      -0.446   5.378  -0.454  1.00  0.00     0.050 C 
HETATM    2  C2  UNL     1      -0.289   3.970  -0.880  1.00  0.00    -0.031 C 
HETATM    3  C3  UNL     1       0.107   3.754  -2.110  1.00  0.00     0.091 C 
HETATM    4  N1  UNL     1       0.303   2.538  -2.391  1.00  0.00    -0.258 NA
HETATM    5  C4  UNL     1       0.860   1.593  -1.517  1.00  0.00     0.119 C 
HETATM    6  C5  UNL     1       1.838   0.984  -0.869  1.00  0.00     0.051 C 
HETATM    7  C6  UNL     1       2.056  -0.096   0.073  1.00  0.00     0.066 C 
HETATM    8  N3  UNL     1       0.870  -0.455   0.239  1.00  0.00    -0.259 NA
HETATM    9  C12 UNL     1       0.456  -1.520   1.099  1.00  0.00     0.419 C 
HETATM   10  N4  UNL     1      -1.005  -1.651   1.154  1.00  0.00     0.113 N 
HETATM   11  C13 UNL     1      -1.445  -1.930  -0.222  1.00  0.00     0.275 A 
HETATM   12  C14 UNL     1      -0.989  -3.299  -0.651  1.00  0.00     0.069 A 
HETATM   13  C15 UNL     1      -2.153  -4.106  -1.062  1.00  0.00    -0.024 A 
HETATM   14  C16 UNL     1      -3.460  -3.973  -1.158  1.00  0.00    -0.002 A 
HETATM   15  C17 UNL     1      -3.880  -2.619  -0.725  1.00  0.00     0.027 A 
HETATM   16  C18 UNL     1      -2.898  -1.820  -0.339  1.00  0.00     0.045 A 
HETATM   17  N5  UNL     1      -3.563  -0.611   0.004  1.00  0.00    -0.328 N 
HETATM   18  C19 UNL     1      -3.400   0.745   0.324  1.00  0.00     0.225 C 
HETATM   19  O1  UNL     1      -2.182   0.503   0.183  1.00  0.00    -0.273 OA
HETATM   20  C20 UNL     1      -3.054   2.132   0.638  1.00  0.00     0.130 C 
HETATM   21  C21 UNL     1      -1.588   2.323   0.691  1.00  0.00    -0.017 C 
HETATM   22  C22 UNL     1      -0.596   2.998   0.130  1.00  0.00     0.005 C 
HETATM   23  H12 UNL     1      -1.265  -2.498   1.708  1.00  0.00     0.319 HD
HETATM   24  H19 UNL     1      -4.556  -0.339   0.144  1.00  0.00     0.168 HD
ENDROOT
BRANCH   7  25
HETATM   25  C7  UNL     1       3.458  -0.250   0.363  1.00  0.00     0.010 A 
HETATM   26  C8  UNL     1       3.735  -1.269   1.225  1.00  0.00     0.017 A 
HETATM   27  C9  UNL     1       5.006  -1.592   1.645  1.00  0.00     0.020 A 
HETATM   28  C10 UNL     1       6.017  -0.784   1.112  1.00  0.00     0.116 A 
HETATM   29  N2  UNL     1       5.731   0.201   0.276  1.00  0.00    -0.272 NA
HETATM   30  C11 UNL     1       4.497   0.496  -0.115  1.00  0.00     0.130 A 
ENDBRANCH   7  25
TORSDOF 1
