REMARK  5 active torsions:
REMARK  status: ('A' for Active; 'I' for Inactive)
REMARK    1  A    between atoms: C5_5  and  C6_6 
REMARK       I    between atoms: C6_6  and  N1_8 
REMARK    2  A    between atoms: N1_8  and  C7_9 
REMARK    3  A    between atoms: C11_13  and  N2_14 
REMARK    4  A    between atoms: N2_14  and  C12_15 
REMARK    5  A    between atoms: C15_19  and  C16_20 
ROOT
HETATM    1  C7  UNL     1      -1.171   0.394   0.589  1.00  0.00     0.037 A 
HETATM    2  C8  UNL     1      -0.471   1.139   1.516  1.00  0.00     0.029 A 
HETATM    3  C9  UNL     1       0.883   1.227   1.517  1.00  0.00     0.004 A 
HETATM    4  C10 UNL     1       1.588   0.544   0.552  1.00  0.00     0.030 A 
HETATM    5  C11 UNL     1       0.975  -0.223  -0.412  1.00  0.00     0.051 A 
HETATM    6  C21 UNL     1      -0.399  -0.251  -0.331  1.00  0.00     0.059 A 
ENDROOT
BRANCH   5   7
HETATM    7  N2  UNL     1       1.636  -0.946  -1.426  1.00  0.00    -0.188 N 
HETATM    8  H10 UNL     1       1.044  -1.494  -2.100  1.00  0.00     0.184 HD
BRANCH   7   9
HETATM    9  C12 UNL     1       3.028  -1.028  -1.652  1.00  0.00     0.727 A 
HETATM   10  N3  UNL     1       3.508  -1.779  -2.687  1.00  0.00    -0.075 NA
HETATM   11  C13 UNL     1       4.806  -1.910  -2.971  1.00  0.00     0.139 A 
HETATM   12  C14 UNL     1       5.750  -1.278  -2.214  1.00  0.00     0.052 A 
HETATM   13  C15 UNL     1       5.307  -0.512  -1.162  1.00  0.00     0.084 A 
HETATM   14  N4  UNL     1       3.995  -0.434  -0.947  1.00  0.00    -0.062 NA
BRANCH  13  15
HETATM   15  C16 UNL     1       6.248   0.197  -0.302  1.00  0.00    -0.025 A 
HETATM   16  C17 UNL     1       7.560   0.168  -0.452  1.00  0.00     0.009 A 
HETATM   17  C18 UNL     1       8.177   1.000   0.598  1.00  0.00    -0.003 A 
HETATM   18  C19 UNL     1       7.214   1.503   1.346  1.00  0.00    -0.022 A 
HETATM   19  C20 UNL     1       5.883   1.049   0.858  1.00  0.00     0.068 A 
ENDBRANCH  13  15
ENDBRANCH   7   9
ENDBRANCH   5   7
BRANCH   1  20
HETATM   20  N1  UNL     1      -2.566   0.383   0.693  1.00  0.00    -0.323 N 
HETATM   21  C6  UNL     1      -3.572  -0.253  -0.065  1.00  0.00     0.256 C 
HETATM   22  O1  UNL     1      -3.163  -0.960  -1.036  1.00  0.00    -0.267 OA
HETATM   23  H6  UNL     1      -3.037   0.939   1.470  1.00  0.00     0.169 HD
BRANCH  21  24
HETATM   24  C5  UNL     1      -5.005  -0.172   0.165  1.00  0.00     0.032 A 
HETATM   25  C4  UNL     1      -5.623   0.544   1.167  1.00  0.00     0.017 A 
HETATM   26  C3  UNL     1      -6.987   0.601   1.358  1.00  0.00     0.007 A 
HETATM   27  C2  UNL     1      -7.820  -0.090   0.513  1.00  0.00    -0.062 A 
HETATM   28  C1  UNL     1      -9.274   0.009   0.768  1.00  0.00     0.048 C 
HETATM   29  C23 UNL     1      -7.240  -0.820  -0.503  1.00  0.00     0.007 A 
HETATM   30  C22 UNL     1      -5.873  -0.851  -0.660  1.00  0.00     0.017 A 
ENDBRANCH  21  24
ENDBRANCH   1  20
TORSDOF 5
