REMARK  4 active torsions:
REMARK  status: ('A' for Active; 'I' for Inactive)
REMARK    1  A    between atoms: B1_1  and  C1_2 
REMARK    2  A    between atoms: C8_11  and  C9_12 
REMARK    3  A    between atoms: C9_12  and  C11_14 
REMARK    4  A    between atoms: C11_14  and  N2_15 
ROOT
HETATM    1  C1  UNL     1       0.755  -1.837  -2.754  1.00  0.00    -0.008 C 
HETATM    2  C2  UNL     1       1.603  -0.846  -3.480  1.00  0.00    -0.005 C 
HETATM    3  C3  UNL     1       2.590  -0.037  -3.171  1.00  0.00    -0.000 A 
HETATM    4  C4  UNL     1       3.753   0.971  -2.982  1.00  0.00     0.057 A 
HETATM    5  C5  UNL     1       2.996   1.903  -1.942  1.00  0.00     0.003 A 
HETATM    6  O1  UNL     1       2.189   1.273  -2.670  1.00  0.00     0.000 OA
HETATM    7  N1  UNL     1       2.305   2.772  -0.973  1.00  0.00    -0.292 NA
HETATM    8  C6  UNL     1       0.889   2.615  -1.226  1.00  0.00     0.120 C 
HETATM    9  C7  UNL     1       0.060   3.084  -0.134  1.00  0.00     0.003 C 
HETATM   10  C8  UNL     1      -0.587   1.966   0.330  1.00  0.00     0.013 C 
HETATM   11  C12 UNL     1      -0.448   0.542  -0.093  1.00  0.00     0.160 A 
HETATM   12  N3  UNL     1      -0.803  -0.363   0.833  1.00  0.00    -0.228 NA
HETATM   13  C13 UNL     1      -0.705  -1.686   0.671  1.00  0.00     0.072 A 
HETATM   14  C14 UNL     1      -1.106  -2.601   1.708  1.00  0.00     0.010 A 
HETATM   15  C15 UNL     1      -1.622  -2.412   2.951  1.00  0.00     0.017 A 
HETATM   16  C16 UNL     1      -2.024  -3.175   3.991  1.00  0.00     0.020 A 
HETATM   17  C17 UNL     1      -1.849  -4.530   3.670  1.00  0.00     0.116 A 
HETATM   18  N4  UNL     1      -1.339  -4.906   2.456  1.00  0.00    -0.272 NA
HETATM   19  C18 UNL     1      -0.989  -3.996   1.533  1.00  0.00     0.130 A 
HETATM   20  C19 UNL     1      -0.214  -2.192  -0.506  1.00  0.00     0.059 A 
HETATM   21  C20 UNL     1       0.163  -1.310  -1.483  1.00  0.00     0.034 A 
HETATM   22  N5  UNL     1      -0.001  -0.064  -1.162  1.00  0.00    -0.234 NA
HETATM   23  H8  UNL     1       3.341   2.756  -0.935  1.00  0.00     0.127 HD
ENDROOT
BRANCH  10  24
HETATM   24  C9  UNL     1      -1.498   2.235   1.447  1.00  0.00    -0.049 C 
HETATM   25  C10 UNL     1      -2.196   1.215   2.000  1.00  0.00     0.041 C 
BRANCH  24  26
HETATM   26  C11 UNL     1      -1.666   3.579   2.027  1.00  0.00     0.146 C 
BRANCH  26  27
HETATM   27  N2  UNL     1      -2.188   4.584   1.173  1.00  0.00    -0.427 N 
HETATM   28  H16 UNL     1      -2.629   5.380   1.665  1.00  0.00     0.150 HD
HETATM   29  H17 UNL     1      -2.608   4.275   0.298  1.00  0.00     0.150 HD
ENDBRANCH  26  27
ENDBRANCH  24  26
ENDBRANCH  10  24
BRANCH   1  30
HETATM   30  B1  UNL     1       1.681  -3.089  -2.444  1.00  0.00     0.147 B 
HETATM   31  H1  UNL     1       1.676  -4.040  -3.110  1.00  0.00    -0.031 HD
HETATM   32  H2  UNL     1       2.124  -3.222  -1.338  1.00  0.00    -0.031 HD
ENDBRANCH   1  30
TORSDOF 4
