REMARK  7 active torsions:
REMARK  status: ('A' for Active; 'I' for Inactive)
REMARK       I    between atoms: C2_2  and  N1_4 
REMARK    1  A    between atoms: N1_4  and  C3_5 
REMARK    2  A    between atoms: C8_10  and  N2_11 
REMARK    3  A    between atoms: N2_11  and  C9_12 
REMARK    4  A    between atoms: C10_13  and  C11_14 
REMARK    5  A    between atoms: C11_14  and  C12_15 
REMARK    6  A    between atoms: C11_14  and  C14_18 
REMARK    7  A    between atoms: C13_16  and  N3_17 
ROOT
HETATM    1  N2  UNL     1       0.672  -0.856  -1.286  1.00  0.00    -0.315 N 
HETATM    2  H10 UNL     1       0.928  -1.300  -2.209  1.00  0.00     0.176 HD
ENDROOT
BRANCH   1   3
HETATM    3  C8  UNL     1       1.678  -0.413  -0.427  1.00  0.00     0.048 A 
HETATM    4  C6  UNL     1       1.486   0.181   0.800  1.00  0.00    -0.035 A 
HETATM    5  C5  UNL     1       2.587   0.581   1.569  1.00  0.00     0.011 A 
HETATM    6  C7  UNL     1       0.123   0.386   1.286  1.00  0.00     0.050 C 
HETATM    7  C4  UNL     1       3.899   0.421   1.180  1.00  0.00     0.030 A 
HETATM    8  C3  UNL     1       4.054  -0.176  -0.051  1.00  0.00     0.036 A 
HETATM    9  C19 UNL     1       2.993  -0.573  -0.815  1.00  0.00     0.060 A 
BRANCH   8  10
HETATM   10  N1  UNL     1       5.410  -0.366  -0.504  1.00  0.00    -0.327 N 
HETATM   11  C2  UNL     1       6.169   0.557  -1.269  1.00  0.00     0.218 C 
HETATM   12  C1  UNL     1       7.566   0.200  -1.656  1.00  0.00     0.117 C 
HETATM   13  O1  UNL     1       5.724   1.670  -1.644  1.00  0.00    -0.274 OA
HETATM   14  H4  UNL     1       5.783  -1.305  -0.187  1.00  0.00     0.169 HD
ENDBRANCH   8  10
ENDBRANCH   1   3
BRANCH   1  15
HETATM   15  C9  UNL     1      -0.711  -0.799  -1.103  1.00  0.00     0.012 C 
HETATM   16  C10 UNL     1      -1.906  -0.734  -0.959  1.00  0.00    -0.070 C 
BRANCH  16  17
HETATM   17  C11 UNL     1      -3.375  -0.664  -0.807  1.00  0.00     0.124 C 
BRANCH  17  18
HETATM   18  C12 UNL     1      -3.774  -1.560   0.283  1.00  0.00     0.006 C 
HETATM   19  C13 UNL     1      -4.511  -2.630   0.037  1.00  0.00     0.051 C 
BRANCH  19  20
HETATM   20  N3  UNL     1      -4.862  -3.454   1.135  1.00  0.00    -0.312 NA
HETATM   21  H14 UNL     1      -4.898  -4.225   1.817  1.00  0.00     0.123 HD
HETATM   22  H15 UNL     1      -4.493  -4.377   1.461  1.00  0.00     0.123 HD
ENDBRANCH  19  20
ENDBRANCH  17  18
BRANCH  17  23
HETATM   23  C14 UNL     1      -3.803   0.724  -0.504  1.00  0.00    -0.021 A 
HETATM   24  C15 UNL     1      -3.395   1.466   0.597  1.00  0.00     0.011 A 
HETATM   25  C16 UNL     1      -3.825   2.750   0.829  1.00  0.00     0.020 A 
HETATM   26  C17 UNL     1      -4.698   3.370  -0.039  1.00  0.00     0.116 A 
HETATM   27  N4  UNL     1      -5.106   2.673  -1.110  1.00  0.00    -0.273 NA
HETATM   28  C18 UNL     1      -4.685   1.415  -1.337  1.00  0.00     0.124 A 
ENDBRANCH  17  23
ENDBRANCH  16  17
ENDBRANCH   1  15
TORSDOF 7
