REMARK  5 active torsions:
REMARK  status: ('A' for Active; 'I' for Inactive)
REMARK    1  A    between atoms: N1_2  and  O1_3 
REMARK    2  A    between atoms: N1_2  and  N2_4 
REMARK    3  A    between atoms: N2_4  and  C2_5 
REMARK    4  A    between atoms: C7_10  and  N3_11 
REMARK    5  A    between atoms: C10_15  and  C11_16 
ROOT
HETATM    1  C2  UNL     1       2.354   0.801  -0.055  1.00  0.00     0.048 A 
HETATM    2  C3  UNL     1       2.857   1.921   0.448  1.00  0.00     0.028 A 
HETATM    3  C4  UNL     1       2.264   3.222   0.160  1.00  0.00    -0.002 A 
HETATM    4  C5  UNL     1       1.207   3.200  -0.625  1.00  0.00    -0.024 A 
HETATM    5  C6  UNL     1       0.558   2.030  -1.241  1.00  0.00     0.060 A 
HETATM    6  C7  UNL     1       1.174   0.713  -0.938  1.00  0.00     0.165 A 
ENDROOT
BRANCH   6   7
HETATM    7  N3  UNL     1       0.150  -0.183  -0.519  1.00  0.00    -0.253 N 
HETATM    8  C8  UNL     1       0.565  -1.537  -0.400  1.00  0.00     0.223 A 
HETATM    9  N4  UNL     1      -0.241  -2.472  -0.032  1.00  0.00    -0.277 NA
HETATM   10  C9  UNL     1      -1.635  -2.272   0.300  1.00  0.00     0.212 A 
HETATM   11  C10 UNL     1      -1.972  -0.835   0.146  1.00  0.00     0.086 A 
HETATM   12  N6  UNL     1      -1.187   0.125  -0.221  1.00  0.00    -0.173 NA
BRANCH  11  13
HETATM   13  C11 UNL     1      -3.334  -0.395   0.429  1.00  0.00     0.009 A 
HETATM   14  C12 UNL     1      -3.727   0.906   0.313  1.00  0.00     0.016 A 
HETATM   15  C13 UNL     1      -5.017   1.342   0.578  1.00  0.00     0.020 A 
HETATM   16  C14 UNL     1      -5.922   0.368   0.979  1.00  0.00     0.116 A 
HETATM   17  N5  UNL     1      -5.588  -0.932   1.110  1.00  0.00    -0.272 NA
HETATM   18  C15 UNL     1      -4.318  -1.273   0.835  1.00  0.00     0.129 A 
ENDBRANCH  11  13
ENDBRANCH   6   7
BRANCH   1  19
HETATM   19  N2  UNL     1       3.037  -0.385   0.313  1.00  0.00    -0.299 N 
HETATM   20  H5  UNL     1       2.712  -0.872   1.197  1.00  0.00     0.183 HD
BRANCH  19  21
HETATM   21  N1  UNL     1       4.078  -0.812  -0.515  1.00  0.00    -0.112 NA
HETATM   22  C1  UNL     1       4.426  -2.180  -0.184  1.00  0.00     0.171 C 
BRANCH  21  23
HETATM   23  O1  UNL     1       3.777  -0.764  -1.828  1.00  0.00    -0.294 OA
HETATM   24  H4  UNL     1       3.461  -1.678  -2.110  1.00  0.00     0.239 HD
ENDBRANCH  21  23
ENDBRANCH  19  21
ENDBRANCH   1  19
TORSDOF 5
