REMARK  3 active torsions:
REMARK  status: ('A' for Active; 'I' for Inactive)
REMARK    1  A    between atoms: N2_7  and  C7_10 
REMARK    2  A    between atoms: C7_10  and  C8_11 
REMARK    3  A    between atoms: C7_10  and  N4_17 
ROOT
HETATM    1  O1  UNL     1      -3.809  -3.377  -0.309  1.00  0.00    -0.269 OA
HETATM    2  C1  UNL     1      -2.671  -3.235  -0.883  1.00  0.00     0.242 C 
HETATM    3  C2  UNL     1      -1.582  -3.602  -1.808  1.00  0.00     0.085 C 
HETATM    4  C3  UNL     1      -0.427  -3.535  -2.437  1.00  0.00     0.066 C 
HETATM    5  N1  UNL     1       0.582  -2.593  -2.300  1.00  0.00    -0.248 NA
HETATM    6  C4  UNL     1       1.789  -1.927  -2.093  1.00  0.00     0.358 A 
HETATM    7  N2  UNL     1       1.690  -0.817  -1.294  1.00  0.00     0.083 N 
HETATM    8  C5  UNL     1       0.469  -0.409  -0.862  1.00  0.00     0.288 A 
HETATM    9  C6  UNL     1       0.753   0.699  -0.102  1.00  0.00     0.070 A 
HETATM   10  C7  UNL     1       1.834   0.073  -0.677  1.00  0.00     0.256 A 
HETATM   11  N4  UNL     1       2.208  -0.906  -1.419  1.00  0.00    -0.036 NA
HETATM   12  C13 UNL     1      -0.628   1.032   0.309  1.00  0.00     0.025 C 
HETATM   13  C14 UNL     1      -1.298  -0.131   1.017  1.00  0.00    -0.012 C 
HETATM   14  C15 UNL     1      -2.620  -0.156   1.281  1.00  0.00    -0.044 C 
HETATM   15  C16 UNL     1      -3.387   0.948   1.848  1.00  0.00     0.004 C 
HETATM   16  C17 UNL     1      -2.955   2.216   1.995  1.00  0.00    -0.026 C 
HETATM   17  C18 UNL     1      -1.785   2.929   1.509  1.00  0.00     0.028 C 
HETATM   18  C19 UNL     1      -0.550   2.213   1.234  1.00  0.00     0.013 C 
HETATM   19  C20 UNL     1      -3.490  -1.353   0.997  1.00  0.00     0.161 C 
HETATM   20  N5  UNL     1      -2.853  -2.163   0.018  1.00  0.00    -0.353 N 
HETATM   21  H3  UNL     1       1.395  -3.252  -2.063  1.00  0.00     0.131 HD
HETATM   22  H19 UNL     1      -1.945  -1.721  -0.148  1.00  0.00     0.163 HD
ENDROOT
BRANCH  10  23
HETATM   23  C8  UNL     1       3.033   0.839  -0.267  1.00  0.00     0.013 A 
HETATM   24  C9  UNL     1       4.011   1.150  -1.218  1.00  0.00     0.014 A 
HETATM   25  C10 UNL     1       5.180   1.870  -0.933  1.00  0.00     0.020 A 
HETATM   26  C11 UNL     1       5.324   2.270   0.379  1.00  0.00     0.116 A 
HETATM   27  N3  UNL     1       4.399   1.979   1.296  1.00  0.00    -0.272 NA
HETATM   28  C12 UNL     1       3.278   1.290   1.023  1.00  0.00     0.127 A 
ENDBRANCH  10  23
TORSDOF 3
