REMARK  5 active torsions:
REMARK  status: ('A' for Active; 'I' for Inactive)
REMARK    1  A    between atoms: C5_5  and  N1_6 
REMARK    2  A    between atoms: N1_6  and  C6_7 
REMARK    3  A    between atoms: C9_10  and  C10_11 
REMARK    4  A    between atoms: N2_17  and  C15_18 
REMARK    5  A    between atoms: C17_21  and  C18_22 
ROOT
HETATM    1  C1  UNL     1      -2.972   2.309  -1.103  1.00  0.00     0.068 C 
HETATM    2  C2  UNL     1      -1.632   1.660  -1.122  1.00  0.00     0.011 A 
HETATM    3  C3  UNL     1      -0.529   2.291  -0.748  1.00  0.00     0.004 A 
HETATM    4  C4  UNL     1       0.870   1.794  -0.708  1.00  0.00     0.087 A 
HETATM    5  C5  UNL     1       0.860   0.386  -1.179  1.00  0.00     0.029 A 
HETATM    6  C14 UNL     1      -0.172  -0.341  -1.574  1.00  0.00     0.124 A 
HETATM    7  N2  UNL     1      -1.433   0.316  -1.541  1.00  0.00    -0.309 N 
ENDROOT
BRANCH   5   8
HETATM    8  N1  UNL     1       2.148  -0.216  -1.190  1.00  0.00    -0.361 N 
HETATM    9  H7  UNL     1       2.389  -0.633  -2.137  1.00  0.00     0.165 HD
BRANCH   8  10
HETATM   10  C6  UNL     1       3.252  -0.443  -0.305  1.00  0.00     0.012 C 
HETATM   11  C7  UNL     1       3.160  -1.594   0.325  1.00  0.00     0.026 C 
HETATM   12  C8  UNL     1       4.130  -2.098   1.286  1.00  0.00     0.016 C 
HETATM   13  C9  UNL     1       5.117  -1.468   1.888  1.00  0.00     0.001 C 
HETATM   14  C11 UNL     1       5.533  -0.075   1.772  1.00  0.00     0.011 C 
HETATM   15  C12 UNL     1       5.112   0.747   0.824  1.00  0.00    -0.020 C 
HETATM   16  C13 UNL     1       4.215   0.688  -0.333  1.00  0.00     0.084 C 
BRANCH  13  17
HETATM   17  C10 UNL     1       5.923  -2.261   2.810  1.00  0.00     0.269 C 
HETATM   18  O1  UNL     1       6.908  -1.780   3.459  1.00  0.00    -0.301 OA
ENDBRANCH  13  17
ENDBRANCH   8  10
ENDBRANCH   5   8
BRANCH   7  19
HETATM   19  C15 UNL     1      -2.569  -0.429  -1.957  1.00  0.00     0.146 A 
HETATM   20  N3  UNL     1      -2.827  -0.796  -3.163  1.00  0.00    -0.241 NA
HETATM   21  C16 UNL     1      -4.051  -1.450  -2.774  1.00  0.00     0.135 A 
HETATM   22  C17 UNL     1      -3.798  -1.076  -1.514  1.00  0.00     0.040 A 
BRANCH  22  23
HETATM   23  C18 UNL     1      -4.358  -1.167  -0.169  1.00  0.00    -0.003 A 
HETATM   24  C19 UNL     1      -3.848  -0.658   1.002  1.00  0.00     0.015 A 
HETATM   25  C20 UNL     1      -4.511  -0.838   2.191  1.00  0.00     0.020 A 
HETATM   26  C21 UNL     1      -5.704  -1.536   2.219  1.00  0.00     0.116 A 
HETATM   27  N4  UNL     1      -6.207  -2.034   1.091  1.00  0.00    -0.272 NA
HETATM   28  C22 UNL     1      -5.568  -1.867  -0.091  1.00  0.00     0.128 A 
ENDBRANCH  22  23
ENDBRANCH   7  19
TORSDOF 5
