REMARK  6 active torsions:
REMARK  status: ('A' for Active; 'I' for Inactive)
REMARK    1  A    between atoms: C2_2  and  C3_3 
REMARK    2  A    between atoms: C3_3  and  N1_4 
REMARK    3  A    between atoms: C4_5  and  C5_6 
REMARK    4  A    between atoms: C8_10  and  N3_11 
REMARK    5  A    between atoms: N3_11  and  C9_12 
REMARK    6  A    between atoms: C11_14  and  N4_15 
REMARK       I    between atoms: N4_15  and  C12_16 
ROOT
HETATM    1  N3  UNL     1      -0.460  -1.403  -1.516  1.00  0.00    -0.188 N 
HETATM    2  H9  UNL     1      -0.047  -2.121  -2.144  1.00  0.00     0.184 HD
ENDROOT
BRANCH   1   3
HETATM    3  C8  UNL     1       0.738  -0.783  -1.087  1.00  0.00     0.727 A 
HETATM    4  N2  UNL     1       1.195   0.288  -1.780  1.00  0.00    -0.075 NA
HETATM    5  C7  UNL     1       2.319   0.947  -1.466  1.00  0.00     0.139 A 
HETATM    6  C6  UNL     1       3.030   0.495  -0.378  1.00  0.00     0.053 A 
HETATM    7  C5  UNL     1       2.589  -0.589   0.343  1.00  0.00     0.094 A 
HETATM    8  N5  UNL     1       1.461  -1.193  -0.032  1.00  0.00    -0.061 NA
BRANCH   7   9
HETATM    9  C4  UNL     1       3.257  -1.136   1.481  1.00  0.00     0.148 C 
HETATM   10  N1  UNL     1       4.264  -1.025   2.236  1.00  0.00    -0.271 NA
BRANCH  10  11
HETATM   11  C3  UNL     1       5.294  -0.055   2.130  1.00  0.00     0.112 C 
BRANCH  11  12
HETATM   12  C2  UNL     1       5.932   1.089   2.119  1.00  0.00    -0.012 C 
HETATM   13  C1  UNL     1       5.548   2.489   2.338  1.00  0.00     0.037 C 
ENDBRANCH  11  12
ENDBRANCH  10  11
ENDBRANCH   7   9
ENDBRANCH   1   3
BRANCH   1  14
HETATM   14  C9  UNL     1      -1.856  -1.279  -1.313  1.00  0.00     0.057 A 
HETATM   15  C10 UNL     1      -2.361  -0.305  -0.485  1.00  0.00     0.060 A 
HETATM   16  C11 UNL     1      -3.701  -0.132  -0.256  1.00  0.00     0.036 A 
HETATM   17  C14 UNL     1      -4.529  -1.008  -0.917  1.00  0.00     0.030 A 
HETATM   18  C15 UNL     1      -4.032  -1.986  -1.748  1.00  0.00     0.011 A 
HETATM   19  C16 UNL     1      -2.685  -2.156  -1.975  1.00  0.00    -0.035 A 
HETATM   20  C17 UNL     1      -2.179  -3.221  -2.877  1.00  0.00     0.050 C 
BRANCH  16  21
HETATM   21  N4  UNL     1      -4.304   0.838   0.577  1.00  0.00    -0.327 N 
HETATM   22  C12 UNL     1      -3.694   1.829   1.378  1.00  0.00     0.218 C 
HETATM   23  C13 UNL     1      -4.420   2.799   2.216  1.00  0.00     0.117 C 
HETATM   24  O1  UNL     1      -2.443   1.918   1.403  1.00  0.00    -0.274 OA
HETATM   25  H11 UNL     1      -5.341   0.888   0.660  1.00  0.00     0.169 HD
ENDBRANCH  16  21
ENDBRANCH   1  14
TORSDOF 6
