REMARK  5 active torsions:
REMARK  status: ('A' for Active; 'I' for Inactive)
REMARK    1  A    between atoms: C2_2  and  C3_3 
REMARK    2  A    between atoms: C4_4  and  C5_5 
REMARK    3  A    between atoms: C8_9  and  N2_10 
REMARK    4  A    between atoms: N2_10  and  C9_11 
REMARK    5  A    between atoms: C11_13  and  N3_14 
REMARK       I    between atoms: N3_14  and  C12_15 
ROOT
HETATM    1  C9  UNL     1      -1.417  -0.489   1.239  1.00  0.00     0.057 A 
HETATM    2  C10 UNL     1      -1.807   0.408   0.268  1.00  0.00     0.060 A 
HETATM    3  C11 UNL     1      -2.997   1.084   0.449  1.00  0.00     0.036 A 
HETATM    4  C14 UNL     1      -3.750   0.838   1.593  1.00  0.00     0.030 A 
HETATM    5  C15 UNL     1      -3.311  -0.071   2.535  1.00  0.00     0.011 A 
HETATM    6  C16 UNL     1      -2.129  -0.763   2.387  1.00  0.00    -0.035 A 
HETATM    7  C17 UNL     1      -1.590  -1.761   3.363  1.00  0.00     0.050 C 
ENDROOT
BRANCH   1   8
HETATM    8  N2  UNL     1      -0.198  -1.157   1.007  1.00  0.00    -0.188 N 
HETATM    9  H8  UNL     1       0.161  -1.877   1.698  1.00  0.00     0.184 HD
BRANCH   8  10
HETATM   10  C8  UNL     1       0.838  -1.215   0.066  1.00  0.00     0.727 A 
HETATM   11  N1  UNL     1       0.751  -2.023  -1.009  1.00  0.00    -0.075 NA
HETATM   12  C7  UNL     1       1.814  -2.008  -1.867  1.00  0.00     0.139 A 
HETATM   13  C6  UNL     1       2.881  -1.185  -1.582  1.00  0.00     0.052 A 
HETATM   14  C5  UNL     1       2.986  -0.353  -0.490  1.00  0.00     0.077 A 
HETATM   15  N4  UNL     1       1.889  -0.418   0.327  1.00  0.00    -0.063 NA
BRANCH  14  16
HETATM   16  C4  UNL     1       4.106   0.516  -0.189  1.00  0.00     0.032 C 
HETATM   17  C3  UNL     1       5.158   0.628  -0.945  1.00  0.00     0.002 C 
BRANCH  17  18
HETATM   18  C2  UNL     1       6.256   1.521  -0.587  1.00  0.00    -0.010 C 
HETATM   19  C1  UNL     1       7.314   1.633  -1.350  1.00  0.00     0.011 C 
ENDBRANCH  17  18
ENDBRANCH  14  16
ENDBRANCH   8  10
ENDBRANCH   1   8
BRANCH   3  20
HETATM   20  N3  UNL     1      -3.643   2.052  -0.372  1.00  0.00    -0.327 N 
HETATM   21  C12 UNL     1      -4.524   1.427  -1.290  1.00  0.00     0.218 C 
HETATM   22  C13 UNL     1      -5.392   2.034  -2.319  1.00  0.00     0.117 C 
HETATM   23  O1  UNL     1      -4.622   0.179  -1.272  1.00  0.00    -0.274 OA
HETATM   24  H10 UNL     1      -3.618   3.092  -0.452  1.00  0.00     0.169 HD
ENDBRANCH   3  20
TORSDOF 5
