REMARK  4 active torsions:
REMARK  status: ('A' for Active; 'I' for Inactive)
REMARK    1  A    between atoms: C5_5  and  C6_6 
REMARK    2  A    between atoms: C6_6  and  N1_8 
REMARK    3  A    between atoms: C9_10  and  N2_11 
REMARK    4  A    between atoms: C12_15  and  C13_16 
ROOT
HETATM    1  C1  UNL     1      -1.414  -3.774   0.422  1.00  0.00     0.050 C 
HETATM    2  C2  UNL     1      -1.851  -2.365   0.401  1.00  0.00    -0.033 A 
HETATM    3  C3  UNL     1      -3.163  -2.137   0.745  1.00  0.00     0.010 A 
HETATM    4  C4  UNL     1      -3.678  -0.871   0.798  1.00  0.00     0.010 A 
HETATM    5  C5  UNL     1      -2.853   0.169   0.499  1.00  0.00    -0.024 A 
HETATM    6  C8  UNL     1      -1.564  -0.099   0.164  1.00  0.00     0.041 A 
HETATM    7  C9  UNL     1      -0.967  -1.362   0.087  1.00  0.00     0.066 A 
ENDROOT
BRANCH   7   8
HETATM    8  N2  UNL     1       0.360  -1.452  -0.329  1.00  0.00    -0.227 N 
HETATM    9  C10 UNL     1       1.046  -2.539  -0.888  1.00  0.00     0.229 A 
HETATM   10  N3  UNL     1       2.292  -2.558  -1.206  1.00  0.00    -0.277 NA
HETATM   11  C11 UNL     1       3.141  -1.389  -1.003  1.00  0.00     0.212 A 
HETATM   12  C12 UNL     1       2.391  -0.265  -0.417  1.00  0.00     0.086 A 
HETATM   13  N5  UNL     1       1.147  -0.314  -0.123  1.00  0.00    -0.168 NA
BRANCH  12  14
HETATM   14  C13 UNL     1       3.170   0.938  -0.189  1.00  0.00     0.009 A 
HETATM   15  C14 UNL     1       4.511   1.079  -0.472  1.00  0.00     0.016 A 
HETATM   16  C15 UNL     1       5.285   2.199  -0.271  1.00  0.00     0.020 A 
HETATM   17  C16 UNL     1       4.614   3.298   0.280  1.00  0.00     0.116 A 
HETATM   18  N4  UNL     1       3.305   3.229   0.580  1.00  0.00    -0.272 NA
HETATM   19  C17 UNL     1       2.633   2.112   0.355  1.00  0.00     0.129 A 
ENDBRANCH  12  14
ENDBRANCH   7   8
BRANCH   5  20
HETATM   20  C6  UNL     1      -3.416   1.534   0.558  1.00  0.00     0.246 C 
HETATM   21  C7  UNL     1      -2.562   2.546  -0.165  1.00  0.00     0.047 C 
BRANCH  20  22
HETATM   22  N1  UNL     1      -4.728   1.513  -0.074  1.00  0.00     0.086 N 
HETATM   23  H10 UNL     1      -4.712   0.757  -0.791  1.00  0.00     0.313 HD
HETATM   24  H11 UNL     1      -4.998   2.435  -0.473  1.00  0.00     0.313 HD
ENDBRANCH  20  22
ENDBRANCH   5  20
TORSDOF 4
