REMARK  6 active torsions:
REMARK  status: ('A' for Active; 'I' for Inactive)
REMARK       I    between atoms: C2_2  and  N1_4 
REMARK    1  A    between atoms: N1_4  and  C3_5 
REMARK    2  A    between atoms: C8_10  and  C9_11 
REMARK    3  A    between atoms: C11_14  and  C12_15 
REMARK    4  A    between atoms: N3_16  and  C13_17 
REMARK    5  A    between atoms: C14_18  and  C15_19 
REMARK    6  A    between atoms: C15_19  and  N4_20 
ROOT
HETATM    1  C9  UNL     1       0.278   1.418  -0.728  1.00  0.00     0.156 A 
HETATM    2  N2  UNL     1      -0.325   2.503  -1.061  1.00  0.00    -0.264 NA
HETATM    3  C10 UNL     1      -1.741   2.327  -0.937  1.00  0.00     0.212 A 
HETATM    4  C11 UNL     1      -1.871   0.931  -0.466  1.00  0.00     0.074 A 
HETATM    5  N5  UNL     1      -0.669   0.444  -0.359  1.00  0.00    -0.230 NA
ENDROOT
BRANCH   1   6
HETATM    6  C8  UNL     1       1.748   1.265  -0.745  1.00  0.00     0.019 A 
HETATM    7  C6  UNL     1       2.533   2.329  -1.135  1.00  0.00    -0.048 A 
HETATM    8  C5  UNL     1       3.905   2.074  -1.114  1.00  0.00     0.010 A 
HETATM    9  C7  UNL     1       1.989   3.626  -1.542  1.00  0.00     0.049 C 
HETATM   10  C4  UNL     1       4.489   0.876  -0.742  1.00  0.00     0.030 A 
HETATM   11  C3  UNL     1       3.653  -0.154  -0.360  1.00  0.00     0.035 A 
HETATM   12  C16 UNL     1       2.289   0.049  -0.365  1.00  0.00     0.045 A 
BRANCH  11  13
HETATM   13  N1  UNL     1       4.324  -1.353   0.008  1.00  0.00    -0.327 N 
HETATM   14  C2  UNL     1       4.722  -1.577   1.365  1.00  0.00     0.218 C 
HETATM   15  C1  UNL     1       5.423  -2.824   1.762  1.00  0.00     0.117 C 
HETATM   16  O1  UNL     1       4.582  -0.855   2.395  1.00  0.00    -0.274 OA
HETATM   17  H4  UNL     1       4.565  -2.120  -0.649  1.00  0.00     0.169 HD
ENDBRANCH  11  13
ENDBRANCH   1   6
BRANCH   4  18
HETATM   18  C12 UNL     1      -3.078   0.151  -0.150  1.00  0.00     0.145 C 
HETATM   19  N3  UNL     1      -2.935  -1.050   0.243  1.00  0.00    -0.271 NA
BRANCH  19  20
HETATM   20  C13 UNL     1      -4.027  -1.903   0.578  1.00  0.00     0.114 C 
HETATM   21  C14 UNL     1      -5.316  -1.674   0.382  1.00  0.00     0.022 C 
BRANCH  21  22
HETATM   22  C15 UNL     1      -6.492  -2.512   0.704  1.00  0.00     0.295 C 
BRANCH  22  23
HETATM   23  N4  UNL     1      -7.397  -1.823   1.628  1.00  0.00     0.081 N 
HETATM   24  H17 UNL     1      -6.857  -1.294   2.337  1.00  0.00     0.313 HD
HETATM   25  H18 UNL     1      -7.936  -1.108   1.065  1.00  0.00     0.313 HD
ENDBRANCH  22  23
ENDBRANCH  21  22
ENDBRANCH  19  20
ENDBRANCH   4  18
TORSDOF 6
