REMARK  4 active torsions:
REMARK  status: ('A' for Active; 'I' for Inactive)
REMARK    1  A    between atoms: C4_4  and  N1_5 
REMARK    2  A    between atoms: N1_5  and  C5_6 
REMARK    3  A    between atoms: N2_11  and  C10_12 
REMARK    4  A    between atoms: C13_16  and  C14_17 
ROOT
HETATM    1  C1  UNL     1       0.709  -2.445   0.782  1.00  0.00     0.069 C 
HETATM    2  C2  UNL     1       1.014  -1.661  -0.437  1.00  0.00     0.028 A 
HETATM    3  C3  UNL     1       2.248  -1.473  -0.915  1.00  0.00     0.027 A 
HETATM    4  C4  UNL     1       2.601  -0.702  -2.124  1.00  0.00     0.126 A 
HETATM    5  C8  UNL     1       1.352  -0.167  -2.721  1.00  0.00     0.020 A 
HETATM    6  C9  UNL     1       0.096  -0.297  -2.324  1.00  0.00     0.113 A 
HETATM    7  N2  UNL     1      -0.070  -1.071  -1.143  1.00  0.00    -0.159 N 
ENDROOT
BRANCH   7   8
HETATM    8  C10 UNL     1      -1.395  -1.252  -0.660  1.00  0.00     0.733 A 
HETATM    9  N3  UNL     1      -2.130  -2.285  -1.069  1.00  0.00    -0.074 NA
HETATM   10  C11 UNL     1      -3.382  -2.518  -0.657  1.00  0.00     0.139 A 
HETATM   11  C12 UNL     1      -3.892  -1.606   0.242  1.00  0.00     0.053 A 
HETATM   12  C13 UNL     1      -3.167  -0.524   0.692  1.00  0.00     0.089 A 
HETATM   13  N5  UNL     1      -1.920  -0.378   0.219  1.00  0.00    -0.062 NA
BRANCH  12  14
HETATM   14  C14 UNL     1      -3.667   0.461   1.640  1.00  0.00     0.011 A 
HETATM   15  C15 UNL     1      -2.831   1.491   2.001  1.00  0.00     0.017 A 
HETATM   16  C16 UNL     1      -3.313   2.437   2.912  1.00  0.00     0.020 A 
HETATM   17  C17 UNL     1      -4.581   2.383   3.461  1.00  0.00     0.116 A 
HETATM   18  N4  UNL     1      -5.333   1.353   3.061  1.00  0.00    -0.272 NA
HETATM   19  C18 UNL     1      -4.922   0.427   2.198  1.00  0.00     0.130 A 
ENDBRANCH  12  14
ENDBRANCH   7   8
BRANCH   4  20
HETATM   20  N1  UNL     1       3.626   0.258  -1.970  1.00  0.00    -0.407 N 
HETATM   21  H6  UNL     1       4.137   0.523  -2.810  1.00  0.00     0.154 HD
BRANCH  20  22
HETATM   22  C5  UNL     1       3.429   1.316  -1.048  1.00  0.00     0.069 C 
HETATM   23  C6  UNL     1       4.666   2.227  -1.122  1.00  0.00     0.031 C 
HETATM   24  C7  UNL     1       3.500   0.730   0.371  1.00  0.00     0.031 C 
ENDBRANCH  20  22
ENDBRANCH   4  20
TORSDOF 4
