REMARK  5 active torsions:
REMARK  status: ('A' for Active; 'I' for Inactive)
REMARK       I    between atoms: C2_2  and  N1_4 
REMARK    1  A    between atoms: N1_4  and  C3_5 
REMARK    2  A    between atoms: C8_10  and  N2_11 
REMARK    3  A    between atoms: N2_11  and  C9_12 
REMARK    4  A    between atoms: N3_13  and  C10_14 
REMARK    5  A    between atoms: C11_15  and  C12_16 
ROOT
HETATM    1  C3  UNL     1      -3.334  -0.020   0.092  1.00  0.00     0.036 A 
HETATM    2  C4  UNL     1      -3.123   0.579  -1.126  1.00  0.00     0.030 A 
HETATM    3  C5  UNL     1      -2.093   0.285  -1.992  1.00  0.00     0.011 A 
HETATM    4  C6  UNL     1      -1.185  -0.693  -1.624  1.00  0.00    -0.035 A 
HETATM    5  C7  UNL     1      -0.060  -1.041  -2.526  1.00  0.00     0.050 C 
HETATM    6  C8  UNL     1      -1.371  -1.313  -0.405  1.00  0.00     0.041 A 
HETATM    7  C17 UNL     1      -2.417  -0.988   0.433  1.00  0.00     0.059 A 
ENDROOT
BRANCH   6   8
HETATM    8  N2  UNL     1      -0.418  -2.311  -0.077  1.00  0.00    -0.350 N 
HETATM    9  H10 UNL     1      -0.681  -3.303  -0.351  1.00  0.00     0.166 HD
BRANCH   8  10
HETATM   10  C9  UNL     1       0.793  -1.954   0.575  1.00  0.00     0.207 C 
HETATM   11  N3  UNL     1       0.883  -0.810   1.208  1.00  0.00    -0.256 NA
BRANCH  11  12
HETATM   12  C10 UNL     1       2.123  -0.528   1.830  1.00  0.00     0.115 C 
HETATM   13  C11 UNL     1       3.302   0.002   1.630  1.00  0.00     0.011 C 
BRANCH  13  14
HETATM   14  C12 UNL     1       4.017   0.652   0.520  1.00  0.00     0.028 A 
HETATM   15  C13 UNL     1       4.467   2.050   0.949  1.00  0.00     0.030 C 
HETATM   16  C14 UNL     1       5.263  -0.110   0.150  1.00  0.00     0.011 A 
HETATM   17  C15 UNL     1       5.175  -0.418  -1.141  1.00  0.00     0.113 A 
HETATM   18  N4  UNL     1       3.952   0.085  -1.672  1.00  0.00    -0.276 NA
HETATM   19  C16 UNL     1       3.273   0.699  -0.746  1.00  0.00     0.106 A 
ENDBRANCH  13  14
ENDBRANCH  11  12
ENDBRANCH   8  10
ENDBRANCH   6   8
BRANCH   1  20
HETATM   20  N1  UNL     1      -4.387   0.263   0.993  1.00  0.00    -0.327 N 
HETATM   21  C2  UNL     1      -5.446   1.170   0.899  1.00  0.00     0.218 C 
HETATM   22  C1  UNL     1      -6.485   1.349   1.952  1.00  0.00     0.117 C 
HETATM   23  O1  UNL     1      -5.529   1.878  -0.133  1.00  0.00    -0.274 OA
HETATM   24  H4  UNL     1      -4.421  -0.275   1.904  1.00  0.00     0.169 HD
ENDBRANCH   1  20
TORSDOF 5
