REMARK  2 active torsions:
REMARK  status: ('A' for Active; 'I' for Inactive)
REMARK    1  A    between atoms: C9_9  and  C10_10 
REMARK    2  A    between atoms: C10_10  and  C11_11 
ROOT
HETATM    1  C1  UNL     1       5.010   2.353  -1.712  1.00  0.00    -0.021 C 
HETATM    2  C2  UNL     1       3.837   2.937  -1.919  1.00  0.00    -0.007 C 
HETATM    3  C3  UNL     1       2.464   2.473  -1.797  1.00  0.00    -0.017 C 
HETATM    4  C4  UNL     1       1.455   1.658  -1.552  1.00  0.00     0.051 C 
HETATM    5  C5  UNL     1       1.114   0.258  -1.093  1.00  0.00    -0.042 C 
HETATM    6  C6  UNL     1      -0.211   0.234  -1.174  1.00  0.00    -0.017 C 
HETATM    7  C7  UNL     1      -1.526  -0.373  -1.056  1.00  0.00     0.055 C 
HETATM    8  C8  UNL     1      -2.435   0.197  -0.059  1.00  0.00    -0.013 C 
HETATM    9  C9  UNL     1      -3.054  -0.328   1.013  1.00  0.00    -0.028 C 
HETATM   10  C16 UNL     1      -2.963  -1.697   1.479  1.00  0.00     0.083 A 
HETATM   11  C17 UNL     1      -3.950  -2.529   1.959  1.00  0.00     0.052 A 
HETATM   12  C18 UNL     1      -3.631  -3.828   2.336  1.00  0.00     0.139 A 
HETATM   13  N2  UNL     1      -2.313  -4.225   2.209  1.00  0.00    -0.075 NA
HETATM   14  C19 UNL     1      -1.413  -3.346   1.732  1.00  0.00     0.723 A 
HETATM   15  N3  UNL     1      -1.706  -2.083   1.361  1.00  0.00    -0.063 NA
HETATM   16  N4  UNL     1      -0.006  -3.577   1.515  1.00  0.00    -0.215 N 
HETATM   17  C20 UNL     1       0.676  -3.016   0.391  1.00  0.00     0.130 C 
HETATM   18  C21 UNL     1       1.322  -2.157  -0.365  1.00  0.00     0.057 C 
HETATM   19  C22 UNL     1       1.899  -0.833  -0.524  1.00  0.00     0.256 C 
HETATM   20  N5  UNL     1       3.246  -0.934  -1.118  1.00  0.00     0.092 N 
HETATM   21  C23 UNL     1       4.140  -1.431  -0.143  1.00  0.00     0.271 C 
HETATM   22  C24 UNL     1       5.580  -1.342  -0.512  1.00  0.00     0.036 C 
HETATM   23  C25 UNL     1       5.974   0.019  -0.988  1.00  0.00     0.000 C 
HETATM   24  C26 UNL     1       4.976   0.926  -1.246  1.00  0.00     0.020 C 
HETATM   25  H17 UNL     1       0.408  -4.184   2.253  1.00  0.00     0.178 HD
HETATM   26  H21 UNL     1       3.099  -1.723  -1.816  1.00  0.00     0.316 HD
ENDROOT
BRANCH   9  27
HETATM   27  C10 UNL     1      -3.970   0.391   1.955  1.00  0.00     0.080 C 
BRANCH  27  28
HETATM   28  C11 UNL     1      -4.100   1.831   1.578  1.00  0.00    -0.036 A 
HETATM   29  C12 UNL     1      -5.088   2.207   0.689  1.00  0.00     0.010 A 
HETATM   30  C13 UNL     1      -5.235   3.539   0.316  1.00  0.00     0.020 A 
HETATM   31  C14 UNL     1      -4.325   4.424   0.904  1.00  0.00     0.116 A 
HETATM   32  N1  UNL     1      -3.373   4.026   1.768  1.00  0.00    -0.273 NA
HETATM   33  C15 UNL     1      -3.220   2.738   2.137  1.00  0.00     0.123 A 
ENDBRANCH  27  28
ENDBRANCH   9  27
TORSDOF 2
