REMARK  1 active torsions:
REMARK  status: ('A' for Active; 'I' for Inactive)
REMARK    1  A    between atoms: C2_2  and  C3_3 
ROOT
HETATM    1  C3  UNL     1       2.034   1.053  -0.255  1.00  0.00     0.065 C 
HETATM    2  C4  UNL     1       1.318   2.327  -0.314  1.00  0.00     0.120 C 
HETATM    3  C5  UNL     1       0.161   2.534  -0.958  1.00  0.00     0.063 C 
HETATM    4  N1  UNL     1      -0.722   3.651  -1.146  1.00  0.00    -0.393 N 
HETATM    5  C6  UNL     1      -0.989   3.660   0.293  1.00  0.00     0.221 C 
HETATM    6  C7  UNL     1      -1.574   2.398   0.786  1.00  0.00     0.239 C 
HETATM    7  O1  UNL     1      -2.041   1.550   1.626  1.00  0.00    -0.271 OA
HETATM    8  N2  UNL     1      -1.931   1.238   0.056  1.00  0.00    -0.326 N 
HETATM    9  C8  UNL     1      -2.431  -0.045   0.334  1.00  0.00     0.035 C 
HETATM   10  C9  UNL     1      -3.637  -0.551   0.175  1.00  0.00     0.029 C 
HETATM   11  C10 UNL     1      -3.996  -1.976   0.404  1.00  0.00    -0.001 C 
HETATM   12  C11 UNL     1      -3.047  -2.934   0.434  1.00  0.00    -0.022 C 
HETATM   13  C12 UNL     1      -1.594  -3.059   0.470  1.00  0.00     0.063 C 
HETATM   14  C13 UNL     1      -0.823  -1.829   0.091  1.00  0.00    -0.057 C 
HETATM   15  C14 UNL     1      -1.232  -0.798   0.875  1.00  0.00     0.034 C 
HETATM   16  C15 UNL     1       0.126  -2.145  -1.009  1.00  0.00     0.155 C 
HETATM   17  N3  UNL     1       1.007  -1.034  -1.293  1.00  0.00    -0.373 N 
HETATM   18  C16 UNL     1       2.072  -0.390  -0.596  1.00  0.00     0.110 C 
HETATM   19  N4  UNL     1       2.826  -1.371  -0.462  1.00  0.00    -0.281 NA
HETATM   20  C17 UNL     1       4.114  -1.479   0.158  1.00  0.00     0.179 C 
HETATM   21  H5  UNL     1      -1.090   4.281  -1.868  1.00  0.00     0.159 HD
HETATM   22  H8  UNL     1      -2.064   0.786  -0.905  1.00  0.00     0.169 HD
HETATM   23  H17 UNL     1       0.967  -0.483  -2.178  1.00  0.00     0.161 HD
ENDROOT
BRANCH   1  24
HETATM   24  C2  UNL     1       3.186   1.212   0.392  1.00  0.00    -0.169 C 
HETATM   25  C1  UNL     1       4.239   1.608   1.072  1.00  0.00     0.092 C 
ENDBRANCH   1  24
TORSDOF 1
