REMARK  3 active torsions:
REMARK  status: ('A' for Active; 'I' for Inactive)
REMARK    1  A    between atoms: C5_5  and  N1_6 
REMARK    2  A    between atoms: C9_11  and  C10_12 
REMARK    3  A    between atoms: C11_13  and  N3_14 
ROOT
HETATM    1  C1  UNL     1      -3.657  -2.553  -0.851  1.00  0.00     0.050 C 
HETATM    2  C2  UNL     1      -2.479  -2.213  -0.009  1.00  0.00    -0.036 C 
HETATM    3  C3  UNL     1      -1.238  -2.710  -0.060  1.00  0.00    -0.015 C 
HETATM    4  C4  UNL     1      -0.033  -2.415   0.744  1.00  0.00     0.070 C 
HETATM    5  C5  UNL     1       1.144  -1.916  -0.001  1.00  0.00     0.178 C 
HETATM    6  C6  UNL     1       1.073  -2.171  -1.490  1.00  0.00     0.072 C 
HETATM    7  C7  UNL     1       0.433  -0.951  -1.975  1.00  0.00     0.004 C 
HETATM    8  C8  UNL     1       0.129  -0.098  -0.978  1.00  0.00     0.047 C 
HETATM    9  N2  UNL     1      -0.952   0.781  -1.025  1.00  0.00    -0.252 NA
HETATM   10  C9  UNL     1      -2.014   0.766  -0.309  1.00  0.00     0.071 C 
HETATM   11  C12 UNL     1      -2.795   0.145   0.751  1.00  0.00     0.022 A 
HETATM   12  C13 UNL     1      -3.313   1.076   1.623  1.00  0.00     0.017 A 
HETATM   13  C14 UNL     1      -4.086   0.700   2.703  1.00  0.00     0.020 A 
HETATM   14  C15 UNL     1      -4.275  -0.665   2.808  1.00  0.00     0.117 A 
HETATM   15  N4  UNL     1      -3.759  -1.588   1.941  1.00  0.00    -0.260 NA
HETATM   16  C16 UNL     1      -3.009  -1.205   0.894  1.00  0.00     0.074 A 
HETATM   17  C17 UNL     1       1.207  -0.407   0.005  1.00  0.00     0.062 A 
HETATM   18  C18 UNL     1       2.475   0.025  -0.662  1.00  0.00     0.004 A 
HETATM   19  C19 UNL     1       3.404   0.886  -0.241  1.00  0.00    -0.029 A 
HETATM   20  C20 UNL     1       4.545   1.221  -0.936  1.00  0.00     0.012 A 
HETATM   21  C21 UNL     1       5.423   2.124  -0.379  1.00  0.00     0.001 A 
HETATM   22  C22 UNL     1       5.214   2.716   0.850  1.00  0.00     0.001 A 
HETATM   23  C23 UNL     1       4.080   2.406   1.578  1.00  0.00     0.012 A 
HETATM   24  C24 UNL     1       3.227   1.505   1.000  1.00  0.00    -0.030 A 
HETATM   25  C25 UNL     1       2.135   1.176   1.662  1.00  0.00    -0.013 A 
HETATM   26  C26 UNL     1       1.011   0.232   1.325  1.00  0.00     0.050 A 
ENDROOT
BRANCH   5  27
HETATM   27  N1  UNL     1       2.405  -2.447   0.468  1.00  0.00     0.090 N 
HETATM   28  H7  UNL     1       2.647  -3.284  -0.137  1.00  0.00     0.313 HD
HETATM   29  H8  UNL     1       2.453  -2.634   1.475  1.00  0.00     0.313 HD
ENDBRANCH   5  27
BRANCH  10  30
HETATM   30  C10 UNL     1      -2.579   1.961  -0.973  1.00  0.00     0.049 C 
HETATM   31  C11 UNL     1      -1.826   2.464  -1.908  1.00  0.00     0.082 C 
BRANCH  31  32
HETATM   32  N3  UNL     1      -2.107   3.606  -2.714  1.00  0.00    -0.408 N 
HETATM   33  H14 UNL     1      -1.815   4.608  -2.602  1.00  0.00     0.155 HD
HETATM   34  H15 UNL     1      -2.576   3.990  -3.554  1.00  0.00     0.155 HD
ENDBRANCH  31  32
ENDBRANCH  10  30
TORSDOF 3
