REMARK  5 active torsions:
REMARK  status: ('A' for Active; 'I' for Inactive)
REMARK    1  A    between atoms: C5_5  and  N1_6 
REMARK       I    between atoms: N1_6  and  C6_7 
REMARK    2  A    between atoms: C6_7  and  C7_9 
REMARK    3  A    between atoms: C9_11  and  N2_12 
REMARK    4  A    between atoms: N2_12  and  C10_13 
REMARK    5  A    between atoms: C13_17  and  C14_18 
ROOT
HETATM    1  C7  UNL     1      -1.560  -0.645  -0.843  1.00  0.00     0.031 C 
HETATM    2  C8  UNL     1      -0.689   0.377  -0.853  1.00  0.00     0.031 C 
HETATM    3  C9  UNL     1       0.698   0.616  -1.256  1.00  0.00     0.112 A 
HETATM    4  C19 UNL     1       1.037   1.624  -2.294  1.00  0.00     0.024 A 
HETATM    5  C20 UNL     1       0.959   0.313  -2.667  1.00  0.00    -0.022 A 
HETATM    6  C21 UNL     1       0.962  -0.958  -3.408  1.00  0.00     0.010 C 
HETATM    7  C22 UNL     1       0.310  -2.119  -3.221  1.00  0.00     0.001 C 
HETATM    8  C23 UNL     1      -0.651  -2.587  -2.229  1.00  0.00     0.001 C 
HETATM    9  C24 UNL     1      -1.403  -2.027  -1.279  1.00  0.00     0.017 C 
ENDROOT
BRANCH   3  10
HETATM   10  N2  UNL     1       1.772   0.384  -0.301  1.00  0.00    -0.202 N 
HETATM   11  H8  UNL     1       1.554   0.053   0.659  1.00  0.00     0.179 HD
BRANCH  10  12
HETATM   12  C10 UNL     1       3.118   0.614  -0.696  1.00  0.00     0.724 A 
HETATM   13  N3  UNL     1       3.428   1.037  -1.921  1.00  0.00    -0.075 NA
HETATM   14  C11 UNL     1       4.711   1.265  -2.324  1.00  0.00     0.139 A 
HETATM   15  C12 UNL     1       5.722   1.033  -1.385  1.00  0.00     0.053 A 
HETATM   16  C13 UNL     1       5.410   0.596  -0.120  1.00  0.00     0.089 A 
HETATM   17  N5  UNL     1       4.119   0.396   0.197  1.00  0.00    -0.062 NA
BRANCH  16  18
HETATM   18  C14 UNL     1       6.403   0.333   0.913  1.00  0.00     0.011 A 
HETATM   19  C15 UNL     1       5.961  -0.103   2.145  1.00  0.00     0.017 A 
HETATM   20  C16 UNL     1       6.905  -0.357   3.135  1.00  0.00     0.020 A 
HETATM   21  C17 UNL     1       8.264  -0.195   2.952  1.00  0.00     0.116 A 
HETATM   22  N4  UNL     1       8.636   0.233   1.728  1.00  0.00    -0.272 NA
HETATM   23  C18 UNL     1       7.762   0.490   0.742  1.00  0.00     0.130 A 
ENDBRANCH  16  18
ENDBRANCH  10  12
ENDBRANCH   3  10
BRANCH   1  24
HETATM   24  C6  UNL     1      -2.865  -0.292  -0.302  1.00  0.00     0.256 C 
HETATM   25  N1  UNL     1      -4.030  -1.087  -0.131  1.00  0.00    -0.323 N 
HETATM   26  H6  UNL     1      -3.923  -2.075  -0.450  1.00  0.00     0.169 HD
HETATM   27  O1  UNL     1      -3.022   0.904   0.089  1.00  0.00    -0.267 OA
BRANCH  25  28
HETATM   28  C5  UNL     1      -5.199  -0.502   0.431  1.00  0.00     0.035 A 
HETATM   29  C4  UNL     1      -5.387  -0.533   1.817  1.00  0.00     0.030 A 
HETATM   30  C3  UNL     1      -6.523   0.043   2.294  1.00  0.00     0.009 A 
HETATM   31  C2  UNL     1      -7.493   0.649   1.524  1.00  0.00    -0.062 A 
HETATM   32  C1  UNL     1      -8.732   1.276   2.056  1.00  0.00     0.048 C 
HETATM   33  C26 UNL     1      -7.302   0.677   0.154  1.00  0.00     0.009 A 
HETATM   34  C25 UNL     1      -6.160   0.103  -0.372  1.00  0.00     0.030 A 
ENDBRANCH  25  28
ENDBRANCH   1  24
TORSDOF 5
