REMARK  3 active torsions:
REMARK  status: ('A' for Active; 'I' for Inactive)
REMARK    1  A    between atoms: C4_4  and  N1_5 
REMARK    2  A    between atoms: C6_7  and  N2_8 
REMARK    3  A    between atoms: N2_8  and  C7_9 
ROOT
HETATM    1  C7  UNL     1      -0.298  -1.097  -0.651  1.00  0.00     0.727 A 
HETATM    2  N3  UNL     1      -0.420  -0.833  -1.991  1.00  0.00    -0.075 NA
HETATM    3  C8  UNL     1       0.697  -0.274  -2.583  1.00  0.00     0.139 A 
HETATM    4  C9  UNL     1       1.795  -0.065  -1.691  1.00  0.00     0.053 A 
HETATM    5  C10 UNL     1       1.971  -0.330  -0.256  1.00  0.00     0.089 A 
HETATM    6  C11 UNL     1       3.313   0.179  -0.267  1.00  0.00     0.011 A 
HETATM    7  C12 UNL     1       3.673  -0.133   1.055  1.00  0.00     0.017 A 
HETATM    8  C13 UNL     1       4.911   0.124   1.684  1.00  0.00     0.020 A 
HETATM    9  C14 UNL     1       5.810   0.758   0.811  1.00  0.00     0.116 A 
HETATM   10  N4  UNL     1       5.475   1.064  -0.470  1.00  0.00    -0.272 NA
HETATM   11  C15 UNL     1       4.280   0.786  -0.982  1.00  0.00     0.130 A 
HETATM   12  N5  UNL     1       0.823  -0.772  -0.227  1.00  0.00    -0.062 NA
ENDROOT
BRANCH   1  13
HETATM   13  N2  UNL     1      -1.271  -1.667   0.199  1.00  0.00    -0.188 N 
HETATM   14  H9  UNL     1      -1.111  -2.647   0.513  1.00  0.00     0.184 HD
BRANCH  13  15
HETATM   15  C6  UNL     1      -2.365  -0.838   0.544  1.00  0.00     0.053 A 
HETATM   16  C2  UNL     1      -2.537   0.574   0.804  1.00  0.00    -0.036 A 
HETATM   17  C1  UNL     1      -1.433   1.535   0.756  1.00  0.00     0.050 C 
HETATM   18  C3  UNL     1      -3.846   0.752   1.074  1.00  0.00     0.021 A 
HETATM   19  C4  UNL     1      -4.599  -0.507   1.009  1.00  0.00     0.266 A 
HETATM   20  C5  UNL     1      -3.550  -1.467   0.660  1.00  0.00     0.042 A 
BRANCH  19  21
HETATM   21  N1  UNL     1      -5.558  -0.412  -0.067  1.00  0.00     0.090 N 
HETATM   22  H6  UNL     1      -5.172  -0.876  -0.908  1.00  0.00     0.314 HD
HETATM   23  H7  UNL     1      -5.825   0.553  -0.303  1.00  0.00     0.314 HD
ENDBRANCH  19  21
ENDBRANCH  13  15
ENDBRANCH   1  13
TORSDOF 3
