REMARK  3 active torsions:
REMARK  status: ('A' for Active; 'I' for Inactive)
REMARK    1  A    between atoms: C6_7  and  C7_8 
REMARK    2  A    between atoms: C10_12  and  C11_13 
REMARK    3  A    between atoms: C13_15  and  N3_16 
ROOT
HETATM    1  C7  UNL     1       1.674   0.470   0.437  1.00  0.00     0.072 A 
HETATM    2  C8  UNL     1       1.654   1.627   1.157  1.00  0.00     0.052 A 
HETATM    3  C9  UNL     1       0.568   2.381   1.515  1.00  0.00     0.121 A 
HETATM    4  N2  UNL     1      -0.644   1.908   1.094  1.00  0.00    -0.241 NA
HETATM    5  C10 UNL     1      -0.693   0.765   0.374  1.00  0.00     0.156 A 
HETATM    6  N4  UNL     1       0.433   0.100   0.076  1.00  0.00    -0.228 NA
ENDROOT
BRANCH   5   7
HETATM    7  C11 UNL     1      -1.966   0.227  -0.093  1.00  0.00    -0.005 C 
HETATM    8  C12 UNL     1      -2.989   1.007   0.289  1.00  0.00     0.040 C 
HETATM    9  C13 UNL     1      -4.412   0.830   0.031  1.00  0.00     0.026 C 
HETATM   10  C14 UNL     1      -5.051  -0.258  -0.368  1.00  0.00     0.028 C 
HETATM   11  C15 UNL     1      -4.429  -1.549  -0.640  1.00  0.00    -0.001 C 
HETATM   12  C16 UNL     1      -3.150  -1.824  -0.838  1.00  0.00    -0.022 C 
HETATM   13  C17 UNL     1      -1.930  -1.014  -0.865  1.00  0.00     0.070 C 
BRANCH   9  14
HETATM   14  N3  UNL     1      -5.266   1.967   0.226  1.00  0.00    -0.399 N 
HETATM   15  H10 UNL     1      -6.042   1.737   0.879  1.00  0.00     0.156 HD
HETATM   16  H11 UNL     1      -5.093   2.881  -0.245  1.00  0.00     0.156 HD
ENDBRANCH   9  14
ENDBRANCH   5   7
BRANCH   1  17
HETATM   17  C6  UNL     1       2.764  -0.360   0.002  1.00  0.00     0.016 A 
HETATM   18  C2  UNL     1       4.076  -0.399   0.381  1.00  0.00    -0.047 A 
HETATM   19  C1  UNL     1       4.516   0.536   1.431  1.00  0.00     0.049 C 
HETATM   20  C3  UNL     1       4.982  -1.291  -0.149  1.00  0.00     0.027 A 
HETATM   21  C4  UNL     1       4.615  -2.203  -1.099  1.00  0.00     0.116 A 
HETATM   22  N1  UNL     1       3.338  -2.181  -1.481  1.00  0.00    -0.272 NA
HETATM   23  C5  UNL     1       2.462  -1.311  -0.963  1.00  0.00     0.130 A 
ENDBRANCH   1  17
TORSDOF 3
