REMARK  3 active torsions:
REMARK  status: ('A' for Active; 'I' for Inactive)
REMARK    1  A    between atoms: C5_6  and  N2_7 
REMARK    2  A    between atoms: N2_7  and  C6_8 
REMARK    3  A    between atoms: C9_12  and  C10_13 
ROOT
HETATM    1  C6  UNL     1      -0.990  -0.063  -0.039  1.00  0.00     0.729 A 
HETATM    2  N3  UNL     1      -0.658   1.002  -0.789  1.00  0.00    -0.075 NA
HETATM    3  C7  UNL     1      -1.602   1.826  -1.324  1.00  0.00     0.139 A 
HETATM    4  C8  UNL     1      -2.915   1.503  -1.051  1.00  0.00     0.053 A 
HETATM    5  C9  UNL     1      -3.286   0.418  -0.286  1.00  0.00     0.089 A 
HETATM    6  N5  UNL     1      -2.290  -0.338   0.200  1.00  0.00    -0.062 NA
ENDROOT
BRANCH   1   7
HETATM    7  N2  UNL     1       0.021  -0.903   0.505  1.00  0.00    -0.165 N 
HETATM    8  H7  UNL     1      -0.243  -1.728   1.086  1.00  0.00     0.186 HD
BRANCH   7   9
HETATM    9  C5  UNL     1       1.392  -0.622   0.258  1.00  0.00     0.177 C 
HETATM   10  N1  UNL     1       1.615   0.621  -0.006  1.00  0.00    -0.263 NA
HETATM   11  C4  UNL     1       2.865   1.291  -0.308  1.00  0.00     0.179 C 
HETATM   12  C3  UNL     1       3.994   0.833   0.517  1.00  0.00    -0.002 C 
HETATM   13  C2  UNL     1       4.590  -0.364   0.624  1.00  0.00    -0.072 C 
HETATM   14  C1  UNL     1       5.751  -0.577   1.560  1.00  0.00     0.044 C 
HETATM   15  C15 UNL     1       4.152  -1.552  -0.165  1.00  0.00     0.079 C 
HETATM   16  S1  UNL     1       2.498  -2.002   0.360  1.00  0.00    -0.083 SA
HETATM   17  C16 UNL     1       4.192  -1.250  -1.657  1.00  0.00     0.026 C 
ENDBRANCH   7   9
ENDBRANCH   1   7
BRANCH   5  18
HETATM   18  C10 UNL     1      -4.663   0.052   0.020  1.00  0.00     0.011 A 
HETATM   19  C11 UNL     1      -4.856  -1.067   0.802  1.00  0.00     0.017 A 
HETATM   20  C12 UNL     1      -6.136  -1.479   1.136  1.00  0.00     0.020 A 
HETATM   21  C13 UNL     1      -7.211  -0.734   0.661  1.00  0.00     0.116 A 
HETATM   22  N4  UNL     1      -7.002   0.359  -0.105  1.00  0.00    -0.272 NA
HETATM   23  C14 UNL     1      -5.752   0.756  -0.427  1.00  0.00     0.130 A 
ENDBRANCH   5  18
TORSDOF 3
