REMARK  6 active torsions:
REMARK  status: ('A' for Active; 'I' for Inactive)
REMARK    1  A    between atoms: O1_1  and  C1_2 
REMARK    2  A    between atoms: C1_2  and  C2_3 
REMARK    3  A    between atoms: C8_9  and  C9_10 
REMARK    4  A    between atoms: C9_10  and  C10_11 
REMARK    5  A    between atoms: C13_15  and  C14_16 
REMARK    6  A    between atoms: C14_16  and  C15_17 
ROOT
HETATM    1  C10 UNL     1      -0.554  -0.745   0.719  1.00  0.00     0.043 A 
HETATM    2 BR1  UNL     1      -0.793  -2.500   1.521  1.00  0.00    -0.080 Br
HETATM    3  C11 UNL     1       0.390  -0.766  -0.416  1.00  0.00    -0.005 A 
HETATM    4  C12 UNL     1       1.572  -0.148  -0.571  1.00  0.00     0.005 A 
HETATM    5  C13 UNL     1       2.106   0.706   0.490  1.00  0.00    -0.058 A 
HETATM    6  C20 UNL     1       1.288   0.753   1.529  1.00  0.00    -0.018 A 
HETATM    7  C21 UNL     1      -0.016   0.145   1.845  1.00  0.00     0.053 A 
ENDROOT
BRANCH   1   8
HETATM    8  C9  UNL     1      -1.855  -0.142   0.317  1.00  0.00     0.065 C 
BRANCH   8   9
HETATM    9  C8  UNL     1      -2.688  -0.862  -0.626  1.00  0.00    -0.046 C 
HETATM   10  C3  UNL     1      -3.931  -0.151  -1.007  1.00  0.00    -0.031 C 
HETATM   11  C2  UNL     1      -4.235   1.022  -0.505  1.00  0.00     0.011 C 
HETATM   12  C4  UNL     1      -4.847  -0.758  -1.960  1.00  0.00     0.024 C 
HETATM   13  C5  UNL     1      -4.370  -1.734  -2.691  1.00  0.00    -0.025 C 
HETATM   14  C6  UNL     1      -3.507  -2.592  -2.188  1.00  0.00     0.013 C 
HETATM   15  C7  UNL     1      -2.566  -2.025  -1.240  1.00  0.00     0.009 C 
BRANCH  11  16
HETATM   16  C1  UNL     1      -5.414   1.841  -0.780  1.00  0.00     0.192 C 
BRANCH  16  17
HETATM   17  O1  UNL     1      -6.096   2.026   0.445  1.00  0.00    -0.397 OA
HETATM   18  H1  UNL     1      -5.679   2.772   0.928  1.00  0.00     0.209 HD
ENDBRANCH  16  17
ENDBRANCH  11  16
ENDBRANCH   8   9
ENDBRANCH   1   8
BRANCH   5  19
HETATM   19  C14 UNL     1       3.377   1.442   0.464  1.00  0.00     0.078 C 
BRANCH  19  20
HETATM   20  C15 UNL     1       4.563   0.582   0.306  1.00  0.00    -0.036 A 
HETATM   21  C16 UNL     1       5.024   0.290  -0.969  1.00  0.00     0.010 A 
HETATM   22  C17 UNL     1       6.139  -0.519  -1.127  1.00  0.00     0.020 A 
HETATM   23  C18 UNL     1       6.815  -1.051  -0.038  1.00  0.00     0.116 A 
HETATM   24  N1  UNL     1       6.348  -0.753   1.207  1.00  0.00    -0.273 NA
HETATM   25  C19 UNL     1       5.257   0.038   1.357  1.00  0.00     0.123 A 
ENDBRANCH  19  20
ENDBRANCH   5  19
TORSDOF 6
