REMARK  3 active torsions:
REMARK  status: ('A' for Active; 'I' for Inactive)
REMARK    1  A    between atoms: C2_2  and  C6_7 
REMARK    2  A    between atoms: C3_3  and  C4_4 
REMARK    3  A    between atoms: C5_5  and  N1_6 
ROOT
HETATM    1  C6  UNL     1      -1.083   0.532  -0.002  1.00  0.00     0.049 A 
HETATM    2  C7  UNL     1       0.202   0.396  -0.046  1.00  0.00     0.015 A 
HETATM    3  C8  UNL     1       1.452  -0.473  -0.027  1.00  0.00     0.051 C 
HETATM    4  C9  UNL     1       1.150  -1.906  -0.033  1.00  0.00     0.048 C 
HETATM    5  C10 UNL     1       2.179  -2.667  -0.186  1.00  0.00    -0.004 C 
HETATM    6  C11 UNL     1       3.379  -2.314   0.186  1.00  0.00     0.095 C 
HETATM    7  N2  UNL     1       3.778  -1.035  -0.181  1.00  0.00    -0.281 NA
HETATM    8  C12 UNL     1       4.975  -0.613  -0.444  1.00  0.00     0.092 C 
HETATM    9  C13 UNL     1       4.903   0.851  -0.795  1.00  0.00     0.075 C 
HETATM   10  C14 UNL     1       3.948   1.523   0.154  1.00  0.00    -0.002 C 
HETATM   11  C15 UNL     1       2.800   2.025  -0.272  1.00  0.00     0.115 C 
HETATM   12  N3  UNL     1       1.501   2.681  -0.285  1.00  0.00    -0.243 NA
HETATM   13  C16 UNL     1       0.442   1.866  -0.179  1.00  0.00     0.136 A 
HETATM   14  N4  UNL     1      -0.965   1.966  -0.128  1.00  0.00    -0.340 N 
HETATM   15  H18 UNL     1      -1.681   2.753  -0.164  1.00  0.00     0.167 HD
ENDROOT
BRANCH   1  16
HETATM   16  C2  UNL     1      -2.240  -0.326   0.118  1.00  0.00    -0.035 C 
HETATM   17  C1  UNL     1      -2.076  -1.800   0.235  1.00  0.00     0.050 C 
HETATM   18  C3  UNL     1      -3.470   0.170   0.129  1.00  0.00     0.010 C 
BRANCH  18  19
HETATM   19  C4  UNL     1      -4.674  -0.618   0.246  1.00  0.00     0.017 C 
HETATM   20  C5  UNL     1      -5.824  -0.014   0.245  1.00  0.00     0.080 C 
BRANCH  20  21
HETATM   21  N1  UNL     1      -5.951   1.399   0.132  1.00  0.00    -0.408 N 
HETATM   22  H7  UNL     1      -5.835   2.339  -0.312  1.00  0.00     0.155 HD
HETATM   23  H8  UNL     1      -6.381   2.114   0.752  1.00  0.00     0.155 HD
ENDBRANCH  20  21
ENDBRANCH  18  19
ENDBRANCH   1  16
TORSDOF 3
