REMARK  4 active torsions:
REMARK  status: ('A' for Active; 'I' for Inactive)
REMARK    1  A    between atoms: C2_2  and  N1_3 
REMARK    2  A    between atoms: C4_5  and  C5_6 
REMARK    3  A    between atoms: C14_16  and  N3_17 
REMARK    4  A    between atoms: N3_17  and  C15_18 
ROOT
HETATM    1  N1  UNL     1      -0.368   0.699  -0.934  1.00  0.00    -0.365 N 
HETATM    2  C3  UNL     1       0.918   0.554  -0.405  1.00  0.00     0.096 C 
HETATM    3  C4  UNL     1       1.811  -0.303  -0.003  1.00  0.00    -0.031 C 
HETATM    4  C10 UNL     1       1.770  -1.772   0.060  1.00  0.00     0.044 C 
HETATM    5  C11 UNL     1       0.491  -2.378  -0.439  1.00  0.00     0.031 C 
HETATM    6  C12 UNL     1       0.219  -2.063  -1.861  1.00  0.00    -0.027 C 
HETATM    7  C13 UNL     1      -0.482  -1.136  -2.549  1.00  0.00     0.016 C 
HETATM    8  C14 UNL     1      -1.216  -0.105  -1.778  1.00  0.00     0.224 C 
ENDROOT
BRANCH   8   9
HETATM    9  N3  UNL     1      -2.262  -0.722  -1.011  1.00  0.00    -0.198 N 
HETATM   10  H18 UNL     1      -2.347  -1.761  -0.985  1.00  0.00     0.180 HD
BRANCH   9  11
HETATM   11  C15 UNL     1      -3.360  -0.475  -0.175  1.00  0.00     0.723 A 
HETATM   12  N4  UNL     1      -3.242  -0.398   1.183  1.00  0.00    -0.075 NA
HETATM   13  C16 UNL     1      -4.260  -0.164   2.000  1.00  0.00     0.138 A 
HETATM   14  C17 UNL     1      -5.477   0.001   1.371  1.00  0.00     0.040 A 
HETATM   15  C18 UNL     1      -5.692  -0.060   0.010  1.00  0.00     0.138 A 
HETATM   16  N5  UNL     1      -4.582  -0.303  -0.709  1.00  0.00    -0.075 NA
ENDBRANCH   9  11
ENDBRANCH   8   9
BRANCH   1  17
HETATM   17  C2  UNL     1      -1.073   1.897  -0.612  1.00  0.00     0.120 C 
HETATM   18  C1  UNL     1      -0.323   2.859   0.272  1.00  0.00     0.026 C 
ENDBRANCH   1  17
BRANCH   3  19
HETATM   19  C5  UNL     1       3.101   0.135   0.499  1.00  0.00    -0.011 A 
HETATM   20  C6  UNL     1       4.059  -0.769   0.916  1.00  0.00     0.015 A 
HETATM   21  C7  UNL     1       5.288  -0.393   1.397  1.00  0.00     0.020 A 
HETATM   22  C8  UNL     1       5.651   0.932   1.496  1.00  0.00     0.116 A 
HETATM   23  N2  UNL     1       4.737   1.834   1.097  1.00  0.00    -0.272 NA
HETATM   24  C9  UNL     1       3.547   1.428   0.632  1.00  0.00     0.128 A 
ENDBRANCH   3  19
TORSDOF 4
