REMARK  5 active torsions:
REMARK  status: ('A' for Active; 'I' for Inactive)
REMARK    1  A    between atoms: C2_2  and  C3_3 
REMARK    2  A    between atoms: C3_3  and  C4_4 
REMARK    3  A    between atoms: C4_4  and  C5_5 
REMARK    4  A    between atoms: C5_5  and  C6_6 
REMARK       I    between atoms: C6_6  and  N1_8 
REMARK    5  A    between atoms: N1_8  and  C7_9 
ROOT
HETATM    1  C7  UNL     1       0.318   0.573  -0.132  1.00  0.00     0.029 C 
HETATM    2  C8  UNL     1      -0.407   1.662  -0.139  1.00  0.00     0.027 C 
HETATM    3  C9  UNL     1      -1.755   2.102   0.094  1.00  0.00     0.004 C 
HETATM    4  C10 UNL     1      -3.013   1.772   0.446  1.00  0.00     0.034 C 
HETATM    5  C11 UNL     1      -3.873   0.631   0.863  1.00  0.00     0.085 A 
HETATM    6  N2  UNL     1      -3.915   0.726   2.189  1.00  0.00    -0.259 NA
HETATM    7  C12 UNL     1      -4.562  -0.123   2.989  1.00  0.00     0.117 A 
HETATM    8  C13 UNL     1      -5.234  -1.172   2.403  1.00  0.00     0.022 A 
HETATM    9  C14 UNL     1      -5.171  -1.243   1.004  1.00  0.00     0.035 A 
HETATM   10  C15 UNL     1      -4.505  -0.369   0.175  1.00  0.00     0.084 A 
HETATM   11  N3  UNL     1      -4.753  -0.891  -1.146  1.00  0.00    -0.262 NA
HETATM   12  C16 UNL     1      -4.157  -2.008  -1.509  1.00  0.00     0.097 C 
HETATM   13  C17 UNL     1      -3.340  -2.470  -0.423  1.00  0.00     0.056 C 
HETATM   14  C18 UNL     1      -2.573  -3.520  -0.307  1.00  0.00     0.081 C 
HETATM   15  N4  UNL     1      -2.029  -3.401   1.024  1.00  0.00    -0.296 NA
HETATM   16  C19 UNL     1      -1.152  -2.419   1.177  1.00  0.00     0.294 C 
HETATM   17  N5  UNL     1      -0.207  -1.319   1.237  1.00  0.00    -0.383 N 
HETATM   18  C20 UNL     1      -0.530  -0.608   0.050  1.00  0.00     0.177 C 
HETATM   19  H19 UNL     1       0.364  -1.416   2.086  1.00  0.00     0.160 HD
ENDROOT
BRANCH   1  20
HETATM   20  N1  UNL     1       1.655   0.289  -0.376  1.00  0.00    -0.329 N 
HETATM   21  C6  UNL     1       2.688   1.176  -0.757  1.00  0.00     0.223 C 
HETATM   22  O1  UNL     1       2.518   2.404  -0.935  1.00  0.00    -0.273 OA
HETATM   23  H8  UNL     1       2.055  -0.663  -0.296  1.00  0.00     0.168 HD
BRANCH  21  24
HETATM   24  C5  UNL     1       4.116   0.868  -1.015  1.00  0.00     0.120 C 
BRANCH  24  25
HETATM   25  C4  UNL     1       4.767   2.137  -1.385  1.00  0.00     0.076 C 
BRANCH  25  26
HETATM   26  C3  UNL     1       6.006   1.979  -1.757  1.00  0.00    -0.171 C 
BRANCH  26  27
HETATM   27  C2  UNL     1       7.302   1.862  -1.977  1.00  0.00     0.062 C 
HETATM   28  C1  UNL     1       8.178   1.935  -0.791  1.00  0.00     0.023 C 
ENDBRANCH  26  27
ENDBRANCH  25  26
ENDBRANCH  24  25
ENDBRANCH  21  24
ENDBRANCH   1  20
TORSDOF 5
