REMARK  2 active torsions:
REMARK  status: ('A' for Active; 'I' for Inactive)
REMARK    1  A    between atoms: C3_3  and  N1_4 
REMARK    2  A    between atoms: C6_8  and  C7_9 
ROOT
HETATM    1  N1  UNL     1       2.642  -0.488  -0.620  1.00  0.00    -0.259 NA
HETATM    2  C4  UNL     1       1.652  -0.023  -0.015  1.00  0.00     0.081 C 
HETATM    3  C5  UNL     1       0.421  -0.625  -0.594  1.00  0.00     0.145 C 
HETATM    4  N2  UNL     1      -0.877  -0.454  -0.521  1.00  0.00    -0.265 NA
HETATM    5  C6  UNL     1      -1.645   0.505   0.248  1.00  0.00     0.285 C 
HETATM    6  N3  UNL     1      -1.373   0.501   1.650  1.00  0.00    -0.160 NA
HETATM    7  N4  UNL     1      -0.375   0.819   2.382  1.00  0.00    -0.165 NA
HETATM    8  C14 UNL     1       0.941   1.334   2.076  1.00  0.00     0.149 C 
HETATM    9  C15 UNL     1       1.730   0.945   1.071  1.00  0.00    -0.013 C 
HETATM   10  C16 UNL     1       3.067   1.626   0.935  1.00  0.00     0.052 C 
ENDROOT
BRANCH   5  11
HETATM   11  C7  UNL     1      -3.077   0.466  -0.073  1.00  0.00    -0.005 A 
HETATM   12  C8  UNL     1      -3.834   1.625  -0.278  1.00  0.00     0.012 A 
HETATM   13  C9  UNL     1      -5.165   1.704  -0.579  1.00  0.00     0.001 A 
HETATM   14  C10 UNL     1      -5.830   0.503  -0.693  1.00  0.00     0.001 A 
HETATM   15  C11 UNL     1      -5.155  -0.703  -0.505  1.00  0.00     0.007 A 
HETATM   16  C12 UNL     1      -3.797  -0.721  -0.199  1.00  0.00    -0.052 A 
HETATM   17  C13 UNL     1      -3.110  -2.011  -0.006  1.00  0.00     0.049 C 
ENDBRANCH   5  11
BRANCH   1  18
HETATM   18  C3  UNL     1       4.006  -0.317  -0.538  1.00  0.00     0.113 C 
HETATM   19  C2  UNL     1       4.696  -1.298   0.061  1.00  0.00    -0.012 C 
HETATM   20  C1  UNL     1       6.135  -1.595   0.397  1.00  0.00     0.037 C 
ENDBRANCH   1  18
TORSDOF 2
