REMARK  6 active torsions:
REMARK  status: ('A' for Active; 'I' for Inactive)
REMARK    1  A    between atoms: C2_2  and  N1_3 
REMARK    2  A    between atoms: C3_4  and  C4_5 
REMARK    3  A    between atoms: C4_5  and  C5_6 
REMARK    4  A    between atoms: C8_10  and  N3_11 
REMARK    5  A    between atoms: N3_11  and  C9_12 
REMARK    6  A    between atoms: C11_14  and  N4_15 
ROOT
HETATM    1  N3  UNL     1      -1.440   0.161  -0.624  1.00  0.00    -0.188 N 
HETATM    2  H11 UNL     1      -1.150   0.671  -1.490  1.00  0.00     0.184 HD
ENDROOT
BRANCH   1   3
HETATM    3  C8  UNL     1      -0.469  -0.680  -0.015  1.00  0.00     0.727 A 
HETATM    4  N2  UNL     1      -0.654  -1.408   1.092  1.00  0.00    -0.075 NA
HETATM    5  C7  UNL     1       0.283  -2.190   1.640  1.00  0.00     0.138 A 
HETATM    6  C6  UNL     1       1.521  -2.265   1.044  1.00  0.00     0.048 A 
HETATM    7  C5  UNL     1       1.737  -1.525  -0.097  1.00  0.00     0.059 A 
HETATM    8  N5  UNL     1       0.745  -0.766  -0.582  1.00  0.00    -0.067 NA
BRANCH   7   9
HETATM    9  C4  UNL     1       3.065  -1.602  -0.739  1.00  0.00     0.106 C 
BRANCH   9  10
HETATM   10  C3  UNL     1       3.994  -0.558  -0.197  1.00  0.00     0.089 C 
HETATM   11  N1  UNL     1       5.239  -0.719  -0.439  1.00  0.00    -0.306 NA
BRANCH  11  12
HETATM   12  C2  UNL     1       6.271   0.153  -0.016  1.00  0.00     0.143 C 
HETATM   13  C1  UNL     1       5.688   1.549   0.090  1.00  0.00     0.028 C 
ENDBRANCH  11  12
ENDBRANCH   9  10
ENDBRANCH   7   9
ENDBRANCH   1   3
BRANCH   1  14
HETATM   14  C9  UNL     1      -2.758   0.403  -0.214  1.00  0.00     0.057 A 
HETATM   15  C10 UNL     1      -3.374  -0.145   0.890  1.00  0.00     0.059 A 
HETATM   16  C11 UNL     1      -4.668   0.088   1.301  1.00  0.00     0.027 A 
HETATM   17  C12 UNL     1      -5.451   0.946   0.560  1.00  0.00     0.029 A 
HETATM   18  C13 UNL     1      -4.893   1.528  -0.558  1.00  0.00     0.011 A 
HETATM   19  C14 UNL     1      -3.595   1.267  -0.931  1.00  0.00    -0.035 A 
HETATM   20  C15 UNL     1      -3.051   1.931  -2.155  1.00  0.00     0.050 C 
BRANCH  16  21
HETATM   21  N4  UNL     1      -5.240  -0.514   2.454  1.00  0.00    -0.399 N 
HETATM   22  H13 UNL     1      -4.683  -0.551   3.332  1.00  0.00     0.156 HD
HETATM   23  H14 UNL     1      -6.190  -0.935   2.512  1.00  0.00     0.156 HD
ENDBRANCH  16  21
ENDBRANCH   1  14
TORSDOF 6
