REMARK  7 active torsions:
REMARK  status: ('A' for Active; 'I' for Inactive)
REMARK    1  A    between atoms: N1_2  and  C2_3 
REMARK    2  A    between atoms: C2_3  and  C3_4 
REMARK    3  A    between atoms: C3_4  and  O1_5 
REMARK    4  A    between atoms: O1_5  and  C4_6 
REMARK    5  A    between atoms: C7_9  and  O2_10 
REMARK    6  A    between atoms: C12_15  and  N2_16 
REMARK    7  A    between atoms: N2_16  and  C13_17 
ROOT
HETATM    1  C2  UNL     1       0.228   0.173  -1.715  1.00  0.00     0.274 A 
HETATM    2  C11 UNL     1       0.981   0.489  -0.474  1.00  0.00     0.089 A 
HETATM    3  C12 UNL     1       2.149  -0.083  -0.230  1.00  0.00     0.129 A 
HETATM    4  N3  UNL     1       2.774  -1.017  -1.096  1.00  0.00    -0.227 NA
HETATM    5  C19 UNL     1       2.214  -1.361  -2.192  1.00  0.00     0.207 A 
HETATM    6  N4  UNL     1       0.959  -0.786  -2.516  1.00  0.00    -0.345 N 
HETATM    7  H22 UNL     1       0.426  -1.000  -3.379  1.00  0.00     0.163 HD
ENDROOT
BRANCH   1   8
HETATM    8  N1  UNL     1      -0.067   1.387  -2.458  1.00  0.00     0.114 N 
HETATM    9  C1  UNL     1       1.092   2.055  -2.970  1.00  0.00     0.310 C 
HETATM   10  H4  UNL     1      -0.793   1.232  -3.187  1.00  0.00     0.319 HD
ENDBRANCH   1   8
BRANCH   1  11
HETATM   11  C3  UNL     1      -1.099  -0.399  -1.254  1.00  0.00     0.244 C 
BRANCH  11  12
HETATM   12  O1  UNL     1      -1.812   0.471  -0.436  1.00  0.00    -0.346 OA
BRANCH  12  13
HETATM   13  C4  UNL     1      -3.058   0.014   0.036  1.00  0.00     0.069 A 
HETATM   14  C5  UNL     1      -3.767   0.893   0.858  1.00  0.00     0.039 A 
HETATM   15  C6  UNL     1      -4.994   0.531   1.365  1.00  0.00     0.039 A 
HETATM   16  C7  UNL     1      -5.534  -0.699   1.069  1.00  0.00     0.068 A 
HETATM   17  C9  UNL     1      -4.828  -1.583   0.248  1.00  0.00     0.039 A 
HETATM   18  C10 UNL     1      -3.585  -1.216  -0.266  1.00  0.00     0.039 A 
BRANCH  16  19
HETATM   19  O2  UNL     1      -6.742  -1.246   1.477  1.00  0.00    -0.356 OA
HETATM   20  C8  UNL     1      -7.641  -0.556   2.311  1.00  0.00     0.210 C 
ENDBRANCH  16  19
ENDBRANCH  12  13
ENDBRANCH  11  12
ENDBRANCH   1  11
BRANCH   3  21
HETATM   21  N2  UNL     1       2.835   0.240   0.957  1.00  0.00    -0.341 N 
HETATM   22  H15 UNL     1       2.407   0.485   1.887  1.00  0.00     0.167 HD
BRANCH  21  23
HETATM   23  C13 UNL     1       4.233   0.321   1.214  1.00  0.00     0.033 A 
HETATM   24  C14 UNL     1       4.787  -0.883   1.643  1.00  0.00     0.029 A 
HETATM   25  C15 UNL     1       6.133  -0.972   1.934  1.00  0.00     0.002 A 
HETATM   26  C16 UNL     1       6.942   0.139   1.800  1.00  0.00     0.000 A 
HETATM   27  C17 UNL     1       6.393   1.338   1.374  1.00  0.00     0.002 A 
HETATM   28  C18 UNL     1       5.053   1.430   1.083  1.00  0.00     0.029 A 
ENDBRANCH  21  23
ENDBRANCH   3  21
TORSDOF 7
