REMARK  5 active torsions:
REMARK  status: ('A' for Active; 'I' for Inactive)
REMARK    1  A    between atoms: C5_5  and  N1_6 
REMARK    2  A    between atoms: C7_8  and  N2_9 
REMARK    3  A    between atoms: N2_9  and  C8_10 
REMARK    4  A    between atoms: C11_14  and  C12_15 
REMARK    5  A    between atoms: C15_18  and  N4_19 
ROOT
HETATM    1  C8  UNL     1       0.550  -1.734  -0.775  1.00  0.00     0.727 A 
HETATM    2  N3  UNL     1       1.192  -2.807  -1.269  1.00  0.00    -0.075 NA
HETATM    3  C9  UNL     1       2.522  -2.751  -1.414  1.00  0.00     0.139 A 
HETATM    4  C10 UNL     1       3.289  -1.656  -1.088  1.00  0.00     0.053 A 
HETATM    5  C11 UNL     1       2.620  -0.564  -0.584  1.00  0.00     0.089 A 
HETATM    6  N5  UNL     1       1.292  -0.664  -0.456  1.00  0.00    -0.062 NA
ENDROOT
BRANCH   1   7
HETATM    7  N2  UNL     1      -0.867  -1.770  -0.612  1.00  0.00    -0.188 N 
HETATM    8  H9  UNL     1      -1.331  -2.684  -0.905  1.00  0.00     0.184 HD
BRANCH   7   9
HETATM    9  C7  UNL     1      -1.762  -0.798  -0.125  1.00  0.00     0.057 A 
HETATM   10  C2  UNL     1      -3.118  -1.040  -0.049  1.00  0.00    -0.035 A 
HETATM   11  C1  UNL     1      -3.650  -2.371  -0.495  1.00  0.00     0.050 C 
HETATM   12  C3  UNL     1      -4.010  -0.109   0.422  1.00  0.00     0.011 A 
HETATM   13  C4  UNL     1      -3.582   1.130   0.846  1.00  0.00     0.024 A 
HETATM   14  C5  UNL     1      -2.239   1.433   0.794  1.00  0.00     0.008 A 
HETATM   15  C6  UNL     1      -1.401   0.457   0.313  1.00  0.00     0.053 A 
BRANCH  14  16
HETATM   16  N1  UNL     1      -1.786   2.709   1.229  1.00  0.00    -0.303 NA
HETATM   17  H6  UNL     1      -1.903   3.192   2.165  1.00  0.00     0.124 HD
HETATM   18  H7  UNL     1      -1.869   3.227   2.116  1.00  0.00     0.124 HD
ENDBRANCH  14  16
ENDBRANCH   7   9
ENDBRANCH   1   7
BRANCH   5  19
HETATM   19  C12 UNL     1       3.338   0.648  -0.207  1.00  0.00     0.020 A 
HETATM   20  C13 UNL     1       4.603   1.010  -0.226  1.00  0.00     0.018 A 
HETATM   21  C14 UNL     1       4.185   2.315   0.329  1.00  0.00     0.031 A 
HETATM   22  C15 UNL     1       2.917   1.933   0.341  1.00  0.00     0.038 A 
BRANCH  22  23
HETATM   23  N4  UNL     1       1.741   2.611   0.750  1.00  0.00    -0.398 N 
HETATM   24  H14 UNL     1       1.509   3.514   0.270  1.00  0.00     0.156 HD
HETATM   25  H15 UNL     1       1.203   2.130   1.513  1.00  0.00     0.156 HD
ENDBRANCH  22  23
ENDBRANCH   5  19
TORSDOF 5
