REMARK  7 active torsions:
REMARK  status: ('A' for Active; 'I' for Inactive)
REMARK    1  A    between atoms: C2_2  and  C3_3 
REMARK    2  A    between atoms: C3_3  and  C4_4 
REMARK    3  A    between atoms: C4_4  and  C5_5 
REMARK    4  A    between atoms: C6_6  and  C7_7 
REMARK    5  A    between atoms: C10_11  and  N2_12 
REMARK    6  A    between atoms: N2_12  and  C11_13 
REMARK    7  A    between atoms: C16_18  and  N3_19 
ROOT
HETATM    1  C7  UNL     1       0.896  -0.980  -0.034  1.00  0.00     0.077 A 
HETATM    2  C8  UNL     1       1.266  -2.308  -0.025  1.00  0.00     0.052 A 
HETATM    3  C9  UNL     1       0.304  -3.213   0.435  1.00  0.00     0.139 A 
HETATM    4  N1  UNL     1      -0.911  -2.794   0.841  1.00  0.00    -0.075 NA
HETATM    5  C10 UNL     1      -1.246  -1.491   0.822  1.00  0.00     0.723 A 
HETATM    6  N4  UNL     1      -0.328  -0.606   0.381  1.00  0.00    -0.063 NA
ENDROOT
BRANCH   5   7
HETATM    7  N2  UNL     1      -2.532  -1.050   1.253  1.00  0.00    -0.209 N 
HETATM    8  H10 UNL     1      -3.214  -1.766   1.586  1.00  0.00     0.179 HD
BRANCH   7   9
HETATM    9  C11 UNL     1      -2.891   0.340   1.232  1.00  0.00     0.172 A 
HETATM   10  C12 UNL     1      -4.274   0.608   1.719  1.00  0.00     0.011 A 
HETATM   11  C13 UNL     1      -4.966   1.266   0.782  1.00  0.00    -0.061 A 
HETATM   12  C14 UNL     1      -6.397   1.671   0.998  1.00  0.00     0.048 C 
HETATM   13  C15 UNL     1      -4.103   1.481  -0.386  1.00  0.00     0.033 A 
HETATM   14  C16 UNL     1      -2.911   0.943  -0.112  1.00  0.00     0.030 A 
BRANCH  14  15
HETATM   15  N3  UNL     1      -1.914   1.040  -1.118  1.00  0.00    -0.400 N 
HETATM   16  H17 UNL     1      -1.977   0.240  -1.806  1.00  0.00     0.156 HD
HETATM   17  H18 UNL     1      -1.165   1.752  -1.269  1.00  0.00     0.156 HD
ENDBRANCH  14  15
ENDBRANCH   7   9
ENDBRANCH   5   7
BRANCH   1  18
HETATM   18  C6  UNL     1       1.836   0.035  -0.497  1.00  0.00     0.033 C 
HETATM   19  C5  UNL     1       3.042  -0.238  -0.917  1.00  0.00     0.010 C 
BRANCH  19  20
HETATM   20  C4  UNL     1       3.995   0.751  -1.383  1.00  0.00     0.051 C 
BRANCH  20  21
HETATM   21  C3  UNL     1       5.109   0.895  -0.678  1.00  0.00    -0.150 C 
BRANCH  21  22
HETATM   22  C2  UNL     1       6.217   0.767   0.039  1.00  0.00     0.067 C 
HETATM   23  C1  UNL     1       7.196  -0.239  -0.427  1.00  0.00     0.024 C 
ENDBRANCH  21  22
ENDBRANCH  20  21
ENDBRANCH  19  20
ENDBRANCH   1  18
TORSDOF 7
