REMARK  7 active torsions:
REMARK  status: ('A' for Active; 'I' for Inactive)
REMARK    1  A    between atoms: C2_2  and  N5_20 
REMARK    2  A    between atoms: C3_3  and  C4_4 
REMARK    3  A    between atoms: C5_5  and  C6_6 
REMARK    4  A    between atoms: C6_6  and  N1_7 
REMARK    5  A    between atoms: N1_7  and  C7_8 
REMARK    6  A    between atoms: C10_12  and  C11_13 
REMARK       I    between atoms: N5_20  and  C16_21 
REMARK    7  A    between atoms: C16_21  and  C17_23 
ROOT
HETATM    1  C4  UNL     1      -0.805   1.920  -2.420  1.00  0.00    -0.001 C 
HETATM    2  C5  UNL     1       0.445   1.454  -2.577  1.00  0.00    -0.007 C 
ENDROOT
BRANCH   2   3
HETATM    3  C6  UNL     1       1.109   0.249  -2.077  1.00  0.00     0.165 C 
BRANCH   3   4
HETATM    4  N1  UNL     1       2.267   0.549  -1.251  1.00  0.00    -0.219 N 
HETATM    5  H9  UNL     1       2.522   1.534  -1.086  1.00  0.00     0.178 HD
BRANCH   4   6
HETATM    6  C7  UNL     1       3.015  -0.516  -0.693  1.00  0.00     0.723 A 
HETATM    7  N2  UNL     1       2.666  -1.794  -0.919  1.00  0.00    -0.075 NA
HETATM    8  C8  UNL     1       3.379  -2.827  -0.387  1.00  0.00     0.139 A 
HETATM    9  C9  UNL     1       4.468  -2.488   0.389  1.00  0.00     0.053 A 
HETATM   10  C10 UNL     1       4.845  -1.186   0.635  1.00  0.00     0.089 A 
HETATM   11  N4  UNL     1       4.099  -0.216   0.081  1.00  0.00    -0.062 NA
BRANCH  10  12
HETATM   12  C11 UNL     1       5.986  -0.791   1.448  1.00  0.00     0.011 A 
HETATM   13  C12 UNL     1       6.223   0.559   1.593  1.00  0.00     0.017 A 
HETATM   14  C13 UNL     1       7.300   1.021   2.358  1.00  0.00     0.020 A 
HETATM   15  C14 UNL     1       8.098   0.061   2.950  1.00  0.00     0.116 A 
HETATM   16  N3  UNL     1       7.847  -1.238   2.794  1.00  0.00    -0.272 NA
HETATM   17  C15 UNL     1       6.827  -1.689   2.070  1.00  0.00     0.130 A 
ENDBRANCH  10  12
ENDBRANCH   4   6
ENDBRANCH   3   4
ENDBRANCH   2   3
BRANCH   1  18
HETATM   18  C3  UNL     1      -1.792   1.197  -1.630  1.00  0.00     0.024 C 
HETATM   19  C2  UNL     1      -2.995   1.732  -1.531  1.00  0.00     0.008 C 
HETATM   20  C1  UNL     1      -3.141   3.016  -2.261  1.00  0.00     0.068 C 
BRANCH  19  21
HETATM   21  N5  UNL     1      -4.112   1.221  -0.824  1.00  0.00    -0.327 N 
HETATM   22  C16 UNL     1      -4.192   0.034  -0.072  1.00  0.00     0.255 C 
HETATM   23  O1  UNL     1      -3.178  -0.703   0.019  1.00  0.00    -0.267 OA
HETATM   24  H16 UNL     1      -5.007   1.745  -0.827  1.00  0.00     0.169 HD
BRANCH  22  25
HETATM   25  C17 UNL     1      -5.380  -0.428   0.630  1.00  0.00     0.032 A 
HETATM   26  C18 UNL     1      -5.320  -1.614   1.332  1.00  0.00     0.017 A 
HETATM   27  C19 UNL     1      -6.417  -2.122   2.030  1.00  0.00     0.001 A 
HETATM   28  C20 UNL     1      -7.616  -1.446   2.041  1.00  0.00     0.000 A 
HETATM   29  C21 UNL     1      -7.689  -0.261   1.345  1.00  0.00     0.001 A 
HETATM   30  C22 UNL     1      -6.599   0.213   0.670  1.00  0.00     0.017 A 
ENDBRANCH  22  25
ENDBRANCH  19  21
ENDBRANCH   1  18
TORSDOF 7
