REMARK  5 active torsions:
REMARK  status: ('A' for Active; 'I' for Inactive)
REMARK    1  A    between atoms: C2_2  and  C3_3 
REMARK    2  A    between atoms: C6_6  and  C7_7 
REMARK       I    between atoms: C7_7  and  N1_9 
REMARK    3  A    between atoms: N1_9  and  C8_10 
REMARK    4  A    between atoms: C12_14  and  N2_15 
REMARK    5  A    between atoms: N2_15  and  C13_16 
ROOT
HETATM    1  C8  UNL     1       2.425  -0.733  -0.764  1.00  0.00     0.037 A 
HETATM    2  C9  UNL     1       2.487  -1.622  -1.816  1.00  0.00     0.029 A 
HETATM    3  C10 UNL     1       1.305  -2.083  -2.355  1.00  0.00     0.004 A 
HETATM    4  C11 UNL     1       0.128  -1.625  -1.807  1.00  0.00     0.030 A 
HETATM    5  C12 UNL     1       0.003  -0.741  -0.761  1.00  0.00     0.051 A 
HETATM    6  C22 UNL     1       1.221  -0.322  -0.271  1.00  0.00     0.059 A 
ENDROOT
BRANCH   5   7
HETATM    7  N2  UNL     1      -1.194  -0.267  -0.195  1.00  0.00    -0.188 N 
HETATM    8  H10 UNL     1      -1.088   0.414   0.604  1.00  0.00     0.184 HD
BRANCH   7   9
HETATM    9  C13 UNL     1      -2.522  -0.593  -0.566  1.00  0.00     0.727 A 
HETATM   10  N3  UNL     1      -2.887  -1.434  -1.541  1.00  0.00    -0.075 NA
HETATM   11  C14 UNL     1      -4.149  -1.728  -1.878  1.00  0.00     0.139 A 
HETATM   12  C15 UNL     1      -5.175  -1.130  -1.182  1.00  0.00     0.053 A 
HETATM   13  C16 UNL     1      -4.841  -0.258  -0.171  1.00  0.00     0.089 A 
HETATM   14  C17 UNL     1      -5.836   0.421   0.619  1.00  0.00     0.011 A 
HETATM   15  N5  UNL     1      -3.543  -0.046   0.071  1.00  0.00    -0.062 NA
HETATM   16  C18 UNL     1      -7.199   0.283   0.462  1.00  0.00     0.017 A 
HETATM   17  C21 UNL     1      -5.469   1.291   1.626  1.00  0.00     0.130 A 
HETATM   18  C19 UNL     1      -8.128   0.930   1.214  1.00  0.00     0.020 A 
HETATM   19  C20 UNL     1      -7.682   1.793   2.212  1.00  0.00     0.116 A 
HETATM   20  N4  UNL     1      -6.349   1.964   2.408  1.00  0.00    -0.272 NA
ENDBRANCH   7   9
ENDBRANCH   5   7
BRANCH   1  21
HETATM   21  N1  UNL     1       3.659  -0.274  -0.227  1.00  0.00    -0.323 N 
HETATM   22  C7  UNL     1       4.284  -0.983   0.835  1.00  0.00     0.257 C 
HETATM   23  O1  UNL     1       3.668  -1.990   1.222  1.00  0.00    -0.267 OA
HETATM   24  H6  UNL     1       4.129   0.588  -0.600  1.00  0.00     0.169 HD
BRANCH  22  25
HETATM   25  C6  UNL     1       5.546  -0.462   1.340  1.00  0.00     0.043 A 
HETATM   26  C4  UNL     1       6.804   0.191   1.731  1.00  0.00    -0.019 A 
HETATM   27  C3  UNL     1       7.298   1.307   1.162  1.00  0.00     0.011 C 
HETATM   28  C5  UNL     1       6.341  -1.012   2.396  1.00  0.00     0.030 A 
BRANCH  27  29
HETATM   29  C2  UNL     1       6.950   2.260   0.104  1.00  0.00    -0.009 C 
HETATM   30  C1  UNL     1       7.805   3.245  -0.086  1.00  0.00     0.011 C 
ENDBRANCH  27  29
ENDBRANCH  22  25
ENDBRANCH   1  21
TORSDOF 5
