REMARK  4 active torsions:
REMARK  status: ('A' for Active; 'I' for Inactive)
REMARK    1  A    between atoms: C2_2  and  N1_3 
REMARK    2  A    between atoms: N1_3  and  C3_4 
REMARK    3  A    between atoms: N2_8  and  C7_9 
REMARK    4  A    between atoms: C14_16  and  N3_17 
ROOT
HETATM    1  C3  UNL     1      -0.344   0.434  -0.350  1.00  0.00     0.114 C 
HETATM    2  C4  UNL     1       0.020   1.143  -1.610  1.00  0.00     0.036 C 
HETATM    3  C5  UNL     1       1.514   1.418  -1.424  1.00  0.00     0.062 C 
HETATM    4  C6  UNL     1       1.939   0.291  -0.557  1.00  0.00     0.045 C 
HETATM    5  N2  UNL     1       3.189   0.418  -0.317  1.00  0.00    -0.252 NA
HETATM    6  C13 UNL     1       0.791  -0.564  -0.283  1.00  0.00     0.004 C 
HETATM    7  C14 UNL     1       1.044  -1.842  -0.074  1.00  0.00     0.091 C 
ENDROOT
BRANCH   1   8
HETATM    8  N1  UNL     1      -1.593  -0.217  -0.305  1.00  0.00    -0.401 N 
HETATM    9  H4  UNL     1      -1.620  -1.197  -0.650  1.00  0.00     0.155 HD
BRANCH   8  10
HETATM   10  C2  UNL     1      -2.776   0.529  -0.452  1.00  0.00     0.040 C 
HETATM   11  C1  UNL     1      -3.000   1.262  -1.720  1.00  0.00     0.042 C 
HETATM   12  C15 UNL     1      -3.928  -0.438  -0.274  1.00  0.00    -0.001 C 
HETATM   13  C16 UNL     1      -4.912   0.194   0.347  1.00  0.00    -0.028 C 
HETATM   14  C17 UNL     1      -4.548   1.610   0.648  1.00  0.00     0.029 C 
HETATM   15  C18 UNL     1      -3.026   1.501   0.699  1.00  0.00     0.038 C 
ENDBRANCH   8  10
ENDBRANCH   1   8
BRANCH   7  16
HETATM   16  N3  UNL     1       2.071  -2.807  -0.002  1.00  0.00    -0.407 N 
HETATM   17  H14 UNL     1       2.092  -3.418   0.843  1.00  0.00     0.155 HD
HETATM   18  H15 UNL     1       2.471  -2.513  -0.932  1.00  0.00     0.155 HD
ENDBRANCH   7  16
BRANCH   5  19
HETATM   19  C7  UNL     1       3.945  -0.462   0.470  1.00  0.00     0.069 C 
HETATM   20  C8  UNL     1       4.915  -1.179  -0.069  1.00  0.00     0.017 C 
HETATM   21  C9  UNL     1       5.864  -1.648   0.642  1.00  0.00    -0.011 C 
HETATM   22  C10 UNL     1       5.705  -1.933   1.889  1.00  0.00     0.013 C 
HETATM   23  C11 UNL     1       4.556  -1.339   2.602  1.00  0.00     0.003 C 
HETATM   24  C12 UNL     1       3.684  -0.614   1.917  1.00  0.00     0.032 C 
ENDBRANCH   5  19
TORSDOF 4
