REMARK  5 active torsions:
REMARK  status: ('A' for Active; 'I' for Inactive)
REMARK    1  A    between atoms: O1_1  and  C1_2 
REMARK    2  A    between atoms: C6_7  and  N1_8 
REMARK    3  A    between atoms: N1_8  and  C7_9 
REMARK    4  A    between atoms: N2_13  and  C11_14 
REMARK    5  A    between atoms: C14_18  and  C15_19 
ROOT
HETATM    1  C7  UNL     1      -2.346   0.886   0.143  1.00  0.00     0.034 A 
HETATM    2  C8  UNL     1      -1.807   1.408  -0.934  1.00  0.00     0.031 A 
HETATM    3  C9  UNL     1      -0.405   1.297  -1.334  1.00  0.00     0.020 A 
HETATM    4  C10 UNL     1       0.614   0.713  -0.705  1.00  0.00     0.115 A 
HETATM    5  N2  UNL     1       0.647   0.021   0.542  1.00  0.00    -0.165 N 
HETATM    6  C20 UNL     1      -0.472  -0.271   1.354  1.00  0.00     0.117 A 
HETATM    7  C21 UNL     1      -1.732   0.087   1.197  1.00  0.00     0.047 A 
ENDROOT
BRANCH   5   8
HETATM    8  C11 UNL     1       1.905  -0.435   1.052  1.00  0.00     0.732 A 
HETATM    9  N3  UNL     1       1.961  -1.089   2.230  1.00  0.00    -0.074 NA
HETATM   10  C12 UNL     1       3.144  -1.516   2.706  1.00  0.00     0.139 A 
HETATM   11  C13 UNL     1       4.334  -1.315   2.038  1.00  0.00     0.053 A 
HETATM   12  C14 UNL     1       4.244  -0.644   0.838  1.00  0.00     0.089 A 
HETATM   13  N5  UNL     1       3.050  -0.226   0.379  1.00  0.00    -0.062 NA
BRANCH  12  14
HETATM   14  C15 UNL     1       5.410  -0.354   0.013  1.00  0.00     0.011 A 
HETATM   15  C16 UNL     1       5.238   0.322  -1.177  1.00  0.00     0.017 A 
HETATM   16  C17 UNL     1       6.308   0.624  -1.999  1.00  0.00     0.020 A 
HETATM   17  C18 UNL     1       7.600   0.254  -1.652  1.00  0.00     0.116 A 
HETATM   18  N4  UNL     1       7.750  -0.409  -0.480  1.00  0.00    -0.272 NA
HETATM   19  C19 UNL     1       6.707  -0.703   0.321  1.00  0.00     0.130 A 
ENDBRANCH  12  14
ENDBRANCH   5   8
BRANCH   1  20
HETATM   20  N1  UNL     1      -3.725   1.101   0.363  1.00  0.00    -0.354 N 
HETATM   21  H6  UNL     1      -3.962   1.959   0.911  1.00  0.00     0.166 HD
BRANCH  20  22
HETATM   22  C6  UNL     1      -4.996   0.527   0.084  1.00  0.00     0.066 A 
HETATM   23  C1  UNL     1      -5.663  -0.378   0.870  1.00  0.00     0.092 A 
HETATM   24  C2  UNL     1      -6.889  -0.904   0.556  1.00  0.00     0.039 A 
HETATM   25  C3  UNL     1      -7.434  -0.460  -0.634  1.00  0.00     0.003 A 
HETATM   26  C4  UNL     1      -6.822   0.445  -1.472  1.00  0.00     0.002 A 
HETATM   27  C5  UNL     1      -5.584   0.949  -1.113  1.00  0.00     0.032 A 
BRANCH  23  28
HETATM   28  O1  UNL     1      -5.044  -0.771   2.049  1.00  0.00    -0.358 OA
HETATM   29  H1  UNL     1      -4.472  -1.625   2.096  1.00  0.00     0.217 HD
ENDBRANCH  23  28
ENDBRANCH  20  22
ENDBRANCH   1  20
TORSDOF 5
