REMARK  6 active torsions:
REMARK  status: ('A' for Active; 'I' for Inactive)
REMARK       I    between atoms: C1_2  and  N1_3 
REMARK    1  A    between atoms: C1_2  and  C16_25 
REMARK    2  A    between atoms: N1_3  and  C2_4 
REMARK    3  A    between atoms: C5_9  and  C6_10 
REMARK    4  A    between atoms: C6_10  and  N3_11 
REMARK    5  A    between atoms: N3_11  and  C7_12 
REMARK    6  A    between atoms: C9_16  and  C10_17 
ROOT
HETATM    1  C2  UNL     1      -2.965   0.835   1.039  1.00  0.00     0.138 C 
HETATM    2  N2  UNL     1      -2.794  -0.105   1.901  1.00  0.00    -0.119 NA
HETATM    3  O2  UNL     1      -1.625  -0.361   2.560  1.00  0.00    -0.251 OA
HETATM    4  C3  UNL     1      -0.444   0.335   2.232  1.00  0.00     0.238 C 
HETATM    5  C4  UNL     1      -0.556   0.847   0.846  1.00  0.00    -0.049 C 
HETATM    6  C5  UNL     1       0.221   0.677  -0.224  1.00  0.00    -0.002 C 
HETATM    7  C15 UNL     1      -1.782   1.686   0.763  1.00  0.00     0.117 C 
ENDROOT
BRANCH   6   8
HETATM    8  C6  UNL     1       1.438   0.042  -0.740  1.00  0.00     0.165 C 
BRANCH   8   9
HETATM    9  N3  UNL     1       2.143  -0.747   0.251  1.00  0.00    -0.219 N 
HETATM   10  H7  UNL     1       2.315  -1.181   1.206  1.00  0.00     0.178 HD
BRANCH   9  11
HETATM   11  C7  UNL     1       3.338  -1.309  -0.341  1.00  0.00     0.723 A 
HETATM   12  N4  UNL     1       3.064  -2.472  -0.979  1.00  0.00    -0.074 NA
HETATM   13  C8  UNL     1       4.021  -3.200  -1.620  1.00  0.00     0.154 A 
HETATM   14  P1  UNL     1       5.618  -2.522  -1.557  1.00  0.00     0.021 P 
HETATM   15  C9  UNL     1       5.678  -1.029  -0.675  1.00  0.00     0.101 A 
HETATM   16  N6  UNL     1       4.485  -0.601  -0.163  1.00  0.00    -0.061 NA
BRANCH  15  17
HETATM   17  C10 UNL     1       6.917  -0.260  -0.473  1.00  0.00     0.012 A 
HETATM   18  C11 UNL     1       7.758  -0.954   0.404  1.00  0.00     0.017 A 
HETATM   19  C12 UNL     1       8.987  -0.437   0.756  1.00  0.00     0.020 A 
HETATM   20  C13 UNL     1       9.344   0.781   0.210  1.00  0.00     0.116 A 
HETATM   21  N5  UNL     1       8.526   1.433  -0.628  1.00  0.00    -0.272 NA
HETATM   22  C14 UNL     1       7.324   0.948  -0.985  1.00  0.00     0.130 A 
ENDBRANCH  15  17
ENDBRANCH   9  11
ENDBRANCH   8   9
ENDBRANCH   6   8
BRANCH   1  23
HETATM   23  N1  UNL     1      -4.250   0.958   0.449  1.00  0.00    -0.309 N 
HETATM   24  C1  UNL     1      -5.311   0.081   0.791  1.00  0.00     0.257 C 
HETATM   25  O1  UNL     1      -5.131  -0.833   1.633  1.00  0.00    -0.267 OA
HETATM   26  H1  UNL     1      -4.373   1.723  -0.247  1.00  0.00     0.170 HD
BRANCH  24  27
HETATM   27  C16 UNL     1      -6.633   0.197   0.193  1.00  0.00     0.032 A 
HETATM   28  C17 UNL     1      -7.599  -0.707   0.582  1.00  0.00     0.017 A 
HETATM   29  C18 UNL     1      -8.866  -0.608   0.023  1.00  0.00     0.001 A 
HETATM   30  C19 UNL     1      -9.218   0.361  -0.917  1.00  0.00     0.000 A 
HETATM   31  C20 UNL     1      -8.239   1.264  -1.302  1.00  0.00     0.001 A 
HETATM   32  C21 UNL     1      -6.991   1.150  -0.736  1.00  0.00     0.017 A 
ENDBRANCH  24  27
ENDBRANCH   1  23
TORSDOF 6
