REMARK  6 active torsions:
REMARK  status: ('A' for Active; 'I' for Inactive)
REMARK    1  A    between atoms: N1_3  and  C3_4 
REMARK    2  A    between atoms: C3_4  and  C4_5 
REMARK    3  A    between atoms: C5_6  and  C6_7 
REMARK    4  A    between atoms: N3_10  and  C8_11 
REMARK    5  A    between atoms: C12_15  and  N4_16 
REMARK       I    between atoms: N4_16  and  C13_17 
REMARK    6  A    between atoms: C13_17  and  C14_19 
ROOT
HETATM    1  C8  UNL     1      -0.893   0.919   1.216  1.00  0.00     0.049 A 
HETATM    2  C9  UNL     1      -1.111   1.667   2.355  1.00  0.00     0.031 A 
HETATM    3  C10 UNL     1      -2.374   1.822   2.893  1.00  0.00     0.005 A 
HETATM    4  C11 UNL     1      -3.475   1.214   2.287  1.00  0.00     0.029 A 
HETATM    5  C12 UNL     1      -3.297   0.456   1.145  1.00  0.00     0.037 A 
HETATM    6  C19 UNL     1      -2.013   0.340   0.656  1.00  0.00     0.060 A 
ENDROOT
BRANCH   1   7
HETATM    7  N3  UNL     1       0.409   0.766   0.671  1.00  0.00    -0.293 N 
HETATM    8  C7  UNL     1       1.523   1.399   1.310  1.00  0.00     0.292 C 
HETATM    9  N2  UNL     1       2.761   0.947   0.686  1.00  0.00    -0.272 NA
HETATM   10  C6  UNL     1       2.819   0.583  -0.548  1.00  0.00     0.045 C 
HETATM   11  C20 UNL     1       1.541   0.650  -1.304  1.00  0.00     0.169 C 
HETATM   12  N5  UNL     1       0.525  -0.020  -0.498  1.00  0.00    -0.231 NA
HETATM   13  H21 UNL     1       0.964  -0.925  -0.213  1.00  0.00     0.147 HD
BRANCH  10  14
HETATM   14  C5  UNL     1       4.044   0.134  -1.173  1.00  0.00     0.026 C 
HETATM   15  C4  UNL     1       5.165   0.077  -0.502  1.00  0.00    -0.003 C 
BRANCH  15  16
HETATM   16  C3  UNL     1       6.456  -0.382  -1.111  1.00  0.00     0.175 C 
BRANCH  16  17
HETATM   17  N1  UNL     1       6.972  -1.527  -0.432  1.00  0.00    -0.302 NA
HETATM   18  C2  UNL     1       8.210  -1.720  -0.169  1.00  0.00     0.079 C 
HETATM   19  C1  UNL     1       9.210  -0.691  -0.590  1.00  0.00     0.056 C 
ENDBRANCH  16  17
ENDBRANCH  15  16
ENDBRANCH  10  14
ENDBRANCH   1   7
BRANCH   5  20
HETATM   20  N4  UNL     1      -4.413  -0.167   0.520  1.00  0.00    -0.323 N 
HETATM   21  C13 UNL     1      -5.275   0.320  -0.488  1.00  0.00     0.252 C 
HETATM   22  O1  UNL     1      -5.134   1.466  -0.987  1.00  0.00    -0.268 OA
HETATM   23  H14 UNL     1      -4.475  -1.118   0.981  1.00  0.00     0.169 HD
BRANCH  21  24
HETATM   24  C14 UNL     1      -6.349  -0.558  -0.941  1.00  0.00     0.013 A 
HETATM   25  C15 UNL     1      -6.582  -1.777  -0.481  1.00  0.00     0.013 A 
HETATM   26  C16 UNL     1      -7.735  -2.351  -1.166  1.00  0.00    -0.003 A 
HETATM   27  C17 UNL     1      -8.198  -1.472  -2.042  1.00  0.00    -0.022 A 
HETATM   28  C18 UNL     1      -7.350  -0.229  -1.983  1.00  0.00     0.071 A 
ENDBRANCH  21  24
ENDBRANCH   5  20
TORSDOF 6
