REMARK  8 active torsions:
REMARK  status: ('A' for Active; 'I' for Inactive)
REMARK    1  A    between atoms: C2_2  and  N1_3 
REMARK    2  A    between atoms: C2_2  and  C17_22 
REMARK    3  A    between atoms: N1_3  and  C3_4 
REMARK    4  A    between atoms: C3_4  and  C4_5 
REMARK    5  A    between atoms: C5_6  and  C6_7 
REMARK    6  A    between atoms: C5_6  and  N2_10 
REMARK    7  A    between atoms: C6_7  and  C7_8 
REMARK    8  A    between atoms: C7_8  and  O1_9 
ROOT
HETATM    1  C4  UNL     1      -0.137   0.801  -0.718  1.00  0.00     0.017 C 
HETATM    2  C5  UNL     1       1.039   0.166  -0.546  1.00  0.00     0.009 C 
ENDROOT
BRANCH   2   3
HETATM    3  C6  UNL     1       1.239  -1.161  -1.235  1.00  0.00     0.082 C 
BRANCH   3   4
HETATM    4  C7  UNL     1       1.607  -2.374  -0.535  1.00  0.00     0.170 C 
BRANCH   4   5
HETATM    5  O1  UNL     1       1.721  -3.444  -1.498  1.00  0.00    -0.400 OA
HETATM    6  H11 UNL     1       2.000  -3.006  -2.348  1.00  0.00     0.209 HD
ENDBRANCH   4   5
ENDBRANCH   3   4
ENDBRANCH   2   3
BRANCH   2   7
HETATM    7  N2  UNL     1       2.246   0.515   0.021  1.00  0.00    -0.349 N 
HETATM    8  C8  UNL     1       3.342   1.539  -0.174  1.00  0.00     0.269 C 
HETATM    9  N3  UNL     1       3.574   1.748   1.355  1.00  0.00    -0.296 NA
HETATM   10  C9  UNL     1       4.248   0.741   1.917  1.00  0.00     0.091 A 
HETATM   11  C10 UNL     1       3.905  -0.687   1.787  1.00  0.00     0.065 A 
HETATM   12  C16 UNL     1       4.955   1.613   2.936  1.00  0.00     0.065 C 
HETATM   13  C11 UNL     1       2.892  -0.073   1.116  1.00  0.00     0.108 A 
HETATM   14  C15 UNL     1       3.953   1.725   4.101  1.00  0.00    -0.005 C 
HETATM   15  C14 UNL     1       2.655   1.264   4.229  1.00  0.00     0.112 C 
HETATM   16  N4  UNL     1       1.532   0.588   3.514  1.00  0.00    -0.268 NA
HETATM   17  C12 UNL     1       1.663   0.160   2.167  1.00  0.00     0.039 C 
HETATM   18  C13 UNL     1       0.303  -0.105   1.596  1.00  0.00     0.068 C 
ENDBRANCH   2   7
BRANCH   1  19
HETATM   19  C3  UNL     1      -1.354   0.481  -1.470  1.00  0.00     0.148 C 
BRANCH  19  20
HETATM   20  N1  UNL     1      -2.478   0.418  -0.518  1.00  0.00    -0.389 N 
HETATM   21  H3  UNL     1      -2.328   0.589   0.500  1.00  0.00     0.159 HD
BRANCH  20  22
HETATM   22  C2  UNL     1      -3.837   0.134  -0.830  1.00  0.00     0.007 C 
HETATM   23  C1  UNL     1      -4.839   0.733  -0.213  1.00  0.00     0.039 C 
BRANCH  22  24
HETATM   24  C17 UNL     1      -4.149  -0.872  -1.881  1.00  0.00     0.079 A 
HETATM   25  C18 UNL     1      -3.779  -0.356  -3.223  1.00  0.00    -0.012 A 
HETATM   26  C19 UNL     1      -4.839  -0.238  -4.007  1.00  0.00    -0.003 A 
HETATM   27  C20 UNL     1      -6.031  -0.666  -3.261  1.00  0.00    -0.003 A 
HETATM   28  C21 UNL     1      -5.618  -1.028  -2.041  1.00  0.00    -0.012 A 
ENDBRANCH  22  24
ENDBRANCH  20  22
ENDBRANCH  19  20
ENDBRANCH   1  19
TORSDOF 8
