REMARK  6 active torsions:
REMARK  status: ('A' for Active; 'I' for Inactive)
REMARK    1  A    between atoms: N1_1  and  C1_2 
REMARK    2  A    between atoms: C1_2  and  C2_3 
REMARK    3  A    between atoms: C1_2  and  C15_19 
REMARK    4  A    between atoms: C3_4  and  C4_5 
REMARK    5  A    between atoms: C5_6  and  C6_7 
REMARK    6  A    between atoms: C6_7  and  N2_8 
ROOT
HETATM    1  C4  UNL     1      -1.167   0.591   0.316  1.00  0.00    -0.003 C 
HETATM    2  C5  UNL     1      -0.145  -0.110  -0.153  1.00  0.00    -0.007 C 
ENDROOT
BRANCH   1   3
HETATM    3  C3  UNL     1      -2.487  -0.004   0.500  1.00  0.00    -0.002 C 
HETATM    4  C2  UNL     1      -3.488   0.728   0.972  1.00  0.00     0.002 C 
BRANCH   4   5
HETATM    5  C1  UNL     1      -4.859   0.195   1.187  1.00  0.00     0.130 C 
BRANCH   5   6
HETATM    6  N1  UNL     1      -4.679  -1.218   1.526  1.00  0.00    -0.419 N 
HETATM    7  H1  UNL     1      -4.841  -1.425   2.517  1.00  0.00     0.150 HD
HETATM    8  H2  UNL     1      -5.086  -1.861   0.839  1.00  0.00     0.150 HD
ENDBRANCH   5   6
BRANCH   5   9
HETATM    9  C15 UNL     1      -5.626   0.335  -0.078  1.00  0.00    -0.032 A 
HETATM   10  C16 UNL     1      -5.301   1.192  -1.109  1.00  0.00     0.009 A 
HETATM   11  C17 UNL     1      -6.100   1.226  -2.234  1.00  0.00     0.001 A 
HETATM   12  C18 UNL     1      -7.206   0.386  -2.279  1.00  0.00     0.000 A 
HETATM   13  C19 UNL     1      -7.555  -0.480  -1.264  1.00  0.00     0.001 A 
HETATM   14  C20 UNL     1      -6.733  -0.486  -0.155  1.00  0.00     0.009 A 
ENDBRANCH   5   9
ENDBRANCH   4   5
ENDBRANCH   1   3
BRANCH   2  15
HETATM   15  C6  UNL     1       1.207   0.533  -0.332  1.00  0.00     0.151 C 
BRANCH  15  16
HETATM   16  N2  UNL     1       2.189  -0.151   0.473  1.00  0.00    -0.369 N 
HETATM   17  C7  UNL     1       3.320   0.637   0.153  1.00  0.00     0.205 C 
HETATM   18  N3  UNL     1       3.821   1.805  -0.014  1.00  0.00    -0.257 NA
HETATM   19  C8  UNL     1       5.213   1.954  -0.375  1.00  0.00     0.114 C 
HETATM   20  C9  UNL     1       6.314   1.348  -0.768  1.00  0.00    -0.007 C 
HETATM   21  C10 UNL     1       6.441  -0.103  -1.021  1.00  0.00     0.039 C 
HETATM   22  C11 UNL     1       7.164  -0.776   0.126  1.00  0.00     0.082 C 
HETATM   23  S1  UNL     1       6.359  -0.523   1.698  1.00  0.00    -0.141 SA
HETATM   24  C12 UNL     1       4.771  -1.221   1.904  1.00  0.00     0.042 C 
HETATM   25  C13 UNL     1       3.478  -1.606   1.926  1.00  0.00    -0.001 C 
HETATM   26  C14 UNL     1       2.161  -1.283   1.376  1.00  0.00     0.151 C 
ENDBRANCH  15  16
ENDBRANCH   2  15
TORSDOF 6
