REMARK  1 active torsions:
REMARK  status: ('A' for Active; 'I' for Inactive)
REMARK    1  A    between atoms: N1_1  and  C1_2 
ROOT
HETATM    1  C1  UNL     1      -2.251  -1.694   0.424  1.00  0.00     0.052 C 
HETATM    2  C2  UNL     1      -1.402  -1.945  -0.565  1.00  0.00     0.017 C 
HETATM    3  C3  UNL     1      -0.206  -1.043  -0.614  1.00  0.00     0.063 C 
HETATM    4  C4  UNL     1       1.044  -1.912  -0.768  1.00  0.00    -0.014 C 
HETATM    5  C5  UNL     1       2.301  -1.994  -0.266  1.00  0.00    -0.003 C 
HETATM    6  C6  UNL     1       3.556  -1.825   0.434  1.00  0.00    -0.004 C 
HETATM    7  C7  UNL     1       3.956  -0.858   1.304  1.00  0.00    -0.018 C 
HETATM    8  C8  UNL     1       2.750  -0.005   1.351  1.00  0.00     0.130 C 
HETATM    9  C9  UNL     1       3.023   1.300   0.618  1.00  0.00     0.225 C 
HETATM   10  O1  UNL     1       3.386   2.372   0.080  1.00  0.00    -0.273 OA
HETATM   11  N2  UNL     1       1.931   1.721  -0.238  1.00  0.00    -0.329 N 
HETATM   12  C10 UNL     1       0.818   2.151  -1.109  1.00  0.00     0.030 C 
HETATM   13  C11 UNL     1       1.060   1.781  -2.432  1.00  0.00     0.027 C 
HETATM   14  C12 UNL     1       0.567   0.338  -2.736  1.00  0.00     0.007 C 
HETATM   15  C13 UNL     1      -0.318  -0.129  -1.783  1.00  0.00    -0.050 C 
HETATM   16  C14 UNL     1      -1.662   0.626  -1.879  1.00  0.00     0.177 C 
HETATM   17  N3  UNL     1      -1.327   1.583  -0.765  1.00  0.00    -0.205 N 
HETATM   18  C15 UNL     1      -0.500   2.772  -0.612  1.00  0.00     0.198 C 
HETATM   19  C16 UNL     1      -1.777   1.431   0.544  1.00  0.00     0.725 A 
HETATM   20  N4  UNL     1      -1.974   2.100   1.673  1.00  0.00    -0.075 NA
HETATM   21  C17 UNL     1      -2.382   1.324   2.732  1.00  0.00     0.139 A 
HETATM   22  C18 UNL     1      -2.574  -0.063   2.618  1.00  0.00     0.054 A 
HETATM   23  C19 UNL     1      -2.338  -0.625   1.401  1.00  0.00     0.103 A 
HETATM   24  N5  UNL     1      -1.957   0.193   0.465  1.00  0.00    -0.061 NA
HETATM   25  H11 UNL     1       1.090   1.191  -0.124  1.00  0.00     0.168 HD
ENDROOT
BRANCH   1  26
HETATM   26  N1  UNL     1      -3.499  -2.223   0.931  1.00  0.00    -0.397 N 
HETATM   27  H1  UNL     1      -3.665  -2.932   1.672  1.00  0.00     0.156 HD
HETATM   28  H2  UNL     1      -4.502  -2.010   0.660  1.00  0.00     0.156 HD
ENDBRANCH   1  26
TORSDOF 1
