REMARK  6 active torsions:
REMARK  status: ('A' for Active; 'I' for Inactive)
REMARK    1  A    between atoms: C2_2  and  C3_3 
REMARK    2  A    between atoms: C4_4  and  C5_5 
REMARK    3  A    between atoms: C6_6  and  C7_7 
REMARK       I    between atoms: C7_7  and  N1_9 
REMARK    4  A    between atoms: N1_9  and  C8_10 
REMARK    5  A    between atoms: C12_14  and  N2_15 
REMARK    6  A    between atoms: N2_15  and  C13_16 
ROOT
HETATM    1  C8  UNL     1       0.603  -2.350  -0.824  1.00  0.00     0.039 A 
HETATM    2  C9  UNL     1       0.281  -2.723  -2.073  1.00  0.00     0.027 A 
HETATM    3  C10 UNL     1      -0.728  -3.775  -2.055  1.00  0.00     0.000 A 
HETATM    4  C11 UNL     1      -0.992  -4.011  -0.795  1.00  0.00     0.005 A 
HETATM    5  C12 UNL     1      -0.194  -3.150   0.135  1.00  0.00     0.172 A 
ENDROOT
BRANCH   5   6
HETATM    6  N2  UNL     1      -1.149  -2.334   0.886  1.00  0.00    -0.209 N 
HETATM    7  H15 UNL     1      -1.091  -2.288   1.924  1.00  0.00     0.179 HD
BRANCH   6   8
HETATM    8  C13 UNL     1      -2.151  -1.607   0.192  1.00  0.00     0.723 A 
HETATM    9  N3  UNL     1      -2.266  -1.618  -1.146  1.00  0.00    -0.075 NA
HETATM   10  C14 UNL     1      -3.243  -0.915  -1.786  1.00  0.00     0.139 A 
HETATM   11  C15 UNL     1      -4.168  -0.151  -1.064  1.00  0.00     0.053 A 
HETATM   12  C16 UNL     1      -4.012  -0.169   0.304  1.00  0.00     0.094 A 
HETATM   13  C17 UNL     1      -4.968   0.609   1.057  1.00  0.00     0.034 A 
HETATM   14  N4  UNL     1      -3.041  -0.870   0.895  1.00  0.00    -0.062 NA
HETATM   15  C18 UNL     1      -5.009   0.731   2.371  1.00  0.00     0.021 A 
HETATM   16  S1  UNL     1      -6.304   1.571   0.456  1.00  0.00    -0.100 SA
HETATM   17  C19 UNL     1      -5.885   1.441   3.113  1.00  0.00     0.008 A 
HETATM   18  C20 UNL     1      -6.868   2.116   2.206  1.00  0.00     0.050 A 
ENDBRANCH   6   8
ENDBRANCH   5   6
BRANCH   1  19
HETATM   19  N1  UNL     1       1.601  -1.308  -0.764  1.00  0.00    -0.325 N 
HETATM   20  C7  UNL     1       2.809  -1.695  -0.073  1.00  0.00     0.245 C 
HETATM   21  O1  UNL     1       2.492  -2.896   0.235  1.00  0.00    -0.268 OA
HETATM   22  H10 UNL     1       1.351  -0.381  -1.223  1.00  0.00     0.169 HD
BRANCH  20  23
HETATM   23  C6  UNL     1       3.845  -0.692   0.019  1.00  0.00     0.074 C 
HETATM   24  C5  UNL     1       4.326   0.515  -0.217  1.00  0.00     0.005 C 
BRANCH  24  25
HETATM   25  C4  UNL     1       3.666   1.588  -0.917  1.00  0.00    -0.004 C 
HETATM   26  C3  UNL     1       4.258   2.741  -1.084  1.00  0.00    -0.027 C 
BRANCH  26  27
HETATM   27  C2  UNL     1       5.591   3.253  -0.678  1.00  0.00     0.022 C 
HETATM   28  C1  UNL     1       5.393   4.473   0.232  1.00  0.00     0.009 C 
ENDBRANCH  26  27
ENDBRANCH  24  25
ENDBRANCH  20  23
ENDBRANCH   1  19
TORSDOF 6
