REMARK  7 active torsions:
REMARK  status: ('A' for Active; 'I' for Inactive)
REMARK    1  A    between atoms: C1_2  and  S1_3 
REMARK    2  A    between atoms: C1_2  and  C15_21 
REMARK    3  A    between atoms: S1_3  and  C2_4 
REMARK    4  A    between atoms: C6_8  and  N1_9 
REMARK    5  A    between atoms: N1_9  and  C7_10 
REMARK    6  A    between atoms: C10_14  and  C11_15 
REMARK    7  A    between atoms: S3_25  and  C19_26 
ROOT
HETATM    1  C2  UNL     1       1.953  -0.033   0.975  1.00  0.00     0.036 A 
HETATM    2  C3  UNL     1       2.465  -0.999   1.720  1.00  0.00     0.022 A 
HETATM    3  C4  UNL     1       1.500  -1.656   2.580  1.00  0.00     0.016 A 
HETATM    4  C5  UNL     1       0.403  -0.989   2.351  1.00  0.00     0.005 A 
HETATM    5  C6  UNL     1       0.529  -0.075   1.397  1.00  0.00     0.077 A 
ENDROOT
BRANCH   5   6
HETATM    6  N1  UNL     1      -0.779   0.446   1.220  1.00  0.00    -0.186 N 
HETATM    7  H3  UNL     1      -0.969   1.403   1.564  1.00  0.00     0.184 HD
BRANCH   6   8
HETATM    8  C7  UNL     1      -1.800  -0.316   0.590  1.00  0.00     0.727 A 
HETATM    9  N2  UNL     1      -1.564  -1.559   0.140  1.00  0.00    -0.075 NA
HETATM   10  C8  UNL     1      -2.543  -2.291  -0.464  1.00  0.00     0.139 A 
HETATM   11  C9  UNL     1      -3.798  -1.727  -0.607  1.00  0.00     0.053 A 
HETATM   12  C10 UNL     1      -4.037  -0.449  -0.144  1.00  0.00     0.094 A 
HETATM   13  N3  UNL     1      -3.024   0.212   0.441  1.00  0.00    -0.062 NA
BRANCH  12  14
HETATM   14  C11 UNL     1      -5.309   0.268  -0.228  1.00  0.00     0.034 A 
HETATM   15  C12 UNL     1      -6.436  -0.206  -0.768  1.00  0.00     0.021 A 
HETATM   16  C13 UNL     1      -7.574   0.558  -0.792  1.00  0.00     0.008 A 
HETATM   17  C14 UNL     1      -7.430   1.876  -0.197  1.00  0.00     0.050 A 
HETATM   18  S2  UNL     1      -5.652   1.902   0.352  1.00  0.00    -0.100 SA
ENDBRANCH  12  14
ENDBRANCH   6   8
ENDBRANCH   5   6
BRANCH   1  19
HETATM   19  S1  UNL     1       2.072   1.245  -0.224  1.00  0.00    -0.049 SA
BRANCH  19  20
HETATM   20  C1  UNL     1       3.672   1.522  -0.896  1.00  0.00     0.207 C 
HETATM   21  O1  UNL     1       3.383   2.458  -1.681  1.00  0.00    -0.284 OA
BRANCH  20  22
HETATM   22  C15 UNL     1       4.306   0.526  -0.148  1.00  0.00     0.097 A 
HETATM   23  C16 UNL     1       5.617   1.054  -0.974  1.00  0.00     0.089 A 
HETATM   24  C17 UNL     1       7.282   0.723  -1.105  1.00  0.00     0.065 A 
HETATM   25  C19 UNL     1       5.386   0.269  -0.193  1.00  0.00    -0.026 A 
HETATM   26  S3  UNL     1       6.624  -0.006  -0.263  1.00  0.00    -0.207 SA
HETATM   27  C18 UNL     1       8.139  -0.319  -0.372  1.00  0.00     0.062 A 
ENDBRANCH  20  22
ENDBRANCH  19  20
ENDBRANCH   1  19
TORSDOF 7
