REMARK  0 active torsions:
REMARK  status: ('A' for Active; 'I' for Inactive)
ROOT
HETATM    1  O1  UNL     1      -2.306  -1.877   0.160  1.00  0.00    -0.268 OA
HETATM    2  C1  UNL     1      -2.647  -0.674   0.187  1.00  0.00     0.254 C 
HETATM    3  N1  UNL     1      -1.903  -0.527   1.368  1.00  0.00    -0.357 N 
HETATM    4  C2  UNL     1      -1.089  -1.388   2.199  1.00  0.00     0.123 C 
HETATM    5  C3  UNL     1       0.098  -1.983   1.486  1.00  0.00     0.023 C 
HETATM    6  C4  UNL     1       0.822  -2.833   2.517  1.00  0.00     0.030 C 
HETATM    7  C5  UNL     1       2.021  -3.495   1.977  1.00  0.00    -0.009 C 
HETATM    8  C6  UNL     1       2.486  -3.419   0.746  1.00  0.00     0.102 C 
HETATM    9  N2  UNL     1       2.385  -2.915  -0.578  1.00  0.00    -0.199 N 
HETATM   10  C7  UNL     1       3.077  -1.767  -1.101  1.00  0.00     0.726 A 
HETATM   11  N3  UNL     1       3.823  -1.989  -2.198  1.00  0.00    -0.075 NA
HETATM   12  C8  UNL     1       4.498  -0.935  -2.735  1.00  0.00     0.138 A 
HETATM   13  C9  UNL     1       4.389   0.321  -2.131  1.00  0.00     0.048 A 
HETATM   14  C10 UNL     1       3.609   0.465  -1.016  1.00  0.00     0.059 A 
HETATM   15  N4  UNL     1       2.954  -0.570  -0.500  1.00  0.00    -0.067 NA
HETATM   16  C11 UNL     1       3.450   1.782  -0.322  1.00  0.00     0.106 C 
HETATM   17  C12 UNL     1       2.777   1.628   0.978  1.00  0.00     0.095 C 
HETATM   18  N5  UNL     1       1.705   1.881   1.652  1.00  0.00    -0.277 NA
HETATM   19  C13 UNL     1       0.622   2.588   1.072  1.00  0.00     0.116 C 
HETATM   20  C14 UNL     1      -0.423   3.161   0.524  1.00  0.00     0.021 C 
HETATM   21  C15 UNL     1      -1.350   4.136  -0.011  1.00  0.00     0.026 C 
HETATM   22  C16 UNL     1      -2.456   3.581  -0.470  1.00  0.00     0.142 C 
HETATM   23  O2  UNL     1      -2.443   2.180  -0.318  1.00  0.00    -0.322 OA
HETATM   24  C17 UNL     1      -3.382   1.398  -0.964  1.00  0.00     0.090 A 
HETATM   25  C18 UNL     1      -4.271   1.923  -1.880  1.00  0.00     0.038 A 
HETATM   26  C19 UNL     1      -5.201   1.123  -2.513  1.00  0.00     0.003 A 
HETATM   27  C20 UNL     1      -5.295  -0.239  -2.268  1.00  0.00     0.001 A 
HETATM   28  C21 UNL     1      -4.395  -0.764  -1.342  1.00  0.00     0.020 A 
HETATM   29  C22 UNL     1      -3.481   0.068  -0.731  1.00  0.00     0.065 A 
HETATM   30  H1  UNL     1      -2.110   0.480   1.510  1.00  0.00     0.162 HD
HETATM   31  H10 UNL     1       1.760  -3.378  -1.307  1.00  0.00     0.183 HD
ENDROOT
TORSDOF 0
