REMARK  7 active torsions:
REMARK  status: ('A' for Active; 'I' for Inactive)
REMARK    1  A    between atoms: O1_2  and  C2_3 
REMARK    2  A    between atoms: C7_8  and  C8_9 
REMARK       I    between atoms: C8_9  and  N1_11 
REMARK    3  A    between atoms: N1_11  and  C9_12 
REMARK    4  A    between atoms: C9_12  and  C10_13 
REMARK    5  A    between atoms: C11_14  and  N2_15 
REMARK    6  A    between atoms: N2_15  and  C12_16 
REMARK    7  A    between atoms: C15_20  and  C16_21 
ROOT
HETATM    1  C10 UNL     1      -0.246  -0.687  -0.068  1.00  0.00    -0.032 A 
HETATM    2  C11 UNL     1       0.568   0.206  -0.591  1.00  0.00     0.053 A 
HETATM    3  C21 UNL     1       1.013  -0.275  -1.892  1.00  0.00     0.026 A 
HETATM    4  C22 UNL     1       0.455  -1.468  -2.142  1.00  0.00    -0.020 A 
HETATM    5  C23 UNL     1      -0.407  -1.845  -0.994  1.00  0.00     0.065 A 
ENDROOT
BRANCH   2   6
HETATM    6  N2  UNL     1       1.109   1.471  -0.235  1.00  0.00    -0.188 N 
HETATM    7  H11 UNL     1       0.674   2.331  -0.656  1.00  0.00     0.184 HD
BRANCH   6   8
HETATM    8  C12 UNL     1       2.180   1.142   0.673  1.00  0.00     0.727 A 
HETATM    9  N3  UNL     1       1.956   1.051   1.998  1.00  0.00    -0.075 NA
HETATM   10  C13 UNL     1       3.012   0.739   2.775  1.00  0.00     0.139 A 
HETATM   11  C14 UNL     1       4.242   0.535   2.185  1.00  0.00     0.053 A 
HETATM   12  C15 UNL     1       4.462   0.630   0.827  1.00  0.00     0.089 A 
HETATM   13  N5  UNL     1       3.370   0.947   0.077  1.00  0.00    -0.062 NA
BRANCH  12  14
HETATM   14  C16 UNL     1       5.770   0.411   0.220  1.00  0.00     0.011 A 
HETATM   15  C17 UNL     1       6.932   0.087   0.889  1.00  0.00     0.017 A 
HETATM   16  C18 UNL     1       8.124  -0.101   0.218  1.00  0.00     0.020 A 
HETATM   17  C19 UNL     1       8.181   0.032  -1.152  1.00  0.00     0.116 A 
HETATM   18  N4  UNL     1       7.045   0.348  -1.810  1.00  0.00    -0.272 NA
HETATM   19  C20 UNL     1       5.873   0.533  -1.151  1.00  0.00     0.130 A 
ENDBRANCH  12  14
ENDBRANCH   6   8
ENDBRANCH   2   6
BRANCH   1  20
HETATM   20  C9  UNL     1      -0.940  -0.634   1.232  1.00  0.00     0.159 C 
BRANCH  20  21
HETATM   21  N1  UNL     1      -2.377  -0.685   1.045  1.00  0.00    -0.353 N 
HETATM   22  C8  UNL     1      -2.930   0.363   0.273  1.00  0.00     0.254 C 
HETATM   23  O2  UNL     1      -2.019   1.144  -0.099  1.00  0.00    -0.268 OA
HETATM   24  H8  UNL     1      -3.031  -1.404   1.417  1.00  0.00     0.163 HD
BRANCH  22  25
HETATM   25  C7  UNL     1      -4.309   0.604  -0.096  1.00  0.00     0.065 A 
HETATM   26  C2  UNL     1      -5.421  -0.134   0.217  1.00  0.00     0.084 A 
HETATM   27  C3  UNL     1      -6.696   0.190  -0.191  1.00  0.00     0.038 A 
HETATM   28  C4  UNL     1      -6.933   1.291  -0.949  1.00  0.00     0.003 A 
HETATM   29  C5  UNL     1      -5.842   2.046  -1.276  1.00  0.00     0.001 A 
HETATM   30  C6  UNL     1      -4.569   1.718  -0.867  1.00  0.00     0.020 A 
BRANCH  26  31
HETATM   31  O1  UNL     1      -5.239  -1.262   0.984  1.00  0.00    -0.355 OA
HETATM   32  C1  UNL     1      -6.300  -2.085   1.360  1.00  0.00     0.210 C 
ENDBRANCH  26  31
ENDBRANCH  22  25
ENDBRANCH  20  21
ENDBRANCH   1  20
TORSDOF 7
