REMARK  4 active torsions:
REMARK  status: ('A' for Active; 'I' for Inactive)
REMARK    1  A    between atoms: O1_2  and  C2_3 
REMARK    2  A    between atoms: C7_8  and  C8_9 
REMARK       I    between atoms: C8_9  and  N1_11 
REMARK    3  A    between atoms: N1_11  and  C9_12 
REMARK    4  A    between atoms: C22_28  and  N5_29 
ROOT
HETATM    1  C9  UNL     1      -0.547  -0.317   1.591  1.00  0.00     0.065 C 
HETATM    2  C10 UNL     1      -0.353  -1.247   2.516  1.00  0.00     0.029 C 
HETATM    3  C11 UNL     1       0.887  -1.936   2.943  1.00  0.00    -0.000 C 
HETATM    4  C12 UNL     1       2.151  -1.495   2.793  1.00  0.00     0.003 C 
HETATM    5  C13 UNL     1       2.328  -0.150   2.115  1.00  0.00     0.303 C 
HETATM    6  N2  UNL     1       1.734  -0.268   0.809  1.00  0.00     0.121 N 
HETATM    7  C14 UNL     1       2.708   0.326  -0.091  1.00  0.00     0.292 C 
HETATM    8  C15 UNL     1       2.882  -0.590  -1.268  1.00  0.00     0.042 C 
HETATM    9  C16 UNL     1       1.818  -0.147  -2.238  1.00  0.00     0.004 C 
HETATM   10  C17 UNL     1       0.565   0.133  -1.916  1.00  0.00     0.082 C 
HETATM   11  N3  UNL     1      -0.107   0.104  -0.659  1.00  0.00    -0.365 N 
HETATM   12  C18 UNL     1       0.450   0.304   0.669  1.00  0.00     0.372 C 
HETATM   13  C19 UNL     1       2.768  -2.050  -0.939  1.00  0.00     0.064 C 
HETATM   14  C20 UNL     1       4.111  -2.605  -0.533  1.00  0.00     0.084 C 
HETATM   15  N4  UNL     1       5.260  -2.053  -0.594  1.00  0.00    -0.303 NA
HETATM   16  C21 UNL     1       5.384  -0.726  -1.104  1.00  0.00     0.184 C 
HETATM   17  C22 UNL     1       4.208  -0.401  -1.973  1.00  0.00     0.251 C 
HETATM   18  H18 UNL     1      -1.133  -0.102  -0.872  1.00  0.00     0.161 HD
ENDROOT
BRANCH   1  19
HETATM   19  N1  UNL     1      -1.839   0.209   1.350  1.00  0.00    -0.323 N 
HETATM   20  C8  UNL     1      -3.157   0.024   1.811  1.00  0.00     0.258 C 
HETATM   21  O2  UNL     1      -3.176  -0.868   2.686  1.00  0.00    -0.267 OA
HETATM   22  H8  UNL     1      -1.890   0.969   0.636  1.00  0.00     0.169 HD
BRANCH  20  23
HETATM   23  C7  UNL     1      -4.386   0.680   1.432  1.00  0.00     0.065 A 
HETATM   24  C2  UNL     1      -4.631   1.663   0.520  1.00  0.00     0.084 A 
HETATM   25  C3  UNL     1      -5.846   2.225   0.228  1.00  0.00     0.038 A 
HETATM   26  C4  UNL     1      -6.918   1.737   0.938  1.00  0.00     0.003 A 
HETATM   27  C5  UNL     1      -6.776   0.752   1.875  1.00  0.00     0.001 A 
HETATM   28  C6  UNL     1      -5.536   0.247   2.105  1.00  0.00     0.020 A 
BRANCH  24  29
HETATM   29  O1  UNL     1      -3.537   2.130  -0.176  1.00  0.00    -0.355 OA
HETATM   30  C1  UNL     1      -3.620   3.139  -1.152  1.00  0.00     0.210 C 
ENDBRANCH  24  29
ENDBRANCH  20  23
ENDBRANCH   1  19
BRANCH  17  31
HETATM   31  N5  UNL     1       4.233  -1.365  -3.079  1.00  0.00     0.085 N 
HETATM   32  H26 UNL     1       5.233  -1.558  -3.341  1.00  0.00     0.313 HD
HETATM   33  H27 UNL     1       3.775  -1.030  -3.932  1.00  0.00     0.313 HD
ENDBRANCH  17  31
TORSDOF 4
