REMARK  0 active torsions:
REMARK  status: ('A' for Active; 'I' for Inactive)
ROOT
HETATM    1  O1  UNL     1       1.095   0.491   0.604  1.00  0.00    -0.267 OA
HETATM    2  C1  UNL     1       1.897   0.855  -0.279  1.00  0.00     0.264 C 
HETATM    3  N1  UNL     1       0.766   0.764  -1.097  1.00  0.00    -0.298 N 
HETATM    4  S1  UNL     1      -0.904   0.288  -0.771  1.00  0.00    -0.059 SA
HETATM    5  C2  UNL     1      -1.164  -1.325  -0.374  1.00  0.00     0.043 C 
HETATM    6  C3  UNL     1      -0.406  -2.550  -0.197  1.00  0.00     0.022 C 
HETATM    7  C4  UNL     1       0.734  -3.214  -0.204  1.00  0.00     0.000 C 
HETATM    8  C5  UNL     1       2.114  -2.755  -0.507  1.00  0.00     0.008 C 
HETATM    9  C6  UNL     1       3.204  -2.021  -0.834  1.00  0.00     0.185 C 
HETATM   10  O2  UNL     1       3.828  -0.835  -1.208  1.00  0.00    -0.338 OA
HETATM   11  C7  UNL     1       4.199   0.175  -0.324  1.00  0.00     0.085 A 
HETATM   12  C8  UNL     1       5.477   0.412   0.135  1.00  0.00     0.038 A 
HETATM   13  C9  UNL     1       5.683   1.452   1.011  1.00  0.00     0.003 A 
HETATM   14  C10 UNL     1       4.715   2.306   1.490  1.00  0.00     0.001 A 
HETATM   15  C11 UNL     1       3.411   2.111   1.059  1.00  0.00     0.020 A 
HETATM   16  C12 UNL     1       3.245   1.067   0.188  1.00  0.00     0.066 A 
HETATM   17  C13 UNL     1      -2.628  -1.514  -0.155  1.00  0.00     0.095 A 
HETATM   18  C14 UNL     1      -3.331  -2.651  -0.452  1.00  0.00     0.053 A 
HETATM   19  C15 UNL     1      -4.667  -2.505  -0.146  1.00  0.00     0.139 A 
HETATM   20  N2  UNL     1      -5.268  -1.404   0.381  1.00  0.00    -0.075 NA
HETATM   21  C16 UNL     1      -4.521  -0.342   0.641  1.00  0.00     0.723 A 
HETATM   22  N3  UNL     1      -3.255  -0.480   0.352  1.00  0.00    -0.062 NA
HETATM   23  N4  UNL     1      -4.441   0.969   1.112  1.00  0.00    -0.212 N 
HETATM   24  C17 UNL     1      -4.171   2.263   0.623  1.00  0.00     0.151 A 
HETATM   25  C18 UNL     1      -3.456   3.134  -0.012  1.00  0.00     0.078 A 
HETATM   26  C19 UNL     1      -2.186   3.227  -0.765  1.00  0.00     0.002 A 
HETATM   27  P1  UNL     1      -2.445   1.714  -0.236  1.00  0.00    -0.019 P 
HETATM   28  H1  UNL     1       0.585   0.948  -2.089  1.00  0.00     0.177 HD
HETATM   29  H12 UNL     1      -4.676   0.676   2.089  1.00  0.00     0.178 HD
ENDROOT
TORSDOF 0
