REMARK  5 active torsions:
REMARK  status: ('A' for Active; 'I' for Inactive)
REMARK    1  A    between atoms: C5_5  and  P1_6 
REMARK    2  A    between atoms: P1_6  and  C6_7 
REMARK    3  A    between atoms: C10_11  and  C11_12 
REMARK    4  A    between atoms: C13_15  and  N1_16 
REMARK    5  A    between atoms: C16_20  and  C17_21 
ROOT
HETATM    1  C1  UNL     1      -0.445  -2.489   1.654  1.00  0.00     0.050 C 
HETATM    2  C2  UNL     1       0.688  -1.542   1.617  1.00  0.00    -0.033 A 
HETATM    3  C3  UNL     1       1.917  -2.097   1.902  1.00  0.00     0.010 A 
HETATM    4  C4  UNL     1       3.048  -1.316   1.940  1.00  0.00     0.012 A 
HETATM    5  C5  UNL     1       2.913   0.032   1.685  1.00  0.00    -0.031 A 
HETATM    6  C12 UNL     1       1.664   0.526   1.406  1.00  0.00     0.044 A 
HETATM    7  C13 UNL     1       0.482  -0.210   1.352  1.00  0.00     0.064 A 
ENDROOT
BRANCH   7   8
HETATM    8  N1  UNL     1      -0.709   0.450   0.995  1.00  0.00    -0.249 N 
HETATM    9  C14 UNL     1      -0.768   1.848   1.355  1.00  0.00     0.232 A 
HETATM   10  N2  UNL     1      -1.834   2.522   1.018  1.00  0.00    -0.252 NA
HETATM   11  C15 UNL     1      -2.928   1.925   0.317  1.00  0.00     0.149 A 
HETATM   12  C16 UNL     1      -2.984   0.647  -0.062  1.00  0.00     0.078 A 
HETATM   13  N4  UNL     1      -1.806  -0.010   0.330  1.00  0.00    -0.291 N 
HETATM   14  H21 UNL     1      -1.719  -0.980   0.050  1.00  0.00     0.187 HD
BRANCH  12  15
HETATM   15  C17 UNL     1      -4.140   0.216  -0.753  1.00  0.00     0.018 A 
HETATM   16  C18 UNL     1      -5.058   1.186  -1.147  1.00  0.00     0.017 A 
HETATM   17  C19 UNL     1      -6.214   0.850  -1.802  1.00  0.00     0.020 A 
HETATM   18  C20 UNL     1      -6.564  -0.432  -2.123  1.00  0.00     0.117 A 
HETATM   19  N3  UNL     1      -5.676  -1.359  -1.740  1.00  0.00    -0.265 NA
HETATM   20  C21 UNL     1      -4.526  -1.055  -1.090  1.00  0.00     0.043 A 
HETATM   21  C22 UNL     1      -3.689  -2.200  -0.714  1.00  0.00     0.071 C 
ENDBRANCH  12  15
ENDBRANCH   7   8
BRANCH   5  22
HETATM   22  P1  UNL     1       4.440   1.037   1.750  1.00  0.00    -0.082 P 
HETATM   23  H6  UNL     1       5.433   0.451   2.622  1.00  0.00     0.063 HD
BRANCH  22  24
HETATM   24  C6  UNL     1       5.168   1.390   0.121  1.00  0.00     0.074 A 
HETATM   25  C7  UNL     1       4.638   2.715  -0.358  1.00  0.00    -0.012 A 
HETATM   26  C8  UNL     1       4.056   2.497  -1.508  1.00  0.00    -0.002 A 
HETATM   27  C9  UNL     1       4.094   1.112  -1.956  1.00  0.00     0.011 A 
HETATM   28  C10 UNL     1       4.751   0.504  -0.976  1.00  0.00    -0.008 A 
BRANCH  28  29
HETATM   29  C11 UNL     1       5.132  -0.891  -0.797  1.00  0.00     0.266 C 
HETATM   30  O1  UNL     1       5.725  -1.595   0.031  1.00  0.00    -0.302 OA
ENDBRANCH  28  29
ENDBRANCH  22  24
ENDBRANCH   5  22
TORSDOF 5
