REMARK  9 active torsions:
REMARK  status: ('A' for Active; 'I' for Inactive)
REMARK    1  A    between atoms: C2_2  and  O1_3 
REMARK    2  A    between atoms: O1_3  and  C3_4 
REMARK    3  A    between atoms: C5_8  and  N3_9 
REMARK    4  A    between atoms: C12_16  and  N4_17 
REMARK    5  A    between atoms: N4_17  and  C13_18 
REMARK    6  A    between atoms: C13_18  and  C14_19 
REMARK    7  A    between atoms: C14_19  and  C15_20 
REMARK    8  A    between atoms: C15_20  and  C16_21 
REMARK    9  A    between atoms: C16_21  and  O2_22 
ROOT
HETATM    1  C3  UNL     1      -1.095   1.379  -0.241  1.00  0.00     0.173 C 
HETATM    2  N1  UNL     1      -2.189   1.514  -0.919  1.00  0.00    -0.220 NA
HETATM    3  C4  UNL     1      -3.107   0.605  -1.559  1.00  0.00     0.232 C 
HETATM    4  N2  UNL     1      -3.386  -0.653  -1.500  1.00  0.00    -0.243 NA
HETATM    5  C5  UNL     1      -2.984  -1.837  -0.810  1.00  0.00     0.374 C 
HETATM    6  C6  UNL     1      -2.334  -1.526   0.512  1.00  0.00     0.004 A 
HETATM    7  C7  UNL     1      -3.046  -2.249   1.467  1.00  0.00     0.012 A 
HETATM    8  C8  UNL     1      -2.708  -2.191   2.819  1.00  0.00     0.001 A 
HETATM    9  C9  UNL     1      -1.648  -1.400   3.194  1.00  0.00     0.001 A 
HETATM   10  C10 UNL     1      -0.969  -0.699   2.215  1.00  0.00     0.010 A 
HETATM   11  C11 UNL     1      -1.276  -0.735   0.886  1.00  0.00    -0.018 A 
HETATM   12  C12 UNL     1      -0.351   0.125   0.140  1.00  0.00     0.193 C 
ENDROOT
BRANCH  12  13
HETATM   13  N4  UNL     1       0.867   0.446   0.821  1.00  0.00    -0.377 N 
HETATM   14  H13 UNL     1       1.557   0.456   1.599  1.00  0.00     0.160 HD
BRANCH  13  15
HETATM   15  C13 UNL     1       1.665   1.225  -0.045  1.00  0.00     0.136 C 
BRANCH  15  16
HETATM   16  C14 UNL     1       2.250   0.618  -1.049  1.00  0.00    -0.131 C 
BRANCH  16  17
HETATM   17  C15 UNL     1       2.920  -0.193  -1.852  1.00  0.00     0.099 C 
BRANCH  17  18
HETATM   18  C16 UNL     1       4.202  -0.744  -1.379  1.00  0.00     0.185 C 
BRANCH  18  19
HETATM   19  O2  UNL     1       4.929   0.124  -0.607  1.00  0.00    -0.395 OA
HETATM   20  C17 UNL     1       6.128  -0.425  -0.178  1.00  0.00     0.201 C 
ENDBRANCH  18  19
ENDBRANCH  17  18
ENDBRANCH  16  17
ENDBRANCH  15  16
ENDBRANCH  13  15
ENDBRANCH  12  13
BRANCH   1  21
HETATM   21  O1  UNL     1      -0.743   2.703   0.073  1.00  0.00    -0.306 OA
BRANCH  21  22
HETATM   22  C2  UNL     1      -1.731   3.552   0.607  1.00  0.00     0.134 C 
HETATM   23  C1  UNL     1      -1.551   4.650  -0.138  1.00  0.00     0.038 C 
ENDBRANCH  21  22
ENDBRANCH   1  21
BRANCH   5  24
HETATM   24  N3  UNL     1      -2.115  -2.646  -1.648  1.00  0.00     0.107 N 
HETATM   25  H6  UNL     1      -2.725  -2.944  -2.455  1.00  0.00     0.316 HD
HETATM   26  H7  UNL     1      -1.408  -2.005  -2.063  1.00  0.00     0.316 HD
ENDBRANCH   5  24
TORSDOF 9
