REMARK  1 active torsions:
REMARK  status: ('A' for Active; 'I' for Inactive)
REMARK    1  A    between atoms: N1_2  and  C2_3 
ROOT
HETATM    1  C2  UNL     1       4.475   1.006   0.128  1.00  0.00     0.248 C 
HETATM    2  C3  UNL     1       3.482  -0.062   0.222  1.00  0.00     0.028 C 
HETATM    3  C4  UNL     1       2.560  -0.867   0.711  1.00  0.00     0.116 C 
HETATM    4  N2  UNL     1       1.750  -1.959   0.306  1.00  0.00    -0.256 NA
HETATM    5  C5  UNL     1       1.812  -3.028   1.035  1.00  0.00     0.207 C 
HETATM    6  N3  UNL     1       0.889  -3.830   0.307  1.00  0.00    -0.351 N 
HETATM    7  C6  UNL     1      -0.461  -3.665  -0.110  1.00  0.00     0.035 A 
HETATM    8  C7  UNL     1      -1.138  -4.850  -0.312  1.00  0.00     0.029 A 
HETATM    9  C8  UNL     1      -2.454  -4.789  -0.720  1.00  0.00     0.004 A 
HETATM   10  C9  UNL     1      -3.076  -3.559  -0.921  1.00  0.00     0.029 A 
HETATM   11  C10 UNL     1      -2.349  -2.389  -0.703  1.00  0.00     0.037 A 
HETATM   12  C11 UNL     1      -1.049  -2.442  -0.300  1.00  0.00     0.059 A 
HETATM   13  N4  UNL     1      -3.110  -1.218  -0.953  1.00  0.00    -0.323 N 
HETATM   14  C12 UNL     1      -3.345  -0.091  -0.135  1.00  0.00     0.259 C 
HETATM   15  O1  UNL     1      -2.614  -0.810   0.591  1.00  0.00    -0.267 OA
HETATM   16  C13 UNL     1      -3.874   1.202   0.245  1.00  0.00     0.066 A 
HETATM   17  C14 UNL     1      -4.295   1.203   1.556  1.00  0.00     0.020 A 
HETATM   18  C15 UNL     1      -4.834   2.380   2.060  1.00  0.00     0.001 A 
HETATM   19  C16 UNL     1      -4.877   3.418   1.156  1.00  0.00     0.003 A 
HETATM   20  C17 UNL     1      -4.462   3.438  -0.158  1.00  0.00     0.038 A 
HETATM   21  C18 UNL     1      -3.935   2.247  -0.611  1.00  0.00     0.090 A 
HETATM   22  O2  UNL     1      -3.474   2.118  -1.913  1.00  0.00    -0.322 OA
HETATM   23  C19 UNL     1      -2.261   1.474  -2.089  1.00  0.00     0.142 C 
HETATM   24  C20 UNL     1      -1.145   1.657  -1.429  1.00  0.00     0.026 C 
HETATM   25  C21 UNL     1      -0.516   2.401  -0.377  1.00  0.00     0.021 C 
HETATM   26  C22 UNL     1       0.595   2.601   0.300  1.00  0.00     0.116 C 
HETATM   27  N5  UNL     1       1.847   1.964   0.153  1.00  0.00    -0.277 NA
HETATM   28  C23 UNL     1       2.734   2.522  -0.598  1.00  0.00     0.091 C 
HETATM   29  C24 UNL     1       4.122   2.037  -0.903  1.00  0.00     0.086 C 
HETATM   30  H9  UNL     1       1.414  -4.704   0.077  1.00  0.00     0.166 HD
HETATM   31  H14 UNL     1      -3.562  -1.201  -1.890  1.00  0.00     0.169 HD
ENDROOT
BRANCH   1  32
HETATM   32  N1  UNL     1       5.813   0.496  -0.122  1.00  0.00     0.087 N 
HETATM   33  C1  UNL     1       6.212  -0.401   0.963  1.00  0.00     0.307 C 
HETATM   34  H4  UNL     1       6.492   1.287  -0.102  1.00  0.00     0.316 HD
ENDBRANCH   1  32
TORSDOF 1
