REMARK  9 active torsions:
REMARK  status: ('A' for Active; 'I' for Inactive)
REMARK    1  A    between atoms: C2_2  and  N1_3 
REMARK    2  A    between atoms: C2_2  and  C12_16 
REMARK    3  A    between atoms: N1_3  and  C3_4 
REMARK    4  A    between atoms: C6_8  and  C7_9 
REMARK    5  A    between atoms: C12_16  and  N5_18 
REMARK    6  A    between atoms: N5_18  and  C14_19 
REMARK    7  A    between atoms: C14_19  and  C15_20 
REMARK    8  A    between atoms: C15_20  and  N6_21 
REMARK       I    between atoms: N6_21  and  C17_23 
REMARK    9  A    between atoms: C17_23  and  C18_25 
ROOT
HETATM    1  C1  UNL     1       1.639  -3.514  -0.134  1.00  0.00     0.041 C 
HETATM    2  C2  UNL     1       1.071  -2.364  -0.337  1.00  0.00     0.042 C 
ENDROOT
BRANCH   2   3
HETATM    3  N1  UNL     1       1.872  -1.285  -0.803  1.00  0.00    -0.191 N 
HETATM    4  H3  UNL     1       1.650  -0.613  -1.580  1.00  0.00     0.184 HD
BRANCH   3   5
HETATM    5  C3  UNL     1       3.129  -1.093  -0.134  1.00  0.00     0.727 A 
HETATM    6  N2  UNL     1       3.461  -1.916   0.873  1.00  0.00    -0.075 NA
HETATM    7  C4  UNL     1       4.618  -1.820   1.561  1.00  0.00     0.139 A 
HETATM    8  C5  UNL     1       5.485  -0.815   1.190  1.00  0.00     0.053 A 
HETATM    9  C6  UNL     1       5.175   0.047   0.161  1.00  0.00     0.089 A 
HETATM   10  N4  UNL     1       4.002  -0.121  -0.471  1.00  0.00    -0.062 NA
BRANCH   9  11
HETATM   11  C7  UNL     1       6.110   1.098  -0.205  1.00  0.00     0.011 A 
HETATM   12  C8  UNL     1       7.307   1.288   0.421  1.00  0.00     0.017 A 
HETATM   13  C9  UNL     1       8.202   2.285   0.081  1.00  0.00     0.020 A 
HETATM   14  C10 UNL     1       7.872   3.154  -0.961  1.00  0.00     0.116 A 
HETATM   15  N3  UNL     1       6.684   2.982  -1.597  1.00  0.00    -0.272 NA
HETATM   16  C11 UNL     1       5.855   1.993  -1.222  1.00  0.00     0.130 A 
ENDBRANCH   9  11
ENDBRANCH   3   5
ENDBRANCH   2   3
BRANCH   2  17
HETATM   17  C12 UNL     1      -0.385  -2.183  -0.091  1.00  0.00     0.163 C 
HETATM   18  C13 UNL     1      -0.905  -3.514   0.470  1.00  0.00     0.042 C 
BRANCH  17  19
HETATM   19  N5  UNL     1      -0.638  -1.181   0.915  1.00  0.00    -0.235 NA
BRANCH  19  20
HETATM   20  C14 UNL     1      -1.299  -0.133   0.569  1.00  0.00    -0.004 C 
BRANCH  20  21
HETATM   21  C15 UNL     1      -2.124   0.750   0.028  1.00  0.00     0.170 C 
BRANCH  21  22
HETATM   22  N6  UNL     1      -3.505   0.514   0.186  1.00  0.00    -0.320 N 
HETATM   23  C16 UNL     1      -4.045  -0.616   0.902  1.00  0.00     0.159 C 
HETATM   24  C17 UNL     1      -4.375   1.444  -0.390  1.00  0.00     0.257 C 
HETATM   25  O1  UNL     1      -3.596   2.302  -0.932  1.00  0.00    -0.267 OA
BRANCH  24  26
HETATM   26  C18 UNL     1      -5.823   1.568  -0.456  1.00  0.00     0.032 A 
HETATM   27  C19 UNL     1      -6.281   2.761   0.092  1.00  0.00     0.017 A 
HETATM   28  C20 UNL     1      -7.646   3.018   0.099  1.00  0.00     0.001 A 
HETATM   29  C21 UNL     1      -8.501   2.077  -0.440  1.00  0.00     0.000 A 
HETATM   30  C22 UNL     1      -8.053   0.875  -0.994  1.00  0.00     0.001 A 
HETATM   31  C23 UNL     1      -6.691   0.650  -0.985  1.00  0.00     0.017 A 
ENDBRANCH  24  26
ENDBRANCH  21  22
ENDBRANCH  20  21
ENDBRANCH  19  20
ENDBRANCH  17  19
ENDBRANCH   2  17
TORSDOF 9
