REMARK  5 active torsions:
REMARK  status: ('A' for Active; 'I' for Inactive)
REMARK    1  A    between atoms: C3_3  and  N1_4 
REMARK    2  A    between atoms: C4_5  and  C5_6 
REMARK    3  A    between atoms: C10_12  and  N2_13 
REMARK    4  A    between atoms: N2_13  and  C11_14 
REMARK    5  A    between atoms: C12_17  and  N4_18 
ROOT
HETATM    1  C5  UNL     1       0.973  -0.953  -0.496  1.00  0.00     0.011 C 
HETATM    2  C6  UNL     1       0.068  -1.835  -0.870  1.00  0.00     0.071 A 
HETATM    3  C7  UNL     1       0.735  -2.807  -1.698  1.00  0.00     0.062 A 
HETATM    4 CL1  UNL     1       2.426  -2.926  -2.112  1.00  0.00    -0.082 Cl
HETATM    5  C8  UNL     1       0.086  -3.821  -2.289  1.00  0.00     0.030 A 
HETATM    6  C9  UNL     1      -1.340  -3.871  -2.038  1.00  0.00     0.050 A 
HETATM    7  C10 UNL     1      -1.922  -2.960  -1.275  1.00  0.00     0.111 A 
HETATM    8  N3  UNL     1      -1.297  -1.817  -0.582  1.00  0.00    -0.299 N 
HETATM    9  C12 UNL     1      -2.255  -1.099   0.163  1.00  0.00     0.329 C 
HETATM   10  C13 UNL     1      -2.501   0.322  -0.201  1.00  0.00     0.051 C 
HETATM   11  C14 UNL     1      -2.835   1.598  -0.636  1.00  0.00     0.009 C 
HETATM   12  C15 UNL     1      -2.067   2.690  -0.014  1.00  0.00    -0.006 C 
HETATM   13  C16 UNL     1      -1.221   3.285   0.714  1.00  0.00    -0.008 C 
HETATM   14  C17 UNL     1      -0.170   3.396   1.662  1.00  0.00     0.146 C 
HETATM   15  N5  UNL     1       0.308   2.056   2.080  1.00  0.00    -0.395 N 
HETATM   16  C18 UNL     1       1.045   1.206   1.156  1.00  0.00     0.084 C 
HETATM   17  C19 UNL     1       1.042   0.212   0.384  1.00  0.00     0.032 C 
HETATM   18  H20 UNL     1       0.115   1.703   3.065  1.00  0.00     0.159 HD
ENDROOT
BRANCH   1  19
HETATM   19  C4  UNL     1       2.376  -0.791  -0.749  1.00  0.00     0.296 C 
HETATM   20  N1  UNL     1       3.527  -0.301  -0.708  1.00  0.00    -0.397 NA
BRANCH  20  21
HETATM   21  C3  UNL     1       4.039   0.832  -0.060  1.00  0.00     0.072 C 
HETATM   22  C2  UNL     1       4.475   2.012  -0.497  1.00  0.00    -0.015 C 
HETATM   23  C1  UNL     1       4.926   2.901   0.601  1.00  0.00     0.037 C 
ENDBRANCH  20  21
ENDBRANCH   1  19
BRANCH   7  24
HETATM   24  N2  UNL     1      -3.346  -3.240  -1.187  1.00  0.00    -0.320 N 
HETATM   25  H9  UNL     1      -3.460  -4.094  -0.550  1.00  0.00     0.169 HD
BRANCH  24  26
HETATM   26  C11 UNL     1      -4.365  -2.439  -1.870  1.00  0.00     0.354 C 
HETATM   27  O1  UNL     1      -3.698  -1.560  -2.518  1.00  0.00    -0.283 OA
ENDBRANCH  24  26
ENDBRANCH   7  24
BRANCH   9  28
HETATM   28  N4  UNL     1      -2.009  -1.323   1.599  1.00  0.00     0.102 N 
HETATM   29  H12 UNL     1      -1.087  -1.709   1.818  1.00  0.00     0.315 HD
HETATM   30  H13 UNL     1      -2.162  -0.406   2.070  1.00  0.00     0.315 HD
ENDBRANCH   9  28
TORSDOF 5
