REMARK  8 active torsions:
REMARK  status: ('A' for Active; 'I' for Inactive)
REMARK    1  A    between atoms: C2_2  and  C3_3 
REMARK    2  A    between atoms: C3_3  and  C4_4 
REMARK    3  A    between atoms: C4_4  and  C6_6 
REMARK    4  A    between atoms: C6_6  and  C7_7 
REMARK    5  A    between atoms: C7_7  and  C8_8 
REMARK    6  A    between atoms: C8_8  and  N1_9 
REMARK       I    between atoms: N1_9  and  C9_10 
REMARK    7  A    between atoms: C9_10  and  C10_12 
REMARK    8  A    between atoms: C16_18  and  N2_20 
ROOT
HETATM    1  N1  UNL     1      -2.688   0.693  -0.230  1.00  0.00     0.219 N 
HETATM    2  C9  UNL     1      -3.581  -0.159   0.476  1.00  0.00     0.399 C 
HETATM    3  O1  UNL     1      -4.734   0.177   0.859  1.00  0.00    -0.255 OA
HETATM    4  C16 UNL     1      -3.150   1.951  -0.543  1.00  0.00     0.406 A 
HETATM    5  O2  UNL     1      -2.000   1.744  -1.027  1.00  0.00    -0.090 OA
ENDROOT
BRANCH   1   6
HETATM    6  C8  UNL     1      -1.471   0.119  -0.557  1.00  0.00     0.260 C 
BRANCH   6   7
HETATM    7  C7  UNL     1      -0.376  -0.475  -0.917  1.00  0.00     0.029 C 
BRANCH   7   8
HETATM    8  C6  UNL     1       1.029  -0.380  -0.658  1.00  0.00     0.008 C 
BRANCH   8   9
HETATM    9  C4  UNL     1       2.308  -0.510  -0.607  1.00  0.00    -0.032 C 
HETATM   10  C5  UNL     1       2.831  -1.574  -1.490  1.00  0.00     0.048 C 
BRANCH   9  11
HETATM   11  C3  UNL     1       3.473   0.131   0.092  1.00  0.00     0.146 C 
HETATM   12  N3  UNL     1       4.228   0.806  -0.949  1.00  0.00    -0.364 N 
HETATM   13  C21 UNL     1       5.374   0.032  -1.164  1.00  0.00     0.110 C 
HETATM   14  H19 UNL     1       3.895   1.675  -1.376  1.00  0.00     0.162 HD
HETATM   15  C22 UNL     1       5.483  -0.940  -0.247  1.00  0.00     0.018 C 
HETATM   16  C23 UNL     1       6.613  -1.930  -0.222  1.00  0.00     0.069 C 
HETATM   17  N4  UNL     1       4.355  -0.829   0.645  1.00  0.00    -0.359 N 
HETATM   18  H24 UNL     1       4.305  -1.401   1.511  1.00  0.00     0.162 HD
BRANCH  11  19
HETATM   19  C2  UNL     1       2.944   1.136   1.012  1.00  0.00     0.021 C 
HETATM   20  C1  UNL     1       3.111   1.559   2.234  1.00  0.00     0.012 C 
ENDBRANCH  11  19
ENDBRANCH   9  11
ENDBRANCH   8   9
ENDBRANCH   7   8
ENDBRANCH   6   7
ENDBRANCH   1   6
BRANCH   2  21
HETATM   21  C10 UNL     1      -3.507  -1.534   0.947  1.00  0.00     0.044 A 
HETATM   22  C11 UNL     1      -3.401  -2.471  -0.085  1.00  0.00     0.017 A 
HETATM   23  C12 UNL     1      -3.325  -3.819   0.254  1.00  0.00     0.001 A 
HETATM   24  C13 UNL     1      -3.351  -4.252   1.566  1.00  0.00     0.000 A 
HETATM   25  C14 UNL     1      -3.457  -3.300   2.586  1.00  0.00     0.001 A 
HETATM   26  C15 UNL     1      -3.534  -1.946   2.271  1.00  0.00     0.017 A 
ENDBRANCH   2  21
BRANCH   4  27
HETATM   27  N2  UNL     1      -3.718   3.207  -0.803  1.00  0.00    -0.288 N 
HETATM   28  C17 UNL     1      -3.132   4.182  -1.513  1.00  0.00     0.100 A 
HETATM   29  C18 UNL     1      -4.100   5.160  -1.459  1.00  0.00     0.019 A 
HETATM   30  C19 UNL     1      -5.209   4.750  -0.734  1.00  0.00     0.019 A 
HETATM   31  C20 UNL     1      -4.935   3.471  -0.316  1.00  0.00     0.100 A 
ENDBRANCH   4  27
TORSDOF 8
