REMARK  4 active torsions:
REMARK  status: ('A' for Active; 'I' for Inactive)
REMARK    1  A    between atoms: C2_2  and  C3_3 
REMARK    2  A    between atoms: C12_13  and  N1_14 
REMARK    3  A    between atoms: N1_14  and  C13_15 
REMARK    4  A    between atoms: C16_19  and  C17_20 
ROOT
HETATM    1  C3  UNL     1       5.285  -1.470  -0.104  1.00  0.00    -0.009 C 
HETATM    2  C4  UNL     1       4.264  -0.595  -0.210  1.00  0.00     0.028 C 
HETATM    3  C5  UNL     1       3.050  -1.069  -0.910  1.00  0.00     0.018 C 
HETATM    4  C6  UNL     1       1.869  -0.499  -1.027  1.00  0.00     0.017 C 
HETATM    5  C7  UNL     1       1.428   0.773  -0.492  1.00  0.00     0.020 A 
HETATM    6  C8  UNL     1       2.071   1.719   0.312  1.00  0.00     0.047 A 
HETATM    7  C9  UNL     1       1.503   2.911   0.715  1.00  0.00     0.032 A 
HETATM    8  C10 UNL     1       0.227   3.208   0.309  1.00  0.00     0.028 A 
HETATM    9  C11 UNL     1      -0.438   2.284  -0.492  1.00  0.00     0.062 A 
HETATM   10 CL1  UNL     1      -2.071   2.642  -1.027  1.00  0.00    -0.082 Cl
HETATM   11  C12 UNL     1       0.146   1.093  -0.885  1.00  0.00     0.083 A 
HETATM   12  N5  UNL     1       3.399   1.641   0.852  1.00  0.00    -0.322 N 
HETATM   13  C22 UNL     1       4.406   0.755   0.327  1.00  0.00     0.255 C 
HETATM   14  O1  UNL     1       5.593   1.197   0.321  1.00  0.00    -0.267 OA
HETATM   15  H16 UNL     1       3.707   2.229   1.653  1.00  0.00     0.169 HD
ENDROOT
BRANCH  11  16
HETATM   16  N1  UNL     1      -0.524   0.106  -1.682  1.00  0.00    -0.185 N 
HETATM   17  H9  UNL     1      -0.542  -0.151  -2.692  1.00  0.00     0.184 HD
BRANCH  16  18
HETATM   18  C13 UNL     1      -1.259  -0.524  -0.604  1.00  0.00     0.727 A 
HETATM   19  N2  UNL     1      -0.755  -1.312   0.376  1.00  0.00    -0.075 NA
HETATM   20  C14 UNL     1      -1.563  -1.846   1.325  1.00  0.00     0.139 A 
HETATM   21  C15 UNL     1      -2.923  -1.566   1.268  1.00  0.00     0.053 A 
HETATM   22  C16 UNL     1      -3.427  -0.768   0.274  1.00  0.00     0.089 A 
HETATM   23  N4  UNL     1      -2.592  -0.246  -0.664  1.00  0.00    -0.062 NA
BRANCH  22  24
HETATM   24  C17 UNL     1      -4.836  -0.444   0.174  1.00  0.00     0.011 A 
HETATM   25  C18 UNL     1      -5.324   0.366  -0.835  1.00  0.00     0.017 A 
HETATM   26  C19 UNL     1      -6.652   0.707  -0.969  1.00  0.00     0.020 A 
HETATM   27  C20 UNL     1      -7.576   0.214  -0.038  1.00  0.00     0.116 A 
HETATM   28  N3  UNL     1      -7.133  -0.591   0.975  1.00  0.00    -0.272 NA
HETATM   29  C21 UNL     1      -5.801  -0.883   1.039  1.00  0.00     0.130 A 
ENDBRANCH  22  24
ENDBRANCH  16  18
ENDBRANCH  11  16
BRANCH   1  30
HETATM   30  C2  UNL     1       6.612  -1.309   0.533  1.00  0.00    -0.005 C 
HETATM   31  C1  UNL     1       7.424  -2.410   0.441  1.00  0.00     0.037 C 
ENDBRANCH   1  30
TORSDOF 4
