REMARK  3 active torsions:
REMARK  status: ('A' for Active; 'I' for Inactive)
REMARK    1  A    between atoms: C15_17  and  N2_18 
REMARK    2  A    between atoms: N2_18  and  C16_19 
REMARK    3  A    between atoms: C19_23  and  C20_24 
ROOT
HETATM    1  C1  UNL     1      -5.095  -2.238   1.569  1.00  0.00     0.037 C 
HETATM    2  C2  UNL     1      -4.158  -1.097   1.471  1.00  0.00    -0.019 C 
HETATM    3  C3  UNL     1      -3.320  -1.044   0.467  1.00  0.00    -0.031 C 
HETATM    4  C4  UNL     1      -3.307  -2.137  -0.575  1.00  0.00     0.010 C 
HETATM    5  C5  UNL     1      -2.578  -2.241  -1.732  1.00  0.00     0.002 C 
HETATM    6  C6  UNL     1      -1.596  -1.413  -2.491  1.00  0.00     0.221 C 
HETATM    7  O1  UNL     1      -1.510  -0.076  -2.099  1.00  0.00    -0.296 OA
HETATM    8  N1  UNL     1      -0.569   0.215  -1.230  1.00  0.00    -0.153 NA
HETATM    9  C7  UNL     1      -0.193   1.669  -1.320  1.00  0.00     0.163 C 
HETATM   10  C8  UNL     1      -0.093   2.121  -2.738  1.00  0.00     0.042 C 
HETATM   11  C9  UNL     1      -1.197   2.394  -0.545  1.00  0.00    -0.084 C 
HETATM   12  C10 UNL     1      -2.020   2.980   0.062  1.00  0.00    -0.095 C 
HETATM   13  C11 UNL     1      -3.020   3.681   0.763  1.00  0.00     0.107 C 
HETATM   14  C12 UNL     1      -3.507   2.480   0.935  1.00  0.00    -0.007 C 
HETATM   15  C13 UNL     1      -3.349   1.098   0.752  1.00  0.00     0.008 C 
HETATM   16  C14 UNL     1      -2.459   0.165   0.364  1.00  0.00    -0.009 C 
HETATM   17  C15 UNL     1      -0.980   0.134   0.138  1.00  0.00     0.236 C 
ENDROOT
BRANCH  17  18
HETATM   18  N2  UNL     1      -0.318  -1.009   0.782  1.00  0.00    -0.199 N 
HETATM   19  H17 UNL     1      -0.741  -1.739   1.422  1.00  0.00     0.180 HD
BRANCH  18  20
HETATM   20  C16 UNL     1       1.051  -1.181   0.526  1.00  0.00     0.724 A 
HETATM   21  N3  UNL     1       1.381  -2.181  -0.343  1.00  0.00    -0.075 NA
HETATM   22  C17 UNL     1       2.744  -2.282  -0.562  1.00  0.00     0.139 A 
HETATM   23  C18 UNL     1       3.557  -1.333   0.153  1.00  0.00     0.053 A 
HETATM   24  C19 UNL     1       3.238  -0.241   1.097  1.00  0.00     0.089 A 
HETATM   25  N5  UNL     1       2.028  -0.547   0.960  1.00  0.00    -0.062 NA
BRANCH  24  26
HETATM   26  C20 UNL     1       4.619   0.090   1.237  1.00  0.00     0.011 A 
HETATM   27  C21 UNL     1       5.906  -0.173   0.879  1.00  0.00     0.017 A 
HETATM   28  C22 UNL     1       6.885   0.620   1.426  1.00  0.00     0.020 A 
HETATM   29  C23 UNL     1       6.707   1.658   2.300  1.00  0.00     0.116 A 
HETATM   30  N4  UNL     1       5.427   1.961   2.692  1.00  0.00    -0.272 NA
HETATM   31  C24 UNL     1       4.426   1.164   2.143  1.00  0.00     0.130 A 
ENDBRANCH  24  26
ENDBRANCH  18  20
ENDBRANCH  17  18
TORSDOF 3
