REMARK  0 active torsions:
REMARK  status: ('A' for Active; 'I' for Inactive)
ROOT
HETATM    1  N1  UNL     1      -0.192  -1.049  -2.399  1.00  0.00    -0.116 NA
HETATM    2  C1  UNL     1      -0.762  -0.076  -1.828  1.00  0.00     0.716 C 
HETATM    3  N2  UNL     1       0.556   0.469  -1.500  1.00  0.00    -0.063 NA
HETATM    4  C2  UNL     1       0.886   0.101  -0.238  1.00  0.00     0.087 C 
HETATM    5  C3  UNL     1       2.196   0.632   0.072  1.00  0.00     0.011 A 
HETATM    6  C4  UNL     1       2.892   0.450   1.246  1.00  0.00     0.017 A 
HETATM    7  C5  UNL     1       4.122   0.979   1.523  1.00  0.00     0.020 A 
HETATM    8  C6  UNL     1       4.761   1.759   0.602  1.00  0.00     0.116 A 
HETATM    9  N3  UNL     1       4.136   1.975  -0.564  1.00  0.00    -0.272 NA
HETATM   10  C7  UNL     1       2.931   1.427  -0.774  1.00  0.00     0.130 A 
HETATM   11  C8  UNL     1       0.217  -0.549   0.926  1.00  0.00     0.030 C 
HETATM   12  C9  UNL     1      -0.930  -1.032   1.450  1.00  0.00    -0.007 C 
HETATM   13  C10 UNL     1      -2.360  -1.085   0.855  1.00  0.00     0.033 A 
HETATM   14  C11 UNL     1      -3.266  -0.361   1.556  1.00  0.00    -0.009 A 
HETATM   15  C12 UNL     1      -4.095   0.182   0.539  1.00  0.00     0.013 A 
HETATM   16  C13 UNL     1      -3.823  -0.103  -0.824  1.00  0.00     0.014 A 
HETATM   17  I1  UNL     1      -4.923   0.626  -2.449  1.00  0.00    -0.046 I 
HETATM   18  C14 UNL     1      -2.725  -0.921  -0.827  1.00  0.00     0.101 A 
HETATM   19  C15 UNL     1      -1.745  -1.622  -0.172  1.00  0.00     0.048 A 
HETATM   20  N4  UNL     1      -2.104  -0.630  -2.161  1.00  0.00    -0.207 N 
HETATM   21  H1  UNL     1       0.851  -1.063  -2.403  1.00  0.00     0.206 HD
HETATM   22  H11 UNL     1      -2.496  -0.748  -3.109  1.00  0.00     0.179 HD
ENDROOT
TORSDOF 0
