REMARK  5 active torsions:
REMARK  status: ('A' for Active; 'I' for Inactive)
REMARK       I    between atoms: C1_2  and  N1_3 
REMARK    1  A    between atoms: C1_2  and  C16_23 
REMARK    2  A    between atoms: N1_3  and  C2_4 
REMARK    3  A    between atoms: C6_9  and  N2_10 
REMARK    4  A    between atoms: N2_10  and  C7_11 
REMARK    5  A    between atoms: C10_15  and  C11_16 
ROOT
HETATM    1  C2  UNL     1      -1.877   1.707   0.879  1.00  0.00     0.037 A 
HETATM    2  C3  UNL     1      -2.202   3.018   1.158  1.00  0.00     0.031 A 
HETATM    3  C4  UNL     1      -1.187   3.949   1.194  1.00  0.00     0.028 A 
HETATM    4  C5  UNL     1       0.111   3.578   0.957  1.00  0.00     0.061 A 
HETATM    5 CL1  UNL     1       1.353   4.838   1.022  1.00  0.00    -0.082 Cl
HETATM    6  C6  UNL     1       0.499   2.266   0.669  1.00  0.00     0.073 A 
HETATM    7  C15 UNL     1      -0.563   1.388   0.649  1.00  0.00     0.061 A 
ENDROOT
BRANCH   6   8
HETATM    8  N2  UNL     1       1.843   1.940   0.434  1.00  0.00    -0.186 N 
HETATM    9  H4  UNL     1       2.519   2.759   0.494  1.00  0.00     0.184 HD
BRANCH   8  10
HETATM   10  C7  UNL     1       2.390   0.672   0.134  1.00  0.00     0.727 A 
HETATM   11  N3  UNL     1       1.735  -0.471   0.013  1.00  0.00    -0.075 NA
HETATM   12  C8  UNL     1       2.284  -1.646  -0.271  1.00  0.00     0.138 A 
HETATM   13  C9  UNL     1       3.645  -1.708  -0.460  1.00  0.00     0.048 A 
HETATM   14  C10 UNL     1       4.377  -0.550  -0.347  1.00  0.00     0.067 A 
HETATM   15  N5  UNL     1       3.711   0.560  -0.059  1.00  0.00    -0.066 NA
BRANCH  14  16
HETATM   16  C11 UNL     1       5.839  -0.561  -0.540  1.00  0.00     0.103 A 
HETATM   17  C12 UNL     1       6.271  -1.115  -1.837  1.00  0.00     0.009 A 
HETATM   18  C13 UNL     1       7.088  -2.137  -1.613  1.00  0.00     0.113 A 
HETATM   19  N4  UNL     1       7.248  -2.323  -0.207  1.00  0.00    -0.276 NA
HETATM   20  C14 UNL     1       6.550  -1.442   0.433  1.00  0.00     0.104 A 
ENDBRANCH  14  16
ENDBRANCH   8  10
ENDBRANCH   6   8
BRANCH   1  21
HETATM   21  N1  UNL     1      -2.926   0.748   0.843  1.00  0.00    -0.323 N 
HETATM   22  C1  UNL     1      -3.701   0.370  -0.280  1.00  0.00     0.256 C 
HETATM   23  O1  UNL     1      -3.532   0.870  -1.419  1.00  0.00    -0.267 OA
HETATM   24  H1  UNL     1      -3.070   0.330   1.788  1.00  0.00     0.169 HD
BRANCH  22  25
HETATM   25  C16 UNL     1      -4.754  -0.636  -0.171  1.00  0.00     0.032 A 
HETATM   26  C17 UNL     1      -5.487  -0.975  -1.292  1.00  0.00     0.017 A 
HETATM   27  C18 UNL     1      -6.509  -1.912  -1.318  1.00  0.00     0.001 A 
HETATM   28  C19 UNL     1      -6.828  -2.558  -0.151  1.00  0.00     0.000 A 
HETATM   29  C20 UNL     1      -6.121  -2.245   0.977  1.00  0.00     0.001 A 
HETATM   30  C21 UNL     1      -5.093  -1.299   0.991  1.00  0.00     0.017 A 
ENDBRANCH  22  25
ENDBRANCH   1  21
TORSDOF 5
