REMARK  5 active torsions:
REMARK  status: ('A' for Active; 'I' for Inactive)
REMARK    1  A    between atoms: N1_2  and  C2_3 
REMARK    2  A    between atoms: C4_5  and  N2_6 
REMARK    3  A    between atoms: N2_6  and  C5_7 
REMARK    4  A    between atoms: N3_13  and  C10_14 
REMARK    5  A    between atoms: C12_16  and  C13_17 
ROOT
HETATM    1  C5  UNL     1      -0.115   0.493   1.877  1.00  0.00     0.105 A 
HETATM    2  C6  UNL     1      -0.839   0.612   2.979  1.00  0.00     0.050 A 
HETATM    3  C7  UNL     1      -0.413   0.123   4.284  1.00  0.00     0.025 A 
HETATM    4  C8  UNL     1       0.763  -0.477   4.380  1.00  0.00     0.030 A 
HETATM    5 CL1  UNL     1       1.439  -1.125   5.862  1.00  0.00    -0.087 Cl
HETATM    6  C9  UNL     1       1.681  -0.708   3.259  1.00  0.00     0.183 A 
HETATM    7  N3  UNL     1       1.173  -0.136   2.027  1.00  0.00    -0.313 N 
ENDROOT
BRANCH   1   8
HETATM    8  N2  UNL     1      -0.598   0.989   0.647  1.00  0.00    -0.365 N 
HETATM    9  H7  UNL     1      -0.124   1.930   0.631  1.00  0.00     0.162 HD
BRANCH   8  10
HETATM   10  C4  UNL     1      -1.486   0.422  -0.347  1.00  0.00     0.131 C 
HETATM   11  C3  UNL     1      -2.826   0.115   0.201  1.00  0.00     0.031 C 
HETATM   12  C2  UNL     1      -4.035  -0.008  -0.297  1.00  0.00     0.025 C 
HETATM   13  C21 UNL     1      -4.416   0.145  -1.716  1.00  0.00     0.029 C 
HETATM   14  C20 UNL     1      -3.734   0.830  -2.618  1.00  0.00     0.002 C 
HETATM   15  C19 UNL     1      -2.492   1.579  -2.473  1.00  0.00    -0.002 C 
HETATM   16  C18 UNL     1      -1.627   1.338  -1.504  1.00  0.00     0.002 C 
BRANCH  12  17
HETATM   17  N1  UNL     1      -5.166  -0.324   0.538  1.00  0.00    -0.394 N 
HETATM   18  C1  UNL     1      -6.226   0.690   0.535  1.00  0.00     0.146 C 
HETATM   19  H4  UNL     1      -5.318  -1.183   1.140  1.00  0.00     0.159 HD
ENDBRANCH  12  17
ENDBRANCH   8  10
ENDBRANCH   1   8
BRANCH   7  20
HETATM   20  C10 UNL     1       2.054  -0.211   0.886  1.00  0.00     0.134 A 
HETATM   21  C11 UNL     1       2.009  -0.249  -0.436  1.00  0.00     0.083 A 
HETATM   22  C12 UNL     1       3.456  -0.318  -0.559  1.00  0.00     0.074 A 
HETATM   23  N5  UNL     1       3.487  -0.280   0.730  1.00  0.00    -0.230 NA
BRANCH  22  24
HETATM   24  C13 UNL     1       4.473  -0.396  -1.601  1.00  0.00     0.010 A 
HETATM   25  C14 UNL     1       5.802  -0.445  -1.234  1.00  0.00     0.017 A 
HETATM   26  C15 UNL     1       6.697  -0.518  -2.290  1.00  0.00     0.020 A 
HETATM   27  C16 UNL     1       6.324  -0.541  -3.628  1.00  0.00     0.116 A 
HETATM   28  N4  UNL     1       5.008  -0.490  -3.913  1.00  0.00    -0.272 NA
HETATM   29  C17 UNL     1       4.088  -0.419  -2.932  1.00  0.00     0.130 A 
ENDBRANCH  22  24
ENDBRANCH   7  20
TORSDOF 5
