REMARK  4 active torsions:
REMARK  status: ('A' for Active; 'I' for Inactive)
REMARK    1  A    between atoms: C1_2  and  C2_3 
REMARK    2  A    between atoms: C1_2  and  C13_18 
REMARK    3  A    between atoms: C6_8  and  N1_9 
REMARK    4  A    between atoms: N1_9  and  C7_10 
ROOT
HETATM    1  C2  UNL     1      -1.164  -0.455  -0.897  1.00  0.00    -0.004 A 
HETATM    2  C3  UNL     1      -0.468  -0.558  -2.043  1.00  0.00     0.013 A 
HETATM    3  C4  UNL     1       0.961  -0.873  -2.292  1.00  0.00     0.027 A 
HETATM    4  C5  UNL     1       1.873  -1.061  -1.362  1.00  0.00     0.061 A 
HETATM    5 CL1  UNL     1       3.468  -1.418  -2.007  1.00  0.00    -0.082 Cl
HETATM    6  C6  UNL     1       1.872  -1.042   0.093  1.00  0.00     0.067 A 
HETATM    7  C11 UNL     1       0.716  -0.849   0.702  1.00  0.00     0.010 A 
HETATM    8  C12 UNL     1      -0.717  -0.622   0.482  1.00  0.00     0.072 A 
ENDROOT
BRANCH   1   9
HETATM    9  C1  UNL     1      -2.536  -0.125  -1.206  1.00  0.00     0.188 C 
HETATM   10  O1  UNL     1      -2.757  -0.006  -2.453  1.00  0.00    -0.287 OA
BRANCH   9  11
HETATM   11  C13 UNL     1      -3.732   0.107  -0.438  1.00  0.00     0.015 A 
HETATM   12  C14 UNL     1      -3.907   0.054   0.922  1.00  0.00     0.015 A 
HETATM   13  C15 UNL     1      -5.050   0.285   1.629  1.00  0.00     0.001 A 
HETATM   14  C16 UNL     1      -6.169   0.609   0.912  1.00  0.00     0.000 A 
HETATM   15  C17 UNL     1      -6.108   0.688  -0.441  1.00  0.00     0.001 A 
HETATM   16  C18 UNL     1      -4.917   0.441  -1.075  1.00  0.00     0.015 A 
ENDBRANCH   9  11
ENDBRANCH   1   9
BRANCH   6  17
HETATM   17  N1  UNL     1       3.063  -1.224   0.843  1.00  0.00    -0.187 N 
HETATM   18  H3  UNL     1       3.037  -2.089   1.431  1.00  0.00     0.184 HD
BRANCH  17  19
HETATM   19  C7  UNL     1       4.178  -0.337   0.809  1.00  0.00     0.726 A 
HETATM   20  N2  UNL     1       4.090   0.740   0.013  1.00  0.00    -0.075 NA
HETATM   21  C8  UNL     1       5.170   1.575  -0.002  1.00  0.00     0.138 A 
HETATM   22  C9  UNL     1       6.280   1.276   0.787  1.00  0.00     0.040 A 
HETATM   23  C10 UNL     1       6.335   0.155   1.596  1.00  0.00     0.138 A 
HETATM   24  N3  UNL     1       5.229  -0.643   1.572  1.00  0.00    -0.075 NA
ENDBRANCH  17  19
ENDBRANCH   6  17
TORSDOF 4
