REMARK  2 active torsions:
REMARK  status: ('A' for Active; 'I' for Inactive)
REMARK    1  A    between atoms: C11_13  and  N2_14 
REMARK       I    between atoms: N2_14  and  C12_15 
REMARK    2  A    between atoms: C12_15  and  C13_17 
ROOT
HETATM    1  B1  UNL     1       7.573   1.271   2.622  1.00  0.00     0.114 B 
HETATM    2  C1  UNL     1       5.764   0.865   1.551  1.00  0.00    -0.163 C 
HETATM    3  C2  UNL     1       4.581   0.578   0.863  1.00  0.00     0.110 A 
HETATM    4  C3  UNL     1       4.790  -0.123  -0.103  1.00  0.00    -0.034 A 
HETATM    5  C4  UNL     1       5.237  -0.997  -1.264  1.00  0.00     0.006 C 
HETATM    6  C5  UNL     1       4.599  -1.787  -2.323  1.00  0.00     0.021 C 
HETATM    7  C6  UNL     1       3.294  -1.022  -2.345  1.00  0.00     0.225 C 
HETATM    8  N1  UNL     1       3.346  -0.796  -1.001  1.00  0.00    -0.280 NA
HETATM    9  C7  UNL     1       3.422  -0.125  -0.112  1.00  0.00     0.114 A 
HETATM   10  C8  UNL     1       1.980  -0.138  -0.138  1.00  0.00     0.004 A 
HETATM   11  C9  UNL     1       1.803   0.657   0.960  1.00  0.00     0.014 A 
HETATM   12  C10 UNL     1       0.403   0.747   1.127  1.00  0.00     0.030 A 
HETATM   13  C11 UNL     1      -0.427   0.083   0.242  1.00  0.00     0.037 A 
HETATM   14  C19 UNL     1      -0.052  -0.709  -0.858  1.00  0.00     0.059 A 
HETATM   15  C20 UNL     1       1.334  -0.901  -1.165  1.00  0.00     0.041 A 
HETATM   16  N3  UNL     1       1.973  -1.717  -2.268  1.00  0.00    -0.364 N 
HETATM   17  H13 UNL     1       1.234  -2.401  -2.496  1.00  0.00     0.162 HD
ENDROOT
BRANCH  13  18
HETATM   18  N2  UNL     1      -1.830   0.174   0.416  1.00  0.00    -0.323 N 
HETATM   19  C12 UNL     1      -2.842   1.062  -0.064  1.00  0.00     0.257 C 
HETATM   20  O1  UNL     1      -2.644   2.060  -0.834  1.00  0.00    -0.267 OA
HETATM   21  H7  UNL     1      -2.103  -0.617   1.046  1.00  0.00     0.169 HD
BRANCH  19  22
HETATM   22  C13 UNL     1      -4.211   0.811   0.357  1.00  0.00     0.054 A 
HETATM   23  C14 UNL     1      -4.881  -0.352   0.040  1.00  0.00     0.019 A 
HETATM   24  C15 UNL     1      -6.174  -0.671   0.397  1.00  0.00     0.001 A 
HETATM   25  C16 UNL     1      -6.850   0.271   1.143  1.00  0.00     0.002 A 
HETATM   26  C17 UNL     1      -6.219   1.453   1.485  1.00  0.00     0.025 A 
HETATM   27  C18 UNL     1      -4.921   1.743   1.111  1.00  0.00     0.049 A 
HETATM   28 CL1  UNL     1      -4.161   3.262   1.571  1.00  0.00    -0.083 Cl
ENDBRANCH  19  22
ENDBRANCH  13  18
TORSDOF 2
