REMARK  4 active torsions:
REMARK  status: ('A' for Active; 'I' for Inactive)
REMARK    1  A    between atoms: N1_2  and  C2_3 
REMARK    2  A    between atoms: C6_8  and  N2_9 
REMARK    3  A    between atoms: N2_9  and  C7_10 
REMARK    4  A    between atoms: C10_14  and  C11_15 
ROOT
HETATM    1  C7  UNL     1       0.276  -0.610  -0.311  1.00  0.00     0.723 A 
HETATM    2  N3  UNL     1       0.128  -1.700  -1.083  1.00  0.00    -0.075 NA
HETATM    3  C8  UNL     1       1.216  -2.399  -1.456  1.00  0.00     0.139 A 
HETATM    4  C9  UNL     1       2.505  -2.023  -1.062  1.00  0.00     0.053 A 
HETATM    5  C10 UNL     1       2.623  -0.900  -0.270  1.00  0.00     0.089 A 
HETATM    6  N5  UNL     1       1.520  -0.219   0.089  1.00  0.00    -0.062 NA
ENDROOT
BRANCH   1   7
HETATM    7  N2  UNL     1      -0.866   0.138   0.090  1.00  0.00    -0.211 N 
HETATM    8  H10 UNL     1      -0.738   0.986   0.693  1.00  0.00     0.178 HD
BRANCH   7   9
HETATM    9  C6  UNL     1      -2.162  -0.335  -0.373  1.00  0.00     0.172 A 
HETATM   10  C2  UNL     1      -3.215   0.539   0.124  1.00  0.00     0.033 A 
HETATM   11  C3  UNL     1      -3.550   0.927  -1.054  1.00  0.00    -0.039 A 
HETATM   12  C4  UNL     1      -4.568   1.857  -1.590  1.00  0.00     0.047 C 
HETATM   13  C5  UNL     1      -2.569   0.130  -1.723  1.00  0.00     0.142 A 
HETATM   14 CL1  UNL     1      -1.317   0.995  -2.644  1.00  0.00    -0.118 Cl
BRANCH  10  15
HETATM   15  N1  UNL     1      -3.538   0.704   1.515  1.00  0.00    -0.396 N 
HETATM   16  C1  UNL     1      -4.431  -0.216   2.198  1.00  0.00     0.146 C 
HETATM   17  H4  UNL     1      -3.159   1.485   2.123  1.00  0.00     0.159 HD
ENDBRANCH  10  15
ENDBRANCH   7   9
ENDBRANCH   1   7
BRANCH   5  18
HETATM   18  C11 UNL     1       3.903  -0.397   0.212  1.00  0.00     0.011 A 
HETATM   19  C12 UNL     1       3.902   0.735   0.998  1.00  0.00     0.017 A 
HETATM   20  C13 UNL     1       5.075   1.299   1.512  1.00  0.00     0.020 A 
HETATM   21  C14 UNL     1       6.275   0.678   1.204  1.00  0.00     0.116 A 
HETATM   22  N4  UNL     1       6.266  -0.423   0.438  1.00  0.00    -0.272 NA
HETATM   23  C15 UNL     1       5.123  -0.968  -0.058  1.00  0.00     0.130 A 
ENDBRANCH   5  18
TORSDOF 4
