REMARK  6 active torsions:
REMARK  status: ('A' for Active; 'I' for Inactive)
REMARK    1  A    between atoms: C3_3  and  O1_4 
REMARK    2  A    between atoms: C7_8  and  N1_9 
REMARK    3  A    between atoms: N1_9  and  C8_10 
REMARK    4  A    between atoms: C12_15  and  N2_16 
REMARK    5  A    between atoms: N2_16  and  C13_17 
REMARK    6  A    between atoms: C16_21  and  C17_22 
ROOT
HETATM    1  C8  UNL     1       1.931  -1.306  -0.384  1.00  0.00     0.031 A 
HETATM    2  C9  UNL     1       2.572  -2.180  -1.235  1.00  0.00     0.031 A 
HETATM    3  C10 UNL     1       1.932  -3.222  -1.873  1.00  0.00     0.028 A 
HETATM    4  C11 UNL     1       0.583  -3.413  -1.659  1.00  0.00     0.061 A 
HETATM    5 CL1  UNL     1      -0.314  -4.712  -2.428  1.00  0.00    -0.082 Cl
HETATM    6  C12 UNL     1      -0.051  -2.534  -0.806  1.00  0.00     0.073 A 
HETATM    7  C22 UNL     1       0.582  -1.488  -0.163  1.00  0.00     0.060 A 
ENDROOT
BRANCH   6   8
HETATM    8  N2  UNL     1      -1.438  -2.731  -0.584  1.00  0.00    -0.186 N 
HETATM    9  H11 UNL     1      -1.986  -3.500  -1.028  1.00  0.00     0.184 HD
BRANCH   8  10
HETATM   10  C13 UNL     1      -2.396  -2.039   0.206  1.00  0.00     0.727 A 
HETATM   11  N3  UNL     1      -2.573  -2.420   1.498  1.00  0.00    -0.075 NA
HETATM   12  C14 UNL     1      -3.491  -1.744   2.216  1.00  0.00     0.139 A 
HETATM   13  C15 UNL     1      -4.196  -0.719   1.623  1.00  0.00     0.053 A 
HETATM   14  C16 UNL     1      -4.022  -0.327   0.312  1.00  0.00     0.089 A 
HETATM   15  N5  UNL     1      -3.090  -1.041  -0.355  1.00  0.00    -0.062 NA
BRANCH  14  16
HETATM   16  C17 UNL     1      -4.785   0.761  -0.287  1.00  0.00     0.011 A 
HETATM   17  C18 UNL     1      -5.741   1.506   0.368  1.00  0.00     0.017 A 
HETATM   18  C19 UNL     1      -6.402   2.518  -0.313  1.00  0.00     0.020 A 
HETATM   19  C20 UNL     1      -6.101   2.779  -1.653  1.00  0.00     0.116 A 
HETATM   20  N4  UNL     1      -5.167   2.055  -2.300  1.00  0.00    -0.272 NA
HETATM   21  C21 UNL     1      -4.553   1.086  -1.601  1.00  0.00     0.130 A 
ENDBRANCH  14  16
ENDBRANCH   8  10
ENDBRANCH   6   8
BRANCH   1  22
HETATM   22  N1  UNL     1       2.615  -0.237   0.256  1.00  0.00    -0.378 N 
HETATM   23  H8  UNL     1       2.065   0.384   0.911  1.00  0.00     0.160 HD
BRANCH  22  24
HETATM   24  C7  UNL     1       4.010   0.114   0.116  1.00  0.00     0.140 A 
HETATM   25  C2  UNL     1       4.417   1.211   1.001  1.00  0.00    -0.008 A 
HETATM   26  C1  UNL     1       4.273   0.840   2.249  1.00  0.00     0.024 C 
HETATM   27  C3  UNL     1       4.922   2.553   0.750  1.00  0.00     0.073 A 
HETATM   28  C4  UNL     1       5.037   2.850  -0.552  1.00  0.00     0.037 A 
HETATM   29  C5  UNL     1       4.666   1.851  -1.563  1.00  0.00     0.001 A 
HETATM   30  C6  UNL     1       4.209   0.634  -1.286  1.00  0.00     0.003 A 
BRANCH  27  31
HETATM   31  O1  UNL     1       5.230   3.385   1.815  1.00  0.00    -0.360 OA
HETATM   32  H3  UNL     1       6.221   3.596   1.955  1.00  0.00     0.217 HD
ENDBRANCH  27  31
ENDBRANCH  22  24
ENDBRANCH   1  22
TORSDOF 6
