REMARK  1 active torsions:
REMARK  status: ('A' for Active; 'I' for Inactive)
REMARK       I    between atoms: C1_2  and  N1_3 
REMARK    1  A    between atoms: C1_2  and  C17_22 
ROOT
HETATM    1  O1  UNL     1      -2.464   0.008   2.527  1.00  0.00    -0.259 OA
HETATM    2  C1  UNL     1      -3.083  -0.295   1.470  1.00  0.00     0.355 C 
HETATM    3  N1  UNL     1      -2.457  -0.664   0.089  1.00  0.00     0.036 N 
HETATM    4  C2  UNL     1      -1.365  -0.429   0.972  1.00  0.00     0.157 A 
HETATM    5  C3  UNL     1      -0.334  -0.140   1.668  1.00  0.00     0.035 C 
HETATM    6  C4  UNL     1       0.914   0.684   1.555  1.00  0.00    -0.002 C 
HETATM    7  C5  UNL     1       1.717   1.497   0.874  1.00  0.00    -0.023 C 
HETATM    8  C6  UNL     1       2.708   2.392   0.270  1.00  0.00     0.054 C 
HETATM    9  C7  UNL     1       3.251   1.829  -1.034  1.00  0.00    -0.027 C 
HETATM   10  C8  UNL     1       4.387   1.369  -1.657  1.00  0.00    -0.030 C 
HETATM   11  C9  UNL     1       5.187   0.801  -2.791  1.00  0.00     0.033 C 
HETATM   12  C10 UNL     1       4.083   0.494  -3.813  1.00  0.00     0.063 C 
HETATM   13  C11 UNL     1       3.079  -0.406  -3.169  1.00  0.00     0.038 A 
HETATM   14  C12 UNL     1       3.545  -1.626  -2.911  1.00  0.00     0.046 A 
HETATM   15  C13 UNL     1       3.321  -2.832  -2.318  1.00  0.00     0.120 A 
HETATM   16  N2  UNL     1       2.066  -2.529  -1.803  1.00  0.00    -0.244 NA
HETATM   17  C14 UNL     1       1.435  -1.354  -1.967  1.00  0.00     0.147 A 
HETATM   18  N3  UNL     1       1.802  -0.195  -2.631  1.00  0.00    -0.236 NA
HETATM   19  C15 UNL     1       0.240  -1.069  -1.123  1.00  0.00     0.119 C 
HETATM   20 CL1  UNL     1       0.822  -1.676   0.504  1.00  0.00    -0.114 Cl
HETATM   21  C16 UNL     1      -0.902  -0.834  -0.477  1.00  0.00     0.357 A 
HETATM   22  H1  UNL     1      -3.482  -0.584  -0.005  1.00  0.00     0.298 HD
ENDROOT
BRANCH   2  23
HETATM   23  C17 UNL     1      -4.494  -0.222   1.937  1.00  0.00     0.040 A 
HETATM   24  C18 UNL     1      -4.826   0.668   3.007  1.00  0.00     0.017 A 
HETATM   25  C19 UNL     1      -6.115   0.787   3.584  1.00  0.00     0.001 A 
HETATM   26  C20 UNL     1      -7.066  -0.152   2.912  1.00  0.00     0.000 A 
HETATM   27  C21 UNL     1      -6.895  -1.065   1.880  1.00  0.00     0.001 A 
HETATM   28  C22 UNL     1      -5.619  -0.805   1.711  1.00  0.00     0.017 A 
ENDBRANCH   2  23
TORSDOF 1
