REMARK  4 active torsions:
REMARK  status: ('A' for Active; 'I' for Inactive)
REMARK    1  A    between atoms: C4_5  and  C5_6 
REMARK    2  A    between atoms: C13_14  and  N1_15 
REMARK    3  A    between atoms: N1_15  and  C14_16 
REMARK    4  A    between atoms: C17_20  and  C18_21 
ROOT
HETATM    1 CL1  UNL     1      -0.873   4.343  -0.635  1.00  0.00    -0.082 Cl
HETATM    2  C1  UNL     1      -1.581   3.036   0.286  1.00  0.00     0.061 A 
HETATM    3  C2  UNL     1      -2.703   3.226   1.093  1.00  0.00     0.026 A 
HETATM    4  C3  UNL     1      -3.225   2.142   1.800  1.00  0.00     0.009 A 
HETATM    5  C4  UNL     1      -2.705   0.829   1.773  1.00  0.00    -0.049 A 
HETATM    6  C12 UNL     1      -1.623   0.789   0.955  1.00  0.00     0.039 A 
HETATM    7  C13 UNL     1      -1.017   1.756   0.216  1.00  0.00     0.071 A 
ENDROOT
BRANCH   7   8
HETATM    8  N1  UNL     1       0.088   1.597  -0.600  1.00  0.00    -0.186 N 
HETATM    9  H9  UNL     1       0.491   2.400  -1.139  1.00  0.00     0.184 HD
BRANCH   8  10
HETATM   10  C14 UNL     1       0.849   0.463  -0.885  1.00  0.00     0.727 A 
HETATM   11  N2  UNL     1       0.632  -0.739  -0.371  1.00  0.00    -0.075 NA
HETATM   12  C15 UNL     1       1.245  -1.891  -0.535  1.00  0.00     0.139 A 
HETATM   13  C16 UNL     1       2.327  -1.911  -1.401  1.00  0.00     0.053 A 
HETATM   14  C17 UNL     1       2.632  -0.705  -1.986  1.00  0.00     0.089 A 
HETATM   15  N4  UNL     1       1.884   0.215  -1.646  1.00  0.00    -0.062 NA
BRANCH  14  16
HETATM   16  C18 UNL     1       3.754  -0.545  -2.932  1.00  0.00     0.011 A 
HETATM   17  C19 UNL     1       3.980   0.709  -3.463  1.00  0.00     0.017 A 
HETATM   18  C20 UNL     1       5.003   0.993  -4.359  1.00  0.00     0.020 A 
HETATM   19  C21 UNL     1       5.799  -0.112  -4.686  1.00  0.00     0.116 A 
HETATM   20  N3  UNL     1       5.558  -1.302  -4.164  1.00  0.00    -0.272 NA
HETATM   21  C22 UNL     1       4.573  -1.564  -3.303  1.00  0.00     0.130 A 
ENDBRANCH  14  16
ENDBRANCH   8  10
ENDBRANCH   7   8
BRANCH   5  22
HETATM   22  C5  UNL     1      -3.517   0.060   2.600  1.00  0.00     0.053 A 
HETATM   23  C6  UNL     1      -2.810  -1.006   3.507  1.00  0.00     0.019 A 
HETATM   24  C7  UNL     1      -1.672  -1.322   2.856  1.00  0.00    -0.014 A 
HETATM   25  C11 UNL     1      -3.877  -1.436   4.454  1.00  0.00    -0.014 A 
HETATM   26  C9  UNL     1      -3.648  -1.469   2.271  1.00  0.00     0.019 A 
HETATM   27  C8  UNL     1      -2.596  -1.817   1.536  1.00  0.00    -0.014 A 
HETATM   28  C10 UNL     1      -4.730  -1.888   3.263  1.00  0.00    -0.014 A 
ENDBRANCH   5  22
TORSDOF 4
