REMARK  5 active torsions:
REMARK  status: ('A' for Active; 'I' for Inactive)
REMARK    1  A    between atoms: C2_2  and  C3_3 
REMARK    2  A    between atoms: C7_7  and  O1_8 
REMARK    3  A    between atoms: O1_8  and  C8_9 
REMARK    4  A    between atoms: C12_13  and  N1_14 
REMARK    5  A    between atoms: C15_18  and  C16_19 
ROOT
HETATM    1  C8  UNL     1      -3.084  -2.104  -1.181  1.00  0.00     0.171 A 
HETATM    2  C9  UNL     1      -2.252  -2.335   0.311  1.00  0.00     0.010 A 
HETATM    3  C10 UNL     1      -1.138  -1.826   0.723  1.00  0.00     0.012 A 
HETATM    4  C11 UNL     1      -0.438  -0.929  -0.157  1.00  0.00    -0.015 A 
HETATM    5  C12 UNL     1       0.657  -0.466   0.319  1.00  0.00     0.097 C 
HETATM    6  C21 UNL     1      -0.825  -0.517  -1.463  1.00  0.00    -0.051 A 
HETATM    7  C22 UNL     1      -0.173   0.366  -2.422  1.00  0.00     0.049 C 
HETATM    8  C23 UNL     1      -1.938  -1.045  -1.831  1.00  0.00     0.016 A 
ENDROOT
BRANCH   5   9
HETATM    9  N1  UNL     1       1.751   0.349   0.104  1.00  0.00    -0.385 N 
HETATM   10  C13 UNL     1       2.033   1.665   0.672  1.00  0.00     0.152 C 
HETATM   11  C14 UNL     1       3.180   1.435   1.657  1.00  0.00     0.290 C 
HETATM   12  N2  UNL     1       4.358   1.095   0.894  1.00  0.00     0.092 N 
HETATM   13  C15 UNL     1       4.168  -0.030   0.048  1.00  0.00     0.255 C 
HETATM   14  H20 UNL     1       4.731   1.890   0.341  1.00  0.00     0.316 HD
HETATM   15  C20 UNL     1       2.897   0.003  -0.740  1.00  0.00     0.159 C 
BRANCH  13  16
HETATM   16  C16 UNL     1       5.308  -0.061  -0.952  1.00  0.00     0.154 C 
HETATM   17  N3  UNL     1       6.571  -0.204  -0.455  1.00  0.00    -0.410 N 
HETATM   18  C17 UNL     1       7.757  -0.124  -1.213  1.00  0.00     0.118 C 
HETATM   19  C19 UNL     1       7.191   0.415   0.635  1.00  0.00     0.118 C 
HETATM   20  C18 UNL     1       8.527  -0.145   0.102  1.00  0.00     0.039 C 
ENDBRANCH  13  16
ENDBRANCH   5   9
BRANCH   1  21
HETATM   21  O1  UNL     1      -3.809  -1.159  -0.767  1.00  0.00    -0.348 OA
BRANCH  21  22
HETATM   22  C7  UNL     1      -4.179  -0.793   0.471  1.00  0.00     0.262 C 
HETATM   23  C6  UNL     1      -3.940   0.649   0.775  1.00  0.00     0.064 C 
HETATM   24  C5  UNL     1      -5.281   1.194   1.118  1.00  0.00     0.047 C 
HETATM   25  C3  UNL     1      -6.252   0.128   0.684  1.00  0.00     0.077 C 
HETATM   26  C4  UNL     1      -6.904   0.537  -0.626  1.00  0.00     0.051 C 
HETATM   27  O2  UNL     1      -5.550  -1.029   0.589  1.00  0.00    -0.347 OA
BRANCH  25  28
HETATM   28  C2  UNL     1      -7.372  -0.003   1.690  1.00  0.00     0.000 C 
HETATM   29  C1  UNL     1      -8.701   0.021   1.460  1.00  0.00     0.010 C 
ENDBRANCH  25  28
ENDBRANCH  21  22
ENDBRANCH   1  21
TORSDOF 5
