REMARK  6 active torsions:
REMARK  status: ('A' for Active; 'I' for Inactive)
REMARK    1  A    between atoms: C4_4  and  C5_5 
REMARK    2  A    between atoms: C9_9  and  O1_10 
REMARK    3  A    between atoms: O1_10  and  C10_11 
REMARK    4  A    between atoms: C10_11  and  C11_12 
REMARK    5  A    between atoms: C19_21  and  N1_22 
REMARK    6  A    between atoms: C24_29  and  N4_30 
ROOT
HETATM    1  C1  UNL     1      -4.457  -1.679   1.875  1.00  0.00     0.017 C 
HETATM    2  C2  UNL     1      -4.010  -0.300   1.483  1.00  0.00     0.053 C 
HETATM    3  C3  UNL     1      -3.073  -0.362   0.300  1.00  0.00    -0.044 C 
HETATM    4  C4  UNL     1      -1.966  -0.497  -0.458  1.00  0.00    -0.006 C 
HETATM    5  C18 UNL     1      -2.397  -0.203  -1.811  1.00  0.00     0.047 A 
HETATM    6  C19 UNL     1      -1.616  -0.124  -2.943  1.00  0.00     0.135 A 
HETATM    7  N2  UNL     1      -2.224   0.268  -4.093  1.00  0.00    -0.224 NA
HETATM    8  C20 UNL     1      -3.557   0.571  -4.129  1.00  0.00     0.235 A 
HETATM    9  N3  UNL     1      -4.334   0.491  -3.006  1.00  0.00    -0.244 NA
HETATM   10  C21 UNL     1      -3.742   0.101  -1.856  1.00  0.00     0.066 A 
HETATM   11  C22 UNL     1      -4.245  -0.190  -0.569  1.00  0.00     0.069 A 
HETATM   12  C23 UNL     1      -5.617  -0.691  -0.352  1.00  0.00     0.067 A 
HETATM   13  C24 UNL     1      -5.029   0.316   0.503  1.00  0.00     0.185 A 
ENDROOT
BRANCH   4  14
HETATM   14  C5  UNL     1      -0.702  -0.810   0.177  1.00  0.00    -0.022 A 
HETATM   15  C6  UNL     1      -0.671  -1.868   1.096  1.00  0.00     0.012 A 
HETATM   16  C7  UNL     1       0.460  -2.257   1.787  1.00  0.00     0.004 A 
HETATM   17  C8  UNL     1       1.632  -1.568   1.563  1.00  0.00     0.037 A 
HETATM   18  C9  UNL     1       1.690  -0.513   0.675  1.00  0.00     0.069 A 
HETATM   19  C17 UNL     1       0.516  -0.190   0.029  1.00  0.00     0.049 A 
BRANCH  18  20
HETATM   20  O1  UNL     1       2.833   0.226   0.399  1.00  0.00    -0.349 OA
BRANCH  20  21
HETATM   21  C10 UNL     1       4.022  -0.113   1.061  1.00  0.00     0.207 C 
BRANCH  21  22
HETATM   22  C11 UNL     1       5.165   0.816   0.619  1.00  0.00     0.146 C 
HETATM   23  C12 UNL     1       5.373   0.676  -0.845  1.00  0.00     0.037 C 
HETATM   24  C13 UNL     1       6.884   0.804  -0.946  1.00  0.00     0.040 C 
HETATM   25  C14 UNL     1       7.285   0.209   0.388  1.00  0.00     0.054 C 
HETATM   26  C15 UNL     1       8.596   0.854   0.767  1.00  0.00     0.045 C 
HETATM   27  C16 UNL     1       7.571  -1.264   0.168  1.00  0.00     0.045 C 
HETATM   28  O2  UNL     1       6.285   0.440   1.280  1.00  0.00    -0.373 OA
ENDBRANCH  21  22
ENDBRANCH  20  21
ENDBRANCH  18  20
ENDBRANCH   4  14
BRANCH   6  29
HETATM   29  N1  UNL     1      -0.235  -0.446  -2.976  1.00  0.00    -0.383 N 
HETATM   30  H22 UNL     1       0.438   0.373  -3.030  1.00  0.00     0.157 HD
HETATM   31  H23 UNL     1       0.158  -1.414  -2.952  1.00  0.00     0.157 HD
ENDBRANCH   6  29
BRANCH  13  32
HETATM   32  N4  UNL     1      -5.453   1.625   0.780  1.00  0.00     0.100 N 
HETATM   33  C25 UNL     1      -6.100   1.745   2.073  1.00  0.00     0.275 C 
HETATM   34  C26 UNL     1      -7.414   2.064   1.381  1.00  0.00     0.060 C 
HETATM   35  C27 UNL     1      -6.600   2.134   0.097  1.00  0.00     0.275 C 
ENDBRANCH  13  32
TORSDOF 6
