REMARK  6 active torsions:
REMARK  status: ('A' for Active; 'I' for Inactive)
REMARK    1  A    between atoms: O1_2  and  C2_3 
REMARK    2  A    between atoms: C6_9  and  N3_10 
REMARK    3  A    between atoms: N4_11  and  C7_12 
REMARK    4  A    between atoms: C8_13  and  C9_14 
REMARK    5  A    between atoms: C12_18  and  O2_19 
REMARK    6  A    between atoms: O2_19  and  P1_20 
ROOT
HETATM    1  C2  UNL     1      -2.971  -0.892   0.497  1.00  0.00     0.104 A 
HETATM    2  C3  UNL     1      -2.000  -1.730   0.017  1.00  0.00     0.072 A 
HETATM    3  C4  UNL     1      -0.761  -1.243  -0.354  1.00  0.00     0.075 A 
HETATM    4  N1  UNL     1       0.166  -2.098  -0.821  1.00  0.00    -0.241 NA
HETATM    5  C5  UNL     1       1.372  -1.697  -1.193  1.00  0.00     0.236 A 
HETATM    6  N2  UNL     1       1.726  -0.398  -1.118  1.00  0.00    -0.220 NA
HETATM    7  C6  UNL     1       0.824   0.509  -0.651  1.00  0.00     0.185 A 
HETATM    8  C10 UNL     1      -0.451   0.097  -0.256  1.00  0.00     0.045 A 
HETATM    9  C11 UNL     1      -1.418   0.953   0.226  1.00  0.00     0.057 A 
HETATM   10  C12 UNL     1      -2.652   0.461   0.594  1.00  0.00     0.107 A 
ENDROOT
BRANCH   7  11
HETATM   11  N3  UNL     1       1.146   1.890  -0.552  1.00  0.00    -0.130 NA
HETATM   12  N4  UNL     1       2.280   2.348  -0.286  1.00  0.00    -0.161 NA
BRANCH  12  13
HETATM   13  C7  UNL     1       3.438   1.566  -0.038  1.00  0.00     0.139 C 
HETATM   14  C8  UNL     1       4.266   0.724   0.570  1.00  0.00     0.025 C 
BRANCH  14  15
HETATM   15  C9  UNL     1       5.610   0.384  -0.006  1.00  0.00     0.251 C 
HETATM   16  F1  UNL     1       6.621   0.739   0.875  1.00  0.00    -0.251 F 
ENDBRANCH  14  15
ENDBRANCH  12  13
ENDBRANCH   7  11
BRANCH  10  17
HETATM   17  O2  UNL     1      -3.553   1.412   1.066  1.00  0.00    -0.327 OA
BRANCH  17  18
HETATM   18  P1  UNL     1      -3.209   3.114   1.208  1.00  0.00     0.009 P 
HETATM   19  H11 UNL     1      -1.842   3.306   1.672  1.00  0.00     0.085 HD
HETATM   20  H12 UNL     1      -3.358   3.728  -0.102  1.00  0.00     0.085 HD
ENDBRANCH  17  18
ENDBRANCH  10  17
BRANCH   1  21
HETATM   21  O1  UNL     1      -4.255  -1.206   0.911  1.00  0.00    -0.353 OA
HETATM   22  C1  UNL     1      -4.669  -2.555   0.850  1.00  0.00     0.210 C 
ENDBRANCH   1  21
TORSDOF 6
