REMARK  7 active torsions:
REMARK  status: ('A' for Active; 'I' for Inactive)
REMARK    1  A    between atoms: C6_6  and  C7_7 
REMARK    2  A    between atoms: C7_7  and  C8_8 
REMARK    3  A    between atoms: C11_11  and  C12_12 
REMARK    4  A    between atoms: N1_14  and  C14_15 
REMARK    5  A    between atoms: C16_17  and  C17_18 
REMARK    6  A    between atoms: C17_18  and  N2_19 
REMARK    7  A    between atoms: C24_28  and  N5_29 
ROOT
HETATM    1  C12 UNL     1       0.477  -1.213   0.319  1.00  0.00     0.007 A 
HETATM    2  C13 UNL     1       1.605  -1.034  -0.491  1.00  0.00     0.106 A 
HETATM    3  N1  UNL     1       2.543  -1.941  -0.238  1.00  0.00    -0.335 N 
HETATM    4  C22 UNL     1       2.108  -2.760   0.731  1.00  0.00     0.146 A 
HETATM    5  N3  UNL     1       2.647  -3.831   1.338  1.00  0.00    -0.223 NA
HETATM    6  C23 UNL     1       2.003  -4.525   2.290  1.00  0.00     0.237 A 
HETATM    7  N4  UNL     1       0.766  -4.099   2.626  1.00  0.00    -0.224 NA
HETATM    8  C24 UNL     1       0.226  -3.031   2.024  1.00  0.00     0.137 A 
HETATM    9  C25 UNL     1       0.861  -2.303   1.050  1.00  0.00     0.068 A 
ENDROOT
BRANCH   1  10
HETATM   10  C11 UNL     1      -0.720  -0.432   0.286  1.00  0.00    -0.027 A 
HETATM   11  C10 UNL     1      -0.989   0.417  -0.899  1.00  0.00     0.009 A 
HETATM   12  C9  UNL     1      -2.120   1.066  -0.918  1.00  0.00    -0.017 A 
HETATM   13  C8  UNL     1      -2.813   0.711   0.346  1.00  0.00     0.034 A 
HETATM   14  C26 UNL     1      -1.818  -0.199   0.945  1.00  0.00    -0.006 A 
BRANCH  13  15
HETATM   15  C7  UNL     1      -4.065  -0.052  -0.008  1.00  0.00     0.044 C 
BRANCH  15  16
HETATM   16  C6  UNL     1      -4.994   0.782  -0.880  1.00  0.00     0.123 C 
HETATM   17  C5  UNL     1      -6.229  -0.013  -1.205  1.00  0.00     0.035 C 
HETATM   18  C4  UNL     1      -7.292   0.637  -0.388  1.00  0.00     0.040 C 
HETATM   19  C2  UNL     1      -6.724   2.011  -0.111  1.00  0.00     0.054 C 
HETATM   20  C1  UNL     1      -7.305   3.059  -1.020  1.00  0.00     0.045 C 
HETATM   21  C3  UNL     1      -7.028   2.321   1.359  1.00  0.00     0.045 C 
HETATM   22  O1  UNL     1      -5.369   1.928  -0.245  1.00  0.00    -0.376 OA
ENDBRANCH  15  16
ENDBRANCH  13  15
ENDBRANCH   1  10
BRANCH   3  23
HETATM   23  C14 UNL     1       3.830  -2.092  -0.845  1.00  0.00     0.092 A 
HETATM   24  C15 UNL     1       4.907  -2.003   0.240  1.00  0.00     0.032 A 
HETATM   25  C16 UNL     1       5.515  -0.865  -0.506  1.00  0.00     0.018 A 
HETATM   26  C21 UNL     1       4.430  -0.943  -1.568  1.00  0.00     0.032 A 
BRANCH  25  27
HETATM   27  C17 UNL     1       5.500   0.472   0.251  1.00  0.00     0.277 C 
BRANCH  27  28
HETATM   28  N2  UNL     1       6.141   1.412  -0.651  1.00  0.00     0.088 N 
HETATM   29  C18 UNL     1       7.568   1.073  -0.781  1.00  0.00     0.274 C 
HETATM   30  C19 UNL     1       7.817   2.560  -0.915  1.00  0.00     0.060 C 
HETATM   31  C20 UNL     1       6.559   2.664  -0.079  1.00  0.00     0.274 C 
ENDBRANCH  27  28
ENDBRANCH  25  27
ENDBRANCH   3  23
BRANCH   8  32
HETATM   32  N5  UNL     1      -1.061  -2.755   2.462  1.00  0.00    -0.383 N 
HETATM   33  H33 UNL     1      -1.722  -2.984   1.709  1.00  0.00     0.157 HD
HETATM   34  H34 UNL     1      -1.428  -2.376   3.384  1.00  0.00     0.157 HD
ENDBRANCH   8  32
TORSDOF 7
