REMARK  8 active torsions:
REMARK  status: ('A' for Active; 'I' for Inactive)
REMARK    1  A    between atoms: C6_6  and  C7_7 
REMARK    2  A    between atoms: C7_7  and  O1_8 
REMARK    3  A    between atoms: O1_8  and  C8_9 
REMARK    4  A    between atoms: C12_13  and  C13_14 
REMARK    5  A    between atoms: N1_16  and  C15_17 
REMARK    6  A    between atoms: C17_19  and  C18_20 
REMARK    7  A    between atoms: C18_20  and  N2_21 
REMARK    8  A    between atoms: C25_28  and  N3_29 
ROOT
HETATM    1  C13 UNL     1       0.733  -0.404  -0.776  1.00  0.00     0.006 A 
HETATM    2  C14 UNL     1       1.771  -1.319  -0.918  1.00  0.00     0.106 A 
HETATM    3  N1  UNL     1       2.893  -0.821  -0.338  1.00  0.00    -0.336 N 
HETATM    4  C23 UNL     1       2.630   0.391   0.181  1.00  0.00     0.138 A 
HETATM    5  C24 UNL     1       1.302   0.647  -0.088  1.00  0.00     0.046 A 
HETATM    6  C25 UNL     1       0.931   1.827   0.379  1.00  0.00     0.038 A 
HETATM    7  C26 UNL     1       2.133   2.410   1.029  1.00  0.00     0.208 A 
HETATM    8  N4  UNL     1       3.124   1.393   0.821  1.00  0.00    -0.266 NA
ENDROOT
BRANCH   1   9
HETATM    9  C12 UNL     1      -0.638  -0.548  -1.257  1.00  0.00    -0.021 A 
HETATM   10  C11 UNL     1      -0.754  -1.013  -2.552  1.00  0.00     0.012 A 
HETATM   11  C10 UNL     1      -1.981  -1.202  -3.152  1.00  0.00     0.004 A 
HETATM   12  C9  UNL     1      -3.157  -0.919  -2.446  1.00  0.00     0.037 A 
HETATM   13  C8  UNL     1      -2.993  -0.452  -1.141  1.00  0.00     0.069 A 
HETATM   14  C27 UNL     1      -1.775  -0.260  -0.531  1.00  0.00     0.049 A 
BRANCH  13  15
HETATM   15  O1  UNL     1      -4.185  -0.174  -0.446  1.00  0.00    -0.349 OA
BRANCH  15  16
HETATM   16  C7  UNL     1      -5.421  -0.364  -1.058  1.00  0.00     0.207 C 
BRANCH  16  17
HETATM   17  C6  UNL     1      -6.607  -0.039  -0.216  1.00  0.00     0.146 C 
HETATM   18  C5  UNL     1      -6.543   1.365   0.374  1.00  0.00     0.037 C 
HETATM   19  C4  UNL     1      -7.788   1.288   1.270  1.00  0.00     0.040 C 
HETATM   20  C2  UNL     1      -7.861  -0.215   1.528  1.00  0.00     0.054 C 
HETATM   21  C1  UNL     1      -7.908  -0.464   3.021  1.00  0.00     0.045 C 
HETATM   22  C3  UNL     1      -9.064  -0.843   0.855  1.00  0.00     0.045 C 
HETATM   23  O2  UNL     1      -6.721  -0.777   0.950  1.00  0.00    -0.373 OA
ENDBRANCH  16  17
ENDBRANCH  15  16
ENDBRANCH  13  15
ENDBRANCH   1   9
BRANCH   3  24
HETATM   24  C15 UNL     1       4.126  -1.586  -0.355  1.00  0.00     0.092 C 
HETATM   25  C16 UNL     1       5.028  -1.219  -1.545  1.00  0.00     0.032 C 
HETATM   26  C17 UNL     1       6.183  -1.326  -0.525  1.00  0.00     0.018 C 
HETATM   27  C22 UNL     1       5.170  -1.031   0.601  1.00  0.00     0.032 C 
BRANCH  26  28
HETATM   28  C18 UNL     1       7.198  -0.251  -0.717  1.00  0.00     0.277 C 
BRANCH  28  29
HETATM   29  N2  UNL     1       8.269  -0.377   0.203  1.00  0.00     0.088 N 
HETATM   30  C19 UNL     1       8.067  -0.142   1.581  1.00  0.00     0.274 C 
HETATM   31  C20 UNL     1       9.010   1.065   1.510  1.00  0.00     0.060 C 
HETATM   32  C21 UNL     1       9.307   0.611   0.120  1.00  0.00     0.274 C 
ENDBRANCH  28  29
ENDBRANCH  26  28
ENDBRANCH   3  24
BRANCH   6  33
HETATM   33  N3  UNL     1      -0.286   2.559   0.372  1.00  0.00    -0.400 N 
HETATM   34  H32 UNL     1      -0.651   2.854   1.324  1.00  0.00     0.156 HD
HETATM   35  H33 UNL     1      -0.880   2.850  -0.458  1.00  0.00     0.156 HD
ENDBRANCH   6  33
TORSDOF 8
