REMARK  5 active torsions:
REMARK  status: ('A' for Active; 'I' for Inactive)
REMARK    1  A    between atoms: C6_6  and  C7_7 
REMARK    2  A    between atoms: C7_7  and  O1_8 
REMARK    3  A    between atoms: O1_8  and  C8_9 
REMARK    4  A    between atoms: C12_13  and  C13_14 
REMARK    5  A    between atoms: C23_27  and  N4_28 
ROOT
HETATM    1  C13 UNL     1      -2.090  -0.535   0.566  1.00  0.00     0.004 C 
HETATM    2  C14 UNL     1      -2.359  -0.627  -0.732  1.00  0.00     0.101 C 
HETATM    3  N1  UNL     1      -3.722  -0.681  -1.079  1.00  0.00    -0.358 N 
HETATM    4  C15 UNL     1      -4.737  -0.793  -2.107  1.00  0.00     0.134 C 
HETATM    5  C16 UNL     1      -5.052   0.678  -2.399  1.00  0.00     0.036 A 
HETATM    6  C17 UNL     1      -6.312   1.051  -3.030  1.00  0.00     0.038 A 
HETATM    7  C18 UNL     1      -6.628   1.651  -1.722  1.00  0.00    -0.023 A 
HETATM    8  C19 UNL     1      -5.515   1.322  -1.128  1.00  0.00    -0.073 A 
HETATM    9  C20 UNL     1      -4.554   1.223   0.058  1.00  0.00     0.093 C 
HETATM   10  C21 UNL     1      -4.352  -0.334   0.178  1.00  0.00     0.143 C 
HETATM   11  N2  UNL     1      -5.671  -0.772   0.452  1.00  0.00    -0.354 N 
HETATM   12  C22 UNL     1      -6.015  -1.186   1.795  1.00  0.00     0.207 C 
HETATM   13  N3  UNL     1      -5.114  -1.409   2.724  1.00  0.00    -0.227 NA
HETATM   14  C23 UNL     1      -3.760  -1.203   2.347  1.00  0.00     0.134 C 
HETATM   15  C24 UNL     1      -3.400  -0.777   1.146  1.00  0.00     0.049 C 
HETATM   16  H26 UNL     1      -6.575  -0.894  -0.089  1.00  0.00     0.163 HD
ENDROOT
BRANCH   1  17
HETATM   17  C12 UNL     1      -0.766  -0.446   1.114  1.00  0.00    -0.021 A 
HETATM   18  C11 UNL     1      -0.432  -0.075   2.364  1.00  0.00     0.012 A 
HETATM   19  C10 UNL     1       0.851  -0.066   2.853  1.00  0.00     0.004 A 
HETATM   20  C9  UNL     1       1.880  -0.457   2.029  1.00  0.00     0.037 A 
HETATM   21  C8  UNL     1       1.678  -0.858   0.729  1.00  0.00     0.069 A 
HETATM   22  C25 UNL     1       0.333  -0.832   0.327  1.00  0.00     0.049 A 
BRANCH  21  23
HETATM   23  O1  UNL     1       2.537  -1.267  -0.223  1.00  0.00    -0.349 OA
BRANCH  23  24
HETATM   24  C7  UNL     1       3.920  -1.413  -0.227  1.00  0.00     0.207 C 
BRANCH  24  25
HETATM   25  C6  UNL     1       4.684  -0.137  -0.009  1.00  0.00     0.146 C 
HETATM   26  C5  UNL     1       4.478   0.839  -1.158  1.00  0.00     0.037 C 
HETATM   27  C4  UNL     1       5.783   1.605  -1.111  1.00  0.00     0.040 C 
HETATM   28  C2  UNL     1       6.723   0.643  -0.481  1.00  0.00     0.054 C 
HETATM   29  C1  UNL     1       7.801   0.173  -1.439  1.00  0.00     0.045 C 
HETATM   30  C3  UNL     1       7.447   1.216   0.719  1.00  0.00     0.045 C 
HETATM   31  O2  UNL     1       6.031  -0.471  -0.042  1.00  0.00    -0.373 OA
ENDBRANCH  24  25
ENDBRANCH  23  24
ENDBRANCH  21  23
ENDBRANCH   1  17
BRANCH  14  32
HETATM   32  N4  UNL     1      -2.832  -1.554   3.361  1.00  0.00    -0.383 N 
HETATM   33  H28 UNL     1      -2.174  -2.341   3.078  1.00  0.00     0.157 HD
HETATM   34  H29 UNL     1      -2.861  -1.036   4.272  1.00  0.00     0.157 HD
ENDBRANCH  14  32
TORSDOF 5
