REMARK  0 active torsions:
REMARK  status: ('A' for Active; 'I' for Inactive)
ROOT
HETATM    1  F1  UNL     1       0.602  -1.657   2.049  1.00  0.00    -0.242 F 
HETATM    2  C1  UNL     1       1.509  -0.761   1.469  1.00  0.00     0.227 C 
HETATM    3  C2  UNL     1       2.217  -0.092   2.584  1.00  0.00     0.071 C 
HETATM    4  C3  UNL     1       3.473   0.582   2.273  1.00  0.00    -0.024 C 
HETATM    5  C4  UNL     1       3.897   1.624   1.536  1.00  0.00    -0.004 C 
HETATM    6  C5  UNL     1       3.088   2.534   0.694  1.00  0.00     0.000 C 
HETATM    7  C6  UNL     1       1.912   2.432   0.077  1.00  0.00     0.011 C 
HETATM    8  C7  UNL     1       0.944   1.341  -0.004  1.00  0.00    -0.005 C 
HETATM    9  C8  UNL     1       0.791   0.112   0.534  1.00  0.00     0.099 C 
HETATM   10  N1  UNL     1      -0.359  -0.633   0.160  1.00  0.00    -0.149 NA
HETATM   11  N2  UNL     1      -0.490  -1.194  -0.995  1.00  0.00    -0.129 NA
HETATM   12  C9  UNL     1      -1.725  -1.903  -1.191  1.00  0.00     0.184 A 
HETATM   13  N3  UNL     1      -1.725  -3.222  -0.951  1.00  0.00    -0.220 NA
HETATM   14  C10 UNL     1      -2.822  -3.983  -1.097  1.00  0.00     0.235 A 
HETATM   15  N4  UNL     1      -3.975  -3.433  -1.497  1.00  0.00    -0.253 NA
HETATM   16  C11 UNL     1      -3.984  -2.112  -1.740  1.00  0.00     0.133 A 
HETATM   17  C12 UNL     1      -2.871  -1.280  -1.602  1.00  0.00     0.033 A 
HETATM   18  C13 UNL     1      -3.097   0.120  -1.917  1.00  0.00     0.041 C 
HETATM   19  C14 UNL     1      -2.434   1.179  -1.480  1.00  0.00     0.136 C 
HETATM   20  O1  UNL     1      -1.365   1.249  -0.622  1.00  0.00    -0.358 OA
HETATM   21  C15 UNL     1      -0.115   1.820  -0.971  1.00  0.00     0.215 C 
ENDROOT
TORSDOF 0
