REMARK  11 active torsions:
REMARK  status: ('A' for Active; 'I' for Inactive)
REMARK    1  A    between atoms: C2_2  and  C3_3 
REMARK    2  A    between atoms: C3_3  and  C12_14 
REMARK    3  A    between atoms: C4_4  and  C5_5 
REMARK    4  A    between atoms: C5_5  and  O1_6 
REMARK    5  A    between atoms: O1_6  and  C6_7 
REMARK    6  A    between atoms: C12_14  and  N1_15 
REMARK    7  A    between atoms: N1_15  and  C13_16 
REMARK    8  A    between atoms: N1_15  and  C17_23 
REMARK    9  A    between atoms: C15_18  and  N2_19 
REMARK   10  A    between atoms: C19_25  and  C20_26 
REMARK   11  A    between atoms: C20_26  and  N5_27 
ROOT
HETATM    1  N1  UNL     1      -0.995  -0.469  -0.028  1.00  0.00    -0.357 N 
ENDROOT
BRANCH   1   2
HETATM    2  C12 UNL     1      -0.659   0.081   1.271  1.00  0.00     0.159 C 
BRANCH   2   3
HETATM    3  C3  UNL     1       0.438  -0.633   1.969  1.00  0.00    -0.064 C 
HETATM    4  C4  UNL     1       1.561   0.068   2.268  1.00  0.00     0.004 C 
BRANCH   3   5
HETATM    5  C2  UNL     1       0.304  -2.067   2.342  1.00  0.00     0.031 C 
HETATM    6  C1  UNL     1       1.556  -2.556   3.066  1.00  0.00     0.010 C 
ENDBRANCH   3   5
BRANCH   4   7
HETATM    7  C5  UNL     1       2.059   1.452   2.075  1.00  0.00     0.198 C 
BRANCH   7   8
HETATM    8  O1  UNL     1       3.207   1.573   1.350  1.00  0.00    -0.358 OA
BRANCH   8   9
HETATM    9  C6  UNL     1       4.334   0.974   1.832  1.00  0.00     0.261 C 
HETATM   10  C7  UNL     1       5.495   1.926   2.014  1.00  0.00     0.064 C 
HETATM   11  C8  UNL     1       6.658   1.057   1.561  1.00  0.00     0.042 C 
HETATM   12  C9  UNL     1       5.992   0.247   0.477  1.00  0.00     0.057 C 
HETATM   13  C10 UNL     1       6.809  -1.022   0.305  1.00  0.00     0.045 C 
HETATM   14  C11 UNL     1       5.904   1.020  -0.823  1.00  0.00     0.045 C 
HETATM   15  O2  UNL     1       4.739  -0.009   0.949  1.00  0.00    -0.351 OA
ENDBRANCH   8   9
ENDBRANCH   7   8
ENDBRANCH   4   7
ENDBRANCH   2   3
ENDBRANCH   1   2
BRANCH   1  16
HETATM   16  C13 UNL     1      -0.611  -1.532  -0.922  1.00  0.00     0.131 A 
HETATM   17  C14 UNL     1      -1.133  -2.800  -1.068  1.00  0.00     0.100 A 
HETATM   18  C15 UNL     1      -0.593  -3.646  -2.002  1.00  0.00     0.126 A 
HETATM   19  N3  UNL     1       0.437  -3.226  -2.759  1.00  0.00    -0.225 NA
HETATM   20  C16 UNL     1       0.919  -1.981  -2.585  1.00  0.00     0.237 A 
HETATM   21  N4  UNL     1       0.418  -1.100  -1.672  1.00  0.00    -0.224 NA
BRANCH  18  22
HETATM   22  N2  UNL     1      -1.234  -4.927  -2.042  1.00  0.00    -0.384 N 
HETATM   23  H23 UNL     1      -0.649  -5.761  -1.758  1.00  0.00     0.157 HD
HETATM   24  H24 UNL     1      -2.225  -5.180  -2.316  1.00  0.00     0.157 HD
ENDBRANCH  18  22
ENDBRANCH   1  16
BRANCH   1  25
HETATM   25  C17 UNL     1      -2.058   0.331  -0.581  1.00  0.00     0.090 C 
HETATM   26  C18 UNL     1      -2.625  -0.055  -1.901  1.00  0.00     0.032 C 
HETATM   27  C19 UNL     1      -3.964   0.475  -1.389  1.00  0.00     0.021 C 
HETATM   28  C24 UNL     1      -3.409   0.244   0.025  1.00  0.00     0.010 C 
HETATM   29  C25 UNL     1      -3.912  -1.065   0.521  1.00  0.00     0.012 C 
BRANCH  27  30
HETATM   30  C20 UNL     1      -4.176   1.928  -1.665  1.00  0.00     0.277 C 
BRANCH  30  31
HETATM   31  N5  UNL     1      -5.451   2.394  -1.166  1.00  0.00     0.088 N 
HETATM   32  C21 UNL     1      -5.752   3.784  -1.382  1.00  0.00     0.274 C 
HETATM   33  C22 UNL     1      -7.109   3.420  -1.985  1.00  0.00     0.060 C 
HETATM   34  C23 UNL     1      -6.531   2.020  -2.036  1.00  0.00     0.274 C 
ENDBRANCH  30  31
ENDBRANCH  27  30
ENDBRANCH   1  25
TORSDOF 11
