REMARK  4 active torsions:
REMARK  status: ('A' for Active; 'I' for Inactive)
REMARK    1  A    between atoms: O1_2  and  C2_3 
REMARK    2  A    between atoms: C5_7  and  C6_8 
REMARK    3  A    between atoms: C6_8  and  C7_9 
REMARK    4  A    between atoms: C14_20  and  O2_21 
ROOT
HETATM    1  C2  UNL     1       2.187   1.457  -0.334  1.00  0.00     0.103 C 
HETATM    2  C3  UNL     1       0.921   1.671  -0.733  1.00  0.00     0.069 C 
HETATM    3  C4  UNL     1       0.131   0.469  -0.627  1.00  0.00     0.071 C 
HETATM    4  N1  UNL     1      -1.052   0.150  -1.108  1.00  0.00    -0.256 NA
HETATM    5  C5  UNL     1      -1.428  -1.179  -0.748  1.00  0.00     0.347 C 
HETATM    6  N2  UNL     1      -0.096  -1.810  -0.565  1.00  0.00     0.122 N 
HETATM    7  C12 UNL     1       0.562  -0.732   0.103  1.00  0.00     0.300 C 
HETATM    8  C13 UNL     1       1.972  -0.834   0.415  1.00  0.00     0.054 C 
HETATM    9  C14 UNL     1       2.733   0.237   0.211  1.00  0.00     0.100 C 
HETATM   10  H10 UNL     1      -0.205  -2.674  -0.000  1.00  0.00     0.320 HD
ENDROOT
BRANCH   5  11
HETATM   11  C6  UNL     1      -2.324  -1.297   0.427  1.00  0.00     0.094 C 
BRANCH  11  12
HETATM   12  C7  UNL     1      -3.573  -0.547   0.107  1.00  0.00    -0.060 C 
HETATM   13  C8  UNL     1      -3.871   0.453   0.906  1.00  0.00     0.073 C 
HETATM   14 CL1  UNL     1      -2.878   0.914   2.284  1.00  0.00    -0.081 Cl
HETATM   15  C9  UNL     1      -5.070   1.229   0.667  1.00  0.00     0.132 C 
HETATM   16  F1  UNL     1      -5.078   2.588   0.877  1.00  0.00    -0.205 F 
HETATM   17  C10 UNL     1      -6.219   0.792   0.255  1.00  0.00    -0.070 C 
HETATM   18  B1  UNL     1      -6.054  -0.928  -0.575  1.00  0.00     0.191 B 
HETATM   19  C11 UNL     1      -4.295  -1.042  -1.068  1.00  0.00    -0.016 C 
ENDBRANCH  11  12
ENDBRANCH   5  11
BRANCH   1  20
HETATM   20  O1  UNL     1       2.994   2.579  -0.454  1.00  0.00    -0.353 OA
HETATM   21  C1  UNL     1       4.347   2.527  -0.066  1.00  0.00     0.210 C 
ENDBRANCH   1  20
BRANCH   9  22
HETATM   22  O2  UNL     1       4.070   0.115   0.549  1.00  0.00    -0.353 OA
HETATM   23  C15 UNL     1       4.821  -0.947  -0.014  1.00  0.00     0.210 C 
ENDBRANCH   9  22
TORSDOF 4
