REMARK  5 active torsions:
REMARK  status: ('A' for Active; 'I' for Inactive)
REMARK    1  A    between atoms: O1_2  and  C2_3 
REMARK    2  A    between atoms: C8_10  and  O2_11 
REMARK    3  A    between atoms: C9_12  and  C10_13 
REMARK    4  A    between atoms: C10_13  and  C11_14 
REMARK    5  A    between atoms: C12_15  and  C13_16 
ROOT
HETATM    1  C2  UNL     1       3.912   2.441   1.154  1.00  0.00     0.099 C 
HETATM    2  C3  UNL     1       3.538   1.495   2.010  1.00  0.00     0.122 C 
HETATM    3  N1  UNL     1       2.357   0.959   1.780  1.00  0.00    -0.242 NA
HETATM    4  C4  UNL     1       1.943   0.919   0.390  1.00  0.00     0.080 C 
HETATM    5  C5  UNL     1       0.915   0.036   0.608  1.00  0.00     0.048 C 
HETATM    6  C6  UNL     1      -0.092  -0.880   1.057  1.00  0.00     0.091 C 
HETATM    7  C7  UNL     1      -0.738  -0.526   2.402  1.00  0.00     0.021 C 
HETATM    8  C8  UNL     1      -0.945  -0.277  -0.061  1.00  0.00     0.156 C 
HETATM    9  C9  UNL     1      -1.872  -1.342  -0.617  1.00  0.00     0.051 C 
HETATM   10  S1  UNL     1      -1.811  -0.145  -2.024  1.00  0.00    -0.139 SA
HETATM   11  C14 UNL     1       0.022  -0.431  -2.209  1.00  0.00     0.200 C 
HETATM   12  N3  UNL     1       0.287  -0.216  -0.748  1.00  0.00    -0.339 N 
HETATM   13  C15 UNL     1       2.597   1.698  -0.624  1.00  0.00     0.036 C 
HETATM   14  C16 UNL     1       3.586   2.457  -0.237  1.00  0.00     0.041 C 
ENDROOT
BRANCH   8  15
HETATM   15  O2  UNL     1      -1.588   0.849   0.348  1.00  0.00    -0.369 OA
HETATM   16  H8  UNL     1      -1.327   1.678  -0.080  1.00  0.00     0.212 HD
ENDBRANCH   8  15
BRANCH   9  17
HETATM   17  C10 UNL     1      -2.705  -2.179  -1.271  1.00  0.00     0.072 C 
BRANCH  17  18
HETATM   18  C11 UNL     1      -3.507  -3.452  -1.298  1.00  0.00     0.006 C 
HETATM   19  C12 UNL     1      -4.138  -3.478  -2.537  1.00  0.00     0.020 C 
BRANCH  19  20
HETATM   20  C13 UNL     1      -3.872  -2.377  -3.390  1.00  0.00     0.103 C 
HETATM   21  N2  UNL     1      -4.692  -3.009  -4.186  1.00  0.00    -0.313 NA
HETATM   22  H13 UNL     1      -4.902  -2.571  -5.135  1.00  0.00     0.186 HD
ENDBRANCH  19  20
ENDBRANCH  17  18
ENDBRANCH   9  17
BRANCH   1  23
HETATM   23  O1  UNL     1       4.682   3.508   1.644  1.00  0.00    -0.353 OA
HETATM   24  C1  UNL     1       4.451   4.128   2.883  1.00  0.00     0.210 C 
ENDBRANCH   1  23
TORSDOF 5
