REMARK  4 active torsions:
REMARK  status: ('A' for Active; 'I' for Inactive)
REMARK    1  A    between atoms: O1_2  and  C2_3 
REMARK    2  A    between atoms: C5_6  and  N1_7 
REMARK    3  A    between atoms: N1_7  and  C6_8 
REMARK    4  A    between atoms: C15_21  and  O2_22 
ROOT
HETATM    1  C2  UNL     1      -1.877  -0.858   1.210  1.00  0.00     0.103 A 
HETATM    2  C3  UNL     1      -0.681  -0.754   0.512  1.00  0.00     0.057 A 
HETATM    3  C4  UNL     1      -0.308   0.388  -0.158  1.00  0.00     0.042 A 
HETATM    4  C5  UNL     1       0.900   0.391  -0.822  1.00  0.00     0.141 A 
HETATM    5  N2  UNL     1       1.315   1.481  -1.494  1.00  0.00    -0.224 NA
HETATM    6  C11 UNL     1       0.496   2.572  -1.489  1.00  0.00     0.236 A 
HETATM    7  N3  UNL     1      -0.693   2.573  -0.837  1.00  0.00    -0.240 NA
HETATM    8  C12 UNL     1      -1.131   1.496  -0.159  1.00  0.00     0.081 A 
HETATM    9  C13 UNL     1      -2.327   1.429   0.525  1.00  0.00     0.004 A 
HETATM   10  C14 UNL     1      -3.206   2.623   0.521  1.00  0.00     0.054 C 
HETATM   11  C15 UNL     1      -2.691   0.279   1.193  1.00  0.00     0.109 A 
ENDROOT
BRANCH   4  12
HETATM   12  N1  UNL     1       1.801  -0.706  -0.869  1.00  0.00    -0.342 N 
HETATM   13  H5  UNL     1       1.741  -1.659  -0.449  1.00  0.00     0.167 HD
BRANCH  12  14
HETATM   14  C6  UNL     1       3.050  -0.724  -1.547  1.00  0.00     0.039 A 
HETATM   15  C7  UNL     1       3.074  -0.497  -2.849  1.00  0.00     0.095 A 
HETATM   16 CL1  UNL     1       1.773  -0.155  -3.977  1.00  0.00    -0.079 Cl
HETATM   17  C8  UNL     1       4.477  -0.572  -3.305  1.00  0.00     0.136 A 
HETATM   18  F1  UNL     1       4.945  -0.398  -4.582  1.00  0.00    -0.205 F 
HETATM   19  C9  UNL     1       5.254  -0.841  -2.262  1.00  0.00     0.023 A 
HETATM   20  C10 UNL     1       4.426  -0.966  -1.033  1.00  0.00     0.089 A 
ENDBRANCH  12  14
ENDBRANCH   4  12
BRANCH   1  21
HETATM   21  O1  UNL     1      -2.266  -2.009   1.892  1.00  0.00    -0.353 OA
HETATM   22  C1  UNL     1      -1.332  -3.093   1.822  1.00  0.00     0.210 C 
ENDBRANCH   1  21
BRANCH  11  23
HETATM   23  O2  UNL     1      -3.889   0.185   1.889  1.00  0.00    -0.352 OA
HETATM   24  C16 UNL     1      -3.885   0.566   3.265  1.00  0.00     0.210 C 
ENDBRANCH  11  23
TORSDOF 4
