REMARK  7 active torsions:
REMARK  status: ('A' for Active; 'I' for Inactive)
REMARK    1  A    between atoms: O1_2  and  C2_3 
REMARK    2  A    between atoms: C2_3  and  C3_4 
REMARK    3  A    between atoms: C3_4  and  C4_6 
REMARK    4  A    between atoms: C4_6  and  N1_7 
REMARK    5  A    between atoms: N1_7  and  C5_8 
REMARK    6  A    between atoms: C7_12  and  N4_13 
REMARK    7  A    between atoms: N5_14  and  C8_15 
ROOT
HETATM    1  C5  UNL     1       1.470   0.090   0.007  1.00  0.00     0.169 A 
HETATM    2  N2  UNL     1       2.048  -0.972  -0.589  1.00  0.00    -0.221 NA
HETATM    3  C6  UNL     1       1.341  -2.064  -0.930  1.00  0.00     0.237 A 
HETATM    4  N3  UNL     1       0.020  -2.153  -0.693  1.00  0.00    -0.220 NA
HETATM    5  C7  UNL     1      -0.604  -1.114  -0.098  1.00  0.00     0.182 A 
HETATM    6  C14 UNL     1       0.115   0.028   0.262  1.00  0.00     0.036 A 
HETATM    7  C15 UNL     1      -0.605   1.170   0.924  1.00  0.00     0.056 C 
ENDROOT
BRANCH   5   8
HETATM    8  N4  UNL     1      -2.013  -1.108   0.200  1.00  0.00    -0.129 NA
HETATM    9  N5  UNL     1      -2.819  -0.388  -0.455  1.00  0.00    -0.148 NA
BRANCH   9  10
HETATM   10  C8  UNL     1      -4.203  -0.299  -0.261  1.00  0.00     0.080 A 
HETATM   11  C9  UNL     1      -4.632   0.180   0.975  1.00  0.00     0.033 A 
HETATM   12  C10 UNL     1      -5.977   0.311   1.277  1.00  0.00     0.004 A 
HETATM   13  C11 UNL     1      -6.947  -0.037   0.345  1.00  0.00     0.024 A 
HETATM   14  C12 UNL     1      -6.541  -0.510  -0.878  1.00  0.00     0.036 A 
HETATM   15 CL1  UNL     1      -7.685  -0.981  -2.136  1.00  0.00    -0.084 Cl
HETATM   16  C13 UNL     1      -5.192  -0.633  -1.160  1.00  0.00     0.057 A 
ENDBRANCH   9  10
ENDBRANCH   5   8
BRANCH   1  17
HETATM   17  N1  UNL     1       2.127   1.290   0.406  1.00  0.00    -0.183 NA
BRANCH  17  18
HETATM   18  C4  UNL     1       3.406   1.258   0.585  1.00  0.00     0.026 C 
BRANCH  18  19
HETATM   19  C3  UNL     1       4.693   0.940   0.570  1.00  0.00     0.181 C 
HETATM   20  F1  UNL     1       5.099   0.549   1.794  1.00  0.00    -0.198 F 
BRANCH  19  21
HETATM   21  C2  UNL     1       5.426   1.056  -0.716  1.00  0.00     0.247 C 
BRANCH  21  22
HETATM   22  O1  UNL     1       5.938  -0.137  -1.187  1.00  0.00    -0.389 OA
HETATM   23  C1  UNL     1       6.839  -0.690  -0.290  1.00  0.00     0.202 C 
ENDBRANCH  21  22
ENDBRANCH  19  21
ENDBRANCH  18  19
ENDBRANCH  17  18
ENDBRANCH   1  17
TORSDOF 7
