REMARK  3 active torsions:
REMARK  status: ('A' for Active; 'I' for Inactive)
REMARK    1  A    between atoms: C5_6  and  N1_7 
REMARK    2  A    between atoms: N1_7  and  C6_8 
REMARK    3  A    between atoms: C18_23  and  O2_24 
ROOT
HETATM    1  C1  UNL     1      -4.416  -0.109  -0.510  1.00  0.00     0.000 C 
HETATM    2  O1  UNL     1      -2.932   0.121  -0.264  1.00  0.00     0.000 OA
HETATM    3  C2  UNL     1      -2.527   1.097  -1.204  1.00  0.00     0.059 A 
HETATM    4  C3  UNL     1      -2.083   2.327  -1.492  1.00  0.00    -0.020 C 
HETATM    5  C4  UNL     1      -0.737   2.162  -1.438  1.00  0.00     0.032 C 
HETATM    6  C5  UNL     1      -0.462   0.828  -1.604  1.00  0.00     0.141 C 
HETATM    7  N3  UNL     1      -1.169  -0.035  -2.468  1.00  0.00    -0.224 NA
HETATM    8  C15 UNL     1      -1.732  -1.156  -2.356  1.00  0.00     0.234 C 
HETATM    9  N4  UNL     1      -1.901  -2.061  -1.247  1.00  0.00    -0.254 NA
HETATM   10  C16 UNL     1      -2.198  -1.529  -0.090  1.00  0.00     0.117 C 
HETATM   11  C17 UNL     1      -2.435  -0.152   0.424  1.00  0.00     0.035 C 
HETATM   12  C18 UNL     1      -2.609   1.202   0.226  1.00  0.00     0.129 A 
ENDROOT
BRANCH   6  13
HETATM   13  N1  UNL     1       0.671   0.402  -0.852  1.00  0.00    -0.338 N 
HETATM   14  H4  UNL     1       1.142   0.486  -1.803  1.00  0.00     0.167 HD
BRANCH  13  15
HETATM   15  C6  UNL     1       1.501   0.012   0.215  1.00  0.00     0.062 A 
HETATM   16  C7  UNL     1       0.942   0.137   1.458  1.00  0.00     0.146 A 
HETATM   17  N2  UNL     1       1.675  -0.235   2.532  1.00  0.00    -0.270 NA
HETATM   18  C8  UNL     1       2.911  -0.708   2.323  1.00  0.00     0.128 A 
HETATM   19  C9  UNL     1       3.455  -0.830   1.074  1.00  0.00    -0.006 A 
HETATM   20  C10 UNL     1       4.740  -1.332   0.895  1.00  0.00     0.014 A 
HETATM   21  C14 UNL     1       2.757  -0.467  -0.047  1.00  0.00     0.004 A 
HETATM   22  C11 UNL     1       5.316  -1.472  -0.357  1.00  0.00     0.001 A 
HETATM   23  C12 UNL     1       4.604  -1.107  -1.489  1.00  0.00     0.001 A 
HETATM   24  C13 UNL     1       3.335  -0.613  -1.280  1.00  0.00     0.014 A 
ENDBRANCH  13  15
ENDBRANCH   6  13
BRANCH  12  25
HETATM   25  O2  UNL     1      -2.782   2.166   1.186  1.00  0.00    -0.376 OA
HETATM   26  C19 UNL     1      -1.924   2.584   2.183  1.00  0.00     0.203 C 
ENDBRANCH  12  25
TORSDOF 3
