REMARK  8 active torsions:
REMARK  status: ('A' for Active; 'I' for Inactive)
REMARK    1  A    between atoms: C2_2  and  C3_4 
REMARK    2  A    between atoms: C4_6  and  C5_7 
REMARK    3  A    between atoms: C5_7  and  C6_8 
REMARK    4  A    between atoms: C6_8  and  N1_9 
REMARK    5  A    between atoms: N1_9  and  N2_10 
REMARK    6  A    between atoms: N2_10  and  C7_11 
REMARK    7  A    between atoms: C11_17  and  O1_18 
REMARK    8  A    between atoms: C13_20  and  O2_21 
ROOT
HETATM    1  C7  UNL     1      -0.121   1.155   0.494  1.00  0.00     0.185 A 
HETATM    2  N3  UNL     1      -1.106   0.640   1.268  1.00  0.00    -0.220 NA
HETATM    3  C8  UNL     1      -0.799  -0.424   2.071  1.00  0.00     0.236 A 
HETATM    4  N4  UNL     1       0.447  -0.978   2.120  1.00  0.00    -0.241 NA
HETATM    5  C9  UNL     1       1.433  -0.467   1.350  1.00  0.00     0.075 A 
HETATM    6  C10 UNL     1       2.692  -1.020   1.391  1.00  0.00     0.072 A 
HETATM    7  C11 UNL     1       3.681  -0.474   0.588  1.00  0.00     0.103 A 
HETATM    8  C13 UNL     1       3.450   0.612  -0.259  1.00  0.00     0.102 A 
HETATM    9  C15 UNL     1       2.164   1.134  -0.265  1.00  0.00     0.057 A 
HETATM   10  C16 UNL     1       1.158   0.606   0.528  1.00  0.00     0.045 A 
ENDROOT
BRANCH   1  11
HETATM   11  N2  UNL     1      -0.369   2.271  -0.387  1.00  0.00    -0.130 NA
BRANCH  11  12
HETATM   12  N1  UNL     1      -1.108   1.984  -1.421  1.00  0.00    -0.161 NA
BRANCH  12  13
HETATM   13  C6  UNL     1      -1.549   0.608  -1.507  1.00  0.00     0.141 C 
BRANCH  13  14
HETATM   14  C5  UNL     1      -2.712   0.016  -1.368  1.00  0.00     0.024 C 
BRANCH  14  15
HETATM   15  C4  UNL     1      -3.839  -0.896  -1.275  1.00  0.00     0.045 C 
HETATM   16  C3  UNL     1      -5.122  -0.998  -1.052  1.00  0.00     0.134 C 
HETATM   17  F1  UNL     1      -5.371  -2.345  -1.173  1.00  0.00    -0.205 F 
BRANCH  16  18
HETATM   18  C2  UNL     1      -6.111   0.019  -0.743  1.00  0.00     0.050 C 
HETATM   19  C1  UNL     1      -7.303  -0.521  -0.587  1.00  0.00     0.060 C 
HETATM   20 CL1  UNL     1      -5.628   1.693  -0.611  1.00  0.00    -0.086 Cl
ENDBRANCH  16  18
ENDBRANCH  14  15
ENDBRANCH  13  14
ENDBRANCH  12  13
ENDBRANCH  11  12
ENDBRANCH   1  11
BRANCH   8  21
HETATM   21  O2  UNL     1       4.448   1.150  -1.059  1.00  0.00    -0.353 OA
HETATM   22  C14 UNL     1       4.107   2.249  -1.883  1.00  0.00     0.210 C 
ENDBRANCH   8  21
BRANCH   7  23
HETATM   23  O1  UNL     1       4.963  -1.001   0.597  1.00  0.00    -0.353 OA
HETATM   24  C12 UNL     1       5.305  -2.105   1.410  1.00  0.00     0.210 C 
ENDBRANCH   7  23
TORSDOF 8
