REMARK  8 active torsions:
REMARK  status: ('A' for Active; 'I' for Inactive)
REMARK    1  A    between atoms: O1_2  and  C2_3 
REMARK    2  A    between atoms: C2_3  and  C3_4 
REMARK    3  A    between atoms: C4_5  and  C5_6 
REMARK    4  A    between atoms: C8_11  and  C9_12 
REMARK    5  A    between atoms: C10_13  and  N3_14 
REMARK    6  A    between atoms: C11_15  and  C12_16 
REMARK    7  A    between atoms: C13_17  and  C14_18 
REMARK    8  A    between atoms: C17_21  and  O2_22 
ROOT
HETATM    1  C9  UNL     1      -1.218   0.000  -1.821  1.00  0.00     0.034 C 
HETATM    2  C10 UNL     1      -0.066  -0.406  -2.315  1.00  0.00     0.117 C 
ENDROOT
BRANCH   1   3
HETATM    3  C8  UNL     1      -1.993  -0.765  -0.860  1.00  0.00     0.012 A 
HETATM    4  C5  UNL     1      -3.193  -0.350  -0.330  1.00  0.00     0.069 A 
HETATM    5  N1  UNL     1      -3.825  -1.139   0.543  1.00  0.00    -0.241 NA
HETATM    6  C6  UNL     1      -3.391  -2.335   0.967  1.00  0.00     0.233 A 
HETATM    7  N2  UNL     1      -2.210  -2.751   0.450  1.00  0.00    -0.253 NA
HETATM    8  C7  UNL     1      -1.531  -1.988  -0.437  1.00  0.00     0.131 A 
BRANCH   4   9
HETATM    9  C4  UNL     1      -3.712   0.937  -0.752  1.00  0.00     0.030 C 
HETATM   10  C3  UNL     1      -4.855   1.452  -0.315  1.00  0.00     0.001 C 
BRANCH  10  11
HETATM   11  C2  UNL     1      -5.924   1.054   0.612  1.00  0.00     0.194 C 
BRANCH  11  12
HETATM   12  O1  UNL     1      -6.106   1.923   1.668  1.00  0.00    -0.392 OA
HETATM   13  C1  UNL     1      -6.443   3.207   1.335  1.00  0.00     0.201 C 
ENDBRANCH  11  12
ENDBRANCH  10  11
ENDBRANCH   4   9
ENDBRANCH   1   3
BRANCH   2  14
HETATM   14  N3  UNL     1       0.840  -1.485  -2.245  1.00  0.00    -0.273 NA
HETATM   15  C11 UNL     1       1.927  -1.378  -1.558  1.00  0.00     0.116 C 
BRANCH  15  16
HETATM   16  C12 UNL     1       2.482  -0.288  -0.764  1.00  0.00     0.019 C 
HETATM   17  C13 UNL     1       3.631  -0.330  -0.106  1.00  0.00     0.002 C 
BRANCH  17  18
HETATM   18  C14 UNL     1       4.481  -1.504  -0.109  1.00  0.00     0.014 C 
HETATM   19  C15 UNL     1       5.614  -1.390   0.603  1.00  0.00    -0.000 A 
HETATM   20  C16 UNL     1       6.750  -2.298   0.881  1.00  0.00     0.051 A 
HETATM   21  C17 UNL     1       6.779  -1.051   1.426  1.00  0.00     0.079 A 
BRANCH  21  22
HETATM   22  O2  UNL     1       6.930   0.196   2.041  1.00  0.00    -0.355 OA
HETATM   23  C18 UNL     1       7.800   1.200   1.569  1.00  0.00     0.210 C 
ENDBRANCH  21  22
ENDBRANCH  17  18
ENDBRANCH  15  16
ENDBRANCH   2  14
TORSDOF 8
