REMARK  4 active torsions:
REMARK  status: ('A' for Active; 'I' for Inactive)
REMARK    1  A    between atoms: O1_2  and  C2_3 
REMARK    2  A    between atoms: C6_9  and  C7_10 
REMARK    3  A    between atoms: C7_10  and  N3_11 
REMARK    4  A    between atoms: N3_11  and  C8_12 
ROOT
HETATM    1  C7  UNL     1       0.119  -1.103   1.007  1.00  0.00     0.121 C 
ENDROOT
BRANCH   1   2
HETATM    2  C6  UNL     1      -0.635  -1.194  -0.075  1.00  0.00     0.086 A 
HETATM    3  N2  UNL     1      -0.182  -1.814  -1.173  1.00  0.00    -0.240 NA
HETATM    4  C5  UNL     1      -0.887  -1.943  -2.307  1.00  0.00     0.234 A 
HETATM    5  N1  UNL     1      -2.118  -1.403  -2.303  1.00  0.00    -0.241 NA
HETATM    6  C4  UNL     1      -2.642  -0.763  -1.235  1.00  0.00     0.074 A 
HETATM    7  C3  UNL     1      -3.995  -0.201  -1.324  1.00  0.00     0.069 A 
HETATM    8  C17 UNL     1      -1.895  -0.637  -0.059  1.00  0.00     0.034 A 
HETATM    9  C2  UNL     1      -4.417   0.409  -0.226  1.00  0.00     0.071 A 
HETATM   10  C19 UNL     1      -3.562   0.489   0.953  1.00  0.00     0.050 A 
HETATM   11  C18 UNL     1      -2.369  -0.028   0.989  1.00  0.00    -0.007 A 
BRANCH   9  12
HETATM   12  O1  UNL     1      -5.698   0.920  -0.364  1.00  0.00    -0.356 OA
HETATM   13  C1  UNL     1      -6.208   1.695   0.703  1.00  0.00     0.210 C 
ENDBRANCH   9  12
ENDBRANCH   1   2
BRANCH   1  14
HETATM   14  N3  UNL     1       1.424  -1.590   1.208  1.00  0.00    -0.362 N 
HETATM   15  H7  UNL     1       1.718  -2.174   2.044  1.00  0.00     0.165 HD
BRANCH  14  16
HETATM   16  C8  UNL     1       2.426  -1.311   0.274  1.00  0.00     0.060 A 
HETATM   17  C9  UNL     1       2.840  -2.086  -0.802  1.00  0.00     0.146 A 
HETATM   18  N4  UNL     1       3.813  -1.703  -1.638  1.00  0.00    -0.270 NA
HETATM   19  C10 UNL     1       4.474  -0.533  -1.505  1.00  0.00     0.128 A 
HETATM   20  C11 UNL     1       4.091   0.267  -0.445  1.00  0.00    -0.006 A 
HETATM   21  C12 UNL     1       4.797   1.464  -0.345  1.00  0.00     0.014 A 
HETATM   22  C16 UNL     1       3.088  -0.093   0.443  1.00  0.00     0.004 A 
HETATM   23  C13 UNL     1       4.472   2.321   0.690  1.00  0.00     0.001 A 
HETATM   24  C14 UNL     1       3.479   1.993   1.590  1.00  0.00     0.001 A 
HETATM   25  C15 UNL     1       2.813   0.811   1.456  1.00  0.00     0.014 A 
ENDBRANCH  14  16
ENDBRANCH   1  14
TORSDOF 4
