REMARK  0 active torsions:
REMARK  status: ('A' for Active; 'I' for Inactive)
ROOT
HETATM    1  C1  UNL     1       2.396  -2.060  -0.060  1.00  0.00     0.043 C 
HETATM    2  C2  UNL     1       1.657  -1.148   0.599  1.00  0.00     0.031 C 
HETATM    3  N1  UNL     1       0.677  -2.021   1.138  1.00  0.00    -0.369 N 
HETATM    4  C3  UNL     1      -0.669  -2.082   0.543  1.00  0.00     0.292 C 
HETATM    5  O1  UNL     1      -1.209  -0.847   0.744  1.00  0.00    -0.351 OA
HETATM    6  C4  UNL     1      -2.472  -0.635   0.196  1.00  0.00     0.148 A 
HETATM    7  C5  UNL     1      -3.497  -0.307   1.173  1.00  0.00     0.133 A 
HETATM    8  N2  UNL     1      -4.216   0.763   1.237  1.00  0.00    -0.255 NA
HETATM    9  C6  UNL     1      -3.954   1.722   0.211  1.00  0.00     0.229 A 
HETATM   10  N3  UNL     1      -3.074   1.526  -0.701  1.00  0.00    -0.245 NA
HETATM   11  C7  UNL     1      -2.241   0.409  -0.877  1.00  0.00     0.186 A 
HETATM   12  C8  UNL     1      -2.796  -0.953  -1.183  1.00  0.00     0.110 A 
HETATM   13  N4  UNL     1      -0.813   0.521  -1.166  1.00  0.00    -0.263 NA
HETATM   14  C9  UNL     1      -0.004   0.977  -0.239  1.00  0.00     0.126 C 
HETATM   15  C10 UNL     1       1.374   1.300   0.090  1.00  0.00    -0.006 A 
HETATM   16  C11 UNL     1       1.930   2.558   0.026  1.00  0.00     0.014 A 
HETATM   17  C12 UNL     1       3.262   2.698   0.353  1.00  0.00     0.001 A 
HETATM   18  C13 UNL     1       4.002   1.605   0.731  1.00  0.00     0.001 A 
HETATM   19  C14 UNL     1       3.488   0.325   0.811  1.00  0.00     0.014 A 
HETATM   20  C15 UNL     1       2.153   0.217   0.478  1.00  0.00     0.001 A 
HETATM   21  H3  UNL     1       0.936  -2.613   1.960  1.00  0.00     0.161 HD
ENDROOT
TORSDOF 0
