REMARK  4 active torsions:
REMARK  status: ('A' for Active; 'I' for Inactive)
REMARK    1  A    between atoms: C2_2  and  O1_3 
REMARK    2  A    between atoms: O1_3  and  C3_4 
REMARK    3  A    between atoms: C5_6  and  O2_7 
REMARK    4  A    between atoms: C15_20  and  C16_21 
ROOT
HETATM    1  C3  UNL     1       0.063   0.479   1.290  1.00  0.00     0.079 C 
HETATM    2  C4  UNL     1      -1.152   0.993   1.174  1.00  0.00     0.071 C 
HETATM    3  C5  UNL     1      -2.232   0.766   0.246  1.00  0.00     0.069 C 
HETATM    4  C7  UNL     1      -2.436  -0.124  -0.713  1.00  0.00     0.039 C 
HETATM    5  C8  UNL     1      -1.929  -1.258  -1.423  1.00  0.00     0.137 C 
HETATM    6  C9  UNL     1      -1.689  -1.093  -2.881  1.00  0.00     0.036 C 
HETATM    7  C10 UNL     1      -1.137  -2.145  -3.463  1.00  0.00     0.079 C 
HETATM    8  N1  UNL     1      -0.942  -3.248  -2.837  1.00  0.00    -0.268 NA
HETATM    9  C11 UNL     1      -0.448  -3.253  -1.445  1.00  0.00     0.275 C 
HETATM   10  N2  UNL     1      -0.763  -1.930  -0.912  1.00  0.00    -0.352 N 
HETATM   11  C12 UNL     1       0.254  -1.659   0.038  1.00  0.00     0.051 A 
HETATM   12  C13 UNL     1       0.771  -2.790   0.560  1.00  0.00     0.142 A 
HETATM   13  N3  UNL     1       1.787  -2.468   1.508  1.00  0.00    -0.273 NA
HETATM   14  C14 UNL     1       1.878  -1.165   1.556  1.00  0.00     0.116 A 
HETATM   15  C15 UNL     1       0.900  -0.504   0.615  1.00  0.00     0.104 A 
ENDROOT
BRANCH   1  16
HETATM   16  O1  UNL     1       0.727   1.051   2.382  1.00  0.00    -0.326 OA
BRANCH  16  17
HETATM   17  C2  UNL     1       1.260   2.333   2.184  1.00  0.00     0.132 C 
HETATM   18  C1  UNL     1       1.227   3.175   1.141  1.00  0.00     0.037 C 
ENDBRANCH  16  17
ENDBRANCH   1  16
BRANCH  15  19
HETATM   19  C16 UNL     1       1.781   0.244  -0.329  1.00  0.00    -0.003 C 
HETATM   20  C17 UNL     1       3.074   0.565  -0.146  1.00  0.00    -0.033 C 
HETATM   21  C18 UNL     1       4.015   1.312  -1.050  1.00  0.00     0.036 C 
ENDBRANCH  15  19
BRANCH   3  22
HETATM   22  O2  UNL     1      -3.260   1.710   0.435  1.00  0.00    -0.356 OA
HETATM   23  C6  UNL     1      -4.124   1.648   1.547  1.00  0.00     0.210 C 
ENDBRANCH   3  22
TORSDOF 4
