REMARK  4 active torsions:
REMARK  status: ('A' for Active; 'I' for Inactive)
REMARK    1  A    between atoms: O1_2  and  N1_3 
REMARK    2  A    between atoms: N1_3  and  C2_4 
REMARK    3  A    between atoms: C2_4  and  C3_5 
REMARK    4  A    between atoms: C4_6  and  C5_7 
ROOT
HETATM    1  C5  UNL     1       0.362  -0.167   0.425  1.00  0.00     0.057 C 
HETATM    2  C6  UNL     1      -0.389  -1.012   1.578  1.00  0.00     0.012 C 
HETATM    3  C7  UNL     1      -1.693  -1.336   1.987  1.00  0.00     0.023 C 
HETATM    4  C8  UNL     1      -3.123  -1.052   1.543  1.00  0.00    -0.004 C 
HETATM    5  C9  UNL     1      -4.218  -0.588   0.860  1.00  0.00     0.084 C 
HETATM    6  N2  UNL     1      -4.187   0.273  -0.338  1.00  0.00    -0.367 N 
HETATM    7  C10 UNL     1      -2.779   0.640  -0.601  1.00  0.00     0.042 A 
HETATM    8  C11 UNL     1      -2.812   1.533   0.403  1.00  0.00     0.287 A 
HETATM    9  N3  UNL     1      -1.480   1.213   0.499  1.00  0.00    -0.301 NA
HETATM   10  C12 UNL     1      -0.880   0.326  -0.302  1.00  0.00    -0.002 A 
HETATM   11  C13 UNL     1      -1.047  -0.546  -1.366  1.00  0.00    -0.007 A 
HETATM   12  C14 UNL     1      -0.384  -1.429  -2.165  1.00  0.00     0.014 A 
HETATM   13  C15 UNL     1      -1.188  -2.012  -3.120  1.00  0.00     0.001 A 
HETATM   14  C16 UNL     1      -2.530  -1.751  -3.281  1.00  0.00     0.001 A 
HETATM   15  C17 UNL     1      -3.272  -0.875  -2.517  1.00  0.00     0.014 A 
HETATM   16  C18 UNL     1      -2.466  -0.299  -1.569  1.00  0.00    -0.000 A 
HETATM   17  H14 UNL     1      -4.844   0.605  -0.981  1.00  0.00     0.165 HD
ENDROOT
BRANCH   1  18
HETATM   18  C4  UNL     1       0.945   0.950   1.154  1.00  0.00    -0.019 C 
HETATM   19  C3  UNL     1       2.239   1.117   1.406  1.00  0.00    -0.014 C 
BRANCH  19  20
HETATM   20  C2  UNL     1       3.371   0.239   1.021  1.00  0.00     0.144 C 
BRANCH  20  21
HETATM   21  N1  UNL     1       4.259   1.036   0.192  1.00  0.00    -0.203 NA
HETATM   22  H4  UNL     1       5.078   0.393  -0.022  1.00  0.00     0.154 HD
BRANCH  21  23
HETATM   23  O1  UNL     1       4.678   2.091   0.923  1.00  0.00    -0.311 OA
HETATM   24  C1  UNL     1       6.061   2.120   1.058  1.00  0.00     0.229 C 
ENDBRANCH  21  23
ENDBRANCH  20  21
ENDBRANCH  19  20
ENDBRANCH   1  18
TORSDOF 4
