REMARK  5 active torsions:
REMARK  status: ('A' for Active; 'I' for Inactive)
REMARK    1  A    between atoms: C3_4  and  C4_5 
REMARK    2  A    between atoms: C6_7  and  N1_8 
REMARK    3  A    between atoms: N1_8  and  C7_9 
REMARK    4  A    between atoms: C10_12  and  O1_13 
REMARK    5  A    between atoms: O1_13  and  C11_14 
ROOT
HETATM    1  B1  UNL     1       3.404   4.857  -0.215  1.00  0.00     0.195 B 
HETATM    2  C1  UNL     1       3.738   3.270  -0.917  1.00  0.00    -0.236 C 
HETATM    3  C2  UNL     1       4.025   1.964  -1.479  1.00  0.00     0.030 C 
HETATM    4  C3  UNL     1       3.743   0.843  -0.846  1.00  0.00    -0.013 C 
ENDROOT
BRANCH   4   5
HETATM    5  C4  UNL     1       4.021  -0.504  -1.384  1.00  0.00     0.033 A 
HETATM    6  C5  UNL     1       3.990  -1.686  -0.461  1.00  0.00     0.036 A 
HETATM    7  C6  UNL     1       2.971  -1.509  -1.628  1.00  0.00     0.087 A 
BRANCH   7   8
HETATM    8  N1  UNL     1       1.639  -1.479  -1.162  1.00  0.00    -0.394 N 
HETATM    9  H7  UNL     1       1.553  -0.621  -1.817  1.00  0.00     0.155 HD
BRANCH   8  10
HETATM   10  C7  UNL     1       0.272  -1.446  -0.685  1.00  0.00     0.108 C 
HETATM   11  C8  UNL     1       0.062  -0.323   0.056  1.00  0.00     0.169 C 
HETATM   12  C9  UNL     1      -1.102   0.163   0.721  1.00  0.00     0.024 C 
HETATM   13  C10 UNL     1      -2.322   0.322   1.204  1.00  0.00     0.111 C 
HETATM   14  C13 UNL     1      -3.492  -0.559   1.023  1.00  0.00     0.187 C 
HETATM   15  O2  UNL     1      -4.555  -0.195   1.638  1.00  0.00    -0.290 OA
HETATM   16  C14 UNL     1      -3.653  -1.794   0.246  1.00  0.00     0.145 C 
HETATM   17  C15 UNL     1      -2.692  -2.854   0.611  1.00  0.00     0.164 C 
HETATM   18  N2  UNL     1      -1.874  -3.076  -0.210  1.00  0.00    -0.416 NA
HETATM   19  C16 UNL     1      -0.929  -3.391  -1.063  1.00  0.00     0.294 C 
HETATM   20  N3  UNL     1       0.153  -2.726  -1.400  1.00  0.00    -0.245 NA
BRANCH  13  21
HETATM   21  O1  UNL     1      -2.564   1.470   1.988  1.00  0.00    -0.348 OA
BRANCH  21  22
HETATM   22  C11 UNL     1      -2.322   2.730   1.419  1.00  0.00     0.171 C 
HETATM   23  C12 UNL     1      -2.717   3.851   2.361  1.00  0.00     0.034 C 
ENDBRANCH  21  22
ENDBRANCH  13  21
ENDBRANCH   8  10
ENDBRANCH   7   8
ENDBRANCH   4   5
TORSDOF 5
