REMARK  4 active torsions:
REMARK  status: ('A' for Active; 'I' for Inactive)
REMARK    1  A    between atoms: C2_2  and  C3_3 
REMARK    2  A    between atoms: C5_6  and  N2_7 
REMARK    3  A    between atoms: N2_7  and  C6_8 
REMARK    4  A    between atoms: C13_15  and  N3_16 
ROOT
HETATM    1  C3  UNL     1      -3.679   0.422  -0.029  1.00  0.00     0.216 C 
HETATM    2  N1  UNL     1      -2.562   0.695  -0.807  1.00  0.00    -0.392 N 
HETATM    3  C4  UNL     1      -1.243   0.730  -0.361  1.00  0.00     0.173 C 
HETATM    4  C5  UNL     1      -0.641  -0.548   0.051  1.00  0.00     0.019 C 
HETATM    5  C14 UNL     1      -0.286  -1.820   0.362  1.00  0.00     0.003 C 
HETATM    6  C15 UNL     1      -1.404  -2.788   0.027  1.00  0.00     0.056 C 
HETATM    7  C16 UNL     1      -2.234  -2.174  -1.014  1.00  0.00    -0.025 C 
HETATM    8  C17 UNL     1      -3.376  -1.683  -1.366  1.00  0.00    -0.005 C 
HETATM    9  C18 UNL     1      -4.720  -1.449  -0.724  1.00  0.00     0.197 C 
HETATM   10  O1  UNL     1      -4.836  -0.000  -0.804  1.00  0.00    -0.363 OA
HETATM   11  H7  UNL     1      -2.766   1.030  -1.770  1.00  0.00     0.156 HD
ENDROOT
BRANCH   4  12
HETATM   12  N2  UNL     1       0.666  -0.047   0.497  1.00  0.00    -0.387 N 
HETATM   13  H10 UNL     1       1.180   0.040   1.426  1.00  0.00     0.159 HD
BRANCH  12  14
HETATM   14  C6  UNL     1       1.624   0.507  -0.442  1.00  0.00     0.093 A 
HETATM   15  C7  UNL     1       2.093  -0.414  -1.554  1.00  0.00     0.040 A 
HETATM   16  C8  UNL     1       3.029   0.033  -0.491  1.00  0.00     0.016 A 
HETATM   17  C9  UNL     1       3.558  -0.978   0.501  1.00  0.00     0.040 C 
HETATM   18  C13 UNL     1       4.151   0.993  -0.813  1.00  0.00     0.232 C 
HETATM   19  C10 UNL     1       3.771  -0.264   1.794  1.00  0.00    -0.030 C 
HETATM   20  C11 UNL     1       4.275   0.962   1.686  1.00  0.00    -0.028 C 
HETATM   21  C12 UNL     1       4.635   1.666   0.429  1.00  0.00     0.063 C 
BRANCH  18  22
HETATM   22  N3  UNL     1       3.785   1.940  -1.849  1.00  0.00     0.084 N 
HETATM   23  H21 UNL     1       2.978   2.549  -1.592  1.00  0.00     0.313 HD
HETATM   24  H22 UNL     1       3.686   1.474  -2.765  1.00  0.00     0.313 HD
ENDBRANCH  18  22
ENDBRANCH  12  14
ENDBRANCH   4  12
BRANCH   1  25
HETATM   25  C2  UNL     1      -4.066   1.306   1.057  1.00  0.00     0.049 C 
HETATM   26  C1  UNL     1      -3.030   1.413   2.142  1.00  0.00     0.009 C 
ENDBRANCH   1  25
TORSDOF 4
