REMARK  3 active torsions:
REMARK  status: ('A' for Active; 'I' for Inactive)
REMARK    1  A    between atoms: O1_2  and  C2_3 
REMARK    2  A    between atoms: C3_4  and  O2_5 
REMARK    3  A    between atoms: O2_5  and  C4_6 
ROOT
HETATM    1  C2  UNL     1       1.984  -0.893   0.222  1.00  0.00     0.110 A 
HETATM    2  C3  UNL     1       1.797   0.481   0.020  1.00  0.00     0.114 A 
HETATM    3  C6  UNL     1       0.742   0.887  -0.755  1.00  0.00     0.058 A 
HETATM    4  C7  UNL     1      -0.017  -0.058  -1.257  1.00  0.00     0.042 A 
HETATM    5  C8  UNL     1      -1.162  -0.046  -1.918  1.00  0.00     0.138 A 
HETATM    6  N1  UNL     1      -2.163  -0.684  -2.499  1.00  0.00    -0.224 NA
HETATM    7  C9  UNL     1      -2.001  -2.061  -2.396  1.00  0.00     0.236 A 
HETATM    8  N2  UNL     1      -0.876  -2.321  -1.717  1.00  0.00    -0.240 NA
HETATM    9  C10 UNL     1      -0.059  -1.419  -1.240  1.00  0.00     0.081 A 
HETATM   10  C11 UNL     1       1.023  -1.597  -0.438  1.00  0.00     0.008 A 
HETATM   11  C12 UNL     1       0.928  -2.983   0.185  1.00  0.00     0.049 C 
HETATM   12  C13 UNL     1      -0.531  -2.938   0.721  1.00  0.00     0.003 C 
HETATM   13  C14 UNL     1      -1.809  -2.470   0.983  1.00  0.00     0.021 C 
HETATM   14  C15 UNL     1      -2.680  -1.269   0.739  1.00  0.00    -0.015 C 
HETATM   15  C16 UNL     1      -2.940  -0.013   0.252  1.00  0.00    -0.049 A 
HETATM   16  C17 UNL     1      -3.764   1.179  -0.017  1.00  0.00     0.045 A 
HETATM   17  C18 UNL     1      -4.350   1.966   1.105  1.00  0.00     0.017 C 
HETATM   18  C19 UNL     1      -2.308   1.199  -0.215  1.00  0.00     0.059 A 
HETATM   19  C20 UNL     1      -1.521   1.975   0.836  1.00  0.00     0.044 C 
HETATM   20  N3  UNL     1      -1.804   1.249  -1.561  1.00  0.00    -0.361 N 
HETATM   21  H21 UNL     1      -1.694   1.819  -2.419  1.00  0.00     0.162 HD
ENDROOT
BRANCH   2  22
HETATM   22  O2  UNL     1       2.627   1.437   0.567  1.00  0.00    -0.276 OA
BRANCH  22  23
HETATM   23  C4  UNL     1       3.765   1.942  -0.042  1.00  0.00     0.260 C 
HETATM   24  C5  UNL     1       4.522   2.968   0.717  1.00  0.00     0.126 C 
HETATM   25  O3  UNL     1       4.276   1.673  -1.152  1.00  0.00    -0.265 OA
ENDBRANCH  22  23
ENDBRANCH   2  22
BRANCH   1  26
HETATM   26  O1  UNL     1       3.013  -1.364   0.988  1.00  0.00    -0.352 OA
HETATM   27  C1  UNL     1       4.252  -1.639   0.319  1.00  0.00     0.210 C 
ENDBRANCH   1  26
TORSDOF 3
