REMARK  8 active torsions:
REMARK  status: ('A' for Active; 'I' for Inactive)
REMARK    1  A    between atoms: C2_2  and  O2_4 
REMARK    2  A    between atoms: O2_4  and  C3_5 
REMARK    3  A    between atoms: C3_5  and  C4_6 
REMARK    4  A    between atoms: C8_12  and  N3_13 
REMARK    5  A    between atoms: N3_13  and  C9_14 
REMARK    6  A    between atoms: C11_16  and  C12_17 
REMARK    7  A    between atoms: C18_23  and  C19_24 
REMARK    8  A    between atoms: C19_24  and  O3_25 
ROOT
HETATM    1  C4  UNL     1      -3.229  -0.266  -0.178  1.00  0.00    -0.032 C 
HETATM    2  C5  UNL     1      -3.788  -0.087  -1.528  1.00  0.00     0.048 C 
HETATM    3  C6  UNL     1      -2.075  -0.680   0.275  1.00  0.00     0.049 A 
HETATM    4  N1  UNL     1      -1.891  -0.677   1.679  1.00  0.00    -0.350 N 
HETATM    5  C7  UNL     1      -0.682  -1.105   2.286  1.00  0.00     0.209 A 
HETATM    6  N2  UNL     1       0.319  -1.524   1.550  1.00  0.00    -0.226 NA
HETATM    7  C8  UNL     1       0.193  -1.551   0.143  1.00  0.00     0.135 A 
HETATM    8  C18 UNL     1      -0.933  -1.156  -0.479  1.00  0.00     0.038 A 
HETATM    9  H9  UNL     1      -2.485  -0.407   2.485  1.00  0.00     0.166 HD
ENDROOT
BRANCH   7  10
HETATM   10  N3  UNL     1       1.318  -2.019  -0.629  1.00  0.00    -0.369 N 
HETATM   11  H11 UNL     1       1.398  -2.998  -1.029  1.00  0.00     0.161 HD
BRANCH  10  12
HETATM   12  C9  UNL     1       2.358  -1.025  -0.823  1.00  0.00     0.092 A 
HETATM   13  C10 UNL     1       3.537  -1.509  -1.630  1.00  0.00     0.037 A 
HETATM   14  C11 UNL     1       3.610  -1.301  -0.103  1.00  0.00     0.043 A 
BRANCH  14  15
HETATM   15  C12 UNL     1       4.549  -0.245   0.292  1.00  0.00    -0.052 A 
HETATM   16  C13 UNL     1       5.440  -0.437   1.332  1.00  0.00     0.007 A 
HETATM   17  C14 UNL     1       6.328   0.567   1.702  1.00  0.00     0.001 A 
HETATM   18  C15 UNL     1       6.311   1.768   1.015  1.00  0.00     0.000 A 
HETATM   19  C16 UNL     1       5.428   1.970  -0.023  1.00  0.00     0.001 A 
HETATM   20  C17 UNL     1       4.563   0.966  -0.368  1.00  0.00     0.007 A 
ENDBRANCH  14  15
ENDBRANCH  10  12
ENDBRANCH   7  10
BRANCH   8  21
HETATM   21  C19 UNL     1      -0.960  -1.246  -1.932  1.00  0.00     0.209 C 
BRANCH  21  22
HETATM   22  O3  UNL     1      -1.986  -2.097  -2.398  1.00  0.00    -0.396 OA
HETATM   23  H23 UNL     1      -1.844  -2.951  -1.920  1.00  0.00     0.209 HD
ENDBRANCH  21  22
ENDBRANCH   8  21
BRANCH   1  24
HETATM   24  C3  UNL     1      -4.322   0.190   0.711  1.00  0.00     0.215 C 
BRANCH  24  25
HETATM   25  O2  UNL     1      -4.638   1.564   0.390  1.00  0.00    -0.317 OA
BRANCH  25  26
HETATM   26  C2  UNL     1      -5.632   2.232   1.080  1.00  0.00     0.255 C 
HETATM   27  C1  UNL     1      -5.984   3.639   0.779  1.00  0.00     0.126 C 
HETATM   28  O1  UNL     1      -6.249   1.604   1.995  1.00  0.00    -0.266 OA
ENDBRANCH  25  26
ENDBRANCH  24  25
ENDBRANCH   1  24
TORSDOF 8
