REMARK  6 active torsions:
REMARK  status: ('A' for Active; 'I' for Inactive)
REMARK    1  A    between atoms: O1_2  and  C2_3 
REMARK    2  A    between atoms: C6_7  and  N1_8 
REMARK    3  A    between atoms: N1_8  and  C7_9 
REMARK    4  A    between atoms: C14_16  and  N2_17 
REMARK    5  A    between atoms: C17_21  and  O2_22 
REMARK    6  A    between atoms: O2_22  and  C18_23 
ROOT
HETATM    1  C2  UNL     1      -3.272  -1.043  -0.086  1.00  0.00     0.124 C 
HETATM    2  C3  UNL     1      -2.130  -1.637  -0.429  1.00  0.00     0.046 C 
HETATM    3  C4  UNL     1      -1.398  -0.931  -1.647  1.00  0.00     0.100 C 
HETATM    4  C5  UNL     1      -0.816  -0.133  -0.431  1.00  0.00    -0.026 C 
HETATM    5  C6  UNL     1       0.253  -0.719   0.070  1.00  0.00     0.030 C 
HETATM    6  C15 UNL     1       0.238  -2.257  -0.028  1.00  0.00     0.176 C 
HETATM    7  N3  UNL     1      -1.223  -2.623   0.079  1.00  0.00    -0.385 N 
HETATM    8  C16 UNL     1      -1.747   0.923  -0.033  1.00  0.00     0.050 C 
HETATM    9  C17 UNL     1      -3.040   0.453   0.132  1.00  0.00     0.115 C 
HETATM   10  H19 UNL     1      -1.952  -3.350   0.415  1.00  0.00     0.159 HD
ENDROOT
BRANCH   5  11
HETATM   11  N1  UNL     1       0.969   0.455   0.551  1.00  0.00    -0.386 N 
HETATM   12  H6  UNL     1       0.659   0.903   1.417  1.00  0.00     0.160 HD
BRANCH  11  13
HETATM   13  C7  UNL     1       2.106   0.898  -0.272  1.00  0.00     0.097 A 
HETATM   14  C8  UNL     1       2.844   2.108   0.235  1.00  0.00     0.044 A 
HETATM   15  C9  UNL     1       3.497   0.750   0.211  1.00  0.00     0.034 A 
HETATM   16  C10 UNL     1       3.812   0.139   1.505  1.00  0.00    -0.013 A 
HETATM   17  C14 UNL     1       4.579   0.539  -0.822  1.00  0.00     0.255 A 
HETATM   18  C11 UNL     1       4.892  -0.545   1.848  1.00  0.00    -0.003 A 
HETATM   19  C12 UNL     1       5.958  -0.770   0.879  1.00  0.00    -0.002 A 
HETATM   20  C13 UNL     1       5.720  -0.241  -0.295  1.00  0.00     0.009 A 
BRANCH  17  21
HETATM   21  N2  UNL     1       4.008  -0.124  -1.982  1.00  0.00     0.087 N 
HETATM   22  H15 UNL     1       3.577   0.553  -2.655  1.00  0.00     0.313 HD
HETATM   23  H16 UNL     1       4.790  -0.595  -2.498  1.00  0.00     0.313 HD
ENDBRANCH  17  21
ENDBRANCH  11  13
ENDBRANCH   5  11
BRANCH   9  24
HETATM   24  O2  UNL     1      -4.146   1.158   0.469  1.00  0.00    -0.276 OA
BRANCH  24  25
HETATM   25  C18 UNL     1      -4.727   2.208  -0.188  1.00  0.00     0.260 C 
HETATM   26  C19 UNL     1      -5.964   2.865   0.351  1.00  0.00     0.126 C 
HETATM   27  O3  UNL     1      -3.954   2.319  -1.164  1.00  0.00    -0.265 OA
ENDBRANCH  24  25
ENDBRANCH   9  24
BRANCH   1  28
HETATM   28  O1  UNL     1      -4.177  -2.039  -0.064  1.00  0.00    -0.351 OA
HETATM   29  C1  UNL     1      -5.289  -2.160   0.790  1.00  0.00     0.210 C 
ENDBRANCH   1  28
TORSDOF 6
