REMARK  7 active torsions:
REMARK  status: ('A' for Active; 'I' for Inactive)
REMARK    1  A    between atoms: O1_2  and  C2_3 
REMARK    2  A    between atoms: C4_5  and  N1_6 
REMARK    3  A    between atoms: N1_6  and  C5_7 
REMARK    4  A    between atoms: N2_8  and  C6_9 
REMARK    5  A    between atoms: C6_9  and  N3_10 
REMARK    6  A    between atoms: N3_10  and  C7_11 
REMARK    7  A    between atoms: N6_23  and  O2_24 
ROOT
HETATM    1  C5  UNL     1      -0.456  -1.946   2.228  1.00  0.00     0.231 C 
HETATM    2  N2  UNL     1      -1.216  -1.156   1.532  1.00  0.00    -0.263 NA
ENDROOT
BRANCH   2   3
HETATM    3  C6  UNL     1      -2.652  -1.155   1.682  1.00  0.00     0.272 C 
BRANCH   3   4
HETATM    4  N3  UNL     1      -3.273  -1.137   0.377  1.00  0.00    -0.370 N 
HETATM    5  H8  UNL     1      -3.872  -1.959   0.163  1.00  0.00     0.161 HD
BRANCH   4   6
HETATM    6  C7  UNL     1      -3.040  -0.046  -0.504  1.00  0.00     0.058 A 
HETATM    7  C8  UNL     1      -2.226   0.992  -0.103  1.00  0.00     0.146 A 
HETATM    8  N4  UNL     1      -1.954   2.061  -0.869  1.00  0.00    -0.270 NA
HETATM    9  C9  UNL     1      -2.456   2.217  -2.106  1.00  0.00     0.128 A 
HETATM   10  C10 UNL     1      -3.280   1.200  -2.556  1.00  0.00    -0.006 A 
HETATM   11  C11 UNL     1      -3.821   1.317  -3.824  1.00  0.00     0.014 A 
HETATM   12  C15 UNL     1      -3.559   0.106  -1.773  1.00  0.00     0.003 A 
HETATM   13  C12 UNL     1      -4.651   0.287  -4.269  1.00  0.00     0.001 A 
HETATM   14  C13 UNL     1      -4.949  -0.829  -3.498  1.00  0.00     0.001 A 
HETATM   15  C14 UNL     1      -4.380  -0.884  -2.247  1.00  0.00     0.014 A 
ENDBRANCH   4   6
ENDBRANCH   3   4
ENDBRANCH   2   3
BRANCH   1  16
HETATM   16  N1  UNL     1       0.979  -2.088   2.217  1.00  0.00    -0.223 NA
BRANCH  16  17
HETATM   17  C4  UNL     1       1.726  -1.139   1.725  1.00  0.00     0.156 A 
HETATM   18  C3  UNL     1       3.096  -1.299   1.726  1.00  0.00     0.110 A 
HETATM   19  C2  UNL     1       3.911  -0.312   1.212  1.00  0.00     0.173 A 
HETATM   20  N6  UNL     1       3.381   0.834   0.696  1.00  0.00    -0.193 N 
HETATM   21  C16 UNL     1       2.036   0.938   0.720  1.00  0.00     0.244 A 
HETATM   22  N5  UNL     1       1.201   0.004   1.210  1.00  0.00    -0.222 NA
BRANCH  19  23
HETATM   23  O1  UNL     1       5.297  -0.369   1.163  1.00  0.00    -0.339 OA
HETATM   24  C1  UNL     1       5.922  -1.523   1.678  1.00  0.00     0.211 C 
ENDBRANCH  19  23
BRANCH  20  25
HETATM   25  O2  UNL     1       4.169   1.836   0.177  1.00  0.00    -0.275 OA
HETATM   26  C17 UNL     1       4.901   2.666   1.087  1.00  0.00     0.238 C 
ENDBRANCH  20  25
ENDBRANCH  16  17
ENDBRANCH   1  16
TORSDOF 7
