REMARK  7 active torsions:
REMARK  status: ('A' for Active; 'I' for Inactive)
REMARK    1  A    between atoms: B1_1  and  C1_2 
REMARK    2  A    between atoms: C1_2  and  O2_25 
REMARK    3  A    between atoms: C2_3  and  C3_4 
REMARK    4  A    between atoms: C5_8  and  N3_9 
REMARK    5  A    between atoms: N3_9  and  C6_10 
REMARK    6  A    between atoms: C15_20  and  C16_21 
REMARK    7  A    between atoms: C17_22  and  O1_23 
ROOT
HETATM    1  C3  UNL     1       2.065   0.210  -0.938  1.00  0.00     0.073 A 
HETATM    2  N1  UNL     1       1.892   1.254  -1.776  1.00  0.00    -0.241 NA
HETATM    3  C4  UNL     1       0.668   1.629  -2.190  1.00  0.00     0.236 A 
HETATM    4  N2  UNL     1      -0.386   0.931  -1.744  1.00  0.00    -0.224 NA
HETATM    5  C5  UNL     1      -0.282  -0.108  -0.916  1.00  0.00     0.142 A 
HETATM    6  C15 UNL     1       0.957  -0.470  -0.509  1.00  0.00     0.041 A 
ENDROOT
BRANCH   5   7
HETATM    7  N3  UNL     1      -1.414  -0.825  -0.463  1.00  0.00    -0.338 N 
HETATM    8  H5  UNL     1      -1.388  -1.649   0.160  1.00  0.00     0.167 HD
BRANCH   7   9
HETATM    9  C6  UNL     1      -2.786  -0.695  -0.663  1.00  0.00     0.062 A 
HETATM   10  C7  UNL     1      -3.580  -1.674  -1.272  1.00  0.00     0.146 A 
HETATM   11  N4  UNL     1      -4.924  -1.588  -1.476  1.00  0.00    -0.270 NA
HETATM   12  C8  UNL     1      -5.581  -0.470  -1.065  1.00  0.00     0.128 A 
HETATM   13  C9  UNL     1      -4.880   0.571  -0.442  1.00  0.00    -0.006 A 
HETATM   14  C10 UNL     1      -5.582   1.683  -0.036  1.00  0.00     0.014 A 
HETATM   15  C14 UNL     1      -3.523   0.401  -0.276  1.00  0.00     0.004 A 
HETATM   16  C11 UNL     1      -4.913   2.717   0.584  1.00  0.00     0.001 A 
HETATM   17  C12 UNL     1      -3.554   2.610   0.782  1.00  0.00     0.001 A 
HETATM   18  C13 UNL     1      -2.903   1.467   0.351  1.00  0.00     0.014 A 
ENDBRANCH   7   9
ENDBRANCH   5   7
BRANCH   6  19
HETATM   19  C16 UNL     1       1.046  -1.563   0.410  1.00  0.00     0.041 C 
HETATM   20  C17 UNL     1       2.043  -2.130   1.039  1.00  0.00     0.135 C 
BRANCH  20  21
HETATM   21  O1  UNL     1       2.485  -3.097   1.912  1.00  0.00    -0.368 OA
HETATM   22  C18 UNL     1       1.549  -3.732   2.802  1.00  0.00     0.208 C 
ENDBRANCH  20  21
ENDBRANCH   6  19
BRANCH   1  23
HETATM   23  C2  UNL     1       3.417  -0.118  -0.539  1.00  0.00     0.051 C 
HETATM   24  C1  UNL     1       4.525   0.438  -0.102  1.00  0.00    -0.008 C 
BRANCH  24  25
HETATM   25  B1  UNL     1       5.839  -0.392   0.217  1.00  0.00     0.205 B 
HETATM   26  H1  UNL     1       5.608  -1.483   0.677  1.00  0.00    -0.024 HD
HETATM   27  H2  UNL     1       6.657  -0.385  -0.645  1.00  0.00    -0.024 HD
ENDBRANCH  24  25
BRANCH  24  28
HETATM   28  O2  UNL     1       4.994   1.701   0.222  1.00  0.00    -0.373 OA
HETATM   29  C19 UNL     1       4.420   2.883  -0.300  1.00  0.00     0.208 C 
ENDBRANCH  24  28
ENDBRANCH   1  23
TORSDOF 7
