REMARK  2 active torsions:
REMARK  status: ('A' for Active; 'I' for Inactive)
REMARK    1  A    between atoms: C4_5  and  N1_6 
REMARK    2  A    between atoms: N1_6  and  C5_7 
ROOT
HETATM    1  C5  UNL     1      -0.811  -0.886  -1.031  1.00  0.00     0.158 A 
HETATM    2  N2  UNL     1      -0.755  -2.162  -1.503  1.00  0.00    -0.222 NA
HETATM    3  C6  UNL     1       0.410  -2.853  -1.496  1.00  0.00     0.236 A 
HETATM    4  N3  UNL     1       1.548  -2.309  -1.026  1.00  0.00    -0.239 NA
HETATM    5  C7  UNL     1       1.564  -1.053  -0.545  1.00  0.00     0.101 A 
HETATM    6  C8  UNL     1       0.371  -0.357  -0.555  1.00  0.00     0.105 A 
HETATM    7  N4  UNL     1       0.426   0.958  -0.033  1.00  0.00    -0.381 N 
HETATM    8  C9  UNL     1       1.576   1.697   0.450  1.00  0.00     0.159 A 
HETATM    9  C10 UNL     1       2.757   0.798   0.401  1.00  0.00    -0.026 A 
HETATM   10  C11 UNL     1       3.917   1.365   0.877  1.00  0.00     0.010 A 
HETATM   11  C12 UNL     1       5.112   0.681   0.901  1.00  0.00     0.002 A 
HETATM   12  C13 UNL     1       5.170  -0.621   0.436  1.00  0.00     0.025 A 
HETATM   13  C14 UNL     1       4.010  -1.205  -0.045  1.00  0.00     0.047 A 
HETATM   14 CL1  UNL     1       3.956  -2.842  -0.659  1.00  0.00    -0.083 Cl
HETATM   15  C15 UNL     1       2.825  -0.500  -0.059  1.00  0.00     0.025 A 
HETATM   16  H5  UNL     1      -0.433   1.527   0.043  1.00  0.00     0.160 HD
ENDROOT
BRANCH   1  17
HETATM   17  N1  UNL     1      -1.970  -0.072  -0.997  1.00  0.00    -0.339 N 
HETATM   18  H3  UNL     1      -1.833   0.411  -1.903  1.00  0.00     0.167 HD
BRANCH  17  19
HETATM   19  C4  UNL     1      -3.071   0.162  -0.129  1.00  0.00     0.035 A 
HETATM   20  C3  UNL     1      -3.964   1.143  -0.517  1.00  0.00     0.032 A 
HETATM   21  C2  UNL     1      -5.017   1.341   0.339  1.00  0.00     0.046 A 
HETATM   22  C1  UNL     1      -5.186   0.628   1.494  1.00  0.00     0.138 A 
HETATM   23  F1  UNL     1      -6.265   0.914   2.258  1.00  0.00    -0.204 F 
HETATM   24  C17 UNL     1      -4.277  -0.341   1.849  1.00  0.00     0.074 A 
HETATM   25  C16 UNL     1      -3.197  -0.580   1.022  1.00  0.00     0.056 A 
HETATM   26 CL2  UNL     1      -4.520  -1.239   3.332  1.00  0.00    -0.081 Cl
ENDBRANCH  17  19
ENDBRANCH   1  17
TORSDOF 2
