REMARK  2 active torsions:
REMARK  status: ('A' for Active; 'I' for Inactive)
REMARK    1  A    between atoms: C2_2  and  O2_4 
REMARK    2  A    between atoms: O2_4  and  C3_5 
ROOT
HETATM    1  C3  UNL     1       1.665   0.134  -0.492  1.00  0.00     0.163 A 
HETATM    2  C4  UNL     1       0.711  -0.726  -0.446  1.00  0.00     0.006 A 
HETATM    3  O3  UNL     1       1.918  -1.355  -0.196  1.00  0.00     0.000 OA
HETATM    4  C5  UNL     1      -0.513  -1.469  -0.453  1.00  0.00    -0.019 A 
HETATM    5  C6  UNL     1      -0.225  -2.635  -1.185  1.00  0.00     0.012 A 
HETATM    6  C7  UNL     1      -1.131  -3.667  -1.468  1.00  0.00     0.001 A 
HETATM    7  C8  UNL     1      -2.380  -3.441  -0.949  1.00  0.00     0.001 A 
HETATM    8  C9  UNL     1      -2.652  -2.302  -0.237  1.00  0.00     0.008 A 
HETATM    9  C10 UNL     1      -1.764  -1.290   0.039  1.00  0.00    -0.041 A 
HETATM   10  C11 UNL     1      -2.531  -0.312   0.789  1.00  0.00     0.044 A 
HETATM   11  C12 UNL     1      -2.838  -0.696   2.239  1.00  0.00     0.037 A 
HETATM   12  C13 UNL     1      -1.911   0.421   1.879  1.00  0.00     0.092 A 
HETATM   13  N1  UNL     1      -2.532   1.761   1.977  1.00  0.00    -0.369 N 
HETATM   14  C14 UNL     1      -2.077   2.168   0.678  1.00  0.00     0.127 A 
HETATM   15  C15 UNL     1      -0.765   2.263   0.213  1.00  0.00     0.081 A 
HETATM   16  C16 UNL     1      -0.514   2.635  -1.103  1.00  0.00     0.062 A 
HETATM   17  N2  UNL     1      -1.510   2.896  -1.903  1.00  0.00    -0.242 NA
HETATM   18  C17 UNL     1      -2.779   2.813  -1.481  1.00  0.00     0.235 A 
HETATM   19  N3  UNL     1      -3.060   2.454  -0.206  1.00  0.00    -0.225 NA
HETATM   20  C18 UNL     1       0.924   2.558  -0.974  1.00  0.00     0.037 C 
HETATM   21  C19 UNL     1       1.763   1.569  -0.731  1.00  0.00    -0.038 C 
HETATM   22  C20 UNL     1       3.047   2.290  -0.753  1.00  0.00     0.047 C 
HETATM   23  H4  UNL     1       1.898  -2.373  -0.035  1.00  0.00     0.000 HD
HETATM   24  H13 UNL     1      -3.086   2.471   2.487  1.00  0.00     0.161 HD
ENDROOT
BRANCH   1  25
HETATM   25  O2  UNL     1       2.991  -0.297  -0.263  1.00  0.00    -0.297 OA
BRANCH  25  26
HETATM   26  C2  UNL     1       3.437  -0.770   0.960  1.00  0.00     0.256 C 
HETATM   27  C1  UNL     1       4.891  -1.115   0.765  1.00  0.00     0.126 C 
HETATM   28  O1  UNL     1       3.001  -0.988   2.143  1.00  0.00    -0.266 OA
ENDBRANCH  25  26
ENDBRANCH   1  25
TORSDOF 2
