REMARK  4 active torsions:
REMARK  status: ('A' for Active; 'I' for Inactive)
REMARK    1  A    between atoms: O1_2  and  C2_3 
REMARK    2  A    between atoms: C6_9  and  S1_10 
REMARK    3  A    between atoms: C17_22  and  O2_23 
REMARK    4  A    between atoms: O2_23  and  C18_24 
ROOT
HETATM    1  C2  UNL     1       2.859   0.548   0.509  1.00  0.00     0.103 C 
HETATM    2  C3  UNL     1       1.610   0.223   0.891  1.00  0.00     0.067 C 
HETATM    3  C4  UNL     1       0.544  -0.253  -0.020  1.00  0.00     0.066 C 
HETATM    4  N1  UNL     1      -0.182  -1.136   0.622  1.00  0.00    -0.150 NA
HETATM    5  C5  UNL     1      -1.267  -1.715  -0.094  1.00  0.00     0.195 A 
HETATM    6  N2  UNL     1      -1.303  -1.784   1.191  1.00  0.00    -0.285 N 
HETATM    7  C6  UNL     1      -2.425  -2.439   1.844  1.00  0.00     0.167 C 
HETATM    8  C7  UNL     1      -3.612  -1.565   1.752  1.00  0.00     0.036 C 
HETATM    9  C8  UNL     1      -3.466  -0.364   1.130  1.00  0.00     0.023 C 
HETATM   10  C9  UNL     1      -4.318   0.812   0.799  1.00  0.00    -0.024 C 
HETATM   11  C10 UNL     1      -3.557   1.693   0.160  1.00  0.00    -0.024 C 
HETATM   12  C11 UNL     1      -2.101   1.552  -0.178  1.00  0.00     0.032 A 
HETATM   13  C12 UNL     1      -1.520   2.643  -1.097  1.00  0.00     0.036 A 
HETATM   14  C13 UNL     1      -1.937   1.264  -1.584  1.00  0.00     0.090 A 
HETATM   15  N3  UNL     1      -0.880   0.406  -2.012  1.00  0.00    -0.383 N 
HETATM   16  C14 UNL     1       0.386   0.225  -1.392  1.00  0.00     0.052 C 
HETATM   17  C15 UNL     1       1.370   0.552  -2.217  1.00  0.00     0.034 C 
HETATM   18  C16 UNL     1       2.836   0.532  -2.003  1.00  0.00     0.042 C 
HETATM   19  C17 UNL     1       3.492   0.530  -0.829  1.00  0.00     0.112 C 
HETATM   20  H16 UNL     1      -0.804  -0.237  -2.826  1.00  0.00     0.160 HD
ENDROOT
BRANCH  19  21
HETATM   21  O2  UNL     1       4.853   0.510  -0.906  1.00  0.00    -0.283 OA
BRANCH  21  22
HETATM   22  C18 UNL     1       5.544  -0.509  -1.519  1.00  0.00     0.403 C 
HETATM   23  O3  UNL     1       4.761  -1.384  -1.981  1.00  0.00    -0.276 OA
ENDBRANCH  21  22
ENDBRANCH  19  21
BRANCH   1  24
HETATM   24  O1  UNL     1       3.704   0.973   1.524  1.00  0.00    -0.353 OA
HETATM   25  C1  UNL     1       4.127   0.162   2.597  1.00  0.00     0.210 C 
ENDBRANCH   1  24
BRANCH   7  26
HETATM   26  S1  UNL     1      -2.768  -4.026   1.014  1.00  0.00    -0.155 SA
HETATM   27  H7  UNL     1      -2.621  -3.935  -0.366  1.00  0.00     0.103 HD
ENDBRANCH   7  26
TORSDOF 4
