REMARK  5 active torsions:
REMARK  status: ('A' for Active; 'I' for Inactive)
REMARK    1  A    between atoms: C2_2  and  O2_4 
REMARK    2  A    between atoms: O2_4  and  C3_5 
REMARK    3  A    between atoms: C9_13  and  N3_14 
REMARK    4  A    between atoms: N3_14  and  C10_15 
REMARK    5  A    between atoms: C12_17  and  C13_18 
ROOT
HETATM    1  C3  UNL     1      -2.924   0.964  -0.047  1.00  0.00     0.200 A 
HETATM    2  C4  UNL     1      -4.096   1.040  -0.986  1.00  0.00    -0.048 A 
HETATM    3  C5  UNL     1      -5.508   0.984  -0.502  1.00  0.00     0.046 C 
HETATM    4  C6  UNL     1      -3.729   1.160  -2.253  1.00  0.00     0.037 A 
HETATM    5  C7  UNL     1      -2.270   1.179  -2.322  1.00  0.00     0.071 A 
HETATM    6  N1  UNL     1      -1.390   1.279  -3.319  1.00  0.00    -0.241 NA
HETATM    7  C8  UNL     1      -0.057   1.271  -3.107  1.00  0.00     0.235 A 
HETATM    8  N2  UNL     1       0.423   1.159  -1.845  1.00  0.00    -0.224 NA
HETATM    9  C9  UNL     1      -0.435   1.055  -0.798  1.00  0.00     0.136 A 
HETATM   10  C19 UNL     1      -1.799   1.064  -1.025  1.00  0.00     0.050 A 
ENDROOT
BRANCH   9  11
HETATM   11  N3  UNL     1       0.074   0.937   0.532  1.00  0.00    -0.369 N 
HETATM   12  H10 UNL     1      -0.583   0.859   1.320  1.00  0.00     0.161 HD
BRANCH  11  13
HETATM   13  C10 UNL     1       1.538   0.937   0.676  1.00  0.00     0.092 A 
HETATM   14  C11 UNL     1       2.136   0.816   2.050  1.00  0.00     0.037 A 
HETATM   15  C12 UNL     1       2.220  -0.318   1.086  1.00  0.00     0.043 A 
BRANCH  15  16
HETATM   16  C13 UNL     1       3.515  -0.624   0.426  1.00  0.00    -0.052 A 
HETATM   17  C14 UNL     1       3.853  -1.967   0.258  1.00  0.00     0.007 A 
HETATM   18  C15 UNL     1       5.070  -2.270  -0.362  1.00  0.00     0.001 A 
HETATM   19  C16 UNL     1       5.949  -1.286  -0.813  1.00  0.00     0.000 A 
HETATM   20  C17 UNL     1       5.595   0.042  -0.637  1.00  0.00     0.001 A 
HETATM   21  C18 UNL     1       4.394   0.338  -0.025  1.00  0.00     0.007 A 
ENDBRANCH  15  16
ENDBRANCH  11  13
ENDBRANCH   9  11
BRANCH   1  22
HETATM   22  O2  UNL     1      -3.004  -0.353   0.496  1.00  0.00    -0.307 OA
BRANCH  22  23
HETATM   23  C2  UNL     1      -3.075  -0.653   1.825  1.00  0.00     0.255 C 
HETATM   24  C1  UNL     1      -3.157  -2.041   2.350  1.00  0.00     0.126 C 
HETATM   25  O1  UNL     1      -3.071   0.290   2.683  1.00  0.00    -0.266 OA
ENDBRANCH  22  23
ENDBRANCH   1  22
TORSDOF 5
