REMARK  5 active torsions:
REMARK  status: ('A' for Active; 'I' for Inactive)
REMARK    1  A    between atoms: O1_2  and  C2_3 
REMARK    2  A    between atoms: C2_3  and  C3_4 
REMARK    3  A    between atoms: C3_4  and  O2_5 
REMARK    4  A    between atoms: O2_5  and  C4_6 
REMARK    5  A    between atoms: C8_11  and  C9_12 
ROOT
HETATM    1  C2  UNL     1       1.839  -1.201   0.068  1.00  0.00     0.092 C 
HETATM    2  C6  UNL     1       0.811  -0.755   0.775  1.00  0.00     0.044 C 
HETATM    3  C7  UNL     1      -0.228   0.248   0.435  1.00  0.00     0.092 C 
HETATM    4  C8  UNL     1      -1.593  -0.308   0.836  1.00  0.00     0.148 C 
HETATM    5  N1  UNL     1      -1.576  -0.916   2.120  1.00  0.00    -0.275 NA
HETATM    6  C16 UNL     1      -0.583  -1.403   2.739  1.00  0.00     0.201 C 
HETATM    7  N2  UNL     1       0.693  -1.346   2.082  1.00  0.00    -0.352 N 
HETATM    8  H20 UNL     1       1.509  -1.750   2.597  1.00  0.00     0.166 HD
ENDROOT
BRANCH   1   9
HETATM    9  O1  UNL     1       2.760  -2.155   0.495  1.00  0.00    -0.356 OA
HETATM   10  C1  UNL     1       2.980  -3.388  -0.132  1.00  0.00     0.209 C 
ENDBRANCH   1   9
BRANCH   1  11
HETATM   11  C3  UNL     1       2.147  -0.721  -1.313  1.00  0.00     0.245 C 
BRANCH  11  12
HETATM   12  O2  UNL     1       3.437  -0.139  -1.329  1.00  0.00    -0.315 OA
BRANCH  12  13
HETATM   13  C4  UNL     1       3.831   0.936  -0.580  1.00  0.00     0.255 C 
HETATM   14  C5  UNL     1       5.220   1.407  -0.727  1.00  0.00     0.126 C 
HETATM   15  O3  UNL     1       2.831   1.300   0.115  1.00  0.00    -0.266 OA
ENDBRANCH  12  13
ENDBRANCH  11  12
ENDBRANCH   1  11
BRANCH   4  16
HETATM   16  C9  UNL     1      -2.650   0.720   0.672  1.00  0.00    -0.027 A 
HETATM   17  C10 UNL     1      -2.988   1.590   1.708  1.00  0.00     0.010 A 
HETATM   18  C11 UNL     1      -3.967   2.564   1.599  1.00  0.00     0.001 A 
HETATM   19  C12 UNL     1      -4.649   2.691   0.410  1.00  0.00     0.001 A 
HETATM   20  C13 UNL     1      -4.355   1.858  -0.646  1.00  0.00     0.007 A 
HETATM   21  C14 UNL     1      -3.365   0.893  -0.495  1.00  0.00    -0.054 A 
HETATM   22  C15 UNL     1      -3.059  -0.003  -1.654  1.00  0.00     0.049 C 
ENDBRANCH   4  16
TORSDOF 5
