REMARK  5 active torsions:
REMARK  status: ('A' for Active; 'I' for Inactive)
REMARK    1  A    between atoms: C2_2  and  C3_3 
REMARK    2  A    between atoms: C2_2  and  O1_21 
REMARK    3  A    between atoms: C3_3  and  C4_4 
REMARK    4  A    between atoms: C5_5  and  C6_6 
REMARK    5  A    between atoms: C9_11  and  N3_12 
ROOT
HETATM    1  C6  UNL     1       0.397  -0.265   0.841  1.00  0.00     0.027 A 
HETATM    2  C7  UNL     1       1.134  -0.237   2.003  1.00  0.00     0.133 A 
HETATM    3  N1  UNL     1       0.752  -0.653   3.204  1.00  0.00    -0.253 NA
HETATM    4  C8  UNL     1      -0.493  -1.162   3.319  1.00  0.00     0.234 A 
HETATM    5  N2  UNL     1      -1.254  -1.215   2.229  1.00  0.00    -0.223 NA
HETATM    6  C9  UNL     1      -0.865  -0.792   1.011  1.00  0.00     0.143 A 
ENDROOT
BRANCH   6   7
HETATM    7  N3  UNL     1      -1.728  -0.882  -0.136  1.00  0.00    -0.330 N 
HETATM    8  C10 UNL     1      -1.826  -1.527  -1.460  1.00  0.00     0.135 C 
HETATM    9  C11 UNL     1      -3.252  -2.085  -1.308  1.00  0.00     0.061 C 
HETATM   10  C12 UNL     1      -3.955  -0.830  -0.854  1.00  0.00    -0.030 A 
HETATM   11  C13 UNL     1      -5.215  -0.290  -0.977  1.00  0.00     0.009 A 
HETATM   12  C17 UNL     1      -2.969  -0.138  -0.132  1.00  0.00     0.042 A 
HETATM   13  C14 UNL     1      -5.526   0.923  -0.401  1.00  0.00     0.001 A 
HETATM   14  C15 UNL     1      -4.592   1.638   0.317  1.00  0.00     0.002 A 
HETATM   15  C16 UNL     1      -3.332   1.094   0.437  1.00  0.00     0.030 A 
ENDBRANCH   6   7
BRANCH   1  16
HETATM   16  C5  UNL     1       0.854   0.202  -0.445  1.00  0.00     0.013 C 
HETATM   17  C4  UNL     1       1.976   0.736  -0.887  1.00  0.00    -0.019 C 
BRANCH  17  18
HETATM   18  C3  UNL     1       3.338   1.193  -0.572  1.00  0.00     0.090 C 
BRANCH  18  19
HETATM   19  C2  UNL     1       4.336   0.448  -1.396  1.00  0.00     0.040 C 
HETATM   20  C1  UNL     1       4.018  -0.482  -2.274  1.00  0.00     0.046 C 
BRANCH  19  21
HETATM   21  O1  UNL     1       5.690   0.725  -1.255  1.00  0.00    -0.361 OA
HETATM   22  C18 UNL     1       6.133   1.420  -0.123  1.00  0.00     0.209 C 
ENDBRANCH  19  21
ENDBRANCH  18  19
ENDBRANCH  17  18
ENDBRANCH   1  16
TORSDOF 5
