REMARK  3 active torsions:
REMARK  status: ('A' for Active; 'I' for Inactive)
REMARK    1  A    between atoms: O1_2  and  C2_3 
REMARK    2  A    between atoms: C5_6  and  N1_7 
REMARK    3  A    between atoms: C17_21  and  O2_22 
ROOT
HETATM    1  C2  UNL     1       2.030  -0.899  -0.699  1.00  0.00     0.101 C 
HETATM    2  C3  UNL     1       0.708  -0.704  -0.796  1.00  0.00     0.050 C 
HETATM    3  C4  UNL     1       0.379   0.681  -1.054  1.00  0.00    -0.010 C 
HETATM    4  C5  UNL     1      -0.896   1.020  -1.016  1.00  0.00     0.134 C 
HETATM    5  N2  UNL     1      -1.454   2.331  -0.954  1.00  0.00    -0.259 NA
HETATM    6  C14 UNL     1      -0.678   3.387  -0.908  1.00  0.00     0.032 C 
HETATM    7  B1  UNL     1       0.882   3.122  -0.911  1.00  0.00     0.218 B 
HETATM    8  C15 UNL     1       1.331   1.729  -1.432  1.00  0.00     0.010 C 
HETATM    9  C16 UNL     1       2.730   1.367  -1.225  1.00  0.00     0.013 C 
HETATM   10  C17 UNL     1       3.057   0.112  -0.888  1.00  0.00     0.097 C 
HETATM   11  H14 UNL     1       1.652   3.997  -0.681  1.00  0.00    -0.019 HD
ENDROOT
BRANCH   4  12
HETATM   12  N1  UNL     1      -1.998   0.121  -0.760  1.00  0.00    -0.331 N 
HETATM   13  C6  UNL     1      -2.466  -0.763  -1.806  1.00  0.00     0.135 C 
HETATM   14  C7  UNL     1      -2.975  -1.944  -1.020  1.00  0.00     0.061 C 
HETATM   15  C8  UNL     1      -3.374  -1.324   0.267  1.00  0.00    -0.030 A 
HETATM   16  C9  UNL     1      -4.194  -1.747   1.298  1.00  0.00     0.009 A 
HETATM   17  C13 UNL     1      -2.781  -0.087   0.410  1.00  0.00     0.042 A 
HETATM   18  C10 UNL     1      -4.373  -0.928   2.390  1.00  0.00     0.001 A 
HETATM   19  C11 UNL     1      -3.764   0.313   2.507  1.00  0.00     0.002 A 
HETATM   20  C12 UNL     1      -2.939   0.756   1.489  1.00  0.00     0.030 A 
ENDBRANCH   4  12
BRANCH   1  21
HETATM   21  O1  UNL     1       2.495  -2.173  -0.424  1.00  0.00    -0.353 OA
HETATM   22  C1  UNL     1       3.266  -2.559   0.670  1.00  0.00     0.210 C 
ENDBRANCH   1  21
BRANCH  10  23
HETATM   23  O2  UNL     1       4.394  -0.131  -0.743  1.00  0.00    -0.353 OA
HETATM   24  C18 UNL     1       5.287   0.602   0.059  1.00  0.00     0.210 C 
ENDBRANCH  10  23
TORSDOF 3
