REMARK  4 active torsions:
REMARK  status: ('A' for Active; 'I' for Inactive)
REMARK    1  A    between atoms: O1_2  and  C2_3 
REMARK    2  A    between atoms: C2_3  and  C6_9 
REMARK    3  A    between atoms: C3_4  and  O2_5 
REMARK    4  A    between atoms: O2_5  and  C4_6 
ROOT
HETATM    1  C6  UNL     1      -0.388  -1.215   0.696  1.00  0.00     0.113 C 
HETATM    2  C7  UNL     1      -0.822   0.102   1.235  1.00  0.00    -0.049 A 
HETATM    3  C8  UNL     1      -0.790   1.091   2.201  1.00  0.00    -0.066 A 
HETATM    4  C9  UNL     1      -0.249   1.600   3.520  1.00  0.00     0.045 C 
HETATM    5  C10 UNL     1      -1.579   1.220   1.084  1.00  0.00     0.011 A 
HETATM    6  C11 UNL     1      -3.055   1.109   0.939  1.00  0.00     0.044 C 
HETATM    7  C12 UNL     1      -2.862   1.585  -0.508  1.00  0.00     0.085 C 
HETATM    8  C13 UNL     1      -1.487   2.112  -0.087  1.00  0.00     0.044 C 
HETATM    9  N1  UNL     1      -2.623   0.462  -1.390  1.00  0.00    -0.370 N 
HETATM   10  C14 UNL     1      -2.249  -0.905  -1.293  1.00  0.00     0.134 A 
HETATM   11  N2  UNL     1      -2.919  -1.649  -2.206  1.00  0.00    -0.224 NA
HETATM   12  C15 UNL     1      -2.701  -2.973  -2.271  1.00  0.00     0.234 A 
HETATM   13  N3  UNL     1      -1.821  -3.594  -1.441  1.00  0.00    -0.253 NA
HETATM   14  C16 UNL     1      -1.148  -2.863  -0.526  1.00  0.00     0.130 A 
HETATM   15  C17 UNL     1      -1.341  -1.480  -0.420  1.00  0.00     0.020 A 
HETATM   16  H17 UNL     1      -2.789   0.819  -2.368  1.00  0.00     0.161 HD
ENDROOT
BRANCH   1  17
HETATM   17  C2  UNL     1       1.009  -1.116   0.217  1.00  0.00     0.081 C 
HETATM   18  C3  UNL     1       1.643   0.041   0.308  1.00  0.00     0.178 C 
BRANCH  17  19
HETATM   19  O1  UNL     1       1.667  -2.212  -0.327  1.00  0.00    -0.357 OA
HETATM   20  C1  UNL     1       3.018  -2.482  -0.004  1.00  0.00     0.209 C 
ENDBRANCH  17  19
BRANCH  18  21
HETATM   21  O2  UNL     1       2.726   0.846   0.139  1.00  0.00    -0.289 OA
BRANCH  21  22
HETATM   22  C4  UNL     1       3.331   1.139  -1.062  1.00  0.00     0.259 C 
HETATM   23  C5  UNL     1       4.512   2.018  -1.241  1.00  0.00     0.126 C 
HETATM   24  O3  UNL     1       2.726   0.542  -2.005  1.00  0.00    -0.265 OA
ENDBRANCH  21  22
ENDBRANCH  18  21
ENDBRANCH   1  17
TORSDOF 4
