REMARK  3 active torsions:
REMARK  status: ('A' for Active; 'I' for Inactive)
REMARK    1  A    between atoms: P1_8  and  C7_9 
REMARK    2  A    between atoms: C7_9  and  N1_10 
REMARK    3  A    between atoms: N1_10  and  C8_11 
ROOT
HETATM    1  C8  UNL     1      -0.478  -0.339   1.419  1.00  0.00     0.137 C 
HETATM    2  C9  UNL     1      -1.197   0.379   0.572  1.00  0.00     0.177 C 
HETATM    3  N2  UNL     1      -0.602   1.230  -0.401  1.00  0.00    -0.223 NA
HETATM    4  C10 UNL     1      -1.308   1.673  -1.360  1.00  0.00     0.106 C 
HETATM    5  C11 UNL     1      -2.590   1.908  -1.231  1.00  0.00     0.146 C 
HETATM    6  N3  UNL     1      -3.337   1.108  -0.321  1.00  0.00    -0.282 N 
HETATM    7  C12 UNL     1      -4.785   1.021  -0.253  1.00  0.00     0.154 C 
HETATM    8  C13 UNL     1      -5.128  -0.452  -0.189  1.00  0.00     0.076 C 
HETATM    9  C14 UNL     1      -4.229  -1.257   0.688  1.00  0.00     0.264 C 
HETATM   10  F1  UNL     1      -3.409  -2.048  -0.129  1.00  0.00    -0.231 F 
HETATM   11  N4  UNL     1      -3.324  -0.468   1.505  1.00  0.00    -0.183 NA
HETATM   12  N5  UNL     1      -2.620   0.331   0.595  1.00  0.00    -0.194 N 
HETATM   13  H16 UNL     1      -3.936   0.183   2.063  1.00  0.00     0.151 HD
ENDROOT
BRANCH   1  14
HETATM   14  N1  UNL     1       0.935  -0.208   1.301  1.00  0.00    -0.392 N 
HETATM   15  H8  UNL     1       1.078   0.596   1.957  1.00  0.00     0.159 HD
BRANCH  14  16
HETATM   16  C7  UNL     1       1.832  -1.004   0.484  1.00  0.00     0.155 C 
BRANCH  16  17
HETATM   17  P1  UNL     1       3.502  -0.349   0.767  1.00  0.00    -0.070 P 
HETATM   18  C2  UNL     1       4.616  -0.913  -0.518  1.00  0.00    -0.040 C 
HETATM   19  C1  UNL     1       4.668  -2.224  -0.708  1.00  0.00     0.024 C 
HETATM   20  C3  UNL     1       5.437  -0.028  -1.334  1.00  0.00     0.035 C 
HETATM   21  C4  UNL     1       5.103   1.254  -1.259  1.00  0.00     0.035 C 
HETATM   22 CL1  UNL     1       6.080   2.334  -2.235  1.00  0.00    -0.084 Cl
HETATM   23  C5  UNL     1       4.016   1.754  -0.442  1.00  0.00     0.036 C 
HETATM   24  C6  UNL     1       3.393   1.249   0.586  1.00  0.00    -0.020 C 
HETATM   25  H5  UNL     1       3.994  -0.697   2.045  1.00  0.00     0.064 HD
ENDBRANCH  16  17
ENDBRANCH  14  16
ENDBRANCH   1  14
TORSDOF 3
