REMARK  2 active torsions:
REMARK  status: ('A' for Active; 'I' for Inactive)
REMARK    1  A    between atoms: N1_7  and  C7_8 
REMARK    2  A    between atoms: C7_8  and  N2_9 
ROOT
HETATM    1  C7  UNL     1      -0.695   1.668  -0.702  1.00  0.00     0.273 C 
ENDROOT
BRANCH   1   2
HETATM    2  N1  UNL     1      -1.763   0.711  -0.554  1.00  0.00    -0.362 N 
HETATM    3  C6  UNL     1      -2.301   0.774   0.779  1.00  0.00     0.042 A 
HETATM    4  C3  UNL     1      -3.488   0.027   1.248  1.00  0.00    -0.010 A 
HETATM    5  C5  UNL     1      -2.204   1.287   2.003  1.00  0.00     0.031 A 
HETATM    6  C2  UNL     1      -4.329  -0.903   0.462  1.00  0.00     0.010 C 
HETATM    7  C4  UNL     1      -3.385   0.546   2.476  1.00  0.00     0.016 A 
HETATM    8  C1  UNL     1      -3.898  -1.524  -0.631  1.00  0.00    -0.024 C 
HETATM    9  C16 UNL     1      -2.600  -1.486  -1.322  1.00  0.00     0.047 C 
HETATM   10  C15 UNL     1      -2.115  -0.116  -1.687  1.00  0.00     0.128 C 
ENDBRANCH   1   2
BRANCH   1  11
HETATM   11  N2  UNL     1       0.366   1.413   0.218  1.00  0.00    -0.274 NA
HETATM   12  C8  UNL     1       1.439   0.767   0.019  1.00  0.00     0.037 A 
HETATM   13  C9  UNL     1       2.318   0.693   1.180  1.00  0.00     0.066 A 
HETATM   14  C14 UNL     1       1.772   0.143  -1.279  1.00  0.00     0.089 A 
HETATM   15  C10 UNL     1       3.480   0.039   1.097  1.00  0.00     0.106 A 
HETATM   16  O1  UNL     1       4.515  -0.212   1.990  1.00  0.00    -0.323 OA
HETATM   17  C12 UNL     1       3.894  -0.616  -0.161  1.00  0.00     0.101 A 
HETATM   18  C11 UNL     1       5.676  -0.594   1.237  1.00  0.00     0.352 C 
HETATM   19  O2  UNL     1       5.115  -1.190   0.082  1.00  0.00    -0.323 OA
HETATM   20  C13 UNL     1       3.086  -0.540  -1.207  1.00  0.00     0.019 A 
ENDBRANCH   1  11
TORSDOF 2
