REMARK  2 active torsions:
REMARK  status: ('A' for Active; 'I' for Inactive)
REMARK    1  A    between atoms: O1_2  and  C2_3 
REMARK    2  A    between atoms: C9_12  and  O2_13 
ROOT
HETATM    1  C2  UNL     1      -2.382  -0.124  -0.326  1.00  0.00     0.104 A 
HETATM    2  C3  UNL     1      -2.387   1.232  -0.569  1.00  0.00     0.072 A 
HETATM    3  C4  UNL     1      -1.209   1.950  -0.686  1.00  0.00     0.075 A 
HETATM    4  N1  UNL     1      -1.411   3.255  -0.925  1.00  0.00    -0.241 NA
HETATM    5  C5  UNL     1      -0.302   4.011  -1.048  1.00  0.00     0.235 A 
HETATM    6  N2  UNL     1       0.915   3.489  -0.937  1.00  0.00    -0.224 NA
HETATM    7  C6  UNL     1       1.149   2.163  -0.693  1.00  0.00     0.138 A 
HETATM    8  C7  UNL     1       0.035   1.306  -0.558  1.00  0.00     0.048 A 
HETATM    9  C8  UNL     1       0.039  -0.090  -0.312  1.00  0.00     0.004 A 
HETATM   10  C9  UNL     1      -1.161  -0.748  -0.203  1.00  0.00     0.109 A 
HETATM   11  C11 UNL     1       1.413  -0.514  -0.323  1.00  0.00     0.071 A 
HETATM   12  C12 UNL     1       1.849  -1.864  -0.160  1.00  0.00    -0.015 A 
HETATM   13  C13 UNL     1       2.940  -2.395   0.362  1.00  0.00    -0.003 A 
HETATM   14  C14 UNL     1       3.925  -1.472   0.911  1.00  0.00    -0.002 A 
HETATM   15  C15 UNL     1       3.549  -0.212   0.831  1.00  0.00    -0.001 A 
HETATM   16  C16 UNL     1       2.364   0.458   0.331  1.00  0.00     0.118 A 
HETATM   17  N3  UNL     1       2.507   1.624  -0.494  1.00  0.00    -0.365 N 
HETATM   18  H15 UNL     1       3.262   2.177  -0.971  1.00  0.00     0.162 HD
ENDROOT
BRANCH   1  19
HETATM   19  O1  UNL     1      -3.492  -0.942  -0.188  1.00  0.00    -0.353 OA
HETATM   20  C1  UNL     1      -4.775  -0.353  -0.305  1.00  0.00     0.210 C 
ENDBRANCH   1  19
BRANCH  10  21
HETATM   21  O2  UNL     1      -1.005  -2.106   0.042  1.00  0.00    -0.352 OA
HETATM   22  C10 UNL     1      -0.951  -2.476   1.424  1.00  0.00     0.210 C 
ENDBRANCH  10  21
TORSDOF 2
