REMARK  2 active torsions:
REMARK  status: ('A' for Active; 'I' for Inactive)
REMARK    1  A    between atoms: C2_2  and  N1_3 
REMARK    2  A    between atoms: C8_11  and  O1_12 
ROOT
HETATM    1  N1  UNL     1      -0.201  -2.569  -0.784  1.00  0.00    -0.366 N 
HETATM    2  C3  UNL     1       1.121  -2.642  -1.421  1.00  0.00     0.106 A 
HETATM    3  N2  UNL     1       1.921  -1.730  -1.859  1.00  0.00     0.000 N 
HETATM    4  C4  UNL     1       2.802  -1.983  -2.911  1.00  0.00     0.092 A 
HETATM    5  N3  UNL     1       2.922  -0.691  -2.467  1.00  0.00    -0.205 NA
HETATM    6  C5  UNL     1       2.161  -0.212  -1.435  1.00  0.00     0.076 A 
HETATM    7  C6  UNL     1       2.561   1.019  -1.117  1.00  0.00     0.044 A 
HETATM    8  C7  UNL     1       1.996   1.269   0.091  1.00  0.00     0.134 A 
HETATM    9  C8  UNL     1       1.227   0.442   0.820  1.00  0.00     0.089 A 
HETATM   10  C10 UNL     1       1.218  -0.554  -0.033  1.00  0.00     0.089 A 
HETATM   11  C11 UNL     1       1.488  -1.352  -1.226  1.00  0.00     0.043 A 
HETATM   12  O2  UNL     1       2.114   2.545   0.763  1.00  0.00    -0.196 OA
HETATM   13  O3  UNL     1       1.066   3.357   0.234  1.00  0.00    -0.235 OA
HETATM   14  C12 UNL     1      -0.093   3.187   0.912  1.00  0.00     0.212 C 
HETATM   15  C13 UNL     1      -1.309   2.951   0.083  1.00  0.00     0.050 C 
HETATM   16  C14 UNL     1      -1.215   1.845  -0.958  1.00  0.00     0.016 A 
HETATM   17  C15 UNL     1      -1.462   2.265  -2.267  1.00  0.00     0.031 A 
HETATM   18  C16 UNL     1      -1.186   1.156  -1.955  1.00  0.00     0.029 A 
HETATM   19  S1  UNL     1      -0.887  -0.030  -1.596  1.00  0.00    -0.201 SA
HETATM   20  C17 UNL     1      -0.887  -0.034  -1.595  1.00  0.00     0.094 A 
HETATM   21  H17 UNL     1      -0.581  -1.283  -1.246  1.00  0.00     0.094 HD
ENDROOT
BRANCH   1  22
HETATM   22  C2  UNL     1      -1.461  -2.670  -0.105  1.00  0.00     0.124 C 
HETATM   23  C1  UNL     1      -1.446  -2.964   1.328  1.00  0.00     0.027 C 
ENDBRANCH   1  22
BRANCH   9  24
HETATM   24  O1  UNL     1       0.675   0.613   2.031  1.00  0.00    -0.357 OA
HETATM   25  C9  UNL     1      -0.103  -0.151   2.853  1.00  0.00     0.209 C 
ENDBRANCH   9  24
TORSDOF 2
