REMARK  5 active torsions:
REMARK  status: ('A' for Active; 'I' for Inactive)
REMARK    1  A    between atoms: B1_1  and  O1_2 
REMARK    2  A    between atoms: O1_2  and  C1_3 
REMARK    3  A    between atoms: C4_6  and  N1_7 
REMARK    4  A    between atoms: C16_21  and  C17_22 
REMARK    5  A    between atoms: C17_22  and  O2_23 
ROOT
HETATM    1  C1  UNL     1       2.918  -0.490  -0.096  1.00  0.00     0.058 A 
HETATM    2  C2  UNL     1       1.552  -0.256  -0.006  1.00  0.00     0.053 A 
HETATM    3  C3  UNL     1       1.125   1.043   0.051  1.00  0.00     0.041 A 
HETATM    4  C4  UNL     1      -0.233   1.243   0.139  1.00  0.00     0.140 A 
HETATM    5  N2  UNL     1      -0.686   2.512   0.198  1.00  0.00    -0.224 NA
HETATM    6  C13 UNL     1       0.163   3.574   0.170  1.00  0.00     0.236 A 
HETATM    7  N3  UNL     1       1.498   3.401   0.084  1.00  0.00    -0.241 NA
HETATM    8  C14 UNL     1       1.975   2.128   0.024  1.00  0.00     0.073 A 
HETATM    9  C15 UNL     1       3.327   1.896  -0.065  1.00  0.00     0.044 A 
HETATM   10  C16 UNL     1       3.774   0.596  -0.123  1.00  0.00    -0.001 A 
ENDROOT
BRANCH   4  11
HETATM   11  N1  UNL     1      -1.239   0.237   0.178  1.00  0.00    -0.360 N 
HETATM   12  C5  UNL     1      -1.594  -0.809  -0.767  1.00  0.00     0.160 C 
HETATM   13  C6  UNL     1      -3.028  -0.446  -1.016  1.00  0.00    -0.042 C 
HETATM   14  C7  UNL     1      -4.035  -0.270  -1.849  1.00  0.00    -0.021 C 
HETATM   15  C11 UNL     1      -3.568  -0.134   0.359  1.00  0.00     0.057 C 
HETATM   16  C8  UNL     1      -5.218  -0.709  -1.447  1.00  0.00     0.012 C 
HETATM   17  C9  UNL     1      -5.299  -1.580  -0.253  1.00  0.00    -0.002 C 
HETATM   18  C10 UNL     1      -4.425  -1.291   0.728  1.00  0.00    -0.016 C 
HETATM   19  C12 UNL     1      -2.270  -0.097   1.178  1.00  0.00     0.138 C 
ENDBRANCH   4  11
BRANCH   1  20
HETATM   20  O1  UNL     1       3.464  -1.769  -0.160  1.00  0.00    -0.428 OA
BRANCH  20  21
HETATM   21  B1  UNL     1       2.642  -2.979  -0.138  1.00  0.00     0.300 B 
HETATM   22  H1  UNL     1       2.916  -3.884   0.589  1.00  0.00     0.002 HD
HETATM   23  H2  UNL     1       1.531  -2.950  -0.533  1.00  0.00     0.002 HD
ENDBRANCH  20  21
ENDBRANCH   1  20
BRANCH  10  24
HETATM   24  C17 UNL     1       5.223   0.357  -0.219  1.00  0.00     0.205 C 
BRANCH  24  25
HETATM   25  O2  UNL     1       5.753  -0.067   1.004  1.00  0.00    -0.396 OA
HETATM   26  H16 UNL     1       5.701   0.673   1.663  1.00  0.00     0.209 HD
ENDBRANCH  24  25
ENDBRANCH  10  24
TORSDOF 5
