REMARK  5 active torsions:
REMARK  status: ('A' for Active; 'I' for Inactive)
REMARK    1  A    between atoms: O1_2  and  C2_3 
REMARK    2  A    between atoms: C5_8  and  N2_9 
REMARK    3  A    between atoms: C10_14  and  C11_15 
REMARK    4  A    between atoms: C11_15  and  C12_16 
REMARK    5  A    between atoms: C12_16  and  N3_17 
ROOT
HETATM    1  C2  UNL     1      -3.291  -0.832  -0.476  1.00  0.00     0.080 C 
HETATM    2  C3  UNL     1      -3.540  -0.939  -1.810  1.00  0.00     0.065 C 
HETATM    3  C4  UNL     1      -2.149  -1.246  -2.265  1.00  0.00     0.069 C 
HETATM    4  N1  UNL     1      -1.389  -0.402  -2.994  1.00  0.00    -0.212 NA
HETATM    5  S1  UNL     1      -0.196   0.738  -2.252  1.00  0.00     0.029 SA
HETATM    6  C5  UNL     1      -0.170   0.468  -0.452  1.00  0.00     0.094 C 
HETATM    7  C13 UNL     1      -0.985  -0.312   0.297  1.00  0.00     0.050 C 
HETATM    8  C14 UNL     1      -2.039  -1.353   0.178  1.00  0.00     0.204 C 
HETATM    9  O2  UNL     1      -1.602  -2.550  -0.361  1.00  0.00    -0.369 OA
HETATM   10  C15 UNL     1      -1.690  -2.603  -1.749  1.00  0.00     0.229 C 
ENDROOT
BRANCH   6  11
HETATM   11  N2  UNL     1       0.851   1.197   0.180  1.00  0.00    -0.342 N 
HETATM   12  C6  UNL     1       0.766   2.575  -0.242  1.00  0.00     0.092 A 
HETATM   13  C7  UNL     1       1.596   3.531   0.209  1.00  0.00     0.017 A 
HETATM   14  C8  UNL     1       2.647   3.206   1.166  1.00  0.00    -0.001 A 
HETATM   15  C9  UNL     1       2.676   1.929   1.508  1.00  0.00    -0.001 A 
HETATM   16  C10 UNL     1       1.852   0.737   1.114  1.00  0.00     0.114 A 
BRANCH  16  17
HETATM   17  C11 UNL     1       2.808  -0.232   0.496  1.00  0.00     0.059 C 
BRANCH  17  18
HETATM   18  C12 UNL     1       2.215  -1.484  -0.045  1.00  0.00     0.269 C 
BRANCH  18  19
HETATM   19  N3  UNL     1       3.337  -2.276  -0.585  1.00  0.00     0.078 N 
HETATM   20  H14 UNL     1       3.838  -1.644  -1.254  1.00  0.00     0.312 HD
HETATM   21  H15 UNL     1       3.981  -2.404   0.230  1.00  0.00     0.312 HD
ENDBRANCH  18  19
ENDBRANCH  17  18
ENDBRANCH  16  17
ENDBRANCH   6  11
BRANCH   1  22
HETATM   22  O1  UNL     1      -4.232  -0.205   0.390  1.00  0.00    -0.357 OA
HETATM   23  C1  UNL     1      -3.765   0.624   1.439  1.00  0.00     0.209 C 
ENDBRANCH   1  22
TORSDOF 5
