REMARK  4 active torsions:
REMARK  status: ('A' for Active; 'I' for Inactive)
REMARK    1  A    between atoms: O1_2  and  C2_3 
REMARK    2  A    between atoms: C6_9  and  N3_10 
REMARK    3  A    between atoms: C9_13  and  S1_14 
REMARK    4  A    between atoms: C15_20  and  O2_21 
ROOT
HETATM    1  C2  UNL     1      -3.275  -0.526  -0.509  1.00  0.00     0.103 A 
HETATM    2  C3  UNL     1      -3.028   0.145  -1.690  1.00  0.00     0.072 A 
HETATM    3  C4  UNL     1      -1.780   0.625  -2.031  1.00  0.00     0.075 A 
HETATM    4  N1  UNL     1      -1.603   1.268  -3.192  1.00  0.00    -0.241 NA
HETATM    5  C5  UNL     1      -0.380   1.752  -3.553  1.00  0.00     0.236 A 
HETATM    6  N2  UNL     1       0.680   1.586  -2.731  1.00  0.00    -0.223 NA
HETATM    7  C6  UNL     1       0.496   0.935  -1.557  1.00  0.00     0.148 A 
HETATM    8  C13 UNL     1      -0.732   0.433  -1.165  1.00  0.00     0.042 A 
HETATM    9  C14 UNL     1      -0.925  -0.230   0.027  1.00  0.00     0.057 A 
HETATM   10  C15 UNL     1      -2.197  -0.709   0.353  1.00  0.00     0.102 A 
ENDROOT
BRANCH   7  11
HETATM   11  N3  UNL     1       1.623   0.763  -0.693  1.00  0.00    -0.297 N 
HETATM   12  C7  UNL     1       2.751   0.021  -0.244  1.00  0.00     0.046 A 
HETATM   13  C8  UNL     1       2.494   1.160   0.362  1.00  0.00     0.059 A 
HETATM   14  C12 UNL     1       3.891  -0.873   0.104  1.00  0.00     0.086 C 
HETATM   15  C9  UNL     1       3.494   1.421   1.431  1.00  0.00     0.119 C 
HETATM   16  C10 UNL     1       3.746   0.203   2.248  1.00  0.00    -0.009 C 
HETATM   17  C11 UNL     1       3.945  -0.944   1.604  1.00  0.00    -0.023 C 
BRANCH  15  18
HETATM   18  S1  UNL     1       5.096   1.935   0.723  1.00  0.00    -0.167 SA
HETATM   19  H7  UNL     1       4.892   2.953  -0.250  1.00  0.00     0.102 HD
ENDBRANCH  15  18
ENDBRANCH   7  11
BRANCH  10  20
HETATM   20  O2  UNL     1      -2.384  -1.376   1.557  1.00  0.00    -0.353 OA
HETATM   21  C16 UNL     1      -1.254  -1.540   2.407  1.00  0.00     0.210 C 
ENDBRANCH  10  20
BRANCH   1  22
HETATM   22  O1  UNL     1      -4.494  -1.031  -0.106  1.00  0.00    -0.353 OA
HETATM   23  C1  UNL     1      -5.664  -0.911  -0.890  1.00  0.00     0.210 C 
ENDBRANCH   1  22
TORSDOF 4
