REMARK  1 active torsions:
REMARK  status: ('A' for Active; 'I' for Inactive)
REMARK    1  A    between atoms: C2_2  and  N1_3 
ROOT
HETATM    1  N1  UNL     1       1.390  -0.929  -0.284  1.00  0.00    -0.357 N 
HETATM    2  C3  UNL     1       0.660   0.336  -0.257  1.00  0.00     0.043 A 
HETATM    3  C4  UNL     1       1.069   1.254  -1.172  1.00  0.00     0.030 A 
HETATM    4  C5  UNL     1       0.583   2.525  -1.379  1.00  0.00     0.002 A 
HETATM    5  C6  UNL     1      -0.451   2.912  -0.551  1.00  0.00     0.001 A 
HETATM    6  C7  UNL     1      -0.887   1.970   0.404  1.00  0.00     0.014 A 
HETATM    7  C8  UNL     1      -0.388   0.659   0.622  1.00  0.00     0.002 A 
HETATM    8  C9  UNL     1      -1.293   0.294   1.792  1.00  0.00    -0.009 C 
HETATM    9  C10 UNL     1      -2.585   0.095   1.425  1.00  0.00    -0.002 C 
HETATM   10  C11 UNL     1      -3.117   0.162   0.061  1.00  0.00    -0.001 A 
HETATM   11  C12 UNL     1      -2.857  -0.305  -1.261  1.00  0.00     0.011 A 
HETATM   12  O1  UNL     1      -1.831  -1.036  -1.819  1.00  0.00     0.000 OA
HETATM   13  C13 UNL     1      -0.942  -1.304  -0.791  1.00  0.00     0.003 A 
HETATM   14  C14 UNL     1      -1.995  -0.587  -0.346  1.00  0.00     0.053 A 
HETATM   15  C15 UNL     1       0.264  -1.788   0.064  1.00  0.00     0.214 C 
HETATM   16  N2  UNL     1      -0.001  -1.302   1.442  1.00  0.00    -0.257 NA
HETATM   17  C16 UNL     1       0.755  -0.269   1.927  1.00  0.00     0.228 C 
HETATM   18  N3  UNL     1       0.130  -0.171   3.222  1.00  0.00    -0.254 NA
HETATM   19  C17 UNL     1      -1.177   0.155   3.202  1.00  0.00     0.130 C 
ENDROOT
BRANCH   1  20
HETATM   20  C2  UNL     1       2.813  -0.979  -0.534  1.00  0.00     0.121 C 
HETATM   21  C1  UNL     1       2.992  -1.754  -1.834  1.00  0.00     0.026 C 
ENDBRANCH   1  20
TORSDOF 1
