REMARK  5 active torsions:
REMARK  status: ('A' for Active; 'I' for Inactive)
REMARK    1  A    between atoms: O1_2  and  C2_3 
REMARK    2  A    between atoms: C5_6  and  C6_7 
REMARK    3  A    between atoms: C17_21  and  O2_22 
REMARK    4  A    between atoms: O2_22  and  C18_23 
REMARK    5  A    between atoms: C18_23  and  N4_24 
ROOT
HETATM    1  C2  UNL     1      -1.719  -2.207   0.789  1.00  0.00     0.077 C 
HETATM    2  C3  UNL     1      -1.569  -1.146   0.031  1.00  0.00     0.050 C 
HETATM    3  C4  UNL     1      -1.181   0.081  -0.716  1.00  0.00     0.055 C 
HETATM    4  C5  UNL     1       0.035   0.497  -0.518  1.00  0.00     0.069 C 
HETATM    5  N2  UNL     1       0.584  -0.884  -0.449  1.00  0.00    -0.244 NA
HETATM    6  C15 UNL     1      -0.150  -1.815  -1.128  1.00  0.00     0.232 C 
HETATM    7  N3  UNL     1      -1.247  -2.302  -1.951  1.00  0.00    -0.255 NA
HETATM    8  C16 UNL     1      -2.436  -2.546  -1.404  1.00  0.00     0.129 C 
HETATM    9  C17 UNL     1      -2.988  -2.416   0.095  1.00  0.00     0.220 C 
ENDROOT
BRANCH   4  10
HETATM   10  C6  UNL     1       1.348   1.162  -0.455  1.00  0.00     0.082 A 
HETATM   11  C7  UNL     1       2.527   0.931   0.207  1.00  0.00     0.046 A 
HETATM   12  C8  UNL     1       3.495   1.867  -0.051  1.00  0.00    -0.022 A 
HETATM   13  C9  UNL     1       4.652   1.560   0.657  1.00  0.00     0.012 A 
HETATM   14  C13 UNL     1       3.299   2.921  -0.887  1.00  0.00    -0.008 A 
HETATM   15  C10 UNL     1       5.717   2.448   0.473  1.00  0.00     0.001 A 
HETATM   16  C11 UNL     1       5.579   3.542  -0.367  1.00  0.00     0.001 A 
HETATM   17  C12 UNL     1       4.381   3.752  -1.023  1.00  0.00     0.014 A 
HETATM   18  C14 UNL     1       2.113   3.139  -1.544  1.00  0.00     0.129 A 
HETATM   19  N1  UNL     1       1.149   2.209  -1.287  1.00  0.00    -0.258 NA
ENDBRANCH   4  10
BRANCH   1  20
HETATM   20  O1  UNL     1      -0.553  -2.015   1.426  1.00  0.00    -0.357 OA
HETATM   21  C1  UNL     1      -0.427  -1.480   2.737  1.00  0.00     0.209 C 
ENDBRANCH   1  20
BRANCH   9  22
HETATM   22  O2  UNL     1      -3.971  -1.519   0.164  1.00  0.00    -0.356 OA
BRANCH  22  23
HETATM   23  C18 UNL     1      -5.246  -1.947   0.428  1.00  0.00     0.284 C 
BRANCH  23  24
HETATM   24  N4  UNL     1      -6.098  -0.775   0.445  1.00  0.00    -0.411 N 
HETATM   25  H17 UNL     1      -6.576  -0.568  -0.436  1.00  0.00     0.151 HD
HETATM   26  H18 UNL     1      -6.629  -0.663   1.313  1.00  0.00     0.151 HD
ENDBRANCH  23  24
ENDBRANCH  22  23
ENDBRANCH   9  22
TORSDOF 5
