REMARK  6 active torsions:
REMARK  status: ('A' for Active; 'I' for Inactive)
REMARK    1  A    between atoms: O1_2  and  C2_3 
REMARK    2  A    between atoms: C7_8  and  O2_9 
REMARK    3  A    between atoms: O2_9  and  C8_10 
REMARK    4  A    between atoms: C8_10  and  N1_11 
REMARK    5  A    between atoms: N1_11  and  C9_12 
REMARK    6  A    between atoms: C18_22  and  N3_23 
ROOT
HETATM    1  C2  UNL     1      -2.674   0.775   1.863  1.00  0.00     0.103 A 
HETATM    2  C3  UNL     1      -3.700  -0.160   1.677  1.00  0.00     0.071 A 
HETATM    3  C4  UNL     1      -3.516  -1.046   0.638  1.00  0.00     0.066 A 
HETATM    4  C5  UNL     1      -2.418  -1.083  -0.217  1.00  0.00     0.019 A 
HETATM    5  C6  UNL     1      -1.445  -0.135   0.023  1.00  0.00     0.055 A 
HETATM    6  C7  UNL     1      -1.536   0.801   1.042  1.00  0.00     0.105 A 
HETATM    7  C18 UNL     1      -2.548  -2.051  -1.104  1.00  0.00     0.035 A 
HETATM    8  C19 UNL     1      -3.844  -2.724  -0.821  1.00  0.00     0.206 A 
HETATM    9  N4  UNL     1      -4.336  -1.981   0.302  1.00  0.00    -0.283 NA
ENDROOT
BRANCH   6  10
HETATM   10  O2  UNL     1      -0.640   1.690   1.279  1.00  0.00    -0.329 OA
BRANCH  10  11
HETATM   11  C8  UNL     1       0.283   2.581   1.499  1.00  0.00     0.299 C 
BRANCH  11  12
HETATM   12  N1  UNL     1       1.626   2.071   1.841  1.00  0.00    -0.353 N 
HETATM   13  H8  UNL     1       1.981   2.298   2.820  1.00  0.00     0.163 HD
BRANCH  12  14
HETATM   14  C9  UNL     1       2.439   1.325   0.979  1.00  0.00     0.125 A 
HETATM   15  C10 UNL     1       2.100   1.036  -0.316  1.00  0.00     0.062 A 
HETATM   16  C11 UNL     1       2.963   0.290  -1.087  1.00  0.00    -0.021 A 
HETATM   17  C12 UNL     1       2.665  -0.033  -2.419  1.00  0.00     0.012 A 
HETATM   18  C16 UNL     1       4.166  -0.200  -0.654  1.00  0.00    -0.008 A 
HETATM   19  C13 UNL     1       3.549  -0.789  -3.191  1.00  0.00     0.001 A 
HETATM   20  C14 UNL     1       4.745  -1.246  -2.680  1.00  0.00     0.001 A 
HETATM   21  C15 UNL     1       5.066  -0.946  -1.375  1.00  0.00     0.014 A 
HETATM   22  C17 UNL     1       4.448   0.131   0.675  1.00  0.00     0.131 A 
HETATM   23  N2  UNL     1       3.613   0.854   1.426  1.00  0.00    -0.243 NA
ENDBRANCH  12  14
ENDBRANCH  11  12
ENDBRANCH  10  11
ENDBRANCH   6  10
BRANCH   1  24
HETATM   24  O1  UNL     1      -2.766   1.711   2.882  1.00  0.00    -0.353 OA
HETATM   25  C1  UNL     1      -3.867   1.766   3.757  1.00  0.00     0.210 C 
ENDBRANCH   1  24
BRANCH   7  26
HETATM   26  N3  UNL     1      -1.645  -2.411  -2.143  1.00  0.00    -0.400 N 
HETATM   27  H15 UNL     1      -2.073  -2.669  -3.059  1.00  0.00     0.156 HD
HETATM   28  H16 UNL     1      -0.594  -2.453  -2.110  1.00  0.00     0.156 HD
ENDBRANCH   7  26
TORSDOF 6
