REMARK  4 active torsions:
REMARK  status: ('A' for Active; 'I' for Inactive)
REMARK    1  A    between atoms: O1_2  and  C2_3 
REMARK    2  A    between atoms: C6_9  and  N3_10 
REMARK    3  A    between atoms: N3_10  and  C7_11 
REMARK    4  A    between atoms: C18_23  and  O2_24 
ROOT
HETATM    1  C2  UNL     1       4.501   0.023  -0.142  1.00  0.00     0.103 A 
HETATM    2  C3  UNL     1       4.035  -0.704   0.937  1.00  0.00     0.072 A 
HETATM    3  C4  UNL     1       2.696  -0.869   1.199  1.00  0.00     0.075 A 
HETATM    4  N1  UNL     1       2.227  -1.576   2.248  1.00  0.00    -0.241 NA
HETATM    5  C5  UNL     1       0.887  -1.696   2.444  1.00  0.00     0.236 A 
HETATM    6  N2  UNL     1      -0.060  -1.138   1.635  1.00  0.00    -0.223 NA
HETATM    7  C6  UNL     1       0.394  -0.431   0.585  1.00  0.00     0.143 A 
HETATM    8  C16 UNL     1       1.750  -0.301   0.374  1.00  0.00     0.042 A 
HETATM    9  C17 UNL     1       2.224   0.418  -0.693  1.00  0.00     0.057 A 
HETATM   10  C18 UNL     1       3.567   0.595  -0.973  1.00  0.00     0.102 A 
ENDROOT
BRANCH   7  11
HETATM   11  N3  UNL     1      -0.579   0.161  -0.274  1.00  0.00    -0.325 N 
HETATM   12  H6  UNL     1      -0.441   0.729  -1.113  1.00  0.00     0.169 HD
BRANCH  11  13
HETATM   13  C7  UNL     1      -1.959  -0.051   0.058  1.00  0.00     0.129 A 
HETATM   14  C8  UNL     1      -3.015   0.454  -0.672  1.00  0.00     0.062 A 
HETATM   15  C9  UNL     1      -4.339   0.249  -0.350  1.00  0.00    -0.021 A 
HETATM   16  C10 UNL     1      -5.317   0.801  -1.150  1.00  0.00     0.012 A 
HETATM   17  C14 UNL     1      -4.655  -0.503   0.762  1.00  0.00    -0.008 A 
HETATM   18  C11 UNL     1      -6.654   0.614  -0.857  1.00  0.00     0.001 A 
HETATM   19  C12 UNL     1      -6.962  -0.141   0.262  1.00  0.00     0.001 A 
HETATM   20  C13 UNL     1      -5.988  -0.698   1.070  1.00  0.00     0.014 A 
HETATM   21  C15 UNL     1      -3.595  -1.005   1.489  1.00  0.00     0.131 A 
HETATM   22  N4  UNL     1      -2.320  -0.776   1.132  1.00  0.00    -0.242 NA
ENDBRANCH  11  13
ENDBRANCH   7  11
BRANCH  10  23
HETATM   23  O2  UNL     1       4.004   1.319  -2.046  1.00  0.00    -0.353 OA
HETATM   24  C19 UNL     1       3.157   1.959  -2.978  1.00  0.00     0.210 C 
ENDBRANCH  10  23
BRANCH   1  25
HETATM   25  O1  UNL     1       5.836   0.188  -0.404  1.00  0.00    -0.353 OA
HETATM   26  C1  UNL     1       6.854  -0.355   0.383  1.00  0.00     0.210 C 
ENDBRANCH   1  25
TORSDOF 4
