REMARK  4 active torsions:
REMARK  status: ('A' for Active; 'I' for Inactive)
REMARK    1  A    between atoms: O1_2  and  C2_3 
REMARK    2  A    between atoms: C5_6  and  N1_7 
REMARK    3  A    between atoms: C18_22  and  B1_23 
REMARK    4  A    between atoms: B1_23  and  O2_24 
ROOT
HETATM    1  C2  UNL     1       2.863  -0.030   0.317  1.00  0.00     0.067 A 
HETATM    2  C3  UNL     1       1.567  -0.007  -0.155  1.00  0.00     0.054 A 
HETATM    3  C4  UNL     1       1.335  -0.065  -1.505  1.00  0.00     0.042 A 
HETATM    4  C5  UNL     1      -0.004  -0.028  -1.822  1.00  0.00     0.144 A 
HETATM    5  N2  UNL     1      -0.357  -0.072  -3.140  1.00  0.00    -0.223 NA
HETATM    6  C15 UNL     1       0.642  -0.152  -4.065  1.00  0.00     0.236 A 
HETATM    7  N3  UNL     1       1.969  -0.191  -3.757  1.00  0.00    -0.241 NA
HETATM    8  C16 UNL     1       2.322  -0.147  -2.461  1.00  0.00     0.072 A 
HETATM    9  C17 UNL     1       3.620  -0.170  -1.989  1.00  0.00     0.033 A 
HETATM   10  C18 UNL     1       3.887  -0.113  -0.634  1.00  0.00    -0.034 A 
ENDROOT
BRANCH   4  11
HETATM   11  N1  UNL     1      -1.166   0.023  -1.013  1.00  0.00    -0.337 N 
HETATM   12  C6  UNL     1      -1.793   1.316  -1.155  1.00  0.00     0.094 A 
HETATM   13  C7  UNL     1      -2.896   1.670  -0.514  1.00  0.00     0.029 A 
HETATM   14  C8  UNL     1      -3.570   0.757   0.400  1.00  0.00    -0.027 A 
HETATM   15  C9  UNL     1      -4.717   1.024   1.117  1.00  0.00     0.012 A 
HETATM   16  C13 UNL     1      -2.953  -0.471   0.518  1.00  0.00    -0.030 A 
HETATM   17  C10 UNL     1      -5.290   0.102   1.966  1.00  0.00     0.001 A 
HETATM   18  C11 UNL     1      -4.666  -1.122   2.077  1.00  0.00     0.001 A 
HETATM   19  C12 UNL     1      -3.518  -1.413   1.370  1.00  0.00     0.010 A 
HETATM   20  C14 UNL     1      -1.728  -0.989  -0.144  1.00  0.00     0.169 A 
ENDBRANCH   4  11
BRANCH   1  21
HETATM   21  O1  UNL     1       3.215   0.023   1.660  1.00  0.00    -0.356 OA
HETATM   22  C1  UNL     1       2.277   0.107   2.689  1.00  0.00     0.210 C 
ENDBRANCH   1  21
BRANCH  10  23
HETATM   23  B1  UNL     1       5.393  -0.145  -0.193  1.00  0.00     0.345 B 
HETATM   24  H15 UNL     1       5.899  -1.184   0.129  1.00  0.00     0.013 HD
BRANCH  23  25
HETATM   25  O2  UNL     1       6.319   0.950  -0.440  1.00  0.00    -0.461 OA
HETATM   26  H16 UNL     1       7.129   0.597  -0.902  1.00  0.00     0.182 HD
ENDBRANCH  23  25
ENDBRANCH  10  23
TORSDOF 4
