REMARK  7 active torsions:
REMARK  status: ('A' for Active; 'I' for Inactive)
REMARK    1  A    between atoms: C2_2  and  C3_3 
REMARK    2  A    between atoms: C4_4  and  C5_5 
REMARK    3  A    between atoms: C8_9  and  N2_10 
REMARK    4  A    between atoms: N2_10  and  C9_11 
REMARK    5  A    between atoms: C11_13  and  C12_14 
REMARK    6  A    between atoms: C13_15  and  O1_16 
REMARK    7  A    between atoms: C13_15  and  C15_18 
ROOT
HETATM    1  C9  UNL     1      -0.774   0.037  -0.552  1.00  0.00     0.128 A 
HETATM    2  C10 UNL     1      -1.990  -0.538  -0.812  1.00  0.00     0.082 A 
HETATM    3  C11 UNL     1      -3.096  -0.247  -0.024  1.00  0.00     0.064 A 
HETATM    4  N3  UNL     1      -2.976   0.610   1.009  1.00  0.00    -0.242 NA
HETATM    5  C18 UNL     1      -1.789   1.175   1.267  1.00  0.00     0.235 A 
HETATM    6  N4  UNL     1      -0.738   0.876   0.488  1.00  0.00    -0.225 NA
ENDROOT
BRANCH   1   7
HETATM    7  N2  UNL     1       0.410  -0.177  -1.257  1.00  0.00    -0.352 N 
HETATM    8  H11 UNL     1       0.189   0.481  -2.066  1.00  0.00     0.163 HD
BRANCH   7   9
HETATM    9  C8  UNL     1       1.636  -0.890  -1.230  1.00  0.00     0.210 C 
HETATM   10  N1  UNL     1       1.555  -2.314  -1.117  1.00  0.00    -0.275 NA
HETATM   11  C7  UNL     1       2.577  -2.757  -0.472  1.00  0.00     0.120 C 
HETATM   12  C6  UNL     1       3.454  -1.680  -0.081  1.00  0.00    -0.037 C 
HETATM   13  C5  UNL     1       4.755  -1.725   0.120  1.00  0.00     0.008 C 
HETATM   14  C19 UNL     1       2.489  -0.526  -0.001  1.00  0.00     0.088 C 
BRANCH  13  15
HETATM   15  C4  UNL     1       5.444  -0.541   0.507  1.00  0.00    -0.003 C 
HETATM   16  C3  UNL     1       6.431   0.230   0.843  1.00  0.00    -0.027 C 
BRANCH  16  17
HETATM   17  C2  UNL     1       6.909   1.560   1.233  1.00  0.00     0.022 C 
HETATM   18  C1  UNL     1       7.927   2.108   0.241  1.00  0.00     0.009 C 
ENDBRANCH  16  17
ENDBRANCH  13  15
ENDBRANCH   7   9
ENDBRANCH   1   7
BRANCH   3  19
HETATM   19  C12 UNL     1      -4.383  -0.901  -0.354  1.00  0.00     0.071 C 
HETATM   20  C13 UNL     1      -5.640  -0.536  -0.461  1.00  0.00     0.103 C 
BRANCH  20  21
HETATM   21  O1  UNL     1      -6.660  -1.457  -0.802  1.00  0.00    -0.353 OA
HETATM   22  C14 UNL     1      -6.961  -2.440   0.165  1.00  0.00     0.210 C 
ENDBRANCH  20  21
BRANCH  20  23
HETATM   23  C15 UNL     1      -6.197   0.806  -0.265  1.00  0.00     0.100 A 
HETATM   24  C16 UNL     1      -5.611   1.939   0.051  1.00  0.00     0.039 A 
HETATM   25  C17 UNL     1      -6.863   2.695   0.028  1.00  0.00     0.206 A 
HETATM   26  O2  UNL     1      -7.409   1.460  -0.303  1.00  0.00    -0.345 OA
ENDBRANCH  20  23
ENDBRANCH   3  19
TORSDOF 7
