REMARK  3 active torsions:
REMARK  status: ('A' for Active; 'I' for Inactive)
REMARK    1  A    between atoms: C17_21  and  O1_22 
REMARK    2  A    between atoms: O1_22  and  C18_23 
REMARK    3  A    between atoms: C18_23  and  O2_24 
ROOT
HETATM    1  C1  UNL     1      -4.144   3.181  -0.708  1.00  0.00     0.024 C 
HETATM    2  C2  UNL     1      -3.852   2.099   0.004  1.00  0.00    -0.036 C 
HETATM    3  C3  UNL     1      -4.609   1.506   1.146  1.00  0.00     0.028 C 
HETATM    4  C4  UNL     1      -4.094   0.417   1.761  1.00  0.00     0.088 C 
HETATM    5  N1  UNL     1      -3.003  -0.419   1.280  1.00  0.00    -0.370 N 
HETATM    6  C5  UNL     1      -2.526  -1.195   2.410  1.00  0.00     0.241 C 
HETATM    7  N2  UNL     1      -1.359  -2.022   2.023  1.00  0.00    -0.399 N 
HETATM    8  C6  UNL     1      -0.243  -1.262   1.493  1.00  0.00     0.108 C 
HETATM    9  C7  UNL     1       0.424  -0.804   0.415  1.00  0.00     0.060 C 
HETATM   10  C8  UNL     1       0.922  -0.458  -0.971  1.00  0.00     0.127 C 
HETATM   11  C9  UNL     1       0.811   1.012  -1.181  1.00  0.00     0.013 C 
HETATM   12  C10 UNL     1      -0.094   1.970  -1.075  1.00  0.00    -0.001 C 
HETATM   13  C11 UNL     1      -1.519   2.040  -0.675  1.00  0.00     0.009 C 
HETATM   14  C12 UNL     1      -2.599   1.349  -0.276  1.00  0.00    -0.031 C 
HETATM   15  C13 UNL     1      -2.846  -0.133  -0.090  1.00  0.00     0.163 C 
HETATM   16  N3  UNL     1       0.192  -1.062  -2.024  1.00  0.00    -0.261 NA
HETATM   17  C14 UNL     1       0.189  -2.139  -2.700  1.00  0.00     0.228 C 
HETATM   18  N4  UNL     1       1.117  -3.175  -2.490  1.00  0.00    -0.254 NA
HETATM   19  C15 UNL     1       2.302  -3.141  -1.925  1.00  0.00     0.120 C 
HETATM   20  C16 UNL     1       2.917  -1.938  -1.374  1.00  0.00     0.054 C 
HETATM   21  C17 UNL     1       2.362  -0.807  -0.969  1.00  0.00     0.085 C 
HETATM   22  H7  UNL     1      -1.384  -3.083   2.152  1.00  0.00     0.155 HD
ENDROOT
BRANCH  21  23
HETATM   23  O1  UNL     1       3.250   0.167  -0.484  1.00  0.00    -0.327 OA
BRANCH  23  24
HETATM   24  C18 UNL     1       4.132  -0.215   0.555  1.00  0.00     0.343 C 
BRANCH  24  25
HETATM   25  O2  UNL     1       4.950   0.868   0.918  1.00  0.00    -0.371 OA
HETATM   26  C19 UNL     1       5.708   1.297  -0.177  1.00  0.00     0.204 C 
ENDBRANCH  24  25
ENDBRANCH  23  24
ENDBRANCH  21  23
TORSDOF 3
