REMARK  5 active torsions:
REMARK  status: ('A' for Active; 'I' for Inactive)
REMARK    1  A    between atoms: O1_2  and  C2_3 
REMARK    2  A    between atoms: C6_9  and  N3_10 
REMARK    3  A    between atoms: N3_10  and  N4_11 
REMARK    4  A    between atoms: N4_11  and  C7_12 
REMARK    5  A    between atoms: C15_22  and  O2_23 
ROOT
HETATM    1  C2  UNL     1      -3.410   0.057   0.828  1.00  0.00     0.103 A 
HETATM    2  C3  UNL     1      -3.123  -0.967   1.707  1.00  0.00     0.072 A 
HETATM    3  C4  UNL     1      -1.926  -1.637   1.642  1.00  0.00     0.074 A 
HETATM    4  N1  UNL     1      -1.509  -2.686   2.367  1.00  0.00    -0.241 NA
HETATM    5  C5  UNL     1      -0.353  -3.334   2.222  1.00  0.00     0.235 A 
HETATM    6  N2  UNL     1       0.548  -2.953   1.265  1.00  0.00    -0.228 NA
HETATM    7  C6  UNL     1       0.300  -1.899   0.429  1.00  0.00     0.135 A 
HETATM    8  C13 UNL     1      -0.952  -1.363   0.747  1.00  0.00     0.037 A 
HETATM    9  C14 UNL     1      -1.298  -0.300  -0.129  1.00  0.00     0.057 A 
HETATM   10  C15 UNL     1      -2.484   0.446  -0.154  1.00  0.00     0.102 A 
ENDROOT
BRANCH   7  11
HETATM   11  N3  UNL     1       1.094  -1.404  -0.585  1.00  0.00    -0.187 NA
HETATM   12  H6  UNL     1       1.539  -0.814   0.196  1.00  0.00     0.154 HD
BRANCH  11  13
HETATM   13  N4  UNL     1       2.056  -0.650  -1.171  1.00  0.00    -0.316 N 
HETATM   14  H7  UNL     1       1.650  -0.395  -2.130  1.00  0.00     0.181 HD
BRANCH  13  15
HETATM   15  C7  UNL     1       3.329  -0.021  -1.210  1.00  0.00     0.045 A 
HETATM   16  C8  UNL     1       4.470  -0.400  -1.850  1.00  0.00     0.033 A 
HETATM   17  C9  UNL     1       5.575   0.403  -1.695  1.00  0.00     0.046 A 
HETATM   18  C10 UNL     1       5.496   1.554  -0.906  1.00  0.00     0.138 A 
HETATM   19  F1  UNL     1       6.625   2.303  -0.790  1.00  0.00    -0.204 F 
HETATM   20  C11 UNL     1       4.358   1.945  -0.257  1.00  0.00     0.074 A 
HETATM   21 CL1  UNL     1       4.388   3.403   0.706  1.00  0.00    -0.081 Cl
HETATM   22  C12 UNL     1       3.232   1.124  -0.416  1.00  0.00     0.057 A 
ENDBRANCH  13  15
ENDBRANCH  11  13
ENDBRANCH   7  11
BRANCH  10  23
HETATM   23  O2  UNL     1      -2.873   1.467  -0.954  1.00  0.00    -0.353 OA
HETATM   24  C16 UNL     1      -2.092   2.023  -1.980  1.00  0.00     0.210 C 
ENDBRANCH  10  23
BRANCH   1  25
HETATM   25  O1  UNL     1      -4.617   0.713   0.906  1.00  0.00    -0.353 OA
HETATM   26  C1  UNL     1      -5.589   0.519   1.915  1.00  0.00     0.210 C 
ENDBRANCH   1  25
TORSDOF 5
