REMARK  7 active torsions:
REMARK  status: ('A' for Active; 'I' for Inactive)
REMARK    1  A    between atoms: O1_2  and  C2_3 
REMARK    2  A    between atoms: C6_9  and  N3_10 
REMARK    3  A    between atoms: N3_10  and  N4_11 
REMARK    4  A    between atoms: N4_11  and  C7_12 
REMARK    5  A    between atoms: C7_12  and  C8_13 
REMARK    6  A    between atoms: C9_14  and  C10_16 
REMARK    7  A    between atoms: C14_21  and  O2_22 
ROOT
HETATM    1  C2  UNL     1      -4.389   0.225  -0.169  1.00  0.00     0.103 A 
HETATM    2  C3  UNL     1      -3.751   1.418  -0.441  1.00  0.00     0.072 A 
HETATM    3  C4  UNL     1      -2.377   1.538  -0.512  1.00  0.00     0.075 A 
HETATM    4  N1  UNL     1      -1.763   2.724  -0.782  1.00  0.00    -0.241 NA
HETATM    5  C5  UNL     1      -0.416   2.801  -0.843  1.00  0.00     0.236 A 
HETATM    6  N2  UNL     1       0.363   1.701  -0.637  1.00  0.00    -0.223 NA
HETATM    7  C6  UNL     1      -0.271   0.545  -0.372  1.00  0.00     0.151 A 
HETATM    8  C12 UNL     1      -1.639   0.397  -0.296  1.00  0.00     0.042 A 
HETATM    9  C13 UNL     1      -2.246  -0.810  -0.021  1.00  0.00     0.057 A 
HETATM   10  C14 UNL     1      -3.622  -0.916   0.046  1.00  0.00     0.102 A 
ENDROOT
BRANCH   7  11
HETATM   11  N3  UNL     1       0.584  -0.572  -0.165  1.00  0.00    -0.304 N 
HETATM   12  H6  UNL     1       0.396  -1.574   0.053  1.00  0.00     0.182 HD
BRANCH  11  13
HETATM   13  N4  UNL     1       1.979  -0.414  -0.245  1.00  0.00    -0.235 NA
HETATM   14  H7  UNL     1       2.306  -1.038  -1.045  1.00  0.00     0.146 HD
BRANCH  13  15
HETATM   15  C7  UNL     1       2.599  -0.992   0.945  1.00  0.00     0.139 C 
BRANCH  15  16
HETATM   16  C8  UNL     1       4.063  -0.783   0.813  1.00  0.00     0.011 C 
HETATM   17  C9  UNL     1       4.780  -0.207  -0.127  1.00  0.00     0.042 C 
HETATM   18 CL1  UNL     1       4.218   0.538  -1.604  1.00  0.00    -0.086 Cl
BRANCH  17  19
HETATM   19  C10 UNL     1       6.257  -0.148   0.021  1.00  0.00     0.210 C 
HETATM   20  C11 UNL     1       6.622   1.327   0.023  1.00  0.00     0.051 C 
HETATM   21  F1  UNL     1       6.675  -0.766   1.186  1.00  0.00    -0.244 F 
ENDBRANCH  17  19
ENDBRANCH  15  16
ENDBRANCH  13  15
ENDBRANCH  11  13
ENDBRANCH   7  11
BRANCH  10  22
HETATM   22  O2  UNL     1      -4.275  -2.101   0.318  1.00  0.00    -0.353 OA
HETATM   23  C15 UNL     1      -3.567  -3.300   0.547  1.00  0.00     0.210 C 
ENDBRANCH  10  22
BRANCH   1  24
HETATM   24  O1  UNL     1      -5.765   0.123  -0.102  1.00  0.00    -0.353 OA
HETATM   25  C1  UNL     1      -6.523   1.300  -0.325  1.00  0.00     0.210 C 
ENDBRANCH   1  24
TORSDOF 7
