REMARK  5 active torsions:
REMARK  status: ('A' for Active; 'I' for Inactive)
REMARK    1  A    between atoms: O1_2  and  C2_3 
REMARK    2  A    between atoms: N3_9  and  N4_10 
REMARK    3  A    between atoms: N4_10  and  C6_11 
REMARK    4  A    between atoms: C14_20  and  O2_21 
REMARK    5  A    between atoms: O2_21  and  C15_22 
ROOT
HETATM    1  C2  UNL     1      -3.006  -0.729   0.140  1.00  0.00     0.103 C 
HETATM    2  C3  UNL     1      -2.549  -1.905  -0.259  1.00  0.00     0.069 C 
HETATM    3  C4  UNL     1      -1.179  -1.871  -0.749  1.00  0.00     0.069 C 
HETATM    4  N1  UNL     1      -0.632  -3.005  -1.039  1.00  0.00    -0.242 NA
HETATM    5  C5  UNL     1       0.713  -3.040  -1.490  1.00  0.00     0.257 C 
HETATM    6  N2  UNL     1       1.469  -1.976  -1.612  1.00  0.00    -0.149 NA
HETATM    7  N3  UNL     1       0.951  -0.709  -1.268  1.00  0.00    -0.195 N 
HETATM    8  C12 UNL     1      -0.427  -0.661  -1.066  1.00  0.00     0.206 C 
HETATM    9  C13 UNL     1      -1.064   0.524  -0.508  1.00  0.00     0.048 C 
HETATM   10  C14 UNL     1      -2.263   0.519   0.044  1.00  0.00     0.103 C 
ENDROOT
BRANCH   7  11
HETATM   11  N4  UNL     1       1.689   0.469  -1.119  1.00  0.00    -0.282 N 
HETATM   12  H6  UNL     1       1.407   1.341  -1.624  1.00  0.00     0.189 HD
BRANCH  11  13
HETATM   13  C6  UNL     1       2.840   0.560  -0.295  1.00  0.00     0.051 A 
HETATM   14  C7  UNL     1       3.574   1.714  -0.141  1.00  0.00     0.031 A 
HETATM   15  C8  UNL     1       4.687   1.717   0.686  1.00  0.00     0.004 A 
HETATM   16  C9  UNL     1       5.097   0.596   1.370  1.00  0.00     0.024 A 
HETATM   17  C10 UNL     1       4.370  -0.570   1.225  1.00  0.00     0.036 A 
HETATM   18 CL1  UNL     1       4.888  -2.003   2.096  1.00  0.00    -0.084 Cl
HETATM   19  C11 UNL     1       3.256  -0.557   0.393  1.00  0.00     0.054 A 
ENDBRANCH  11  13
ENDBRANCH   7  11
BRANCH  10  20
HETATM   20  O2  UNL     1      -2.748   1.735   0.507  1.00  0.00    -0.319 OA
BRANCH  20  21
HETATM   21  C15 UNL     1      -2.362   2.212   1.786  1.00  0.00     0.398 C 
HETATM   22  F1  UNL     1      -2.967   3.438   2.034  1.00  0.00    -0.227 F 
ENDBRANCH  20  21
ENDBRANCH  10  20
BRANCH   1  23
HETATM   23  O1  UNL     1      -4.285  -0.583   0.667  1.00  0.00    -0.353 OA
HETATM   24  C1  UNL     1      -5.247  -0.045  -0.250  1.00  0.00     0.210 C 
ENDBRANCH   1  23
TORSDOF 5
