REMARK  4 active torsions:
REMARK  status: ('A' for Active; 'I' for Inactive)
REMARK    1  A    between atoms: O1_2  and  C2_3 
REMARK    2  A    between atoms: C6_9  and  N3_10 
REMARK    3  A    between atoms: N3_10  and  C7_11 
REMARK    4  A    between atoms: C15_21  and  O2_22 
ROOT
HETATM    1  C2  UNL     1      -3.351  -0.267   0.598  1.00  0.00     0.103 A 
HETATM    2  C3  UNL     1      -2.777   0.712   1.381  1.00  0.00     0.072 A 
HETATM    3  C4  UNL     1      -1.428   0.970   1.276  1.00  0.00     0.075 A 
HETATM    4  N1  UNL     1      -0.929   1.944   2.070  1.00  0.00    -0.241 NA
HETATM    5  C5  UNL     1       0.375   2.276   2.042  1.00  0.00     0.236 A 
HETATM    6  N2  UNL     1       1.139   1.591   1.191  1.00  0.00    -0.224 NA
HETATM    7  C6  UNL     1       0.756   0.616   0.366  1.00  0.00     0.142 A 
HETATM    8  C13 UNL     1      -0.580   0.304   0.420  1.00  0.00     0.042 A 
HETATM    9  C14 UNL     1      -1.198  -0.658  -0.335  1.00  0.00     0.057 A 
HETATM   10  C15 UNL     1      -2.540  -0.960  -0.273  1.00  0.00     0.102 A 
ENDROOT
BRANCH   7  11
HETATM   11  N3  UNL     1       1.589  -0.093  -0.531  1.00  0.00    -0.340 N 
HETATM   12  H6  UNL     1       1.224  -0.858  -1.126  1.00  0.00     0.167 HD
BRANCH  11  13
HETATM   13  C7  UNL     1       2.967   0.064  -0.792  1.00  0.00     0.035 A 
HETATM   14  C8  UNL     1       3.726  -0.734  -1.632  1.00  0.00     0.032 A 
HETATM   15  C9  UNL     1       5.066  -0.551  -1.868  1.00  0.00     0.046 A 
HETATM   16  C10 UNL     1       5.751   0.471  -1.261  1.00  0.00     0.138 A 
HETATM   17  F1  UNL     1       7.052   0.574  -1.549  1.00  0.00    -0.204 F 
HETATM   18  C11 UNL     1       5.035   1.290  -0.418  1.00  0.00     0.074 A 
HETATM   19 CL1  UNL     1       5.960   2.580   0.329  1.00  0.00    -0.081 Cl
HETATM   20  C12 UNL     1       3.691   1.070  -0.210  1.00  0.00     0.056 A 
ENDBRANCH  11  13
ENDBRANCH   7  11
BRANCH  10  21
HETATM   21  O2  UNL     1      -3.186  -1.926  -1.025  1.00  0.00    -0.353 OA
HETATM   22  C16 UNL     1      -2.624  -2.771  -1.971  1.00  0.00     0.210 C 
ENDBRANCH  10  21
BRANCH   1  23
HETATM   23  O1  UNL     1      -4.708  -0.517   0.714  1.00  0.00    -0.353 OA
HETATM   24  C1  UNL     1      -5.446   0.246   1.634  1.00  0.00     0.210 C 
ENDBRANCH   1  23
TORSDOF 4
