REMARK  2 active torsions:
REMARK  status: ('A' for Active; 'I' for Inactive)
REMARK    1  A    between atoms: C4_5  and  N1_6 
REMARK    2  A    between atoms: N1_6  and  C5_7 
ROOT
HETATM    1  C5  UNL     1       0.941   0.442   0.280  1.00  0.00     0.160 A 
HETATM    2  N2  UNL     1       1.392   1.600   0.769  1.00  0.00    -0.222 NA
HETATM    3  C6  UNL     1       0.598   2.546   1.290  1.00  0.00     0.238 A 
HETATM    4  N3  UNL     1      -0.737   2.332   1.329  1.00  0.00    -0.215 NA
HETATM    5  C7  UNL     1      -1.283   1.194   0.858  1.00  0.00     0.202 A 
HETATM    6  C8  UNL     1      -0.417   0.257   0.334  1.00  0.00     0.129 A 
HETATM    7  N4  UNL     1      -0.750  -1.002  -0.220  1.00  0.00    -0.379 N 
HETATM    8  C9  UNL     1      -1.976  -1.744  -0.342  1.00  0.00     0.161 C 
HETATM    9  C10 UNL     1      -3.196  -0.960  -0.118  1.00  0.00    -0.005 A 
HETATM   10  C11 UNL     1      -4.232  -1.745  -0.635  1.00  0.00     0.035 A 
HETATM   11  C12 UNL     1      -5.554  -1.327  -0.602  1.00  0.00     0.034 A 
HETATM   12 CL1  UNL     1      -6.865  -2.289  -1.239  1.00  0.00    -0.084 Cl
HETATM   13  C13 UNL     1      -5.880  -0.100  -0.045  1.00  0.00     0.026 A 
HETATM   14  C14 UNL     1      -4.876   0.694   0.472  1.00  0.00     0.039 A 
HETATM   15  C15 UNL     1      -3.590   0.245   0.420  1.00  0.00     0.086 A 
HETATM   16  O1  UNL     1      -2.667   1.132   0.973  1.00  0.00    -0.289 OA
HETATM   17  H5  UNL     1      -0.002  -1.559  -0.645  1.00  0.00     0.160 HD
ENDROOT
BRANCH   1  18
HETATM   18  N1  UNL     1       1.893  -0.458  -0.235  1.00  0.00    -0.339 N 
HETATM   19  H3  UNL     1       1.901  -1.424  -0.615  1.00  0.00     0.167 HD
BRANCH  18  20
HETATM   20  C4  UNL     1       3.264  -0.100  -0.331  1.00  0.00     0.035 A 
HETATM   21  C3  UNL     1       3.585   1.203  -0.647  1.00  0.00     0.032 A 
HETATM   22  C2  UNL     1       4.897   1.649  -0.739  1.00  0.00     0.046 A 
HETATM   23  C1  UNL     1       5.951   0.781  -0.511  1.00  0.00     0.138 A 
HETATM   24  F1  UNL     1       7.246   1.145  -0.581  1.00  0.00    -0.204 F 
HETATM   25  C17 UNL     1       5.675  -0.522  -0.194  1.00  0.00     0.074 A 
HETATM   26  C16 UNL     1       4.364  -0.920  -0.115  1.00  0.00     0.056 A 
HETATM   27 CL2  UNL     1       6.929  -1.711   0.115  1.00  0.00    -0.081 Cl
ENDBRANCH  18  20
ENDBRANCH   1  18
TORSDOF 2
