REMARK  5 active torsions:
REMARK  status: ('A' for Active; 'I' for Inactive)
REMARK    1  A    between atoms: C2_2  and  C3_3 
REMARK    2  A    between atoms: C4_4  and  C5_5 
REMARK    3  A    between atoms: N1_6  and  C6_7 
REMARK    4  A    between atoms: C6_7  and  N2_8 
REMARK    5  A    between atoms: C11_16  and  O1_17 
ROOT
HETATM    1  N2  UNL     1      -0.264   0.770  -0.625  1.00  0.00    -0.063 NA
HETATM    2  N3  UNL     1      -0.496  -0.546  -1.015  1.00  0.00    -0.214 N 
HETATM    3  N4  UNL     1      -1.245  -1.703  -0.907  1.00  0.00    -0.168 NA
HETATM    4  C7  UNL     1      -2.146  -2.169  -0.151  1.00  0.00     0.067 C 
HETATM    5  C8  UNL     1      -3.289  -3.168  -0.089  1.00  0.00     0.206 C 
HETATM    6  N5  UNL     1      -4.386  -2.239   0.280  1.00  0.00    -0.287 NA
HETATM    7  C9  UNL     1      -3.878  -1.276   1.029  1.00  0.00     0.045 C 
HETATM    8  C10 UNL     1      -4.151   0.019   1.804  1.00  0.00     0.067 C 
HETATM    9  C11 UNL     1      -3.231   0.842   1.235  1.00  0.00     0.105 C 
HETATM   10  C13 UNL     1      -1.864   0.236   1.308  1.00  0.00     0.125 C 
HETATM   11  C14 UNL     1      -1.580  -0.929   1.896  1.00  0.00     0.032 C 
HETATM   12  C15 UNL     1      -2.486  -1.853   1.240  1.00  0.00     0.114 C 
HETATM   13  O2  UNL     1      -0.939   1.089   0.623  1.00  0.00    -0.236 OA
HETATM   14  H9  UNL     1       0.232  -0.787  -1.733  1.00  0.00     0.206 HD
ENDROOT
BRANCH   1  15
HETATM   15  C6  UNL     1       1.138   0.774  -0.160  1.00  0.00     0.296 C 
BRANCH  15  16
HETATM   16  N1  UNL     1       1.897   0.350  -1.329  1.00  0.00    -0.283 NA
HETATM   17  C5  UNL     1       3.169   0.451  -1.399  1.00  0.00     0.112 C 
BRANCH  17  18
HETATM   18  C4  UNL     1       4.220   0.937  -0.515  1.00  0.00     0.019 C 
HETATM   19  C3  UNL     1       5.383   0.807  -1.097  1.00  0.00    -0.003 C 
BRANCH  19  20
HETATM   20  C2  UNL     1       5.248   0.223  -2.426  1.00  0.00    -0.009 C 
HETATM   21  C1  UNL     1       6.298  -0.014  -3.229  1.00  0.00     0.013 C 
ENDBRANCH  19  20
ENDBRANCH  17  18
ENDBRANCH  15  16
ENDBRANCH   1  15
BRANCH   9  22
HETATM   22  O1  UNL     1      -3.471   2.074   0.669  1.00  0.00    -0.353 OA
HETATM   23  C12 UNL     1      -3.627   3.162   1.593  1.00  0.00     0.210 C 
ENDBRANCH   9  22
TORSDOF 5
