REMARK  4 active torsions:
REMARK  status: ('A' for Active; 'I' for Inactive)
REMARK    1  A    between atoms: O1_2  and  C2_3 
REMARK    2  A    between atoms: C4_5  and  C5_6 
REMARK    3  A    between atoms: C5_6  and  C6_7 
REMARK    4  A    between atoms: C17_22  and  O2_23 
ROOT
HETATM    1  C2  UNL     1      -3.424   0.604   0.277  1.00  0.00     0.099 C 
HETATM    2  C3  UNL     1      -2.069   0.680   0.071  1.00  0.00     0.023 C 
HETATM    3  C4  UNL     1      -0.825   0.361  -0.772  1.00  0.00     0.058 C 
HETATM    4  C14 UNL     1      -0.475   1.739  -1.284  1.00  0.00     0.100 C 
HETATM    5  N3  UNL     1      -1.105   1.551  -2.457  1.00  0.00    -0.258 NA
HETATM    6  C15 UNL     1      -1.760   0.328  -2.725  1.00  0.00     0.231 C 
HETATM    7  N4  UNL     1      -2.651  -0.690  -2.709  1.00  0.00    -0.251 NA
HETATM    8  C16 UNL     1      -3.752  -0.466  -1.811  1.00  0.00     0.157 C 
HETATM    9  C17 UNL     1      -4.271  -0.033  -0.718  1.00  0.00     0.116 C 
ENDROOT
BRANCH   3  10
HETATM   10  C5  UNL     1       0.125  -0.003   0.360  1.00  0.00     0.100 C 
BRANCH  10  11
HETATM   11  C6  UNL     1       0.992  -0.406   1.228  1.00  0.00     0.042 C 
HETATM   12  C7  UNL     1       1.945  -0.764   2.401  1.00  0.00     0.242 C 
HETATM   13  N1  UNL     1       3.103  -0.146   2.070  1.00  0.00    -0.459 NA
HETATM   14  C8  UNL     1       4.059   0.374   1.860  1.00  0.00     0.174 C 
HETATM   15  C9  UNL     1       5.287   0.987   1.262  1.00  0.00     0.031 C 
HETATM   16  C10 UNL     1       5.032   0.625   0.054  1.00  0.00     0.002 C 
HETATM   17  C11 UNL     1       4.527   0.113  -1.202  1.00  0.00    -0.002 C 
HETATM   18  C12 UNL     1       3.334  -0.561  -1.560  1.00  0.00    -0.008 C 
HETATM   19  C13 UNL     1       2.087  -1.119  -1.257  1.00  0.00     0.142 C 
HETATM   20  N2  UNL     1       1.533  -1.183   0.086  1.00  0.00    -0.411 N 
HETATM   21  H16 UNL     1       1.470  -2.226   0.311  1.00  0.00     0.154 HD
ENDBRANCH  10  11
ENDBRANCH   3  10
BRANCH   1  22
HETATM   22  O1  UNL     1      -3.909   1.181   1.414  1.00  0.00    -0.353 OA
HETATM   23  C1  UNL     1      -4.968   0.839   2.227  1.00  0.00     0.210 C 
ENDBRANCH   1  22
BRANCH   9  24
HETATM   24  O2  UNL     1      -5.630  -0.166  -0.490  1.00  0.00    -0.357 OA
HETATM   25  H20 UNL     1      -6.276   0.607  -0.704  1.00  0.00     0.218 HD
ENDBRANCH   9  24
TORSDOF 4
