REMARK  3 active torsions:
REMARK  status: ('A' for Active; 'I' for Inactive)
REMARK    1  A    between atoms: O1_1  and  C1_2 
REMARK    2  A    between atoms: C4_5  and  C5_6 
REMARK    3  A    between atoms: C5_6  and  C6_7 
ROOT
HETATM    1  C1  UNL     1      -3.304  -1.436   0.321  1.00  0.00     0.043 C 
HETATM    2  C2  UNL     1      -2.209  -2.076  -0.010  1.00  0.00     0.008 C 
HETATM    3  C3  UNL     1      -1.408  -1.221  -0.887  1.00  0.00     0.068 C 
HETATM    4  C4  UNL     1      -1.271   0.192  -0.370  1.00  0.00     0.088 C 
HETATM    5  N4  UNL     1      -0.422   0.966  -1.251  1.00  0.00    -0.267 NA
HETATM    6  C13 UNL     1      -0.368   2.240  -1.436  1.00  0.00     0.227 C 
HETATM    7  N5  UNL     1      -1.074   3.354  -0.891  1.00  0.00    -0.255 NA
HETATM    8  C14 UNL     1      -2.270   3.260  -0.359  1.00  0.00     0.118 C 
HETATM    9  C15 UNL     1      -3.117   2.057  -0.207  1.00  0.00     0.025 C 
HETATM   10  C16 UNL     1      -2.613   0.835  -0.225  1.00  0.00    -0.042 C 
HETATM   11  C17 UNL     1      -3.778  -0.101  -0.042  1.00  0.00     0.100 C 
ENDROOT
BRANCH   4  12
HETATM   12  C5  UNL     1      -0.553   0.134   0.963  1.00  0.00     0.120 C 
BRANCH  12  13
HETATM   13  C6  UNL     1       0.778  -0.480   0.727  1.00  0.00     0.151 A 
HETATM   14  N1  UNL     1       1.071  -1.791   0.788  1.00  0.00    -0.134 NA
HETATM   15  N2  UNL     1       2.290  -2.252   0.562  1.00  0.00    -0.146 NA
HETATM   16  C7  UNL     1       3.271  -1.383   0.261  1.00  0.00     0.107 A 
HETATM   17  C8  UNL     1       4.574  -1.764   0.008  1.00  0.00     0.036 A 
HETATM   18  C12 UNL     1       3.027  -0.027   0.184  1.00  0.00     0.089 A 
HETATM   19  C9  UNL     1       5.573  -0.849  -0.301  1.00  0.00     0.003 A 
HETATM   20  C10 UNL     1       5.286   0.500  -0.367  1.00  0.00     0.002 A 
HETATM   21  C11 UNL     1       3.990   0.912  -0.119  1.00  0.00     0.034 A 
HETATM   22  N3  UNL     1       1.770   0.388   0.423  1.00  0.00    -0.229 NA
ENDBRANCH  12  13
ENDBRANCH   4  12
BRANCH   1  23
HETATM   23  O1  UNL     1      -4.156  -2.142   1.157  1.00  0.00    -0.365 OA
HETATM   24  H1  UNL     1      -5.162  -2.082   1.094  1.00  0.00     0.217 HD
ENDBRANCH   1  23
TORSDOF 3
