REMARK  6 active torsions:
REMARK  status: ('A' for Active; 'I' for Inactive)
REMARK    1  A    between atoms: O1_1  and  C1_2 
REMARK    2  A    between atoms: C6_8  and  C7_9 
REMARK    3  A    between atoms: C7_9  and  N1_10 
REMARK    4  A    between atoms: N1_10  and  C8_11 
REMARK    5  A    between atoms: C10_16  and  N4_17 
REMARK    6  A    between atoms: N4_17  and  C11_18 
ROOT
HETATM    1  C8  UNL     1       0.093   0.511   0.179  1.00  0.00     0.147 C 
HETATM    2  N2  UNL     1      -0.031   1.812   0.131  1.00  0.00    -0.256 NA
HETATM    3  C9  UNL     1       0.486   2.617   1.219  1.00  0.00     0.268 C 
HETATM    4  N3  UNL     1       0.534   1.779   2.400  1.00  0.00    -0.183 NA
HETATM    5  O2  UNL     1       1.348   0.717   2.184  1.00  0.00    -0.270 OA
HETATM    6  C10 UNL     1       0.760  -0.205   1.321  1.00  0.00     0.314 C 
HETATM    7  H10 UNL     1       0.865   2.260   3.241  1.00  0.00     0.155 HD
ENDROOT
BRANCH   1   8
HETATM    8  N1  UNL     1      -0.456  -0.143  -0.949  1.00  0.00    -0.370 N 
HETATM    9  H7  UNL     1       0.135  -0.966  -1.299  1.00  0.00     0.161 HD
BRANCH   8  10
HETATM   10  C7  UNL     1      -1.678   0.145  -1.655  1.00  0.00     0.162 C 
BRANCH  10  11
HETATM   11  C6  UNL     1      -2.919  -0.127  -0.905  1.00  0.00    -0.006 A 
HETATM   12  C1  UNL     1      -3.586   0.595   0.043  1.00  0.00     0.073 A 
HETATM   13  C2  UNL     1      -4.732   0.221   0.691  1.00  0.00     0.039 A 
HETATM   14  C3  UNL     1      -5.285  -1.013   0.365  1.00  0.00     0.026 A 
HETATM   15  C4  UNL     1      -4.658  -1.784  -0.584  1.00  0.00     0.034 A 
HETATM   16 CL1  UNL     1      -5.462  -3.309  -0.895  1.00  0.00    -0.084 Cl
HETATM   17  C5  UNL     1      -3.502  -1.367  -1.215  1.00  0.00     0.035 A 
BRANCH  12  18
HETATM   18  O1  UNL     1      -3.055   1.817   0.376  1.00  0.00    -0.360 OA
HETATM   19  H1  UNL     1      -2.840   2.008   1.341  1.00  0.00     0.217 HD
ENDBRANCH  12  18
ENDBRANCH  10  11
ENDBRANCH   8  10
ENDBRANCH   1   8
BRANCH   6  20
HETATM   20  N4  UNL     1       1.726  -1.165   0.883  1.00  0.00    -0.356 N 
HETATM   21  H12 UNL     1       1.610  -2.190   1.123  1.00  0.00     0.162 HD
BRANCH  20  22
HETATM   22  C11 UNL     1       2.912  -0.983   0.120  1.00  0.00     0.032 A 
HETATM   23  C12 UNL     1       3.807  -1.966  -0.288  1.00  0.00     0.032 A 
HETATM   24  C13 UNL     1       4.908  -1.659  -1.015  1.00  0.00     0.046 A 
HETATM   25  C14 UNL     1       5.232  -0.382  -1.406  1.00  0.00     0.138 A 
HETATM   26  F1  UNL     1       6.341  -0.140  -2.129  1.00  0.00    -0.204 F 
HETATM   27  C15 UNL     1       4.351   0.609  -1.008  1.00  0.00     0.074 A 
HETATM   28 CL2  UNL     1       4.788   2.246  -1.520  1.00  0.00    -0.081 Cl
HETATM   29  C16 UNL     1       3.208   0.310  -0.256  1.00  0.00     0.056 A 
ENDBRANCH  20  22
ENDBRANCH   6  20
TORSDOF 6
