REMARK  6 active torsions:
REMARK  status: ('A' for Active; 'I' for Inactive)
REMARK    1  A    between atoms: O1_2  and  C2_3 
REMARK    2  A    between atoms: C6_9  and  C7_10 
REMARK    3  A    between atoms: C9_14  and  C10_15 
REMARK    4  A    between atoms: C10_15  and  C11_16 
REMARK    5  A    between atoms: C11_16  and  N5_17 
REMARK    6  A    between atoms: C14_21  and  O2_22 
ROOT
HETATM    1  C2  UNL     1      -3.772  -0.660   0.094  1.00  0.00     0.103 A 
HETATM    2  C3  UNL     1      -3.182  -1.904   0.042  1.00  0.00     0.072 A 
HETATM    3  C4  UNL     1      -1.813  -1.975   0.000  1.00  0.00     0.073 A 
HETATM    4  N1  UNL     1      -1.239  -3.201  -0.051  1.00  0.00    -0.241 NA
HETATM    5  C5  UNL     1       0.109  -3.295  -0.093  1.00  0.00     0.234 A 
HETATM    6  N2  UNL     1       0.897  -2.219  -0.085  1.00  0.00    -0.237 NA
HETATM    7  C6  UNL     1       0.424  -0.982  -0.036  1.00  0.00     0.120 A 
HETATM    8  C12 UNL     1      -0.950  -0.902   0.006  1.00  0.00     0.028 A 
HETATM    9  C13 UNL     1      -1.596   0.313   0.059  1.00  0.00     0.056 A 
HETATM   10  C14 UNL     1      -2.968   0.457   0.103  1.00  0.00     0.102 A 
ENDROOT
BRANCH   7  11
HETATM   11  C7  UNL     1       1.281   0.195  -0.028  1.00  0.00     0.202 A 
HETATM   12  N3  UNL     1       1.120   1.509   0.014  1.00  0.00    -0.128 NA
HETATM   13  N4  UNL     1       2.054   2.420   0.013  1.00  0.00    -0.158 NA
HETATM   14  C8  UNL     1       3.350   2.104  -0.033  1.00  0.00     0.172 A 
HETATM   15  C9  UNL     1       3.602   0.770  -0.078  1.00  0.00     0.079 A 
HETATM   16  N6  UNL     1       2.591  -0.073  -0.073  1.00  0.00    -0.224 NA
BRANCH  15  17
HETATM   17  C10 UNL     1       4.998   0.313  -0.131  1.00  0.00     0.049 C 
BRANCH  17  18
HETATM   18  C11 UNL     1       6.015   1.123  -0.138  1.00  0.00     0.082 C 
BRANCH  18  19
HETATM   19  N5  UNL     1       7.356   0.654  -0.190  1.00  0.00    -0.408 N 
HETATM   20  H9  UNL     1       7.702   0.299   0.734  1.00  0.00     0.155 HD
HETATM   21  H10 UNL     1       7.766   0.746  -1.146  1.00  0.00     0.155 HD
ENDBRANCH  18  19
ENDBRANCH  17  18
ENDBRANCH  15  17
ENDBRANCH   7  11
BRANCH  10  22
HETATM   22  O2  UNL     1      -3.646   1.660   0.156  1.00  0.00    -0.353 OA
HETATM   23  C15 UNL     1      -3.079   2.933   0.176  1.00  0.00     0.210 C 
ENDBRANCH  10  22
BRANCH   1  24
HETATM   24  O1  UNL     1      -5.156  -0.582   0.136  1.00  0.00    -0.353 OA
HETATM   25  C1  UNL     1      -5.923  -1.771   0.125  1.00  0.00     0.210 C 
ENDBRANCH   1  24
TORSDOF 6
