REMARK  6 active torsions:
REMARK  status: ('A' for Active; 'I' for Inactive)
REMARK    1  A    between atoms: C2_2  and  C3_3 
REMARK    2  A    between atoms: C3_3  and  C4_4 
REMARK    3  A    between atoms: C6_7  and  N2_8 
REMARK    4  A    between atoms: N2_8  and  C7_9 
REMARK    5  A    between atoms: C11_15  and  O1_16 
REMARK    6  A    between atoms: C13_18  and  O2_19 
ROOT
HETATM    1  C7  UNL     1      -0.078  -0.603   0.375  1.00  0.00     0.157 A 
HETATM    2  N3  UNL     1       0.535  -1.707   0.789  1.00  0.00    -0.223 NA
HETATM    3  C8  UNL     1      -0.096  -2.803   1.214  1.00  0.00     0.236 A 
HETATM    4  N4  UNL     1      -1.450  -2.788   1.225  1.00  0.00    -0.241 NA
HETATM    5  C9  UNL     1      -2.116  -1.699   0.817  1.00  0.00     0.075 A 
HETATM    6  C10 UNL     1      -3.501  -1.598   0.794  1.00  0.00     0.072 A 
HETATM    7  C11 UNL     1      -4.177  -0.474   0.373  1.00  0.00     0.103 A 
HETATM    8  C13 UNL     1      -3.429   0.614  -0.051  1.00  0.00     0.102 A 
HETATM    9  C15 UNL     1      -2.039   0.596  -0.060  1.00  0.00     0.057 A 
HETATM   10  C16 UNL     1      -1.452  -0.564   0.376  1.00  0.00     0.042 A 
ENDROOT
BRANCH   1  11
HETATM   11  N2  UNL     1       0.795   0.442  -0.035  1.00  0.00    -0.169 N 
HETATM   12  H5  UNL     1       0.579   1.397  -0.397  1.00  0.00     0.186 HD
BRANCH  11  13
HETATM   13  C6  UNL     1       2.219   0.387  -0.030  1.00  0.00     0.746 A 
HETATM   14  N1  UNL     1       2.684  -0.087  -1.220  1.00  0.00    -0.071 NA
HETATM   15  C5  UNL     1       4.026  -0.218  -1.422  1.00  0.00     0.170 A 
HETATM   16  C4  UNL     1       4.888   0.141  -0.392  1.00  0.00     0.105 A 
HETATM   17  N6  UNL     1       4.362   0.598   0.749  1.00  0.00    -0.132 NA
HETATM   18  N5  UNL     1       3.067   0.732   0.963  1.00  0.00     0.044 NA
BRANCH  16  19
HETATM   19  C3  UNL     1       6.332   0.030  -0.533  1.00  0.00     0.085 C 
BRANCH  19  20
HETATM   20  C2  UNL     1       7.120   0.868   0.124  1.00  0.00    -0.152 C 
HETATM   21  C1  UNL     1       7.667   1.810   0.876  1.00  0.00     0.096 C 
ENDBRANCH  19  20
ENDBRANCH  16  19
ENDBRANCH  11  13
ENDBRANCH   1  11
BRANCH   8  22
HETATM   22  O2  UNL     1      -4.093   1.753  -0.478  1.00  0.00    -0.353 OA
HETATM   23  C14 UNL     1      -3.300   2.866  -0.912  1.00  0.00     0.210 C 
ENDBRANCH   8  22
BRANCH   7  24
HETATM   24  O1  UNL     1      -5.550  -0.390   0.357  1.00  0.00    -0.353 OA
HETATM   25  C12 UNL     1      -6.307  -1.511   0.794  1.00  0.00     0.210 C 
ENDBRANCH   7  24
TORSDOF 6
