REMARK  4 active torsions:
REMARK  status: ('A' for Active; 'I' for Inactive)
REMARK    1  A    between atoms: O1_2  and  C2_3 
REMARK    2  A    between atoms: C4_5  and  N1_6 
REMARK    3  A    between atoms: N1_6  and  C5_7 
REMARK    4  A    between atoms: C10_14  and  O2_15 
ROOT
HETATM    1  N1  UNL     1      -0.195   0.143  -0.856  1.00  0.00    -0.177 N 
HETATM    2  H6  UNL     1      -0.621   0.908  -1.416  1.00  0.00     0.185 HD
ENDROOT
BRANCH   1   3
HETATM    3  C4  UNL     1      -0.601  -1.194  -0.799  1.00  0.00     0.093 C 
HETATM    4  C3  UNL     1      -1.636  -0.898  -0.040  1.00  0.00     0.051 C 
HETATM    5  C2  UNL     1      -2.191   0.354   0.538  1.00  0.00     0.175 C 
HETATM    6  C15 UNL     1      -3.330   0.736  -0.382  1.00  0.00    -0.050 C 
HETATM    7  C14 UNL     1      -3.653  -0.006  -1.444  1.00  0.00     0.024 C 
HETATM    8  C16 UNL     1      -4.129   1.933  -0.143  1.00  0.00     0.046 C 
HETATM    9  C13 UNL     1      -3.040  -1.240  -1.915  1.00  0.00     0.284 C 
HETATM   10  N6  UNL     1      -2.583  -2.314  -2.412  1.00  0.00    -0.387 NA
HETATM   11  C12 UNL     1      -1.502  -3.060  -1.896  1.00  0.00     0.299 C 
HETATM   12  N5  UNL     1      -0.527  -2.606  -1.128  1.00  0.00    -0.255 NA
BRANCH   5  13
HETATM   13  O1  UNL     1      -2.636   0.134   1.809  1.00  0.00    -0.382 OA
HETATM   14  C1  UNL     1      -2.112   0.926   2.797  1.00  0.00     0.202 C 
ENDBRANCH   5  13
ENDBRANCH   1   3
BRANCH   1  15
HETATM   15  C5  UNL     1       0.944   0.298  -0.018  1.00  0.00     0.747 A 
HETATM   16  N2  UNL     1       1.165   0.631   1.256  1.00  0.00     0.044 NA
HETATM   17  N3  UNL     1       2.344   0.704   1.819  1.00  0.00    -0.132 NA
HETATM   18  C6  UNL     1       3.447   0.433   1.104  1.00  0.00     0.112 A 
HETATM   19  C7  UNL     1       4.644   0.536   1.781  1.00  0.00     0.036 A 
HETATM   20  C11 UNL     1       3.284   0.084  -0.215  1.00  0.00     0.139 A 
HETATM   21  C8  UNL     1       5.803   0.261   1.069  1.00  0.00     0.005 A 
HETATM   22  C9  UNL     1       5.690  -0.096  -0.268  1.00  0.00     0.039 A 
HETATM   23  C10 UNL     1       4.466  -0.183  -0.895  1.00  0.00     0.097 A 
HETATM   24  N4  UNL     1       2.058   0.022  -0.749  1.00  0.00    -0.056 NA
BRANCH  23  25
HETATM   25  O2  UNL     1       4.370  -0.542  -2.231  1.00  0.00    -0.358 OA
HETATM   26  H10 UNL     1       3.954  -1.435  -2.526  1.00  0.00     0.217 HD
ENDBRANCH  23  25
ENDBRANCH   1  15
TORSDOF 4
