REMARK  1 active torsions:
REMARK  status: ('A' for Active; 'I' for Inactive)
REMARK    1  A    between atoms: N2_8  and  C7_9 
ROOT
HETATM    1  C1  UNL     1       2.248   1.371   1.480  1.00  0.00    -0.010 C 
HETATM    2  C2  UNL     1       2.976   0.283   1.268  1.00  0.00     0.022 C 
HETATM    3  C3  UNL     1       3.475  -0.065  -0.048  1.00  0.00     0.250 A 
HETATM    4  C4  UNL     1       3.745  -0.497  -1.261  1.00  0.00     0.262 A 
HETATM    5  C5  UNL     1       2.843  -1.378  -2.002  1.00  0.00     0.260 A 
HETATM    6  N1  UNL     1       2.436  -1.050  -0.856  1.00  0.00    -0.023 N 
HETATM    7  C6  UNL     1       1.198  -1.450  -0.228  1.00  0.00     0.389 C 
HETATM    8  N2  UNL     1       0.478  -0.226   0.085  1.00  0.00    -0.248 N 
HETATM    9  N5  UNL     1       1.147   0.990  -0.278  1.00  0.00    -0.306 N 
HETATM   10  C15 UNL     1       1.883   2.018   0.383  1.00  0.00     0.119 C 
HETATM   11  H12 UNL     1       0.938   0.954  -1.323  1.00  0.00     0.186 HD
ENDROOT
BRANCH   8  12
HETATM   12  C7  UNL     1      -0.753   0.184   0.667  1.00  0.00     0.159 A 
HETATM   13  N3  UNL     1      -0.607   0.797   1.880  1.00  0.00    -0.222 NA
HETATM   14  C8  UNL     1      -1.655   1.236   2.607  1.00  0.00     0.236 A 
HETATM   15  N4  UNL     1      -2.889   1.074   2.142  1.00  0.00    -0.241 NA
HETATM   16  C9  UNL     1      -3.118   0.481   0.957  1.00  0.00     0.072 A 
HETATM   17  C10 UNL     1      -4.359   0.268   0.382  1.00  0.00     0.032 A 
HETATM   18  C14 UNL     1      -2.041   0.036   0.222  1.00  0.00     0.040 A 
HETATM   19  C11 UNL     1      -4.498  -0.346  -0.844  1.00  0.00     0.002 A 
HETATM   20  C12 UNL     1      -3.390  -0.784  -1.563  1.00  0.00     0.001 A 
HETATM   21  C13 UNL     1      -2.152  -0.578  -1.000  1.00  0.00     0.018 A 
ENDBRANCH   8  12
TORSDOF 1
