REMARK  7 active torsions:
REMARK  status: ('A' for Active; 'I' for Inactive)
REMARK    1  A    between atoms: O1_2  and  C2_3 
REMARK    2  A    between atoms: C2_3  and  C3_4 
REMARK    3  A    between atoms: C3_4  and  O2_21 
REMARK    4  A    between atoms: C4_5  and  C5_6 
REMARK    5  A    between atoms: C8_11  and  N3_12 
REMARK    6  A    between atoms: N3_12  and  C9_13 
REMARK    7  A    between atoms: C9_13  and  C10_14 
ROOT
HETATM    1  C5  UNL     1      -1.274   0.806  -1.116  1.00  0.00     0.013 A 
HETATM    2  C6  UNL     1      -1.512   2.053  -1.702  1.00  0.00     0.129 A 
HETATM    3  N1  UNL     1      -0.512   2.671  -2.383  1.00  0.00    -0.253 NA
HETATM    4  C7  UNL     1       0.693   2.031  -2.460  1.00  0.00     0.234 A 
HETATM    5  N2  UNL     1       0.946   0.834  -1.907  1.00  0.00    -0.224 NA
HETATM    6  C8  UNL     1      -0.043   0.192  -1.216  1.00  0.00     0.133 A 
ENDROOT
BRANCH   6   7
HETATM    7  N3  UNL     1       0.542  -1.015  -0.766  1.00  0.00    -0.370 N 
HETATM    8  H9  UNL     1      -0.215  -1.467  -0.249  1.00  0.00     0.161 HD
BRANCH   7   9
HETATM    9  C9  UNL     1       1.838  -1.629  -0.892  1.00  0.00     0.160 C 
BRANCH   9  10
HETATM   10  C10 UNL     1       2.951  -0.843  -0.322  1.00  0.00    -0.040 A 
HETATM   11  C11 UNL     1       3.786   0.052  -0.955  1.00  0.00     0.009 A 
HETATM   12  C12 UNL     1       4.795   0.747  -0.330  1.00  0.00     0.001 A 
HETATM   13  C13 UNL     1       5.008   0.559   1.008  1.00  0.00     0.007 A 
HETATM   14  C14 UNL     1       4.204  -0.325   1.696  1.00  0.00    -0.061 A 
HETATM   15  C15 UNL     1       4.519  -0.455   3.142  1.00  0.00     0.048 C 
HETATM   16  C16 UNL     1       3.202  -1.007   1.045  1.00  0.00     0.015 A 
ENDBRANCH   9  10
ENDBRANCH   7   9
ENDBRANCH   6   7
BRANCH   1  17
HETATM   17  C4  UNL     1      -2.100  -0.059  -0.330  1.00  0.00     0.146 C 
HETATM   18  C3  UNL     1      -2.957  -0.314   0.624  1.00  0.00     0.072 C 
BRANCH  18  19
HETATM   19  C2  UNL     1      -3.918  -0.345   1.749  1.00  0.00     0.200 C 
BRANCH  19  20
HETATM   20  O1  UNL     1      -4.201   0.855   2.333  1.00  0.00    -0.393 OA
HETATM   21  C1  UNL     1      -4.801   1.806   1.538  1.00  0.00     0.201 C 
ENDBRANCH  19  20
ENDBRANCH  18  19
BRANCH  18  22
HETATM   22  O2  UNL     1      -2.862  -1.671   0.211  1.00  0.00    -0.387 OA
HETATM   23  C17 UNL     1      -3.851  -2.160  -0.669  1.00  0.00     0.202 C 
ENDBRANCH  18  22
ENDBRANCH   1  17
TORSDOF 7
