REMARK  6 active torsions:
REMARK  status: ('A' for Active; 'I' for Inactive)
REMARK    1  A    between atoms: O1_2  and  C2_3 
REMARK    2  A    between atoms: C2_3  and  C3_4 
REMARK    3  A    between atoms: C4_5  and  O2_6 
REMARK    4  A    between atoms: C9_13  and  N3_14 
REMARK    5  A    between atoms: N3_14  and  C10_15 
REMARK    6  A    between atoms: C10_15  and  C11_16 
ROOT
HETATM    1  C3  UNL     1      -2.657   0.601   0.290  1.00  0.00     0.035 A 
HETATM    2  C4  UNL     1      -3.701   0.915  -0.712  1.00  0.00     0.083 A 
HETATM    3  C6  UNL     1      -3.600  -0.088  -1.556  1.00  0.00     0.070 A 
HETATM    4  C7  UNL     1      -2.586  -1.034  -1.201  1.00  0.00     0.075 A 
HETATM    5  N1  UNL     1      -2.222  -2.166  -1.842  1.00  0.00    -0.241 NA
HETATM    6  C8  UNL     1      -1.236  -2.946  -1.361  1.00  0.00     0.235 A 
HETATM    7  N2  UNL     1      -0.618  -2.574  -0.227  1.00  0.00    -0.224 NA
HETATM    8  C9  UNL     1      -0.967  -1.455   0.420  1.00  0.00     0.138 A 
HETATM    9  C19 UNL     1      -1.967  -0.635  -0.040  1.00  0.00     0.053 A 
ENDROOT
BRANCH   8  10
HETATM   10  N3  UNL     1      -0.339  -1.063   1.624  1.00  0.00    -0.370 N 
HETATM   11  H10 UNL     1      -0.559  -0.231   2.195  1.00  0.00     0.161 HD
BRANCH  10  12
HETATM   12  C10 UNL     1       0.732  -1.924   2.124  1.00  0.00     0.149 C 
BRANCH  12  13
HETATM   13  C11 UNL     1       1.948  -1.801   1.331  1.00  0.00     0.004 C 
HETATM   14  C12 UNL     1       2.656  -1.291   0.382  1.00  0.00    -0.039 A 
HETATM   15  C13 UNL     1       2.033  -0.258  -0.422  1.00  0.00     0.007 A 
HETATM   16  C18 UNL     1       4.016  -1.696   0.062  1.00  0.00     0.007 A 
HETATM   17  C14 UNL     1       2.651   0.325  -1.429  1.00  0.00    -0.018 A 
HETATM   18  C15 UNL     1       4.030  -0.006  -1.843  1.00  0.00     0.026 A 
HETATM   19  C16 UNL     1       4.856   1.256  -1.616  1.00  0.00     0.018 C 
HETATM   20  C17 UNL     1       4.554  -1.060  -0.957  1.00  0.00    -0.018 A 
ENDBRANCH  12  13
ENDBRANCH  10  12
ENDBRANCH   8  10
BRANCH   1  21
HETATM   21  C2  UNL     1      -2.366   1.320   1.345  1.00  0.00     0.149 C 
BRANCH  21  22
HETATM   22  O1  UNL     1      -2.009   2.009   2.454  1.00  0.00    -0.367 OA
HETATM   23  C1  UNL     1      -0.771   2.695   2.573  1.00  0.00     0.208 C 
ENDBRANCH  21  22
ENDBRANCH   1  21
BRANCH   2  24
HETATM   24  O2  UNL     1      -4.545   2.017  -0.702  1.00  0.00    -0.355 OA
HETATM   25  C5  UNL     1      -5.834   1.877  -0.109  1.00  0.00     0.210 C 
ENDBRANCH   2  24
TORSDOF 6
