REMARK  5 active torsions:
REMARK  status: ('A' for Active; 'I' for Inactive)
REMARK    1  A    between atoms: O1_2  and  C2_3 
REMARK    2  A    between atoms: C9_12  and  N3_13 
REMARK    3  A    between atoms: N3_13  and  C10_14 
REMARK    4  A    between atoms: C10_14  and  C11_15 
REMARK    5  A    between atoms: C17_21  and  O2_22 
ROOT
HETATM    1  C2  UNL     1       4.190   0.640  -0.768  1.00  0.00     0.045 A 
HETATM    2  C3  UNL     1       2.921   0.824  -1.015  1.00  0.00     0.077 A 
HETATM    3  C4  UNL     1       2.149   0.647   0.234  1.00  0.00     0.071 A 
HETATM    4  C5  UNL     1       3.514   0.445   0.517  1.00  0.00     0.060 A 
HETATM    5  C6  UNL     1       3.667   0.156   1.830  1.00  0.00     0.001 A 
HETATM    6  C7  UNL     1       2.237   0.351   1.630  1.00  0.00     0.101 A 
HETATM    7  N1  UNL     1       1.232   0.296   2.410  1.00  0.00    -0.266 NA
HETATM    8  C8  UNL     1      -0.115   0.504   2.080  1.00  0.00     0.224 A 
HETATM    9  N2  UNL     1      -0.207   0.760   0.867  1.00  0.00    -0.247 NA
HETATM   10  C9  UNL     1       0.768   0.857  -0.124  1.00  0.00     0.356 A 
ENDROOT
BRANCH  10  11
HETATM   11  N3  UNL     1       0.372  -0.133  -1.166  1.00  0.00     0.113 NA
HETATM   12  H8  UNL     1       0.701  -1.071  -0.933  1.00  0.00     0.319 HD
BRANCH  11  13
HETATM   13  C10 UNL     1      -0.952   0.022  -1.624  1.00  0.00     0.314 C 
BRANCH  13  14
HETATM   14  C11 UNL     1      -2.025  -0.113  -0.639  1.00  0.00     0.004 A 
HETATM   15  C12 UNL     1      -2.805   0.876  -0.078  1.00  0.00     0.018 A 
HETATM   16  C13 UNL     1      -3.805   0.634   0.840  1.00  0.00    -0.061 A 
HETATM   17  C14 UNL     1      -4.563   1.818   1.354  1.00  0.00     0.048 C 
HETATM   18  C15 UNL     1      -4.061  -0.667   1.236  1.00  0.00     0.009 A 
HETATM   19  C16 UNL     1      -3.288  -1.676   0.683  1.00  0.00     0.038 A 
HETATM   20  C17 UNL     1      -2.285  -1.429  -0.237  1.00  0.00     0.076 A 
BRANCH  20  21
HETATM   21  O2  UNL     1      -1.566  -2.507  -0.734  1.00  0.00    -0.355 OA
HETATM   22  C18 UNL     1      -1.823  -3.830  -0.333  1.00  0.00     0.210 C 
ENDBRANCH  20  21
ENDBRANCH  13  14
ENDBRANCH  11  13
ENDBRANCH  10  11
BRANCH   1  23
HETATM   23  O1  UNL     1       5.428   0.655  -1.463  1.00  0.00    -0.363 OA
HETATM   24  C1  UNL     1       6.485   1.382  -0.802  1.00  0.00     0.209 C 
ENDBRANCH   1  23
TORSDOF 5
