REMARK  6 active torsions:
REMARK  status: ('A' for Active; 'I' for Inactive)
REMARK    1  A    between atoms: O1_2  and  C2_3 
REMARK    2  A    between atoms: C3_4  and  C4_5 
REMARK    3  A    between atoms: C6_7  and  C7_8 
REMARK    4  A    between atoms: C7_8  and  C8_9 
REMARK    5  A    between atoms: C8_9  and  C9_10 
REMARK    6  A    between atoms: C14_17  and  O2_18 
ROOT
HETATM    1  C9  UNL     1      -1.168   1.719   0.342  1.00  0.00     0.049 A 
HETATM    2  N1  UNL     1      -1.175   3.029   0.033  1.00  0.00    -0.246 NA
HETATM    3  C10 UNL     1      -2.304   3.646  -0.353  1.00  0.00     0.234 A 
HETATM    4  N2  UNL     1      -3.500   3.036  -0.466  1.00  0.00    -0.241 NA
HETATM    5  C11 UNL     1      -3.501   1.714  -0.155  1.00  0.00     0.070 A 
HETATM    6  C12 UNL     1      -4.753   1.101  -0.273  1.00  0.00     0.035 A 
HETATM    7  C13 UNL     1      -4.777  -0.259   0.049  1.00  0.00     0.039 A 
HETATM    8  C14 UNL     1      -3.656  -0.952   0.452  1.00  0.00     0.069 A 
HETATM    9  C16 UNL     1      -2.457  -0.289   0.547  1.00  0.00     0.052 A 
HETATM   10  C17 UNL     1      -2.364   1.039   0.247  1.00  0.00     0.020 A 
ENDROOT
BRANCH   1  11
HETATM   11  C8  UNL     1       0.086   1.049   0.745  1.00  0.00     0.064 C 
BRANCH  11  12
HETATM   12  C7  UNL     1       0.664   0.280  -0.401  1.00  0.00     0.034 C 
BRANCH  12  13
HETATM   13  C6  UNL     1       1.936  -0.410  -0.002  1.00  0.00    -0.011 C 
HETATM   14  C4  UNL     1       3.126  -0.221  -0.551  1.00  0.00    -0.010 C 
HETATM   15  C5  UNL     1       3.278   0.756  -1.676  1.00  0.00     0.058 C 
BRANCH  14  16
HETATM   16  C3  UNL     1       4.268  -0.948  -0.072  1.00  0.00    -0.042 C 
HETATM   17  C2  UNL     1       5.240  -1.545   0.323  1.00  0.00     0.059 C 
BRANCH  17  18
HETATM   18  O1  UNL     1       6.361  -2.209   0.768  1.00  0.00    -0.308 OA
HETATM   19  C1  UNL     1       7.622  -1.534   0.683  1.00  0.00     0.223 C 
ENDBRANCH  17  18
ENDBRANCH  14  16
ENDBRANCH  12  13
ENDBRANCH  11  12
ENDBRANCH   1  11
BRANCH   8  20
HETATM   20  O2  UNL     1      -3.792  -2.295   0.747  1.00  0.00    -0.356 OA
HETATM   21  C15 UNL     1      -5.074  -2.894   0.621  1.00  0.00     0.210 C 
ENDBRANCH   8  20
TORSDOF 6
