REMARK  2 active torsions:
REMARK  status: ('A' for Active; 'I' for Inactive)
REMARK    1  A    between atoms: C3_3  and  C4_5 
REMARK    2  A    between atoms: C4_5  and  N1_6 
ROOT
HETATM    1  N1  UNL     1       0.788   0.385   0.825  1.00  0.00    -0.335 N 
HETATM    2  C5  UNL     1       0.917  -0.856   1.610  1.00  0.00     0.292 A 
HETATM    3  C6  UNL     1      -0.303  -1.183   2.378  1.00  0.00     0.047 A 
HETATM    4  C7  UNL     1      -0.784  -2.338   1.831  1.00  0.00     0.165 A 
HETATM    5  F1  UNL     1       0.054  -1.250   2.018  1.00  0.00    -0.364 F 
HETATM    6  C8  UNL     1      -1.363  -3.532   1.168  1.00  0.00     0.066 A 
HETATM    7 CL2  UNL     1      -0.319  -4.171   2.404  1.00  0.00    -0.168 Cl
HETATM    8  C9  UNL     1      -2.085  -2.777   0.305  1.00  0.00     0.106 C 
HETATM    9  C10 UNL     1      -2.246  -1.334   0.117  1.00  0.00     0.277 C 
HETATM   10  N2  UNL     1      -1.663  -0.887  -1.123  1.00  0.00     0.087 N 
HETATM   11  C11 UNL     1      -1.920   0.542  -1.303  1.00  0.00     0.308 C 
HETATM   12  C12 UNL     1      -1.270   1.408  -0.308  1.00  0.00    -0.001 C 
HETATM   13  C13 UNL     1      -0.232   1.375   0.524  1.00  0.00     0.146 C 
HETATM   14  O1  UNL     1       0.198   2.343   1.399  1.00  0.00    -0.336 OA
HETATM   15  C14 UNL     1      -0.599   3.527   1.597  1.00  0.00     0.177 C 
HETATM   16  C15 UNL     1      -1.025   3.846   0.153  1.00  0.00     0.031 C 
HETATM   17  C16 UNL     1      -1.968   2.714  -0.191  1.00  0.00     0.042 C 
HETATM   18  H13 UNL     1      -2.168  -1.354  -1.898  1.00  0.00     0.316 HD
ENDROOT
BRANCH   1  19
HETATM   19  C4  UNL     1       2.108   0.586   0.190  1.00  0.00     0.178 C 
BRANCH  19  20
HETATM   20  C3  UNL     1       2.412  -0.418  -0.831  1.00  0.00     0.025 C 
HETATM   21  C2  UNL     1       3.476  -1.222  -0.712  1.00  0.00    -0.010 C 
HETATM   22  C1  UNL     1       3.869  -2.256  -1.693  1.00  0.00     0.037 C 
HETATM   23 CL1  UNL     1       1.522  -0.717  -2.284  1.00  0.00    -0.087 Cl
ENDBRANCH  19  20
ENDBRANCH   1  19
TORSDOF 2
