REMARK  5 active torsions:
REMARK  status: ('A' for Active; 'I' for Inactive)
REMARK    1  A    between atoms: O1_2  and  C2_3 
REMARK    2  A    between atoms: C5_6  and  N1_7 
REMARK    3  A    between atoms: N1_7  and  C6_8 
REMARK    4  A    between atoms: C6_8  and  C7_9 
REMARK    5  A    between atoms: C17_21  and  O2_22 
ROOT
HETATM    1  O2  UNL     1      -5.658   0.871   0.713  1.00  0.00    -0.266 OA
HETATM    2  C18 UNL     1      -6.870   0.847   0.939  1.00  0.00     0.022 C 
HETATM    3  P1  UNL     1      -8.332   0.791   1.226  1.00  0.00     0.079 P 
ENDROOT
BRANCH   1   4
HETATM    4  C17 UNL     1      -4.433   0.950   0.466  1.00  0.00     0.121 A 
HETATM    5  C2  UNL     1      -3.508  -0.108   0.678  1.00  0.00     0.102 A 
HETATM    6  C3  UNL     1      -2.123   0.230   0.362  1.00  0.00     0.053 A 
HETATM    7  C4  UNL     1      -1.590   1.625  -0.186  1.00  0.00     0.143 A 
HETATM    8  C5  UNL     1      -0.477   1.026  -0.129  1.00  0.00     0.096 A 
HETATM    9  C15 UNL     1      -2.745   2.246  -0.244  1.00  0.00     0.073 A 
HETATM   10  N2  UNL     1      -0.171   2.103  -0.927  1.00  0.00    -0.205 NA
HETATM   11  N3  UNL     1      -2.040   3.172  -1.076  1.00  0.00    -0.251 NA
HETATM   12  C16 UNL     1      -4.064   2.174  -0.020  1.00  0.00     0.071 A 
HETATM   13  C14 UNL     1      -0.792   3.111  -1.411  1.00  0.00     0.186 A 
BRANCH   5  14
HETATM   14  O1  UNL     1      -4.189  -1.181   1.125  1.00  0.00    -0.353 OA
HETATM   15  C1  UNL     1      -3.822  -2.460   1.410  1.00  0.00     0.210 C 
ENDBRANCH   5  14
BRANCH   8  16
HETATM   16  N1  UNL     1       0.744   0.279   0.114  1.00  0.00    -0.377 N 
HETATM   17  H5  UNL     1       0.283   0.255   1.033  1.00  0.00     0.160 HD
BRANCH  16  18
HETATM   18  C6  UNL     1       1.584   0.180  -1.098  1.00  0.00     0.159 C 
BRANCH  18  19
HETATM   19  C7  UNL     1       2.741  -0.625  -0.660  1.00  0.00    -0.040 A 
HETATM   20  C8  UNL     1       2.952  -1.977  -0.984  1.00  0.00     0.009 A 
HETATM   21  C9  UNL     1       4.111  -2.546  -0.471  1.00  0.00     0.001 A 
HETATM   22  C10 UNL     1       5.051  -1.934   0.303  1.00  0.00     0.007 A 
HETATM   23  C11 UNL     1       4.803  -0.633   0.588  1.00  0.00    -0.061 A 
HETATM   24  C12 UNL     1       5.886  -0.013   1.396  1.00  0.00     0.048 C 
HETATM   25  C13 UNL     1       3.689   0.072   0.150  1.00  0.00     0.015 A 
ENDBRANCH  18  19
ENDBRANCH  16  18
ENDBRANCH   8  16
ENDBRANCH   1   4
TORSDOF 5
