REMARK  5 active torsions:
REMARK  status: ('A' for Active; 'I' for Inactive)
REMARK    1  A    between atoms: O1_2  and  C2_3 
REMARK    2  A    between atoms: C2_3  and  C3_4 
REMARK    3  A    between atoms: C4_5  and  N1_6 
REMARK    4  A    between atoms: N1_6  and  C5_7 
REMARK    5  A    between atoms: C9_13  and  O2_14 
ROOT
HETATM    1  C5  UNL     1       0.477  -0.595  -0.228  1.00  0.00     0.141 A 
HETATM    2  N2  UNL     1       0.083  -1.270  -1.323  1.00  0.00    -0.224 NA
HETATM    3  C6  UNL     1       0.922  -1.506  -2.356  1.00  0.00     0.236 A 
HETATM    4  N3  UNL     1       2.181  -1.031  -2.237  1.00  0.00    -0.241 NA
HETATM    5  C7  UNL     1       2.597  -0.357  -1.160  1.00  0.00     0.074 A 
HETATM    6  C8  UNL     1       3.900   0.124  -1.058  1.00  0.00     0.069 A 
HETATM    7  C9  UNL     1       4.333   0.828   0.070  1.00  0.00     0.070 A 
HETATM    8  C11 UNL     1       3.432   1.044   1.103  1.00  0.00     0.038 A 
HETATM    9  C12 UNL     1       2.133   0.573   1.021  1.00  0.00     0.020 A 
HETATM   10  C13 UNL     1       1.741  -0.108  -0.088  1.00  0.00     0.039 A 
ENDROOT
BRANCH   1  11
HETATM   11  N1  UNL     1      -0.515  -0.426   0.773  1.00  0.00    -0.343 N 
HETATM   12  H6  UNL     1      -0.477   0.044   1.693  1.00  0.00     0.167 HD
BRANCH  11  13
HETATM   13  C4  UNL     1      -1.826  -0.948   0.594  1.00  0.00     0.019 A 
HETATM   14  C3  UNL     1      -2.888  -0.230   0.258  1.00  0.00    -0.012 A 
HETATM   15  C17 UNL     1      -4.180  -0.911   0.109  1.00  0.00     0.007 A 
HETATM   16  C16 UNL     1      -4.224  -2.221   0.318  1.00  0.00    -0.026 A 
HETATM   17  C15 UNL     1      -3.093  -3.103   0.694  1.00  0.00     0.033 A 
HETATM   18  C14 UNL     1      -1.783  -2.399   0.844  1.00  0.00     0.061 A 
BRANCH  14  19
HETATM   19  C2  UNL     1      -2.893   1.215   0.017  1.00  0.00     0.207 C 
BRANCH  19  20
HETATM   20  O1  UNL     1      -3.317   1.507  -1.299  1.00  0.00    -0.391 OA
HETATM   21  C1  UNL     1      -3.302   2.876  -1.466  1.00  0.00     0.201 C 
ENDBRANCH  19  20
ENDBRANCH  14  19
ENDBRANCH  11  13
ENDBRANCH   1  11
BRANCH   7  22
HETATM   22  O2  UNL     1       5.647   1.234   0.012  1.00  0.00    -0.356 OA
HETATM   23  C10 UNL     1       6.214   1.956   1.089  1.00  0.00     0.210 C 
ENDBRANCH   7  22
TORSDOF 5
