REMARK  4 active torsions:
REMARK  status: ('A' for Active; 'I' for Inactive)
REMARK    1  A    between atoms: C2_2  and  C3_3 
REMARK    2  A    between atoms: C4_4  and  O1_5 
REMARK    3  A    between atoms: N3_14  and  C11_15 
REMARK    4  A    between atoms: C11_15  and  C12_16 
ROOT
HETATM    1  C3  UNL     1      -2.390   1.420   0.336  1.00  0.00     0.101 A 
HETATM    2  C4  UNL     1      -2.768   1.420  -1.108  1.00  0.00     0.056 A 
HETATM    3  C6  UNL     1      -2.036   0.996  -2.132  1.00  0.00     0.035 A 
HETATM    4  C7  UNL     1      -0.702   0.456  -1.889  1.00  0.00     0.036 A 
HETATM    5  C8  UNL     1      -0.191   0.374  -0.672  1.00  0.00     0.078 A 
HETATM    6  C9  UNL     1      -1.027   0.851   0.424  1.00  0.00     0.075 A 
HETATM    7  N1  UNL     1      -0.569   0.790   1.627  1.00  0.00    -0.242 NA
HETATM    8  C10 UNL     1       0.747   0.254   1.840  1.00  0.00     0.255 A 
HETATM    9  N2  UNL     1       1.522  -0.178   0.907  1.00  0.00    -0.165 NA
HETATM   10  N3  UNL     1       1.106  -0.149  -0.428  1.00  0.00    -0.266 N 
ENDROOT
BRANCH  10  11
HETATM   11  C11 UNL     1       1.867  -0.597  -1.552  1.00  0.00     0.164 C 
BRANCH  11  12
HETATM   12  C12 UNL     1       3.225  -1.131  -1.168  1.00  0.00     0.051 A 
HETATM   13  C13 UNL     1       4.093  -0.167  -0.490  1.00  0.00    -0.016 A 
HETATM   14  C14 UNL     1       4.362  -0.646   0.730  1.00  0.00     0.003 A 
HETATM   15  C15 UNL     1       3.716  -1.925   0.954  1.00  0.00    -0.065 A 
HETATM   16  C16 UNL     1       3.789  -2.753   2.191  1.00  0.00     0.048 C 
HETATM   17  C17 UNL     1       3.051  -2.214  -0.151  1.00  0.00    -0.010 A 
ENDBRANCH  11  12
ENDBRANCH  10  11
BRANCH   1  18
HETATM   18  C2  UNL     1      -3.376   0.767   1.198  1.00  0.00     0.007 C 
HETATM   19  C1  UNL     1      -4.108   1.288   2.177  1.00  0.00     0.006 C 
ENDBRANCH   1  18
BRANCH   2  20
HETATM   20  O1  UNL     1      -4.049   1.959  -1.150  1.00  0.00    -0.359 OA
HETATM   21  C5  UNL     1      -5.094   1.492  -1.960  1.00  0.00     0.209 C 
ENDBRANCH   2  20
TORSDOF 4
