REMARK  6 active torsions:
REMARK  status: ('A' for Active; 'I' for Inactive)
REMARK    1  A    between atoms: C2_2  and  C3_3 
REMARK    2  A    between atoms: C4_4  and  N1_5 
REMARK    3  A    between atoms: N1_5  and  C5_6 
REMARK    4  A    between atoms: C14_17  and  O1_18 
REMARK    5  A    between atoms: O1_18  and  C15_19 
REMARK    6  A    between atoms: C15_19  and  O2_20 
ROOT
HETATM    1  C3  UNL     1       1.180  -0.488  -0.618  1.00  0.00     0.062 A 
HETATM    2  C4  UNL     1      -0.024   0.120  -0.902  1.00  0.00     0.144 A 
HETATM    3  N2  UNL     1      -0.083   1.460  -1.018  1.00  0.00    -0.223 NA
HETATM    4  C13 UNL     1       1.006   2.233  -0.863  1.00  0.00     0.238 A 
HETATM    5  N3  UNL     1       2.188   1.660  -0.584  1.00  0.00    -0.217 NA
HETATM    6  C14 UNL     1       2.249   0.339  -0.470  1.00  0.00     0.181 A 
ENDROOT
BRANCH   2   7
HETATM    7  N1  UNL     1      -1.197  -0.672  -1.060  1.00  0.00    -0.339 N 
HETATM    8  H4  UNL     1      -1.462  -1.515  -1.613  1.00  0.00     0.167 HD
BRANCH   7   9
HETATM    9  C5  UNL     1      -2.248  -0.127  -0.231  1.00  0.00     0.045 C 
HETATM   10  C6  UNL     1      -3.554  -0.196  -0.514  1.00  0.00     0.002 A 
HETATM   11  C7  UNL     1      -4.651  -0.606  -1.372  1.00  0.00     0.015 A 
HETATM   12  C9  UNL     1      -4.509   0.396   0.412  1.00  0.00    -0.012 A 
HETATM   13  C8  UNL     1      -5.525  -0.059  -0.517  1.00  0.00     0.014 A 
HETATM   14  C10 UNL     1      -4.145   1.002   1.527  1.00  0.00    -0.002 C 
HETATM   15  C11 UNL     1      -2.885   1.165   1.784  1.00  0.00    -0.011 C 
HETATM   16  C12 UNL     1      -1.992   0.573   1.051  1.00  0.00     0.043 C 
ENDBRANCH   7   9
ENDBRANCH   2   7
BRANCH   1  17
HETATM   17  C2  UNL     1       1.191  -1.920  -0.505  1.00  0.00     0.009 C 
HETATM   18  C1  UNL     1       2.307  -2.561  -0.248  1.00  0.00     0.012 C 
ENDBRANCH   1  17
BRANCH   6  19
HETATM   19  O1  UNL     1       3.477  -0.224  -0.184  1.00  0.00    -0.308 OA
BRANCH  19  20
HETATM   20  C15 UNL     1       4.623   0.590  -0.013  1.00  0.00     0.343 C 
BRANCH  20  21
HETATM   21  O2  UNL     1       4.911   1.340  -1.139  1.00  0.00    -0.377 OA
HETATM   22  H11 UNL     1       4.508   2.232  -1.127  1.00  0.00     0.212 HD
ENDBRANCH  20  21
ENDBRANCH  19  20
ENDBRANCH   6  19
TORSDOF 6
