REMARK  6 active torsions:
REMARK  status: ('A' for Active; 'I' for Inactive)
REMARK    1  A    between atoms: C2_2  and  C19_21 
REMARK    2  A    between atoms: C3_3  and  C4_4 
REMARK    3  A    between atoms: C6_7  and  C7_8 
REMARK    4  A    between atoms: C7_8  and  N2_9 
REMARK    5  A    between atoms: N2_9  and  C8_10 
REMARK    6  A    between atoms: C10_12  and  C11_13 
ROOT
HETATM    1  C7  UNL     1      -0.345  -0.165  -0.788  1.00  0.00     0.305 C 
ENDROOT
BRANCH   1   2
HETATM    2  C6  UNL     1       1.006   0.411  -0.790  1.00  0.00    -0.036 C 
HETATM    3  C5  UNL     1       2.085  -0.175  -1.640  1.00  0.00     0.184 C 
HETATM    4  N1  UNL     1       3.367  -0.130  -0.969  1.00  0.00    -0.290 NA
HETATM    5  C4  UNL     1       3.798   0.834  -0.253  1.00  0.00     0.032 C 
HETATM    6  C18 UNL     1       2.810   1.910  -0.201  1.00  0.00     0.086 C 
HETATM    7  C17 UNL     1       1.421   1.448  -0.093  1.00  0.00    -0.014 C 
BRANCH   5   8
HETATM    8  C3  UNL     1       5.070   0.920   0.434  1.00  0.00     0.030 C 
HETATM    9  C2  UNL     1       6.003  -0.010   0.427  1.00  0.00    -0.068 C 
HETATM   10  C1  UNL     1       6.078  -1.331  -0.215  1.00  0.00     0.044 C 
BRANCH   9  11
HETATM   11  C19 UNL     1       7.283   0.185   1.175  1.00  0.00     0.148 C 
HETATM   12 CL1  UNL     1       8.578   0.095  -0.065  1.00  0.00    -0.126 Cl
ENDBRANCH   9  11
ENDBRANCH   5   8
ENDBRANCH   1   2
BRANCH   1  13
HETATM   13  N2  UNL     1      -1.267   0.502   0.074  1.00  0.00     0.092 N 
HETATM   14  H9  UNL     1      -1.445   1.487  -0.194  1.00  0.00     0.316 HD
BRANCH  13  15
HETATM   15  C8  UNL     1      -2.536  -0.221  -0.072  1.00  0.00     0.230 A 
HETATM   16  C9  UNL     1      -3.175  -0.296  -1.411  1.00  0.00     0.048 A 
HETATM   17  C10 UNL     1      -3.807   0.464  -0.305  1.00  0.00     0.054 A 
BRANCH  17  18
HETATM   18  C11 UNL     1      -5.029  -0.066   0.356  1.00  0.00    -0.052 A 
HETATM   19  C12 UNL     1      -5.119  -1.417   0.623  1.00  0.00     0.007 A 
HETATM   20  C13 UNL     1      -6.236  -1.950   1.234  1.00  0.00     0.001 A 
HETATM   21  C14 UNL     1      -7.283  -1.121   1.587  1.00  0.00     0.000 A 
HETATM   22  C15 UNL     1      -7.239   0.253   1.338  1.00  0.00     0.001 A 
HETATM   23  C16 UNL     1      -6.096   0.728   0.724  1.00  0.00     0.007 A 
ENDBRANCH  17  18
ENDBRANCH  13  15
ENDBRANCH   1  13
TORSDOF 6
