REMARK  6 active torsions:
REMARK  status: ('A' for Active; 'I' for Inactive)
REMARK    1  A    between atoms: O1_2  and  C2_3 
REMARK    2  A    between atoms: C6_9  and  N3_10 
REMARK    3  A    between atoms: N3_10  and  C7_11 
REMARK    4  A    between atoms: C7_11  and  O2_12 
REMARK    5  A    between atoms: C9_14  and  C10_15 
REMARK    6  A    between atoms: C18_23  and  O3_24 
ROOT
HETATM    1  C2  UNL     1       4.710  -0.580  -0.741  1.00  0.00     0.103 A 
HETATM    2  C3  UNL     1       4.271  -0.353   0.530  1.00  0.00     0.072 A 
HETATM    3  C4  UNL     1       2.966  -0.028   0.781  1.00  0.00     0.075 A 
HETATM    4  N1  UNL     1       2.584   0.187   2.058  1.00  0.00    -0.241 NA
HETATM    5  C5  UNL     1       1.285   0.512   2.326  1.00  0.00     0.236 A 
HETATM    6  N2  UNL     1       0.367   0.627   1.358  1.00  0.00    -0.224 NA
HETATM    7  C6  UNL     1       0.703   0.423   0.078  1.00  0.00     0.140 A 
HETATM    8  C16 UNL     1       2.005   0.096  -0.200  1.00  0.00     0.041 A 
HETATM    9  C17 UNL     1       2.490  -0.141  -1.466  1.00  0.00     0.057 A 
HETATM   10  C18 UNL     1       3.794  -0.470  -1.762  1.00  0.00     0.100 A 
ENDROOT
BRANCH   7  11
HETATM   11  N3  UNL     1      -0.250   0.536  -0.992  1.00  0.00    -0.342 N 
HETATM   12  H6  UNL     1       0.019   0.387  -1.973  1.00  0.00     0.164 HD
BRANCH  11  13
HETATM   13  C7  UNL     1      -1.652   0.860  -0.826  1.00  0.00     0.141 A 
HETATM   14  C8  UNL     1      -2.047   1.828   0.277  1.00  0.00     0.076 A 
HETATM   15  C9  UNL     1      -2.356   0.347   0.380  1.00  0.00     0.079 A 
BRANCH  13  16
HETATM   16  O2  UNL     1      -2.401   1.026  -2.009  1.00  0.00    -0.370 OA
HETATM   17  H7  UNL     1      -1.959   1.775  -2.496  1.00  0.00     0.212 HD
ENDBRANCH  13  16
BRANCH  15  18
HETATM   18  C10 UNL     1      -3.817   0.045   0.355  1.00  0.00    -0.049 A 
HETATM   19  C11 UNL     1      -4.764   0.686  -0.385  1.00  0.00     0.007 A 
HETATM   20  C12 UNL     1      -6.094   0.332  -0.342  1.00  0.00     0.001 A 
HETATM   21  C13 UNL     1      -6.543  -0.696   0.456  1.00  0.00     0.000 A 
HETATM   22  C14 UNL     1      -5.633  -1.385   1.230  1.00  0.00     0.001 A 
HETATM   23  C15 UNL     1      -4.316  -0.994   1.153  1.00  0.00     0.007 A 
ENDBRANCH  15  18
ENDBRANCH  11  13
ENDBRANCH   7  11
BRANCH  10  24
HETATM   24  O3  UNL     1       4.223  -0.699  -3.075  1.00  0.00    -0.358 OA
HETATM   25  H17 UNL     1       3.756  -1.341  -3.677  1.00  0.00     0.217 HD
ENDBRANCH  10  24
BRANCH   1  26
HETATM   26  O1  UNL     1       6.015  -0.910  -1.046  1.00  0.00    -0.353 OA
HETATM   27  C1  UNL     1       7.054  -1.057  -0.115  1.00  0.00     0.210 C 
ENDBRANCH   1  26
TORSDOF 6
