REMARK  7 active torsions:
REMARK  status: ('A' for Active; 'I' for Inactive)
REMARK    1  A    between atoms: O1_1  and  C1_2 
REMARK    2  A    between atoms: C1_2  and  O2_3 
REMARK    3  A    between atoms: O2_3  and  C2_4 
REMARK    4  A    between atoms: C4_6  and  C5_7 
REMARK    5  A    between atoms: C8_12  and  N3_13 
REMARK    6  A    between atoms: N3_13  and  C9_14 
REMARK    7  A    between atoms: C11_16  and  C12_17 
ROOT
HETATM    1  C5  UNL     1       2.277  -1.246  -0.234  1.00  0.00     0.019 A 
HETATM    2  C6  UNL     1       3.108  -1.557   0.818  1.00  0.00     0.130 A 
HETATM    3  N1  UNL     1       2.588  -1.909   2.025  1.00  0.00    -0.253 NA
HETATM    4  C7  UNL     1       1.248  -1.957   2.201  1.00  0.00     0.234 A 
HETATM    5  N2  UNL     1       0.508  -1.648   1.154  1.00  0.00    -0.224 NA
HETATM    6  C8  UNL     1       0.909  -1.291  -0.071  1.00  0.00     0.134 A 
ENDROOT
BRANCH   6   7
HETATM    7  N3  UNL     1       0.052  -0.985  -1.163  1.00  0.00    -0.369 N 
HETATM    8  H8  UNL     1       0.554  -0.760  -2.078  1.00  0.00     0.161 HD
BRANCH   7   9
HETATM    9  C9  UNL     1      -1.345  -0.915  -1.362  1.00  0.00     0.092 A 
HETATM   10  C10 UNL     1      -2.279  -2.038  -1.228  1.00  0.00     0.037 A 
HETATM   11  C11 UNL     1      -2.185  -1.100  -0.103  1.00  0.00     0.043 A 
BRANCH  11  12
HETATM   12  C12 UNL     1      -3.168  -0.007   0.108  1.00  0.00    -0.052 A 
HETATM   13  C13 UNL     1      -3.841   0.645  -0.907  1.00  0.00     0.007 A 
HETATM   14  C14 UNL     1      -4.749   1.658  -0.680  1.00  0.00     0.001 A 
HETATM   15  C15 UNL     1      -5.028   2.068   0.600  1.00  0.00     0.000 A 
HETATM   16  C16 UNL     1      -4.394   1.460   1.654  1.00  0.00     0.001 A 
HETATM   17  C17 UNL     1      -3.498   0.458   1.389  1.00  0.00     0.007 A 
ENDBRANCH  11  12
ENDBRANCH   7   9
ENDBRANCH   6   7
BRANCH   1  18
HETATM   18  C4  UNL     1       3.020  -0.872  -1.452  1.00  0.00     0.105 A 
HETATM   19  C2  UNL     1       3.771   0.428  -1.446  1.00  0.00     0.059 A 
HETATM   20  C3  UNL     1       2.692   0.308  -2.244  1.00  0.00     0.023 A 
BRANCH  19  21
HETATM   21  O2  UNL     1       4.871   1.090  -0.875  1.00  0.00    -0.330 OA
BRANCH  21  22
HETATM   22  C1  UNL     1       4.610   2.205  -0.047  1.00  0.00     0.341 C 
BRANCH  22  23
HETATM   23  O1  UNL     1       5.815   2.715   0.415  1.00  0.00    -0.377 OA
HETATM   24  H1  UNL     1       6.529   2.665  -0.280  1.00  0.00     0.212 HD
ENDBRANCH  22  23
ENDBRANCH  21  22
ENDBRANCH  19  21
ENDBRANCH   1  18
TORSDOF 7
