REMARK  2 active torsions:
REMARK  status: ('A' for Active; 'I' for Inactive)
REMARK    1  A    between atoms: O1_2  and  C2_3 
REMARK    2  A    between atoms: C9_12  and  O2_13 
ROOT
HETATM    1  C2  UNL     1       3.157   0.568  -0.539  1.00  0.00     0.104 A 
HETATM    2  C3  UNL     1       3.186  -0.791  -0.618  1.00  0.00     0.072 A 
HETATM    3  C4  UNL     1       2.011  -1.512  -0.608  1.00  0.00     0.075 A 
HETATM    4  N1  UNL     1       2.246  -2.830  -0.665  1.00  0.00    -0.241 NA
HETATM    5  C5  UNL     1       1.248  -3.724  -0.637  1.00  0.00     0.236 A 
HETATM    6  N2  UNL     1       0.015  -3.198  -0.549  1.00  0.00    -0.224 NA
HETATM    7  C6  UNL     1      -0.246  -1.883  -0.490  1.00  0.00     0.138 A 
HETATM    8  C7  UNL     1       0.773  -0.970  -0.524  1.00  0.00     0.051 A 
HETATM    9  C8  UNL     1       0.766   0.411  -0.450  1.00  0.00     0.016 A 
HETATM   10  C9  UNL     1       1.913   1.156  -0.453  1.00  0.00     0.112 A 
HETATM   11  C11 UNL     1      -0.419   1.252  -0.515  1.00  0.00     0.015 C 
HETATM   12  C12 UNL     1      -1.281   2.176  -0.729  1.00  0.00     0.001 C 
HETATM   13  C13 UNL     1      -2.579   2.772  -0.637  1.00  0.00    -0.004 C 
HETATM   14  C14 UNL     1      -3.591   2.100  -0.015  1.00  0.00    -0.021 C 
HETATM   15  C15 UNL     1      -4.042   0.890   0.699  1.00  0.00     0.021 C 
HETATM   16  C16 UNL     1      -3.454  -0.271   1.080  1.00  0.00     0.005 C 
HETATM   17  C17 UNL     1      -3.162  -1.594   1.622  1.00  0.00     0.015 A 
HETATM   18  C18 UNL     1      -3.803  -2.713   0.770  1.00  0.00     0.032 A 
HETATM   19  C19 UNL     1      -2.323  -2.503   0.796  1.00  0.00     0.088 A 
HETATM   20  N3  UNL     1      -1.663  -1.810  -0.335  1.00  0.00    -0.369 N 
HETATM   21  H19 UNL     1      -1.758  -1.225  -1.177  1.00  0.00     0.161 HD
ENDROOT
BRANCH   1  22
HETATM   22  O1  UNL     1       4.217   1.460  -0.533  1.00  0.00    -0.353 OA
HETATM   23  C1  UNL     1       5.546   0.992  -0.619  1.00  0.00     0.210 C 
ENDBRANCH   1  22
BRANCH  10  24
HETATM   24  O2  UNL     1       1.585   2.497  -0.353  1.00  0.00    -0.352 OA
HETATM   25  C10 UNL     1       1.455   3.150   0.904  1.00  0.00     0.210 C 
ENDBRANCH  10  24
TORSDOF 2
