REMARK  2 active torsions:
REMARK  status: ('A' for Active; 'I' for Inactive)
REMARK    1  A    between atoms: O1_2  and  C2_3 
REMARK    2  A    between atoms: C9_12  and  O2_13 
ROOT
HETATM    1  C2  UNL     1      -2.930  -0.126  -0.559  1.00  0.00     0.102 C 
HETATM    2  C3  UNL     1      -3.228  -1.234   0.204  1.00  0.00     0.059 C 
HETATM    3  C4  UNL     1      -2.796  -2.220   1.032  1.00  0.00     0.121 C 
HETATM    4  N1  UNL     1      -1.821  -2.810   0.311  1.00  0.00    -0.254 NA
HETATM    5  C5  UNL     1      -0.532  -2.531   0.670  1.00  0.00     0.234 C 
HETATM    6  N2  UNL     1      -0.416  -1.278   0.267  1.00  0.00    -0.224 NA
HETATM    7  C6  UNL     1       0.728  -0.672  -0.124  1.00  0.00     0.132 C 
HETATM    8  C7  UNL     1       0.159   0.501  -0.705  1.00  0.00     0.004 C 
HETATM    9  C8  UNL     1      -0.841   0.564  -1.629  1.00  0.00     0.051 C 
HETATM   10  C9  UNL     1      -2.168   0.237  -1.638  1.00  0.00     0.099 C 
HETATM   11  C10 UNL     1       1.035   1.441   0.053  1.00  0.00     0.017 A 
HETATM   12  C11 UNL     1       0.293   1.343   1.200  1.00  0.00    -0.030 A 
HETATM   13  C12 UNL     1       1.649   1.346   1.380  1.00  0.00     0.036 A 
HETATM   14  C13 UNL     1       2.456   1.443   0.274  1.00  0.00    -0.001 A 
HETATM   15  C14 UNL     1       3.082   1.549  -0.936  1.00  0.00    -0.034 A 
HETATM   16  C15 UNL     1       1.722   1.539  -1.123  1.00  0.00     0.035 A 
HETATM   17  C16 UNL     1       3.445   0.437   0.823  1.00  0.00     0.024 A 
HETATM   18  C17 UNL     1       4.525  -0.316   0.280  1.00  0.00     0.033 A 
HETATM   19  C18 UNL     1       3.278  -0.757  -0.244  1.00  0.00     0.088 A 
HETATM   20  N3  UNL     1       2.030  -1.272   0.149  1.00  0.00    -0.369 N 
HETATM   21  H17 UNL     1       1.947  -2.154   0.685  1.00  0.00     0.161 HD
ENDROOT
BRANCH   1  22
HETATM   22  O1  UNL     1      -3.511   1.125  -0.275  1.00  0.00    -0.353 OA
HETATM   23  C1  UNL     1      -4.417   1.276   0.803  1.00  0.00     0.210 C 
ENDBRANCH   1  22
BRANCH  10  24
HETATM   24  O2  UNL     1      -2.774   0.286  -2.885  1.00  0.00    -0.358 OA
HETATM   25  H8  UNL     1      -2.673  -0.460  -3.539  1.00  0.00     0.217 HD
ENDBRANCH  10  24
TORSDOF 2
