REMARK  4 active torsions:
REMARK  status: ('A' for Active; 'I' for Inactive)
REMARK    1  A    between atoms: O1_2  and  C2_3 
REMARK    2  A    between atoms: C7_8  and  O2_9 
REMARK    3  A    between atoms: C11_15  and  N3_16 
REMARK    4  A    between atoms: N3_16  and  C12_17 
ROOT
HETATM    1  C2  UNL     1       2.886   0.114   0.135  1.00  0.00     0.076 C 
HETATM    2  C3  UNL     1       2.138   1.197   0.262  1.00  0.00     0.034 C 
HETATM    3  C4  UNL     1       1.472   1.747  -0.967  1.00  0.00     0.077 A 
HETATM    4  C5  UNL     1       1.091   0.630  -1.860  1.00  0.00    -0.002 C 
HETATM    5  C6  UNL     1       1.854  -0.457  -1.942  1.00  0.00     0.009 C 
HETATM    6  C7  UNL     1       3.108  -0.593  -1.150  1.00  0.00     0.197 C 
HETATM    7  C8  UNL     1       2.484   2.640  -1.590  1.00  0.00     0.115 A 
HETATM    8  N1  UNL     1       2.407   3.919  -1.817  1.00  0.00    -0.256 NA
HETATM    9  C9  UNL     1       1.223   4.657  -1.451  1.00  0.00     0.232 A 
HETATM   10  N2  UNL     1       0.245   4.022  -0.893  1.00  0.00    -0.243 NA
HETATM   11  C10 UNL     1       0.316   2.620  -0.638  1.00  0.00     0.072 A 
HETATM   12  C11 UNL     1      -0.751   2.090  -0.059  1.00  0.00     0.112 C 
ENDROOT
BRANCH  12  13
HETATM   13  N3  UNL     1      -0.953   0.732   0.309  1.00  0.00    -0.391 N 
HETATM   14  H12 UNL     1      -0.473   0.256   1.130  1.00  0.00     0.159 HD
BRANCH  13  15
HETATM   15  C12 UNL     1      -1.786  -0.297  -0.266  1.00  0.00     0.098 A 
HETATM   16  C13 UNL     1      -3.242   0.000  -0.301  1.00  0.00     0.046 A 
HETATM   17  C14 UNL     1      -2.688  -1.133   0.537  1.00  0.00     0.017 A 
HETATM   18  C15 UNL     1      -3.017  -2.492   0.042  1.00  0.00    -0.015 C 
HETATM   19  C19 UNL     1      -2.819  -1.039   2.007  1.00  0.00    -0.015 C 
HETATM   20  C16 UNL     1      -3.958  -3.182   0.644  1.00  0.00    -0.026 C 
HETATM   21  C17 UNL     1      -4.707  -2.627   1.821  1.00  0.00     0.053 C 
HETATM   22  C18 UNL     1      -3.785  -1.761   2.565  1.00  0.00    -0.026 C 
ENDBRANCH  13  15
ENDBRANCH  12  13
BRANCH   1  23
HETATM   23  O1  UNL     1       3.500  -0.390   1.274  1.00  0.00    -0.357 OA
HETATM   24  C1  UNL     1       4.905  -0.598   1.267  1.00  0.00     0.209 C 
ENDBRANCH   1  23
BRANCH   6  25
HETATM   25  O2  UNL     1       3.404  -1.950  -0.925  1.00  0.00    -0.385 OA
HETATM   26  H8  UNL     1       2.812  -2.370  -0.255  1.00  0.00     0.210 HD
ENDBRANCH   6  25
TORSDOF 4
