REMARK  2 active torsions:
REMARK  status: ('A' for Active; 'I' for Inactive)
REMARK    1  A    between atoms: O1_2  and  C2_3 
REMARK    2  A    between atoms: C10_14  and  C11_15 
ROOT
HETATM    1  C2  UNL     1       3.710  -0.256   0.181  1.00  0.00     0.088 A 
HETATM    2  C3  UNL     1       3.971  -0.418   1.469  1.00  0.00     0.037 A 
HETATM    3  C4  UNL     1       2.797  -0.443   2.335  1.00  0.00     0.020 A 
HETATM    4  C5  UNL     1       1.562  -0.313   1.878  1.00  0.00     0.091 A 
HETATM    5  N1  UNL     1       1.336  -0.141   0.485  1.00  0.00    -0.335 N 
HETATM    6  C6  UNL     1       2.390  -0.098  -0.486  1.00  0.00     0.244 A 
HETATM    7  N2  UNL     1       2.342   1.103  -1.292  1.00  0.00    -0.358 N 
HETATM    8  C7  UNL     1       1.065   1.575  -1.622  1.00  0.00     0.201 C 
HETATM    9  N3  UNL     1       0.012   1.083  -1.098  1.00  0.00    -0.252 NA
HETATM   10  C8  UNL     1       0.034   0.010  -0.131  1.00  0.00     0.135 A 
HETATM   11  C9  UNL     1      -0.651  -1.282  -0.602  1.00  0.00     0.066 A 
HETATM   12  C10 UNL     1      -1.165  -0.468   0.543  1.00  0.00     0.052 A 
HETATM   13  H8  UNL     1       3.147   1.664  -1.659  1.00  0.00     0.162 HD
ENDROOT
BRANCH  12  14
HETATM   14  C11 UNL     1      -2.494   0.198   0.464  1.00  0.00     0.039 C 
HETATM   15  C12 UNL     1      -3.462  -0.582   1.280  1.00  0.00    -0.018 C 
HETATM   16  C13 UNL     1      -4.768  -0.799   1.284  1.00  0.00    -0.003 C 
HETATM   17  C14 UNL     1      -5.737  -0.239   0.337  1.00  0.00    -0.000 C 
HETATM   18  C15 UNL     1      -5.487   0.281  -0.855  1.00  0.00    -0.000 C 
HETATM   19  C16 UNL     1      -4.170   0.416  -1.506  1.00  0.00    -0.003 C 
HETATM   20  C17 UNL     1      -2.988   0.374  -0.916  1.00  0.00    -0.018 C 
ENDBRANCH  12  14
BRANCH   1  21
HETATM   21  O1  UNL     1       4.752  -0.215  -0.762  1.00  0.00    -0.356 OA
HETATM   22  C1  UNL     1       5.903   0.586  -0.585  1.00  0.00     0.209 C 
ENDBRANCH   1  21
TORSDOF 2
