REMARK  5 active torsions:
REMARK  status: ('A' for Active; 'I' for Inactive)
REMARK    1  A    between atoms: O1_2  and  C2_3 
REMARK    2  A    between atoms: C6_9  and  N3_10 
REMARK    3  A    between atoms: N3_10  and  C7_11 
REMARK    4  A    between atoms: C9_13  and  C10_14 
REMARK    5  A    between atoms: C18_22  and  O2_23 
ROOT
HETATM    1  C2  UNL     1       4.777   0.081  -0.055  1.00  0.00     0.103 A 
HETATM    2  C3  UNL     1       4.132   0.907   0.841  1.00  0.00     0.072 A 
HETATM    3  C4  UNL     1       2.770   1.031   0.814  1.00  0.00     0.075 A 
HETATM    4  N1  UNL     1       2.182   1.853   1.715  1.00  0.00    -0.241 NA
HETATM    5  C5  UNL     1       0.834   2.013   1.733  1.00  0.00     0.235 A 
HETATM    6  N2  UNL     1       0.101   1.339   0.839  1.00  0.00    -0.224 NA
HETATM    7  C6  UNL     1       0.584   0.505  -0.089  1.00  0.00     0.138 A 
HETATM    8  C16 UNL     1       1.953   0.368  -0.077  1.00  0.00     0.041 A 
HETATM    9  C17 UNL     1       2.635  -0.445  -0.954  1.00  0.00     0.057 A 
HETATM   10  C18 UNL     1       4.005  -0.605  -0.968  1.00  0.00     0.100 A 
ENDROOT
BRANCH   7  11
HETATM   11  N3  UNL     1      -0.209  -0.204  -1.031  1.00  0.00    -0.369 N 
HETATM   12  H6  UNL     1       0.221  -0.830  -1.741  1.00  0.00     0.161 HD
BRANCH  11  13
HETATM   13  C7  UNL     1      -1.653  -0.142  -1.122  1.00  0.00     0.092 A 
HETATM   14  C8  UNL     1      -2.287   1.181  -1.360  1.00  0.00     0.037 A 
HETATM   15  C9  UNL     1      -2.520   0.407  -0.083  1.00  0.00     0.043 A 
BRANCH  15  16
HETATM   16  C10 UNL     1      -3.894  -0.190   0.107  1.00  0.00    -0.052 A 
HETATM   17  C11 UNL     1      -4.578  -0.849  -0.891  1.00  0.00     0.007 A 
HETATM   18  C12 UNL     1      -5.830  -1.391  -0.706  1.00  0.00     0.001 A 
HETATM   19  C13 UNL     1      -6.446  -1.281   0.521  1.00  0.00     0.000 A 
HETATM   20  C14 UNL     1      -5.809  -0.635   1.547  1.00  0.00     0.001 A 
HETATM   21  C15 UNL     1      -4.575  -0.113   1.328  1.00  0.00     0.007 A 
ENDBRANCH  15  16
ENDBRANCH  11  13
ENDBRANCH   7  11
BRANCH  10  22
HETATM   22  O2  UNL     1       4.651  -1.444  -1.881  1.00  0.00    -0.358 OA
HETATM   23  H17 UNL     1       4.523  -1.298  -2.883  1.00  0.00     0.217 HD
ENDBRANCH  10  22
BRANCH   1  24
HETATM   24  O1  UNL     1       6.146  -0.057  -0.043  1.00  0.00    -0.353 OA
HETATM   25  C1  UNL     1       6.932   0.648   0.895  1.00  0.00     0.210 C 
ENDBRANCH   1  24
TORSDOF 5
