REMARK  4 active torsions:
REMARK  status: ('A' for Active; 'I' for Inactive)
REMARK    1  A    between atoms: O1_2  and  C2_3 
REMARK    2  A    between atoms: C5_6  and  N1_7 
REMARK    3  A    between atoms: N1_7  and  C6_8 
REMARK    4  A    between atoms: C8_10  and  C9_11 
ROOT
HETATM    1  C2  UNL     1      -3.950   0.553  -1.309  1.00  0.00     0.081 A 
HETATM    2  C3  UNL     1      -2.702   0.755  -1.772  1.00  0.00     0.031 A 
HETATM    3  C4  UNL     1      -1.987   0.109  -0.723  1.00  0.00     0.090 A 
HETATM    4  C5  UNL     1      -0.605   0.373  -0.534  1.00  0.00     0.118 C 
HETATM    5  N2  UNL     1      -0.555   1.136   0.621  1.00  0.00    -0.228 NA
HETATM    6  C15 UNL     1      -1.756   1.428   1.293  1.00  0.00     0.236 C 
HETATM    7  N3  UNL     1      -2.957   1.309   1.891  1.00  0.00    -0.230 NA
HETATM    8  C16 UNL     1      -3.731   0.190   2.084  1.00  0.00     0.254 C 
HETATM    9  O2  UNL     1      -4.102  -0.726   1.023  1.00  0.00    -0.324 OA
HETATM   10  C17 UNL     1      -3.601  -0.157  -0.112  1.00  0.00     0.145 A 
HETATM   11  C18 UNL     1      -2.377  -0.535   0.393  1.00  0.00     0.029 A 
HETATM   12  C19 UNL     1      -1.560  -1.272   1.378  1.00  0.00     0.021 C 
ENDROOT
BRANCH   4  13
HETATM   13  N1  UNL     1       0.277  -0.137  -1.487  1.00  0.00    -0.372 N 
HETATM   14  H5  UNL     1      -0.131  -0.676  -2.278  1.00  0.00     0.161 HD
BRANCH  13  15
HETATM   15  C6  UNL     1       1.704   0.032  -1.452  1.00  0.00     0.092 A 
HETATM   16  C7  UNL     1       2.309   1.392  -1.479  1.00  0.00     0.037 A 
HETATM   17  C8  UNL     1       2.402   0.498  -0.249  1.00  0.00     0.043 A 
BRANCH  17  18
HETATM   18  C9  UNL     1       3.766  -0.044   0.084  1.00  0.00    -0.052 A 
HETATM   19  C10 UNL     1       4.646  -0.526  -0.877  1.00  0.00     0.007 A 
HETATM   20  C11 UNL     1       5.886  -1.012  -0.518  1.00  0.00     0.001 A 
HETATM   21  C12 UNL     1       6.288  -1.032   0.812  1.00  0.00     0.000 A 
HETATM   22  C13 UNL     1       5.424  -0.555   1.795  1.00  0.00     0.001 A 
HETATM   23  C14 UNL     1       4.184  -0.071   1.416  1.00  0.00     0.007 A 
ENDBRANCH  17  18
ENDBRANCH  13  15
ENDBRANCH   4  13
BRANCH   1  24
HETATM   24  O1  UNL     1      -5.229   0.817  -1.651  1.00  0.00    -0.357 OA
HETATM   25  C1  UNL     1      -6.189   1.482  -0.884  1.00  0.00     0.209 C 
ENDBRANCH   1  24
TORSDOF 4
