REMARK  4 active torsions:
REMARK  status: ('A' for Active; 'I' for Inactive)
REMARK    1  A    between atoms: O1_2  and  C2_3 
REMARK    2  A    between atoms: C6_9  and  N3_10 
REMARK    3  A    between atoms: N3_10  and  P1_11 
REMARK    4  A    between atoms: C8_13  and  C9_14 
ROOT
HETATM    1  C2  UNL     1       4.106  -0.046  -0.098  1.00  0.00     0.145 A 
HETATM    2  C3  UNL     1       5.144   0.044   0.867  1.00  0.00     0.076 A 
HETATM    3  C4  UNL     1       4.848   1.320   0.569  1.00  0.00     0.122 A 
HETATM    4  N1  UNL     1       4.121   1.537   1.775  1.00  0.00    -0.266 NA
HETATM    5  C5  UNL     1       2.927   0.871   1.887  1.00  0.00     0.230 C 
HETATM    6  N2  UNL     1       1.628   0.604   1.692  1.00  0.00    -0.225 NA
HETATM    7  C6  UNL     1       0.989   0.791   0.499  1.00  0.00     0.128 C 
HETATM    8  C15 UNL     1       1.453   0.792  -0.800  1.00  0.00     0.053 C 
HETATM    9  C16 UNL     1       2.432   0.293  -1.642  1.00  0.00     0.039 C 
HETATM   10  C17 UNL     1       3.357   0.902  -0.842  1.00  0.00     0.084 C 
HETATM   11  O2  UNL     1       3.442   2.373  -0.856  1.00  0.00    -0.349 OA
HETATM   12  C18 UNL     1       4.684   2.697  -0.064  1.00  0.00     0.212 C 
ENDROOT
BRANCH   7  13
HETATM   13  N3  UNL     1      -0.410   1.072   0.651  1.00  0.00    -0.349 N 
HETATM   14  H6  UNL     1      -0.724   2.039   0.426  1.00  0.00     0.166 HD
BRANCH  13  15
HETATM   15  P1  UNL     1      -2.066   0.466   1.068  1.00  0.00    -0.007 P 
HETATM   16  C7  UNL     1      -2.449  -1.291   0.747  1.00  0.00     0.072 A 
HETATM   17  C8  UNL     1      -3.057  -0.245  -0.193  1.00  0.00     0.073 A 
BRANCH  17  18
HETATM   18  C9  UNL     1      -4.537  -0.295  -0.251  1.00  0.00    -0.048 A 
HETATM   19  C10 UNL     1      -5.391   0.761  -0.147  1.00  0.00     0.008 A 
HETATM   20  C11 UNL     1      -6.779   0.620  -0.221  1.00  0.00     0.001 A 
HETATM   21  C12 UNL     1      -7.241  -0.663  -0.407  1.00  0.00     0.000 A 
HETATM   22  C13 UNL     1      -6.456  -1.793  -0.522  1.00  0.00     0.001 A 
HETATM   23  C14 UNL     1      -5.077  -1.554  -0.435  1.00  0.00     0.008 A 
ENDBRANCH  17  18
ENDBRANCH  13  15
ENDBRANCH   7  13
BRANCH   1  24
HETATM   24  O1  UNL     1       3.854  -1.375  -0.268  1.00  0.00    -0.375 OA
HETATM   25  C1  UNL     1       4.565  -2.351   0.449  1.00  0.00     0.203 C 
ENDBRANCH   1  24
TORSDOF 4
