REMARK  4 active torsions:
REMARK  status: ('A' for Active; 'I' for Inactive)
REMARK    1  A    between atoms: C6_9  and  N3_10 
REMARK    2  A    between atoms: N3_10  and  C7_11 
REMARK    3  A    between atoms: C9_13  and  C10_14 
REMARK    4  A    between atoms: P1_22  and  O2_23 
ROOT
HETATM    1  C1  UNL     1      -4.487  -2.098   1.045  1.00  0.00     0.000 C 
HETATM    2  O1  UNL     1      -3.288  -1.870   0.285  1.00  0.00     0.000 OA
HETATM    3  C2  UNL     1      -2.792  -0.577   0.314  1.00  0.00     0.002 A 
HETATM    4  C3  UNL     1      -2.245   0.505   0.778  1.00  0.00     0.034 C 
HETATM    5  C4  UNL     1      -1.631   1.100   1.942  1.00  0.00     0.119 C 
HETATM    6  N1  UNL     1      -1.310   0.039   2.574  1.00  0.00    -0.254 NA
HETATM    7  C5  UNL     1      -1.499  -1.305   2.175  1.00  0.00     0.235 C 
HETATM    8  N2  UNL     1      -1.175  -2.064   1.137  1.00  0.00    -0.218 NA
HETATM    9  C6  UNL     1      -0.460  -1.494   0.095  1.00  0.00     0.165 C 
HETATM   10  S1  UNL     1      -0.641  -1.496  -1.541  1.00  0.00    -0.071 SA
HETATM   11  C16 UNL     1      -2.124  -1.772  -2.085  1.00  0.00     0.109 C 
HETATM   12  P1  UNL     1      -3.205  -0.808  -1.327  1.00  0.00     0.023 P 
HETATM   13  H17 UNL     1      -3.050   0.495  -1.973  1.00  0.00     0.088 HD
ENDROOT
BRANCH   9  14
HETATM   14  N3  UNL     1       0.741  -0.686   0.173  1.00  0.00    -0.364 N 
HETATM   15  H7  UNL     1       1.032  -0.569   1.190  1.00  0.00     0.162 HD
BRANCH  14  16
HETATM   16  C7  UNL     1       1.714   0.041  -0.634  1.00  0.00     0.092 A 
HETATM   17  C8  UNL     1       2.528  -0.651  -1.667  1.00  0.00     0.037 A 
HETATM   18  C9  UNL     1       3.167  -0.341  -0.386  1.00  0.00     0.043 A 
BRANCH  18  19
HETATM   19  C10 UNL     1       4.117   0.785  -0.213  1.00  0.00    -0.052 A 
HETATM   20  C11 UNL     1       5.115   0.723   0.754  1.00  0.00     0.007 A 
HETATM   21  C12 UNL     1       6.043   1.724   0.986  1.00  0.00     0.001 A 
HETATM   22  C13 UNL     1       5.981   2.870   0.205  1.00  0.00     0.000 A 
HETATM   23  C14 UNL     1       4.998   2.947  -0.758  1.00  0.00     0.001 A 
HETATM   24  C15 UNL     1       4.088   1.932  -0.964  1.00  0.00     0.007 A 
ENDBRANCH  18  19
ENDBRANCH  14  16
ENDBRANCH   9  14
BRANCH  12  25
HETATM   25  O2  UNL     1      -4.723  -1.290  -1.730  1.00  0.00    -0.371 OA
HETATM   26  C17 UNL     1      -5.674  -0.286  -1.660  1.00  0.00     0.206 C 
ENDBRANCH  12  25
TORSDOF 4
