REMARK  3 active torsions:
REMARK  status: ('A' for Active; 'I' for Inactive)
REMARK    1  A    between atoms: O1_2  and  C2_3 
REMARK    2  A    between atoms: N3_11  and  C8_12 
REMARK    3  A    between atoms: C10_14  and  C11_15 
ROOT
HETATM    1  C2  UNL     1       3.637  -0.555   1.237  1.00  0.00     0.051 A 
HETATM    2  C3  UNL     1       2.545  -0.951   1.872  1.00  0.00     0.035 A 
HETATM    3  C4  UNL     1       1.263  -0.549   1.302  1.00  0.00     0.036 A 
HETATM    4  C5  UNL     1       1.179   0.180   0.201  1.00  0.00     0.078 A 
HETATM    5  C6  UNL     1       2.404   0.599  -0.471  1.00  0.00     0.070 A 
HETATM    6  N1  UNL     1       2.206   1.305  -1.533  1.00  0.00    -0.242 NA
HETATM    7  C7  UNL     1       0.915   1.657  -2.025  1.00  0.00     0.255 A 
HETATM    8  N2  UNL     1      -0.194   1.300  -1.451  1.00  0.00    -0.165 NA
HETATM    9  N3  UNL     1      -0.104   0.528  -0.285  1.00  0.00    -0.262 N 
HETATM   10  C16 UNL     1       3.760   0.259   0.001  1.00  0.00     0.126 A 
ENDROOT
BRANCH   9  11
HETATM   11  C8  UNL     1      -1.348   0.149   0.325  1.00  0.00     0.116 A 
HETATM   12  C9  UNL     1      -1.597  -1.334   0.430  1.00  0.00     0.035 A 
HETATM   13  C10 UNL     1      -2.433  -0.509  -0.462  1.00  0.00     0.024 A 
BRANCH  13  14
HETATM   14  C11 UNL     1      -3.855  -0.207   0.001  1.00  0.00     0.037 A 
HETATM   15  C12 UNL     1      -4.155   1.230  -0.062  1.00  0.00    -0.018 A 
HETATM   16  C13 UNL     1      -5.202   1.385  -0.858  1.00  0.00    -0.004 A 
HETATM   17  C14 UNL     1      -5.663   0.087  -1.371  1.00  0.00    -0.004 A 
HETATM   18  C15 UNL     1      -4.861  -0.861  -0.859  1.00  0.00    -0.018 A 
ENDBRANCH  13  14
ENDBRANCH   9  11
BRANCH   1  19
HETATM   19  O1  UNL     1       4.855  -0.950   1.798  1.00  0.00    -0.360 OA
HETATM   20  C1  UNL     1       6.113  -0.510   1.391  1.00  0.00     0.209 C 
ENDBRANCH   1  19
TORSDOF 3
