REMARK  2 active torsions:
REMARK  status: ('A' for Active; 'I' for Inactive)
REMARK    1  A    between atoms: O1_2  and  C2_3 
REMARK    2  A    between atoms: C15_19  and  O2_20 
ROOT
HETATM    1  C2  UNL     1       2.167   1.189   0.631  1.00  0.00     0.103 A 
HETATM    2  C3  UNL     1       1.211   1.706  -0.169  1.00  0.00     0.068 A 
HETATM    3  C4  UNL     1       0.117   1.032  -0.951  1.00  0.00     0.050 A 
HETATM    4  N1  UNL     1      -0.378   2.068  -1.494  1.00  0.00    -0.246 NA
HETATM    5  C5  UNL     1      -1.410   2.332  -2.359  1.00  0.00     0.229 C 
HETATM    6  N2  UNL     1      -2.561   1.756  -2.689  1.00  0.00    -0.253 NA
HETATM    7  C6  UNL     1      -2.716   0.518  -1.891  1.00  0.00     0.420 C 
HETATM    8  N3  UNL     1      -2.491   0.997  -0.519  1.00  0.00     0.117 N 
HETATM    9  C7  UNL     1      -2.204  -0.120   0.352  1.00  0.00     0.188 A 
HETATM   10  C8  UNL     1      -2.741  -0.181   1.701  1.00  0.00     0.054 A 
HETATM   11  C9  UNL     1      -3.355  -1.018   0.628  1.00  0.00     0.035 A 
HETATM   12  C10 UNL     1      -2.816  -2.395   0.463  1.00  0.00     0.035 C 
HETATM   13  C11 UNL     1      -1.491  -2.258  -0.137  1.00  0.00    -0.020 C 
HETATM   14  C12 UNL     1      -1.142  -0.981  -0.202  1.00  0.00    -0.031 C 
HETATM   15  C13 UNL     1       0.124  -0.424  -0.754  1.00  0.00     0.094 A 
HETATM   16  C14 UNL     1       1.211  -0.904   0.133  1.00  0.00     0.028 A 
HETATM   17  C15 UNL     1       2.190  -0.285   0.815  1.00  0.00     0.098 A 
HETATM   18  H8  UNL     1      -3.399   1.414  -0.221  1.00  0.00     0.319 HD
ENDROOT
BRANCH   1  19
HETATM   19  O1  UNL     1       3.225   1.742   1.395  1.00  0.00    -0.353 OA
HETATM   20  C1  UNL     1       4.269   2.487   0.845  1.00  0.00     0.210 C 
ENDBRANCH   1  19
BRANCH  17  21
HETATM   21  O2  UNL     1       3.042  -1.071   1.559  1.00  0.00    -0.353 OA
HETATM   22  C16 UNL     1       3.915  -2.040   1.045  1.00  0.00     0.210 C 
ENDBRANCH  17  21
TORSDOF 2
