REMARK  5 active torsions:
REMARK  status: ('A' for Active; 'I' for Inactive)
REMARK    1  A    between atoms: C2_2  and  C3_3 
REMARK    2  A    between atoms: C7_9  and  N3_10 
REMARK    3  A    between atoms: N3_10  and  C8_11 
REMARK    4  A    between atoms: C10_13  and  C11_14 
REMARK    5  A    between atoms: C18_21  and  O1_22 
ROOT
HETATM    1  C3  UNL     1      -3.670  -0.819   0.161  1.00  0.00    -0.004 A 
HETATM    2  C4  UNL     1      -3.066  -1.997  -0.230  1.00  0.00     0.046 A 
HETATM    3  C5  UNL     1      -1.768  -1.909  -0.687  1.00  0.00     0.073 A 
HETATM    4  N1  UNL     1      -1.103  -3.028  -1.092  1.00  0.00    -0.241 NA
HETATM    5  C6  UNL     1       0.172  -2.920  -1.538  1.00  0.00     0.235 A 
HETATM    6  N2  UNL     1       0.828  -1.723  -1.600  1.00  0.00    -0.224 NA
HETATM    7  C7  UNL     1       0.206  -0.596  -1.210  1.00  0.00     0.138 A 
HETATM    8  C16 UNL     1      -1.087  -0.713  -0.759  1.00  0.00     0.041 A 
HETATM    9  C17 UNL     1      -1.750   0.426  -0.352  1.00  0.00     0.055 A 
HETATM   10  C18 UNL     1      -3.048   0.411   0.116  1.00  0.00     0.079 A 
ENDROOT
BRANCH   7  11
HETATM   11  N3  UNL     1       0.933   0.622  -1.295  1.00  0.00    -0.369 N 
HETATM   12  H6  UNL     1       0.622   1.582  -1.042  1.00  0.00     0.161 HD
BRANCH  11  13
HETATM   13  C8  UNL     1       2.276   0.558  -1.791  1.00  0.00     0.088 A 
HETATM   14  C9  UNL     1       3.124   1.783  -1.920  1.00  0.00     0.033 A 
HETATM   15  C10 UNL     1       3.469   0.624  -0.967  1.00  0.00     0.021 A 
BRANCH  15  16
HETATM   16  C11 UNL     1       3.463   1.032   0.480  1.00  0.00     0.036 A 
HETATM   17  C12 UNL     1       2.642   0.172   1.353  1.00  0.00    -0.018 A 
HETATM   18  C13 UNL     1       3.392  -0.393   2.314  1.00  0.00    -0.004 A 
HETATM   19  C14 UNL     1       4.774   0.052   2.148  1.00  0.00    -0.004 A 
HETATM   20  C15 UNL     1       4.805   0.866   1.097  1.00  0.00    -0.018 A 
ENDBRANCH  15  16
ENDBRANCH  11  13
ENDBRANCH   7  11
BRANCH  10  21
HETATM   21  O1  UNL     1      -3.767   1.518   0.538  1.00  0.00    -0.355 OA
HETATM   22  C19 UNL     1      -3.234   2.828   0.537  1.00  0.00     0.210 C 
ENDBRANCH  10  21
BRANCH   1  23
HETATM   23  C2  UNL     1      -5.043  -0.906   0.645  1.00  0.00    -0.012 C 
HETATM   24  C1  UNL     1      -5.677  -2.065   0.705  1.00  0.00     0.032 C 
ENDBRANCH   1  23
TORSDOF 5
