REMARK  2 active torsions:
REMARK  status: ('A' for Active; 'I' for Inactive)
REMARK    1  A    between atoms: C5_5  and  N1_6 
REMARK    2  A    between atoms: N1_6  and  C6_7 
ROOT
HETATM    1  N1  UNL     1       1.144  -0.356   1.426  1.00  0.00    -0.349 N 
HETATM    2  H6  UNL     1       1.632   0.056   2.250  1.00  0.00     0.167 HD
ENDROOT
BRANCH   1   3
HETATM    3  C5  UNL     1       0.035  -1.146   1.127  1.00  0.00     0.097 C 
HETATM    4  C4  UNL     1      -1.211  -0.750   0.963  1.00  0.00    -0.038 A 
HETATM    5  C3  UNL     1      -1.526   0.659   1.098  1.00  0.00     0.018 A 
HETATM    6  C14 UNL     1      -2.139  -1.862   0.639  1.00  0.00     0.082 A 
HETATM    7  C2  UNL     1      -2.777   1.006   0.866  1.00  0.00    -0.032 A 
HETATM    8  C1  UNL     1      -3.218   2.417   0.970  1.00  0.00     0.050 C 
HETATM    9  C16 UNL     1      -3.732  -0.062   0.515  1.00  0.00     0.070 A 
HETATM   10  C15 UNL     1      -3.501  -1.351   0.400  1.00  0.00    -0.007 A 
HETATM   11  N4  UNL     1      -5.092  -0.323   0.176  1.00  0.00    -0.259 NA
HETATM   12  C17 UNL     1      -4.888  -1.577   0.060  1.00  0.00     0.127 A 
ENDBRANCH   1   3
BRANCH   1  13
HETATM   13  C6  UNL     1       2.176   0.288   0.692  1.00  0.00     0.145 C 
HETATM   14  C7  UNL     1       1.915   1.305  -0.106  1.00  0.00     0.166 C 
HETATM   15  N2  UNL     1       2.397   2.285  -1.015  1.00  0.00    -0.269 NA
HETATM   16  C8  UNL     1       3.129   1.842  -1.981  1.00  0.00     0.116 C 
HETATM   17  C9  UNL     1       3.578   0.514  -2.352  1.00  0.00     0.019 C 
HETATM   18  C10 UNL     1       3.340  -0.619  -1.779  1.00  0.00     0.002 C 
HETATM   19  C11 UNL     1       2.790  -1.553  -0.802  1.00  0.00     0.015 C 
HETATM   20  C12 UNL     1       3.461  -1.870   0.308  1.00  0.00     0.008 C 
HETATM   21  C13 UNL     1       4.086  -0.840   0.819  1.00  0.00     0.100 C 
HETATM   22  N3  UNL     1       3.577   0.290   0.436  1.00  0.00    -0.227 NA
ENDBRANCH   1  13
TORSDOF 2
