REMARK  2 active torsions:
REMARK  status: ('A' for Active; 'I' for Inactive)
REMARK    1  A    between atoms: O1_2  and  C2_3 
REMARK    2  A    between atoms: C8_12  and  O2_13 
ROOT
HETATM    1  C2  UNL     1       0.100  -1.711   1.421  1.00  0.00     0.076 C 
HETATM    2  C3  UNL     1       0.131  -1.668   0.104  1.00  0.00     0.070 C 
HETATM    3  N1  UNL     1       1.189  -1.544  -0.951  1.00  0.00    -0.360 N 
HETATM    4  C4  UNL     1       1.962  -0.482  -1.605  1.00  0.00     0.274 C 
HETATM    5  N2  UNL     1       2.315   0.795  -1.912  1.00  0.00    -0.179 NA
HETATM    6  N3  UNL     1       1.644   1.874  -1.354  1.00  0.00    -0.228 N 
HETATM    7  C5  UNL     1       1.771   2.855  -0.357  1.00  0.00     0.117 C 
HETATM    8  C6  UNL     1       1.776   2.177   0.822  1.00  0.00     0.001 C 
HETATM    9  C7  UNL     1       1.750   1.211   1.877  1.00  0.00     0.058 C 
HETATM   10  C8  UNL     1       1.668  -0.101   2.368  1.00  0.00     0.103 C 
HETATM   11  C9  UNL     1       1.543  -1.534   1.739  1.00  0.00     0.108 C 
HETATM   12  C10 UNL     1       0.253   2.035  -1.876  1.00  0.00     0.165 C 
HETATM   13  C11 UNL     1      -0.522   2.885  -1.050  1.00  0.00     0.140 C 
HETATM   14  N4  UNL     1      -1.688   2.142  -0.323  1.00  0.00    -0.365 N 
HETATM   15  C12 UNL     1      -2.092   0.771  -0.786  1.00  0.00     0.015 C 
HETATM   16  C13 UNL     1      -1.581  -0.163   0.127  1.00  0.00     0.039 C 
HETATM   17  C14 UNL     1      -0.945  -1.175  -0.893  1.00  0.00    -0.003 C 
HETATM   18  C15 UNL     1      -0.884  -1.269  -2.254  1.00  0.00     0.041 C 
HETATM   19  C16 UNL     1      -1.127   0.170  -2.606  1.00  0.00     0.043 C 
HETATM   20  N5  UNL     1      -0.373   1.237  -3.045  1.00  0.00    -0.232 NA
HETATM   21  C17 UNL     1      -2.626   0.454  -2.174  1.00  0.00     0.116 C 
HETATM   22  H4  UNL     1       1.583  -2.397  -1.459  1.00  0.00     0.162 HD
HETATM   23  H13 UNL     1      -2.168   2.441   0.507  1.00  0.00     0.165 HD
ENDROOT
BRANCH   1  24
HETATM   24  O1  UNL     1      -1.192  -1.876   1.851  1.00  0.00    -0.358 OA
HETATM   25  C1  UNL     1      -1.778  -3.147   1.706  1.00  0.00     0.209 C 
ENDBRANCH   1  24
BRANCH  10  26
HETATM   26  O2  UNL     1       1.761   0.463   3.628  1.00  0.00    -0.386 OA
HETATM   27  H9  UNL     1       1.562  -0.151   4.433  1.00  0.00     0.210 HD
ENDBRANCH  10  26
TORSDOF 2
