REMARK  0 active torsions:
REMARK  status: ('A' for Active; 'I' for Inactive)
ROOT
HETATM    1  C1  UNL     1      -3.105   0.794   2.733  1.00  0.00     0.047 C 
HETATM    2  C2  UNL     1      -2.757   0.803   1.431  1.00  0.00     0.055 C 
HETATM    3  O1  UNL     1      -1.930   1.830   1.025  1.00  0.00    -0.298 OA
HETATM    4  C3  UNL     1      -1.114   1.850  -0.125  1.00  0.00     0.168 C 
HETATM    5  N1  UNL     1      -0.166   2.658   0.096  1.00  0.00    -0.265 NA
HETATM    6  C4  UNL     1       0.933   3.070  -0.687  1.00  0.00     0.178 C 
HETATM    7  C5  UNL     1       2.228   2.481  -0.296  1.00  0.00    -0.005 C 
HETATM    8  C6  UNL     1       3.427   2.121   0.079  1.00  0.00    -0.002 C 
HETATM    9  C7  UNL     1       4.419   1.145   0.342  1.00  0.00    -0.000 C 
HETATM   10  C8  UNL     1       4.576  -0.141   0.299  1.00  0.00    -0.000 C 
HETATM   11  C9  UNL     1       3.842  -1.332  -0.041  1.00  0.00    -0.002 C 
HETATM   12  C10 UNL     1       2.700  -1.819  -0.470  1.00  0.00    -0.007 C 
HETATM   13  C11 UNL     1       1.711  -2.828  -0.883  1.00  0.00     0.147 C 
HETATM   14  N2  UNL     1       0.488  -2.839  -0.124  1.00  0.00    -0.386 N 
HETATM   15  C12 UNL     1      -0.490  -1.802  -0.174  1.00  0.00     0.039 C 
HETATM   16  P1  UNL     1      -0.313  -0.503  -1.245  1.00  0.00     0.003 P 
HETATM   17  C13 UNL     1      -1.360   1.067  -1.323  1.00  0.00     0.193 C 
HETATM   18  N3  UNL     1      -2.619   0.599  -1.602  1.00  0.00    -0.405 N 
HETATM   19  C14 UNL     1      -3.509  -0.047  -0.795  1.00  0.00     0.130 C 
HETATM   20  C15 UNL     1      -3.338  -0.323   0.629  1.00  0.00     0.082 C 
HETATM   21  C16 UNL     1      -2.707  -1.638   0.994  1.00  0.00    -0.012 C 
HETATM   22  C17 UNL     1      -1.495  -2.221   0.843  1.00  0.00     0.027 C 
HETATM   23  H13 UNL     1       0.288  -3.641   0.503  1.00  0.00     0.160 HD
HETATM   24  H15 UNL     1      -2.967   0.658  -2.581  1.00  0.00     0.154 HD
ENDROOT
TORSDOF 0
