REMARK  4 active torsions:
REMARK  status: ('A' for Active; 'I' for Inactive)
REMARK    1  A    between atoms: O1_2  and  C1_3 
REMARK    2  A    between atoms: C1_3  and  O2_4 
REMARK    3  A    between atoms: O2_4  and  C2_5 
REMARK    4  A    between atoms: N1_11  and  C8_12 
ROOT
HETATM    1  C2  UNL     1       2.511  -0.413   0.012  1.00  0.00     0.074 A 
HETATM    2  C3  UNL     1       3.377   0.624   0.310  1.00  0.00     0.039 A 
HETATM    3  C4  UNL     1       2.868   1.894   0.488  1.00  0.00     0.035 A 
HETATM    4  C5  UNL     1       1.522   2.139   0.373  1.00  0.00     0.062 A 
HETATM    5  C6  UNL     1       0.686   1.096   0.077  1.00  0.00     0.090 A 
HETATM    6  C7  UNL     1       1.159  -0.184  -0.107  1.00  0.00     0.071 A 
HETATM    7  N1  UNL     1      -0.720   1.234  -0.056  1.00  0.00    -0.211 N 
HETATM    8  N4  UNL     1      -1.229   2.526   0.139  1.00  0.00    -0.161 NA
HETATM    9  C16 UNL     1      -0.467   3.502   0.415  1.00  0.00     0.230 A 
HETATM   10  N5  UNL     1       0.942   3.416   0.556  1.00  0.00    -0.348 N 
HETATM   11  H10 UNL     1       1.548   4.238   0.784  1.00  0.00     0.167 HD
ENDROOT
BRANCH   7  12
HETATM   12  C8  UNL     1      -1.700   0.270  -0.400  1.00  0.00     0.169 A 
HETATM   13  C9  UNL     1      -1.686  -0.634  -1.439  1.00  0.00     0.169 A 
HETATM   14  N2  UNL     1      -2.657  -1.531  -1.672  1.00  0.00    -0.255 NA
HETATM   15  C10 UNL     1      -3.717  -1.560  -0.844  1.00  0.00     0.086 A 
HETATM   16  C11 UNL     1      -3.734  -0.656   0.197  1.00  0.00     0.088 A 
HETATM   17  C15 UNL     1      -4.815  -2.497  -1.018  1.00  0.00     0.047 C 
HETATM   18  N3  UNL     1      -2.781   0.232   0.434  1.00  0.00    -0.226 NA
HETATM   19  C12 UNL     1      -4.935  -0.763   1.050  1.00  0.00     0.047 C 
HETATM   20  C13 UNL     1      -5.784  -1.758   0.896  1.00  0.00    -0.011 C 
HETATM   21  C14 UNL     1      -5.650  -2.606  -0.026  1.00  0.00    -0.011 C 
ENDBRANCH   7  12
BRANCH   1  22
HETATM   22  O2  UNL     1       3.005  -1.712  -0.173  1.00  0.00    -0.325 OA
BRANCH  22  23
HETATM   23  C1  UNL     1       4.367  -2.015  -0.067  1.00  0.00     0.360 C 
BRANCH  23  24
HETATM   24  O1  UNL     1       5.083  -1.273  -1.014  1.00  0.00    -0.286 OA
HETATM   25 BR1  UNL     1       6.875  -1.673  -0.873  1.00  0.00     0.101 Br
ENDBRANCH  23  24
ENDBRANCH  22  23
ENDBRANCH   1  22
TORSDOF 4
