REMARK  4 active torsions:
REMARK  status: ('A' for Active; 'I' for Inactive)
REMARK    1  A    between atoms: C4_4  and  C5_5 
REMARK    2  A    between atoms: N2_9  and  C8_10 
REMARK    3  A    between atoms: C12_16  and  O1_17 
REMARK    4  A    between atoms: C13_18  and  O2_19 
ROOT
HETATM    1  C1  UNL     1       5.686   0.074  -0.595  1.00  0.00     0.017 C 
HETATM    2  C2  UNL     1       5.224  -0.304  -1.654  1.00  0.00    -0.089 C 
HETATM    3  C3  UNL     1       4.669  -0.766  -2.894  1.00  0.00     0.066 C 
HETATM    4  C4  UNL     1       3.384  -0.940  -3.059  1.00  0.00     0.041 C 
ENDROOT
BRANCH   4   5
HETATM    5  C5  UNL     1       2.461  -0.662  -1.962  1.00  0.00     0.073 A 
HETATM    6  N1  UNL     1       2.903  -0.251  -0.843  1.00  0.00    -0.261 NA
HETATM    7  C6  UNL     1       2.080   0.043   0.273  1.00  0.00     0.230 A 
HETATM    8  C7  UNL     1       2.229   1.522   0.678  1.00  0.00     0.060 C 
HETATM    9  N2  UNL     1       0.657  -0.150   0.099  1.00  0.00    -0.226 N 
HETATM   10  N5  UNL     1       0.305  -0.595  -1.149  1.00  0.00    -0.179 NA
HETATM   11  C17 UNL     1       1.037  -0.858  -2.151  1.00  0.00     0.170 A 
BRANCH   9  12
HETATM   12  C8  UNL     1      -0.096   0.162   1.261  1.00  0.00     0.162 A 
HETATM   13  N3  UNL     1       0.484   0.585   2.395  1.00  0.00    -0.222 NA
HETATM   14  C9  UNL     1      -0.170   0.893   3.522  1.00  0.00     0.236 A 
HETATM   15  N4  UNL     1      -1.509   0.795   3.594  1.00  0.00    -0.241 NA
HETATM   16  C10 UNL     1      -2.184   0.376   2.502  1.00  0.00     0.075 A 
HETATM   17  C11 UNL     1      -3.545   0.280   2.588  1.00  0.00     0.072 A 
HETATM   18  C16 UNL     1      -1.455   0.073   1.370  1.00  0.00     0.043 A 
HETATM   19  C12 UNL     1      -4.285  -0.142   1.503  1.00  0.00     0.101 A 
HETATM   20  C13 UNL     1      -3.579  -0.458   0.337  1.00  0.00     0.102 A 
HETATM   21  C15 UNL     1      -2.208  -0.339   0.319  1.00  0.00     0.057 A 
BRANCH  19  22
HETATM   22  O1  UNL     1      -5.659  -0.209   1.684  1.00  0.00    -0.358 OA
HETATM   23  H10 UNL     1      -6.298   0.536   1.485  1.00  0.00     0.217 HD
ENDBRANCH  19  22
BRANCH  20  24
HETATM   24  O2  UNL     1      -4.385  -0.875  -0.713  1.00  0.00    -0.353 OA
HETATM   25  C14 UNL     1      -3.811  -1.229  -1.957  1.00  0.00     0.210 C 
ENDBRANCH  20  24
ENDBRANCH   9  12
ENDBRANCH   4   5
TORSDOF 4
