REMARK  10 active torsions:
REMARK  status: ('A' for Active; 'I' for Inactive)
REMARK    1  A    between atoms: O1_2  and  C2_3 
REMARK    2  A    between atoms: C2_3  and  C3_4 
REMARK    3  A    between atoms: C3_4  and  C4_5 
REMARK    4  A    between atoms: C4_5  and  C5_6 
REMARK    5  A    between atoms: C7_10  and  N3_11 
REMARK    6  A    between atoms: N3_11  and  C8_12 
REMARK    7  A    between atoms: C9_13  and  N4_14 
REMARK    8  A    between atoms: N4_14  and  C10_15 
REMARK    9  A    between atoms: C15_20  and  N5_21 
REMARK   10  A    between atoms: C18_26  and  O2_27 
ROOT
HETATM    1  C5  UNL     1       2.210   0.199  -0.503  1.00  0.00     0.091 C 
HETATM    2  N1  UNL     1       1.060   0.699  -0.862  1.00  0.00    -0.239 NA
HETATM    3  C6  UNL     1       0.817   0.756  -2.290  1.00  0.00     0.236 C 
HETATM    4  N2  UNL     1      -0.413   1.244  -2.233  1.00  0.00    -0.224 NA
HETATM    5  C7  UNL     1      -0.861   1.465  -0.850  1.00  0.00     0.135 C 
HETATM    6  C16 UNL     1      -1.271   1.751   0.347  1.00  0.00     0.100 C 
HETATM    7  S1  UNL     1      -1.575   1.002   1.989  1.00  0.00    -0.105 SA
HETATM    8  P1  UNL     1       0.324   1.256   3.071  1.00  0.00    -0.035 P 
HETATM    9  C17 UNL     1       1.695   0.614   2.045  1.00  0.00     0.053 C 
HETATM   10  C18 UNL     1       2.308   0.274   0.916  1.00  0.00     0.095 C 
HETATM   11  H16 UNL     1       0.469   2.702   3.347  1.00  0.00     0.073 HD
ENDROOT
BRANCH   5  12
HETATM   12  N3  UNL     1      -0.916   0.029  -0.563  1.00  0.00    -0.349 N 
HETATM   13  H9  UNL     1      -0.550  -0.906  -0.344  1.00  0.00     0.167 HD
BRANCH  12  14
HETATM   14  C8  UNL     1      -2.183  -0.639  -0.545  1.00  0.00     0.108 C 
HETATM   15  C9  UNL     1      -3.127   0.034  -1.135  1.00  0.00     0.131 C 
BRANCH  15  16
HETATM   16  N4  UNL     1      -4.434   0.172  -1.540  1.00  0.00    -0.262 NA
BRANCH  16  17
HETATM   17  C10 UNL     1      -5.625   0.150  -0.900  1.00  0.00     0.189 A 
HETATM   18  C11 UNL     1      -7.216   0.200  -0.593  1.00  0.00     0.132 A 
HETATM   19  C12 UNL     1      -7.742   0.037   0.589  1.00  0.00     0.011 A 
HETATM   20  N5  UNL     1      -5.969   0.151  -0.779  1.00  0.00    -0.342 N 
HETATM   21  C15 UNL     1      -5.844  -0.076   0.503  1.00  0.00     0.132 A 
HETATM   22  C13 UNL     1      -7.342  -0.227   1.972  1.00  0.00    -0.003 A 
HETATM   23  C14 UNL     1      -6.023  -0.313   1.953  1.00  0.00     0.011 A 
ENDBRANCH  16  17
ENDBRANCH  15  16
ENDBRANCH  12  14
ENDBRANCH   5  12
BRANCH   1  24
HETATM   24  C4  UNL     1       3.338  -0.325  -1.233  1.00  0.00     0.032 C 
BRANCH  24  25
HETATM   25  C3  UNL     1       4.500  -0.871  -1.589  1.00  0.00     0.002 C 
BRANCH  25  26
HETATM   26  C2  UNL     1       5.601  -1.407  -0.785  1.00  0.00     0.194 C 
BRANCH  26  27
HETATM   27  O1  UNL     1       6.802  -0.700  -1.045  1.00  0.00    -0.392 OA
HETATM   28  C1  UNL     1       7.739  -1.301  -0.200  1.00  0.00     0.201 C 
ENDBRANCH  26  27
ENDBRANCH  25  26
ENDBRANCH  24  25
ENDBRANCH   1  24
BRANCH  10  29
HETATM   29  O2  UNL     1       3.517  -0.163   1.512  1.00  0.00    -0.358 OA
HETATM   30  H18 UNL     1       4.239   0.527   1.697  1.00  0.00     0.217 HD
ENDBRANCH  10  29
TORSDOF 10
