REMARK  2 active torsions:
REMARK  status: ('A' for Active; 'I' for Inactive)
REMARK    1  A    between atoms: O1_2  and  C2_3 
REMARK    2  A    between atoms: C7_8  and  O2_9 
ROOT
HETATM    1  C2  UNL     1       2.907  -0.141   0.309  1.00  0.00     0.103 A 
HETATM    2  C3  UNL     1       2.083  -1.165   0.715  1.00  0.00     0.071 A 
HETATM    3  C4  UNL     1       0.717  -1.245   0.563  1.00  0.00     0.069 A 
HETATM    4  C5  UNL     1       0.155  -0.133  -0.081  1.00  0.00     0.022 A 
HETATM    5  C6  UNL     1       0.952   0.913  -0.503  1.00  0.00     0.055 A 
HETATM    6  C7  UNL     1       2.315   0.920  -0.315  1.00  0.00     0.102 A 
HETATM    7  C9  UNL     1      -1.179  -0.291  -0.163  1.00  0.00     0.069 C 
HETATM    8  N1  UNL     1      -2.172   0.588  -0.716  1.00  0.00    -0.353 N 
HETATM    9  C10 UNL     1      -3.475   0.150  -0.240  1.00  0.00     0.079 C 
HETATM   10  C11 UNL     1      -4.552   0.840  -0.574  1.00  0.00     0.149 C 
HETATM   11  N2  UNL     1      -5.842   0.404  -0.101  1.00  0.00    -0.256 NA
HETATM   12  C12 UNL     1      -6.027  -0.637   0.571  1.00  0.00     0.087 C 
HETATM   13  C13 UNL     1      -5.040  -1.321   1.079  1.00  0.00     0.067 C 
HETATM   14  C14 UNL     1      -3.698  -1.043   0.614  1.00  0.00     0.084 C 
HETATM   15  N3  UNL     1      -2.714  -1.864   0.968  1.00  0.00    -0.254 NA
HETATM   16  C15 UNL     1      -1.425  -1.588   0.452  1.00  0.00     0.281 C 
HETATM   17  N4  UNL     1      -0.225  -2.060   0.978  1.00  0.00    -0.255 NA
HETATM   18  H9  UNL     1      -2.015   1.379  -1.330  1.00  0.00     0.166 HD
ENDROOT
BRANCH   1  19
HETATM   19  O1  UNL     1       4.262  -0.168   0.514  1.00  0.00    -0.353 OA
HETATM   20  C1  UNL     1       4.940  -1.218   1.145  1.00  0.00     0.210 C 
ENDBRANCH   1  19
BRANCH   6  21
HETATM   21  O2  UNL     1       3.135   1.957  -0.728  1.00  0.00    -0.353 OA
HETATM   22  C8  UNL     1       2.528   3.063  -1.378  1.00  0.00     0.210 C 
ENDBRANCH   6  21
TORSDOF 2
