REMARK  4 active torsions:
REMARK  status: ('A' for Active; 'I' for Inactive)
REMARK    1  A    between atoms: O1_2  and  C2_3 
REMARK    2  A    between atoms: C6_9  and  C7_10 
REMARK    3  A    between atoms: C7_10  and  N3_11 
REMARK    4  A    between atoms: C16_21  and  O2_22 
ROOT
HETATM    1  C2  UNL     1      -3.438  -1.198  -0.918  1.00  0.00     0.103 C 
HETATM    2  C3  UNL     1      -2.602  -1.934  -1.638  1.00  0.00     0.068 C 
HETATM    3  C4  UNL     1      -1.245  -1.406  -1.564  1.00  0.00     0.052 C 
HETATM    4  N1  UNL     1      -0.388  -1.925  -2.407  1.00  0.00    -0.245 NA
HETATM    5  C5  UNL     1       0.965  -1.512  -2.504  1.00  0.00     0.233 C 
HETATM    6  N2  UNL     1       1.397  -0.554  -1.755  1.00  0.00    -0.244 NA
HETATM    7  C6  UNL     1       0.524   0.102  -0.846  1.00  0.00     0.067 C 
HETATM    8  C14 UNL     1      -0.758  -0.463  -0.557  1.00  0.00     0.117 C 
HETATM    9  C15 UNL     1      -1.805   0.302   0.095  1.00  0.00     0.030 C 
HETATM   10  C16 UNL     1      -3.082  -0.068  -0.069  1.00  0.00     0.098 C 
ENDROOT
BRANCH   7  11
HETATM   11  C7  UNL     1       0.979   1.217  -0.322  1.00  0.00     0.145 C 
BRANCH  11  12
HETATM   12  N3  UNL     1       2.276   1.732  -0.651  1.00  0.00    -0.257 NA
HETATM   13  C8  UNL     1       3.356   1.374  -0.025  1.00  0.00     0.084 A 
HETATM   14  C9  UNL     1       4.665   1.940  -0.409  1.00  0.00     0.034 A 
HETATM   15  C13 UNL     1       3.367   0.414   1.076  1.00  0.00     0.076 A 
HETATM   16  C10 UNL     1       5.770   1.573   0.233  1.00  0.00     0.002 A 
HETATM   17  C11 UNL     1       5.775   0.614   1.330  1.00  0.00     0.002 A 
HETATM   18  C12 UNL     1       4.642   0.066   1.730  1.00  0.00     0.033 A 
HETATM   19  N4  UNL     1       2.229  -0.083   1.415  1.00  0.00    -0.298 NA
HETATM   20  H11 UNL     1       2.202  -0.767   2.193  1.00  0.00     0.187 HD
ENDBRANCH  11  12
ENDBRANCH   7  11
BRANCH  10  21
HETATM   21  O2  UNL     1      -3.976   0.724   0.639  1.00  0.00    -0.353 OA
HETATM   22  C17 UNL     1      -3.776   2.093   0.827  1.00  0.00     0.210 C 
ENDBRANCH  10  21
BRANCH   1  23
HETATM   23  O1  UNL     1      -4.805  -1.460  -0.849  1.00  0.00    -0.353 OA
HETATM   24  C1  UNL     1      -5.239  -2.180   0.303  1.00  0.00     0.210 C 
ENDBRANCH   1  23
TORSDOF 4
