REMARK  1 active torsions:
REMARK  status: ('A' for Active; 'I' for Inactive)
REMARK    1  A    between atoms: C16_21  and  C17_22 
ROOT
HETATM    1  C1  UNL     1      -4.310  -2.220   0.343  1.00  0.00     0.038 C 
HETATM    2  C2  UNL     1      -3.595  -0.973   0.627  1.00  0.00    -0.001 C 
HETATM    3  C3  UNL     1      -2.886  -0.608  -0.380  1.00  0.00     0.032 C 
HETATM    4  N1  UNL     1      -2.623  -1.090  -1.656  1.00  0.00    -0.386 N 
HETATM    5  C4  UNL     1      -1.548  -2.078  -1.479  1.00  0.00     0.147 C 
HETATM    6  C5  UNL     1      -0.937  -2.500  -2.764  1.00  0.00    -0.011 C 
HETATM    7  C6  UNL     1       0.380  -2.137  -2.816  1.00  0.00    -0.023 C 
HETATM    8  C7  UNL     1       1.596  -1.501  -2.225  1.00  0.00     0.043 C 
HETATM    9  C8  UNL     1       1.871  -0.863  -1.033  1.00  0.00    -0.018 C 
HETATM   10  C9  UNL     1       3.252  -0.374  -0.876  1.00  0.00     0.020 C 
HETATM   11  C10 UNL     1       4.013  -0.921   0.279  1.00  0.00     0.115 C 
HETATM   12  N2  UNL     1       3.495  -0.712   1.572  1.00  0.00    -0.404 N 
HETATM   13  C11 UNL     1       3.449   0.583   2.129  1.00  0.00     0.266 C 
HETATM   14  N3  UNL     1       2.480   1.500   1.657  1.00  0.00    -0.264 NA
HETATM   15  C12 UNL     1       2.763   2.701   1.326  1.00  0.00     0.230 C 
HETATM   16  N4  UNL     1       1.363   2.732   1.062  1.00  0.00    -0.231 NA
HETATM   17  C13 UNL     1       0.687   3.741   1.514  1.00  0.00     0.252 C 
HETATM   18  O1  UNL     1      -0.532   3.258   0.990  1.00  0.00    -0.341 OA
HETATM   19  C14 UNL     1      -1.391   2.552   1.832  1.00  0.00     0.204 C 
HETATM   20  C15 UNL     1      -2.004   1.400   1.197  1.00  0.00     0.011 C 
HETATM   21  C16 UNL     1      -2.281   0.543   0.257  1.00  0.00    -0.005 C 
HETATM   22  H5  UNL     1      -3.365  -0.446  -1.991  1.00  0.00     0.160 HD
HETATM   23  H16 UNL     1       2.706  -1.337   1.844  1.00  0.00     0.154 HD
ENDROOT
BRANCH  21  24
HETATM   24  C17 UNL     1      -1.846   1.279  -0.918  1.00  0.00     0.262 C 
HETATM   25  F1  UNL     1      -0.859   0.619  -1.603  1.00  0.00    -0.251 F 
ENDBRANCH  21  24
TORSDOF 1
