REMARK  1 active torsions:
REMARK  status: ('A' for Active; 'I' for Inactive)
REMARK    1  A    between atoms: O1_2  and  C2_3 
ROOT
HETATM    1  C2  UNL     1      -4.302   0.333  -0.064  1.00  0.00     0.072 A 
HETATM    2  C3  UNL     1      -3.342  -0.180   0.673  1.00  0.00     0.069 A 
HETATM    3  C4  UNL     1      -2.086   0.126   0.033  1.00  0.00     0.093 A 
HETATM    4  N1  UNL     1      -0.891   0.002   0.482  1.00  0.00    -0.240 NA
HETATM    5  C5  UNL     1      -0.658  -0.479   1.764  1.00  0.00     0.230 C 
HETATM    6  N2  UNL     1       0.498  -0.815   1.664  1.00  0.00    -0.249 NA
HETATM    7  C6  UNL     1       1.532  -0.862   0.766  1.00  0.00     0.283 A 
HETATM    8  N3  UNL     1       2.833  -1.046   1.339  1.00  0.00    -0.254 NA
HETATM    9  C7  UNL     1       3.965  -0.716   0.945  1.00  0.00     0.082 A 
HETATM   10  C8  UNL     1       5.147  -0.966   1.591  1.00  0.00     0.034 A 
HETATM   11  C9  UNL     1       6.357  -0.522   1.113  1.00  0.00     0.002 A 
HETATM   12  C10 UNL     1       6.378   0.195  -0.049  1.00  0.00     0.002 A 
HETATM   13  C11 UNL     1       5.194   0.448  -0.697  1.00  0.00     0.034 A 
HETATM   14  C12 UNL     1       3.952  -0.003  -0.211  1.00  0.00     0.085 A 
HETATM   15  N4  UNL     1       2.878   0.300  -0.811  1.00  0.00    -0.247 NA
HETATM   16  C13 UNL     1       1.556  -0.012  -0.420  1.00  0.00     0.081 A 
HETATM   17  C14 UNL     1       0.696   0.618  -1.220  1.00  0.00     0.034 C 
HETATM   18  C15 UNL     1      -0.592   1.064  -1.712  1.00  0.00     0.041 C 
HETATM   19  C16 UNL     1      -1.802   0.853  -1.190  1.00  0.00     0.098 A 
HETATM   20  O2  UNL     1      -2.952   1.299  -1.771  1.00  0.00    -0.342 OA
HETATM   21  C17 UNL     1      -4.251   1.091  -1.315  1.00  0.00     0.240 A 
ENDROOT
BRANCH   1  22
HETATM   22  O1  UNL     1      -5.535   0.064   0.512  1.00  0.00    -0.358 OA
HETATM   23  C1  UNL     1      -6.714   0.606   0.005  1.00  0.00     0.209 C 
ENDBRANCH   1  22
TORSDOF 1
