REMARK  5 active torsions:
REMARK  status: ('A' for Active; 'I' for Inactive)
REMARK    1  A    between atoms: O1_1  and  C1_2 
REMARK    2  A    between atoms: C17_22  and  O2_23 
REMARK    3  A    between atoms: O2_23  and  C18_24 
REMARK    4  A    between atoms: C18_24  and  C19_25 
REMARK    5  A    between atoms: C19_25  and  N5_26 
ROOT
HETATM    1  C1  UNL     1       0.193   1.475  -0.287  1.00  0.00     0.077 C 
HETATM    2  C2  UNL     1      -1.019   1.511  -0.868  1.00  0.00     0.022 C 
HETATM    3  C3  UNL     1      -2.053   0.483  -0.630  1.00  0.00     0.074 C 
HETATM    4  C4  UNL     1      -2.263   0.521   0.856  1.00  0.00     0.104 C 
HETATM    5  N1  UNL     1      -1.301   0.135   1.701  1.00  0.00    -0.246 NA
HETATM    6  C5  UNL     1      -0.074  -0.480   1.181  1.00  0.00     0.162 C 
HETATM    7  N2  UNL     1      -0.584  -1.563   1.521  1.00  0.00    -0.224 NA
HETATM    8  C6  UNL     1      -0.113  -2.860   1.416  1.00  0.00     0.230 C 
HETATM    9  N3  UNL     1      -1.133  -3.569   1.206  1.00  0.00    -0.264 NA
HETATM   10  C7  UNL     1      -2.498  -3.325   1.075  1.00  0.00     0.267 C 
HETATM   11  N4  UNL     1      -2.929  -2.589  -0.094  1.00  0.00    -0.399 N 
HETATM   12  C8  UNL     1      -4.326  -2.421  -0.175  1.00  0.00     0.096 A 
HETATM   13  C9  UNL     1      -5.101  -1.458   0.604  1.00  0.00     0.046 A 
HETATM   14  C10 UNL     1      -4.980  -1.363  -0.880  1.00  0.00     0.026 A 
HETATM   15  C11 UNL     1      -6.236  -1.727  -1.658  1.00  0.00    -0.010 A 
HETATM   16  C12 UNL     1      -6.817  -1.285  -2.751  1.00  0.00    -0.003 A 
HETATM   17  C13 UNL     1      -6.125  -0.189  -3.411  1.00  0.00     0.000 A 
HETATM   18  C14 UNL     1      -4.985   0.208  -2.818  1.00  0.00     0.008 A 
HETATM   19  C15 UNL     1      -4.305  -0.303  -1.587  1.00  0.00    -0.046 A 
HETATM   20  C16 UNL     1      -3.181   0.381  -1.474  1.00  0.00    -0.005 C 
HETATM   21  C17 UNL     1       0.884   0.517   0.624  1.00  0.00     0.248 C 
HETATM   22  H8  UNL     1      -2.415  -2.784  -0.956  1.00  0.00     0.155 HD
ENDROOT
BRANCH  21  23
HETATM   23  O2  UNL     1       1.921  -0.053  -0.044  1.00  0.00    -0.370 OA
BRANCH  23  24
HETATM   24  C18 UNL     1       3.187   0.157   0.400  1.00  0.00     0.199 C 
BRANCH  24  25
HETATM   25  C19 UNL     1       3.686   1.556   0.441  1.00  0.00     0.298 C 
BRANCH  25  26
HETATM   26  N5  UNL     1       5.066   1.483   0.951  1.00  0.00     0.094 N 
HETATM   27  C20 UNL     1       5.652   2.807   1.008  1.00  0.00     0.298 C 
HETATM   28  C21 UNL     1       7.035   2.780   1.592  1.00  0.00     0.198 C 
HETATM   29  O3  UNL     1       7.586   1.498   1.565  1.00  0.00    -0.388 OA
HETATM   30  C22 UNL     1       7.302   0.850   0.365  1.00  0.00     0.198 C 
HETATM   31  C23 UNL     1       5.846   0.533   0.229  1.00  0.00     0.298 C 
ENDBRANCH  25  26
ENDBRANCH  24  25
ENDBRANCH  23  24
ENDBRANCH  21  23
BRANCH   1  32
HETATM   32  O1  UNL     1       0.950   2.581  -0.624  1.00  0.00    -0.362 OA
HETATM   33  H1  UNL     1       1.234   3.241   0.078  1.00  0.00     0.217 HD
ENDBRANCH   1  32
TORSDOF 5
