REMARK  3 active torsions:
REMARK  status: ('A' for Active; 'I' for Inactive)
REMARK    1  A    between atoms: C2_2  and  C3_3 
REMARK    2  A    between atoms: N3_10  and  C8_11 
REMARK    3  A    between atoms: C17_20  and  O1_21 
ROOT
HETATM    1  C3  UNL     1       2.711   0.154   0.075  1.00  0.00    -0.070 C 
HETATM    2  C4  UNL     1       2.485  -0.975   0.793  1.00  0.00     0.033 C 
HETATM    3  C5  UNL     1       1.329  -1.663   0.166  1.00  0.00     0.065 C 
HETATM    4  N1  UNL     1       0.339  -2.372   0.510  1.00  0.00    -0.244 NA
HETATM    5  C6  UNL     1      -0.638  -2.900  -0.365  1.00  0.00     0.229 C 
HETATM    6  N2  UNL     1      -1.280  -2.088  -1.076  1.00  0.00    -0.264 NA
HETATM    7  C7  UNL     1      -1.255  -0.687  -1.220  1.00  0.00     0.269 C 
HETATM    8  N3  UNL     1      -0.606  -0.008  -0.176  1.00  0.00    -0.386 N 
HETATM    9  C15 UNL     1       0.468   0.843  -0.565  1.00  0.00     0.131 C 
HETATM   10  C16 UNL     1       1.708   0.200  -1.072  1.00  0.00     0.067 C 
HETATM   11  C17 UNL     1       1.594  -1.310  -1.282  1.00  0.00     0.179 C 
ENDROOT
BRANCH   8  12
HETATM   12  C8  UNL     1      -1.311   0.366   0.983  1.00  0.00     0.118 A 
HETATM   13  C9  UNL     1      -2.047  -0.558   1.845  1.00  0.00     0.065 A 
HETATM   14  C10 UNL     1      -3.327   0.151   1.536  1.00  0.00    -0.066 A 
HETATM   15  C11 UNL     1      -2.654   0.979   0.761  1.00  0.00    -0.033 A 
HETATM   16  C14 UNL     1      -4.766   0.555   1.494  1.00  0.00     0.062 A 
HETATM   17  C12 UNL     1      -3.513   1.999   0.129  1.00  0.00     0.006 A 
HETATM   18  C13 UNL     1      -4.749   1.726   0.577  1.00  0.00    -0.022 A 
ENDBRANCH   8  12
BRANCH   1  19
HETATM   19  C2  UNL     1       3.773   1.132   0.405  1.00  0.00     0.030 C 
HETATM   20  C1  UNL     1       4.760   1.271  -0.751  1.00  0.00     0.010 C 
ENDBRANCH   1  19
BRANCH  11  21
HETATM   21  O1  UNL     1       2.878  -1.750  -1.648  1.00  0.00    -0.389 OA
HETATM   22  H21 UNL     1       2.863  -2.751  -1.561  1.00  0.00     0.210 HD
ENDBRANCH  11  21
TORSDOF 3
