REMARK  9 active torsions:
REMARK  status: ('A' for Active; 'I' for Inactive)
REMARK    1  A    between atoms: O1_2  and  C2_3 
REMARK    2  A    between atoms: C6_9  and  N3_10 
REMARK    3  A    between atoms: N3_10  and  C7_11 
REMARK    4  A    between atoms: C9_13  and  C10_14 
REMARK    5  A    between atoms: C10_14  and  C11_15 
REMARK    6  A    between atoms: C18_23  and  O2_24 
REMARK    7  A    between atoms: O2_24  and  C19_25 
REMARK    8  A    between atoms: C19_25  and  C20_26 
REMARK    9  A    between atoms: C20_26  and  N4_27 
ROOT
HETATM    1  C2  UNL     1      -2.153  -3.142  -2.033  1.00  0.00     0.103 A 
HETATM    2  C3  UNL     1      -1.241  -4.181  -2.166  1.00  0.00     0.072 A 
HETATM    3  C4  UNL     1      -0.031  -4.124  -1.477  1.00  0.00     0.075 A 
HETATM    4  N1  UNL     1       0.900  -5.085  -1.552  1.00  0.00    -0.241 NA
HETATM    5  C5  UNL     1       2.060  -4.994  -0.867  1.00  0.00     0.235 A 
HETATM    6  N2  UNL     1       2.314  -3.910  -0.075  1.00  0.00    -0.224 NA
HETATM    7  C6  UNL     1       1.423  -2.911   0.044  1.00  0.00     0.138 A 
HETATM    8  C16 UNL     1       0.254  -3.046  -0.672  1.00  0.00     0.041 A 
HETATM    9  C17 UNL     1      -0.689  -2.053  -0.583  1.00  0.00     0.057 A 
HETATM   10  C18 UNL     1      -1.905  -2.028  -1.227  1.00  0.00     0.103 A 
ENDROOT
BRANCH   7  11
HETATM   11  N3  UNL     1       1.737  -1.787   0.896  1.00  0.00    -0.369 N 
HETATM   12  H6  UNL     1       1.116  -0.978   1.049  1.00  0.00     0.161 HD
BRANCH  11  13
HETATM   13  C7  UNL     1       3.037  -1.895   1.537  1.00  0.00     0.088 A 
HETATM   14  C8  UNL     1       4.141  -1.954   0.480  1.00  0.00     0.032 A 
HETATM   15  C9  UNL     1       4.069  -0.864   1.504  1.00  0.00     0.014 A 
BRANCH  15  16
HETATM   16  C10 UNL     1       3.876   0.528   1.020  1.00  0.00     0.046 C 
BRANCH  16  17
HETATM   17  C11 UNL     1       2.872   1.321   1.779  1.00  0.00    -0.055 A 
HETATM   18  C12 UNL     1       2.177   0.932   2.837  1.00  0.00     0.007 A 
HETATM   19  C13 UNL     1       1.219   1.763   3.519  1.00  0.00    -0.003 A 
HETATM   20  C14 UNL     1       1.004   2.990   3.082  1.00  0.00    -0.022 A 
HETATM   21  C15 UNL     1       1.472   3.895   2.007  1.00  0.00     0.063 A 
HETATM   22  P1  UNL     1       2.737   2.981   1.008  1.00  0.00    -0.096 P 
HETATM   23  H18 UNL     1       2.251   2.765  -0.339  1.00  0.00     0.062 HD
ENDBRANCH  16  17
ENDBRANCH  15  16
ENDBRANCH  11  13
ENDBRANCH   7  11
BRANCH  10  24
HETATM   24  O2  UNL     1      -2.948  -1.183  -1.286  1.00  0.00    -0.347 OA
BRANCH  24  25
HETATM   25  C19 UNL     1      -3.169   0.052  -0.704  1.00  0.00     0.206 C 
BRANCH  25  26
HETATM   26  C20 UNL     1      -2.196   1.069  -1.176  1.00  0.00     0.299 C 
BRANCH  26  27
HETATM   27  N4  UNL     1      -2.375   2.380  -0.617  1.00  0.00     0.094 N 
HETATM   28  C21 UNL     1      -1.429   3.359  -1.066  1.00  0.00     0.298 C 
HETATM   29  C22 UNL     1      -1.811   4.748  -0.679  1.00  0.00     0.198 C 
HETATM   30  O3  UNL     1      -2.859   4.732   0.232  1.00  0.00    -0.388 OA
HETATM   31  C23 UNL     1      -2.644   3.865   1.302  1.00  0.00     0.198 C 
HETATM   32  C24 UNL     1      -2.447   2.437   0.808  1.00  0.00     0.298 C 
ENDBRANCH  26  27
ENDBRANCH  25  26
ENDBRANCH  24  25
ENDBRANCH  10  24
BRANCH   1  33
HETATM   33  O1  UNL     1      -3.287  -3.352  -2.772  1.00  0.00    -0.353 OA
HETATM   34  C1  UNL     1      -3.489  -4.497  -3.571  1.00  0.00     0.210 C 
ENDBRANCH   1  33
TORSDOF 9
