REMARK  8 active torsions:
REMARK  status: ('A' for Active; 'I' for Inactive)
REMARK    1  A    between atoms: O1_1  and  C1_2 
REMARK    2  A    between atoms: C7_10  and  C8_11 
REMARK    3  A    between atoms: C8_11  and  C9_12 
REMARK    4  A    between atoms: C16_19  and  P1_20 
REMARK    5  A    between atoms: P1_20  and  O2_21 
REMARK    6  A    between atoms: O2_21  and  C17_22 
REMARK    7  A    between atoms: C17_22  and  C18_23 
REMARK    8  A    between atoms: C18_23  and  N3_24 
ROOT
HETATM    1  C1  UNL     1      -0.497   1.165  -1.231  1.00  0.00     0.076 A 
HETATM    2  C2  UNL     1      -1.782   1.469  -1.263  1.00  0.00     0.036 A 
HETATM    3  C3  UNL     1      -2.401   1.234   0.077  1.00  0.00     0.077 A 
HETATM    4  C4  UNL     1      -2.898   2.522   0.590  1.00  0.00     0.115 A 
HETATM    5  N1  UNL     1      -4.122   2.779   0.925  1.00  0.00    -0.256 NA
HETATM    6  C5  UNL     1      -5.075   1.759   0.797  1.00  0.00     0.232 A 
HETATM    7  N2  UNL     1      -4.800   0.590   0.364  1.00  0.00    -0.245 NA
HETATM    8  C6  UNL     1      -3.501   0.234  -0.021  1.00  0.00     0.054 A 
HETATM    9  C7  UNL     1      -3.189  -0.967  -0.476  1.00  0.00     0.007 C 
HETATM   10  C15 UNL     1      -1.244   0.747   0.866  1.00  0.00     0.016 A 
HETATM   11  C16 UNL     1      -0.159   0.710   0.112  1.00  0.00     0.023 A 
ENDROOT
BRANCH   1  12
HETATM   12  O1  UNL     1       0.512   1.198  -2.174  1.00  0.00    -0.360 OA
HETATM   13  H1  UNL     1       0.914   2.018  -2.572  1.00  0.00     0.217 HD
ENDBRANCH   1  12
BRANCH   9  14
HETATM   14  C8  UNL     1      -4.140  -2.103  -0.651  1.00  0.00     0.067 C 
BRANCH  14  15
HETATM   15  C9  UNL     1      -5.518  -1.695  -0.265  1.00  0.00    -0.055 A 
HETATM   16  C10 UNL     1      -6.103  -1.815   0.976  1.00  0.00     0.007 A 
HETATM   17  C11 UNL     1      -7.383  -1.397   1.204  1.00  0.00     0.001 A 
HETATM   18  C12 UNL     1      -8.176  -0.825   0.206  1.00  0.00     0.000 A 
HETATM   19  C13 UNL     1      -7.579  -0.709  -1.034  1.00  0.00     0.001 A 
HETATM   20  C14 UNL     1      -6.285  -1.126  -1.287  1.00  0.00     0.007 A 
ENDBRANCH  14  15
ENDBRANCH   9  14
BRANCH  11  21
HETATM   21  P1  UNL     1       1.316   0.127   1.006  1.00  0.00     0.048 P 
HETATM   22  H14 UNL     1       1.652   1.030   2.103  1.00  0.00     0.092 HD
BRANCH  21  23
HETATM   23  O2  UNL     1       2.686  -0.018  -0.013  1.00  0.00    -0.360 OA
BRANCH  23  24
HETATM   24  C17 UNL     1       3.301   1.208  -0.162  1.00  0.00     0.203 C 
BRANCH  24  25
HETATM   25  C18 UNL     1       4.483   1.148  -1.097  1.00  0.00     0.298 C 
BRANCH  25  26
HETATM   26  N3  UNL     1       5.549   0.300  -0.712  1.00  0.00     0.090 N 
HETATM   27  C19 UNL     1       6.226   0.826   0.444  1.00  0.00     0.272 C 
HETATM   28  C20 UNL     1       7.040  -0.247   1.146  1.00  0.00     0.030 C 
HETATM   29  C21 UNL     1       7.584  -1.196   0.112  1.00  0.00     0.003 C 
HETATM   30  C22 UNL     1       6.426  -1.961  -0.492  1.00  0.00     0.030 C 
HETATM   31  C23 UNL     1       5.191  -1.067  -0.595  1.00  0.00     0.272 C 
ENDBRANCH  25  26
ENDBRANCH  24  25
ENDBRANCH  23  24
ENDBRANCH  21  23
ENDBRANCH  11  21
TORSDOF 8
