REMARK  3 active torsions:
REMARK  status: ('A' for Active; 'I' for Inactive)
REMARK    1  A    between atoms: C5_7  and  C6_8 
REMARK    2  A    between atoms: C6_8  and  O2_9 
REMARK    3  A    between atoms: O2_9  and  C7_10 
ROOT
HETATM    1  C7  UNL     1      -0.205   0.860  -0.229  1.00  0.00     0.133 C 
HETATM    2  C8  UNL     1       1.016   0.408  -0.963  1.00  0.00     0.091 C 
HETATM    3  C9  UNL     1       2.232   0.566  -0.137  1.00  0.00     0.035 C 
HETATM    4  C10 UNL     1       2.829   0.626   1.070  1.00  0.00     0.004 C 
HETATM    5  C11 UNL     1       2.562   1.446   2.299  1.00  0.00     0.058 C 
HETATM    6  C12 UNL     1       1.323   2.259   2.178  1.00  0.00     0.010 C 
HETATM    7  C13 UNL     1       0.873   2.660   0.999  1.00  0.00     0.053 C 
HETATM    8  C14 UNL     1      -0.219   2.370   0.037  1.00  0.00     0.097 C 
HETATM    9  O3  UNL     1       1.630   3.686   0.421  1.00  0.00    -0.309 OA
HETATM   10  C15 UNL     1       2.232   3.384  -0.825  1.00  0.00     0.259 C 
HETATM   11  N2  UNL     1       3.036   2.445  -0.467  1.00  0.00    -0.230 NA
HETATM   12  C16 UNL     1       3.888   1.789  -1.383  1.00  0.00     0.235 C 
HETATM   13  N3  UNL     1       3.286   0.727  -1.063  1.00  0.00    -0.247 NA
ENDROOT
BRANCH   1  14
HETATM   14  O2  UNL     1      -1.403   0.471  -0.819  1.00  0.00    -0.383 OA
BRANCH  14  15
HETATM   15  C6  UNL     1      -2.243  -0.273  -0.057  1.00  0.00     0.204 C 
BRANCH  15  16
HETATM   16  C5  UNL     1      -1.770  -1.591   0.417  1.00  0.00     0.258 C 
HETATM   17  C2  UNL     1      -1.468  -2.575  -0.698  1.00  0.00     0.026 C 
HETATM   18  C1  UNL     1      -0.359  -3.229  -1.031  1.00  0.00     0.015 C 
HETATM   19  C3  UNL     1      -2.626  -2.894  -1.584  1.00  0.00     0.182 C 
HETATM   20  O1  UNL     1      -3.765  -2.603  -0.877  1.00  0.00    -0.362 OA
HETATM   21  C4  UNL     1      -3.740  -2.959   0.431  1.00  0.00     0.438 C 
HETATM   22  N1  UNL     1      -2.806  -2.221   1.248  1.00  0.00     0.114 N 
HETATM   23  H7  UNL     1      -3.354  -1.413   1.643  1.00  0.00     0.319 HD
ENDBRANCH  15  16
ENDBRANCH  14  15
ENDBRANCH   1  14
TORSDOF 3
