REMARK  1 active torsions:
REMARK  status: ('A' for Active; 'I' for Inactive)
REMARK    1  A    between atoms: C11_16  and  C12_17 
ROOT
HETATM    1  F1  UNL     1       0.161  -2.968   3.327  1.00  0.00    -0.205 F 
HETATM    2  C1  UNL     1       0.033  -2.450   2.128  1.00  0.00     0.129 C 
HETATM    3  C2  UNL     1       0.945  -2.181   1.174  1.00  0.00     0.021 C 
HETATM    4  C3  UNL     1       0.585  -1.653   0.061  1.00  0.00    -0.033 C 
HETATM    5  C4  UNL     1      -0.617  -2.496  -0.379  1.00  0.00     0.094 C 
HETATM    6  C5  UNL     1      -1.561  -1.799   0.629  1.00  0.00     0.016 C 
HETATM    7  C6  UNL     1      -1.437  -2.142   1.928  1.00  0.00     0.068 C 
HETATM    8  N1  UNL     1      -2.509  -0.746   0.454  1.00  0.00    -0.355 N 
HETATM    9  C7  UNL     1      -2.374   0.419  -0.438  1.00  0.00     0.096 A 
HETATM   10  C8  UNL     1      -3.646   0.894  -0.355  1.00  0.00     0.151 A 
HETATM   11  N2  UNL     1      -3.813   2.002  -1.092  1.00  0.00    -0.252 NA
HETATM   12  C9  UNL     1      -2.761   2.511  -1.805  1.00  0.00     0.235 A 
HETATM   13  N3  UNL     1      -1.492   1.989  -1.853  1.00  0.00    -0.222 NA
HETATM   14  C10 UNL     1      -1.249   0.896  -1.152  1.00  0.00     0.154 A 
HETATM   15  N4  UNL     1       0.079   0.386  -1.200  1.00  0.00    -0.361 N 
HETATM   16  C11 UNL     1       1.064  -0.515  -0.652  1.00  0.00     0.143 C 
HETATM   17  H4  UNL     1      -3.297  -0.935   1.086  1.00  0.00     0.166 HD
HETATM   18  H7  UNL     1       0.516   0.928  -1.997  1.00  0.00     0.162 HD
ENDROOT
BRANCH  16  19
HETATM   19  C12 UNL     1       2.110   0.311  -0.025  1.00  0.00    -0.050 A 
HETATM   20  C13 UNL     1       2.761   0.270   1.117  1.00  0.00     0.005 A 
HETATM   21  C14 UNL     1       3.734   1.340   1.292  1.00  0.00    -0.003 A 
HETATM   22  C15 UNL     1       3.628   2.033   0.177  1.00  0.00    -0.022 A 
HETATM   23  C16 UNL     1       2.635   1.514  -0.777  1.00  0.00     0.063 A 
ENDBRANCH  16  19
TORSDOF 1
