REMARK  5 active torsions:
REMARK  status: ('A' for Active; 'I' for Inactive)
REMARK    1  A    between atoms: N1_1  and  C1_2 
REMARK    2  A    between atoms: C1_2  and  C2_3 
REMARK    3  A    between atoms: C2_3  and  N2_4 
REMARK    4  A    between atoms: N2_4  and  C3_5 
REMARK    5  A    between atoms: C8_10  and  N3_11 
ROOT
HETATM    1  C2  UNL     1       0.148   0.927  -0.279  1.00  0.00     0.047 C 
HETATM    2  C9  UNL     1       0.962   0.203   0.483  1.00  0.00     0.003 C 
HETATM    3  C10 UNL     1       0.871  -0.597   1.765  1.00  0.00     0.217 C 
HETATM    4  O1  UNL     1       1.680  -1.714   1.444  1.00  0.00    -0.346 OA
HETATM    5  C11 UNL     1       2.779  -1.193   0.768  1.00  0.00     0.080 A 
HETATM    6  C12 UNL     1       4.092  -1.648   0.630  1.00  0.00     0.040 A 
HETATM    7  C13 UNL     1       5.013  -0.929  -0.111  1.00  0.00     0.045 A 
HETATM    8  C14 UNL     1       4.654   0.259  -0.734  1.00  0.00     0.117 A 
HETATM    9  F1  UNL     1       5.515   1.000  -1.470  1.00  0.00    -0.206 F 
HETATM   10  C15 UNL     1       3.352   0.684  -0.581  1.00  0.00     0.057 A 
HETATM   11  C16 UNL     1       2.390   0.002   0.150  1.00  0.00     0.011 A 
ENDROOT
BRANCH   1  12
HETATM   12  C1  UNL     1       0.020   1.753  -1.506  1.00  0.00     0.324 C 
BRANCH  12  13
HETATM   13  N1  UNL     1      -0.413   3.118  -1.163  1.00  0.00     0.083 N 
HETATM   14  H1  UNL     1       0.009   3.387  -0.223  1.00  0.00     0.313 HD
HETATM   15  H2  UNL     1      -1.434   3.046  -0.954  1.00  0.00     0.313 HD
ENDBRANCH  12  13
ENDBRANCH   1  12
BRANCH   1  16
HETATM   16  N2  UNL     1      -1.148   0.899   0.363  1.00  0.00    -0.356 N 
HETATM   17  H5  UNL     1      -1.362   1.618   1.089  1.00  0.00     0.166 HD
BRANCH  16  18
HETATM   18  C3  UNL     1      -2.057  -0.095  -0.019  1.00  0.00     0.059 A 
HETATM   19  C4  UNL     1      -1.702  -1.012  -0.986  1.00  0.00     0.032 A 
HETATM   20  C5  UNL     1      -2.615  -2.000  -1.361  1.00  0.00     0.002 A 
HETATM   21  C6  UNL     1      -3.848  -2.009  -0.735  1.00  0.00     0.002 A 
HETATM   22  C7  UNL     1      -4.211  -1.097   0.231  1.00  0.00     0.031 A 
HETATM   23  C8  UNL     1      -3.294  -0.126   0.590  1.00  0.00     0.052 A 
BRANCH  23  24
HETATM   24  N3  UNL     1      -3.673   0.816   1.591  1.00  0.00    -0.397 N 
HETATM   25  H10 UNL     1      -4.120   1.608   1.104  1.00  0.00     0.156 HD
HETATM   26  H11 UNL     1      -3.547   0.765   2.635  1.00  0.00     0.156 HD
ENDBRANCH  23  24
ENDBRANCH  16  18
ENDBRANCH   1  16
TORSDOF 5
