REMARK  2 active torsions:
REMARK  status: ('A' for Active; 'I' for Inactive)
REMARK    1  A    between atoms: C6_8  and  C7_9 
REMARK    2  A    between atoms: C9_11  and  C10_12 
ROOT
HETATM    1  C1  UNL     1      -4.933   3.609  -0.448  1.00  0.00     0.046 C 
HETATM    2  C2  UNL     1      -4.087   2.347  -0.484  1.00  0.00    -0.058 C 
HETATM    3  C3  UNL     1      -2.749   2.428  -0.594  1.00  0.00     0.037 C 
HETATM    4  C4  UNL     1      -1.350   1.951  -0.698  1.00  0.00     0.069 A 
HETATM    5  N1  UNL     1      -0.684   2.672  -1.613  1.00  0.00    -0.241 NA
HETATM    6  C5  UNL     1       0.552   2.603  -2.021  1.00  0.00     0.234 A 
HETATM    7  N2  UNL     1       1.181   1.652  -1.390  1.00  0.00    -0.245 NA
HETATM    8  C6  UNL     1       0.652   0.864  -0.468  1.00  0.00     0.052 A 
HETATM    9  C17 UNL     1      -0.648   0.958  -0.060  1.00  0.00     0.026 A 
HETATM   10  C18 UNL     1      -1.024  -0.104   0.976  1.00  0.00     0.187 C 
HETATM   11  C19 UNL     1      -2.411  -0.498   0.595  1.00  0.00     0.309 C 
HETATM   12  N3  UNL     1      -2.694  -1.863   0.278  1.00  0.00     0.095 N 
HETATM   13  C20 UNL     1      -3.599  -1.986  -0.811  1.00  0.00     0.298 C 
HETATM   14  C21 UNL     1      -4.143  -0.619  -1.246  1.00  0.00     0.198 C 
HETATM   15  O1  UNL     1      -4.743   0.022  -0.233  1.00  0.00    -0.385 OA
HETATM   16  C22 UNL     1      -5.125   1.292  -0.316  1.00  0.00     0.201 C 
HETATM   17  C23 UNL     1      -1.568  -2.711   0.233  1.00  0.00     0.298 C 
HETATM   18  C24 UNL     1      -0.565  -2.312   1.320  1.00  0.00     0.199 C 
HETATM   19  O2  UNL     1      -0.104  -1.074   1.057  1.00  0.00    -0.378 OA
ENDROOT
BRANCH   8  20
HETATM   20  C7  UNL     1       1.621  -0.141   0.072  1.00  0.00     0.048 A 
HETATM   21  C8  UNL     1       2.322   0.020   1.342  1.00  0.00     0.021 A 
HETATM   22  C9  UNL     1       3.077   0.281   0.108  1.00  0.00     0.030 A 
BRANCH  22  23
HETATM   23  C10 UNL     1       4.127  -0.613  -0.411  1.00  0.00    -0.047 A 
HETATM   24  C11 UNL     1       3.974  -1.625  -1.344  1.00  0.00     0.008 A 
HETATM   25  C12 UNL     1       5.120  -2.350  -1.694  1.00  0.00     0.001 A 
HETATM   26  C13 UNL     1       6.362  -2.115  -1.172  1.00  0.00     0.001 A 
HETATM   27  C14 UNL     1       6.507  -1.103  -0.240  1.00  0.00     0.007 A 
HETATM   28  C15 UNL     1       5.382  -0.392   0.103  1.00  0.00    -0.055 A 
HETATM   29  C16 UNL     1       5.676   0.675   1.125  1.00  0.00     0.049 C 
ENDBRANCH  22  23
ENDBRANCH   8  20
TORSDOF 2
