REMARK  7 active torsions:
REMARK  status: ('A' for Active; 'I' for Inactive)
REMARK    1  A    between atoms: N1_4  and  C3_5 
REMARK    2  A    between atoms: C3_5  and  O1_6 
REMARK    3  A    between atoms: O1_6  and  C4_7 
REMARK    4  A    between atoms: C7_10  and  N2_11 
REMARK    5  A    between atoms: N2_11  and  C8_12 
REMARK    6  A    between atoms: C10_14  and  C11_15 
REMARK    7  A    between atoms: C19_26  and  O2_27 
ROOT
HETATM    1  C4  UNL     1      -1.794  -1.663  -0.227  1.00  0.00     0.105 A 
HETATM    2  C5  UNL     1      -0.537  -1.117  -0.083  1.00  0.00     0.057 A 
HETATM    3  C6  UNL     1       0.617  -1.838   0.020  1.00  0.00     0.041 A 
HETATM    4  C7  UNL     1       1.867  -1.279   0.163  1.00  0.00     0.138 A 
HETATM    5  N3  UNL     1       2.865  -2.164   0.245  1.00  0.00    -0.224 NA
HETATM    6  C16 UNL     1       2.744  -3.495   0.201  1.00  0.00     0.235 A 
HETATM    7  N4  UNL     1       1.506  -4.026   0.061  1.00  0.00    -0.241 NA
HETATM    8  C17 UNL     1       0.445  -3.204  -0.030  1.00  0.00     0.075 A 
HETATM    9  C18 UNL     1      -0.787  -3.791  -0.172  1.00  0.00     0.072 A 
HETATM   10  C19 UNL     1      -1.932  -3.039  -0.274  1.00  0.00     0.103 A 
ENDROOT
BRANCH   4  11
HETATM   11  N2  UNL     1       2.018   0.128   0.219  1.00  0.00    -0.369 N 
HETATM   12  H8  UNL     1       1.188   0.750   0.169  1.00  0.00     0.161 HD
BRANCH  11  13
HETATM   13  C8  UNL     1       3.217   0.923   0.351  1.00  0.00     0.092 A 
HETATM   14  C9  UNL     1       4.000   0.628   1.594  1.00  0.00     0.037 A 
HETATM   15  C10 UNL     1       4.531   0.278   0.234  1.00  0.00     0.045 A 
BRANCH  15  16
HETATM   16  C11 UNL     1       5.732   1.124  -0.131  1.00  0.00    -0.038 A 
HETATM   17  C12 UNL     1       5.773   2.498   0.123  1.00  0.00     0.009 A 
HETATM   18  C13 UNL     1       6.837   3.284  -0.193  1.00  0.00     0.001 A 
HETATM   19  C14 UNL     1       8.022   2.935  -0.789  1.00  0.00     0.001 A 
HETATM   20  C15 UNL     1       8.368   1.642  -1.199  1.00  0.00     0.016 A 
HETATM   21  P1  UNL     1       7.151   0.436  -0.898  1.00  0.00    -0.027 P 
ENDBRANCH  15  16
ENDBRANCH  11  13
ENDBRANCH   4  11
BRANCH   1  22
HETATM   22  O1  UNL     1      -2.945  -0.901  -0.330  1.00  0.00    -0.319 OA
BRANCH  22  23
HETATM   23  C3  UNL     1      -2.917   0.518  -0.294  1.00  0.00     0.448 C 
BRANCH  23  24
HETATM   24  N1  UNL     1      -4.307   0.945  -0.429  1.00  0.00     0.124 NA
HETATM   25  C2  UNL     1      -4.324   2.366  -0.397  1.00  0.00     0.369 C 
HETATM   26  S1  UNL     1      -5.892   3.100   0.019  1.00  0.00    -0.046 SA
HETATM   27  C1  UNL     1      -6.535   3.990  -1.122  1.00  0.00     0.084 C 
HETATM   28  O3  UNL     1      -6.894   1.821   0.537  1.00  0.00    -0.325 OA
HETATM   29  C22 UNL     1      -6.064   1.023   1.324  1.00  0.00     0.214 C 
HETATM   30  C21 UNL     1      -5.072   0.250   0.537  1.00  0.00     0.303 C 
ENDBRANCH  23  24
ENDBRANCH  22  23
ENDBRANCH   1  22
BRANCH  10  31
HETATM   31  O2  UNL     1      -3.184  -3.605  -0.418  1.00  0.00    -0.353 OA
HETATM   32  C20 UNL     1      -3.290  -5.016  -0.462  1.00  0.00     0.210 C 
ENDBRANCH  10  31
TORSDOF 7
