REMARK  4 active torsions:
REMARK  status: ('A' for Active; 'I' for Inactive)
REMARK    1  A    between atoms: O1_2  and  C2_3 
REMARK    2  A    between atoms: C6_9  and  C7_10 
REMARK    3  A    between atoms: C7_10  and  C9_12 
REMARK    4  A    between atoms: C9_12  and  C10_13 
ROOT
HETATM    1  C2  UNL     1       3.832   0.724   1.288  1.00  0.00     0.103 C 
HETATM    2  C3  UNL     1       4.022  -0.291   2.162  1.00  0.00     0.067 C 
HETATM    3  C4  UNL     1       2.754  -0.831   1.565  1.00  0.00     0.042 C 
HETATM    4  N1  UNL     1       2.631  -1.491   0.457  1.00  0.00    -0.246 NA
HETATM    5  C5  UNL     1       1.415  -1.980  -0.079  1.00  0.00     0.233 C 
HETATM    6  N2  UNL     1       0.308  -1.610  -0.506  1.00  0.00    -0.244 NA
HETATM    7  C6  UNL     1      -0.122  -0.280  -0.582  1.00  0.00     0.064 C 
HETATM    8  C16 UNL     1       0.527   0.652  -1.216  1.00  0.00     0.056 C 
HETATM    9  C17 UNL     1       1.787   0.623  -1.988  1.00  0.00     0.226 C 
HETATM   10  O2  UNL     1       1.741   1.190  -3.233  1.00  0.00    -0.384 OA
HETATM   11  C18 UNL     1       0.786   2.101  -3.545  1.00  0.00     0.187 C 
HETATM   12  C19 UNL     1       0.296   2.954  -2.383  1.00  0.00     0.149 C 
HETATM   13  N3  UNL     1       0.347   2.096  -1.220  1.00  0.00    -0.377 N 
HETATM   14  C20 UNL     1       0.231   2.701   0.059  1.00  0.00     0.149 C 
HETATM   15  C21 UNL     1       1.437   3.440   0.549  1.00  0.00     0.195 C 
HETATM   16  O3  UNL     1       2.536   2.600   0.647  1.00  0.00    -0.347 OA
HETATM   17  C22 UNL     1       2.671   1.607   1.591  1.00  0.00     0.098 C 
HETATM   18  C23 UNL     1       2.113   1.120   2.729  1.00  0.00     0.019 C 
HETATM   19  C24 UNL     1       1.785  -0.353   2.629  1.00  0.00     0.089 C 
ENDROOT
BRANCH   7  20
HETATM   20  C7  UNL     1      -1.415  -0.480   0.118  1.00  0.00     0.040 C 
HETATM   21  C8  UNL     1      -2.286   0.760  -0.240  1.00  0.00     0.017 C 
BRANCH  20  22
HETATM   22  C9  UNL     1      -2.114  -1.686  -0.505  1.00  0.00     0.044 C 
BRANCH  22  23
HETATM   23  C10 UNL     1      -3.404  -2.010   0.147  1.00  0.00    -0.079 A 
HETATM   24  C11 UNL     1      -3.835  -1.280   1.155  1.00  0.00     0.002 A 
HETATM   25  C12 UNL     1      -5.128  -1.681   1.725  1.00  0.00    -0.004 A 
HETATM   26  C13 UNL     1      -5.606  -2.735   1.072  1.00  0.00    -0.026 A 
HETATM   27  C14 UNL     1      -5.220  -3.612  -0.047  1.00  0.00     0.031 A 
HETATM   28  C15 UNL     1      -3.884  -3.205  -0.593  1.00  0.00     0.038 A 
ENDBRANCH  22  23
ENDBRANCH  20  22
ENDBRANCH   7  20
BRANCH   1  29
HETATM   29  O1  UNL     1       4.695   0.838   0.226  1.00  0.00    -0.353 OA
HETATM   30  C1  UNL     1       5.678  -0.092  -0.155  1.00  0.00     0.210 C 
ENDBRANCH   1  29
TORSDOF 4
