REMARK  6 active torsions:
REMARK  status: ('A' for Active; 'I' for Inactive)
REMARK    1  A    between atoms: N1_2  and  C2_3 
REMARK    2  A    between atoms: C5_6  and  C6_7 
REMARK    3  A    between atoms: C7_9  and  C8_10 
REMARK    4  A    between atoms: C8_10  and  C9_11 
REMARK    5  A    between atoms: C9_11  and  N3_12 
REMARK    6  A    between atoms: C13_17  and  O2_18 
ROOT
HETATM    1  C2  UNL     1       3.130  -2.003  -1.463  1.00  0.00     0.344 C 
HETATM    2  C3  UNL     1       1.965  -1.545  -2.311  1.00  0.00     0.087 C 
HETATM    3  C4  UNL     1       0.749  -2.002  -1.560  1.00  0.00    -0.009 C 
HETATM    4  C5  UNL     1      -0.284  -1.855  -0.759  1.00  0.00    -0.017 C 
HETATM    5  C7  UNL     1      -0.650  -0.688   0.094  1.00  0.00    -0.045 C 
HETATM    6  C14 UNL     1       0.071   0.387   0.221  1.00  0.00     0.009 C 
HETATM    7  C15 UNL     1       0.990   1.499   0.249  1.00  0.00     0.009 C 
HETATM    8  C16 UNL     1       2.175   2.021  -0.127  1.00  0.00    -0.043 C 
HETATM    9  C17 UNL     1       2.167   3.404   0.455  1.00  0.00     0.008 C 
HETATM   10  C18 UNL     1       2.984   4.328  -0.118  1.00  0.00     0.000 C 
HETATM   11  C19 UNL     1       3.884   3.971  -1.197  1.00  0.00    -0.003 C 
HETATM   12  C20 UNL     1       3.996   2.717  -1.580  1.00  0.00    -0.010 C 
HETATM   13  C21 UNL     1       3.274   1.538  -0.911  1.00  0.00     0.037 A 
HETATM   14  C22 UNL     1       4.413   1.081   0.126  1.00  0.00     0.057 A 
HETATM   15  C23 UNL     1       3.768   0.222  -0.975  1.00  0.00     0.241 A 
HETATM   16  N4  UNL     1       3.158  -0.926  -0.389  1.00  0.00     0.114 N 
HETATM   17  H30 UNL     1       3.780  -1.332   0.341  1.00  0.00     0.319 HD
ENDROOT
BRANCH   5  18
HETATM   18  C8  UNL     1      -1.973  -0.973   0.724  1.00  0.00     0.069 C 
BRANCH  18  19
HETATM   19  C9  UNL     1      -2.545   0.109   1.566  1.00  0.00     0.280 C 
BRANCH  19  20
HETATM   20  N3  UNL     1      -3.822  -0.378   2.073  1.00  0.00     0.121 N 
HETATM   21  C10 UNL     1      -4.464   0.609   2.919  1.00  0.00     0.301 C 
HETATM   22  C11 UNL     1      -5.410   1.504   2.153  1.00  0.00     0.198 C 
HETATM   23  O1  UNL     1      -5.107   1.626   0.814  1.00  0.00    -0.385 OA
HETATM   24  C12 UNL     1      -5.074   0.437   0.123  1.00  0.00     0.231 C 
HETATM   25  C13 UNL     1      -4.757  -0.740   1.055  1.00  0.00     0.380 C 
BRANCH  25  26
HETATM   26  O2  UNL     1      -5.982  -0.983   1.724  1.00  0.00    -0.366 OA
HETATM   27  H20 UNL     1      -6.517  -1.681   1.275  1.00  0.00     0.212 HD
ENDBRANCH  25  26
ENDBRANCH  19  20
ENDBRANCH  18  19
ENDBRANCH   5  18
BRANCH   4  28
HETATM   28  C6  UNL     1      -1.046  -3.128  -0.614  1.00  0.00     0.118 C 
HETATM   29  N2  UNL     1      -0.754  -4.226  -1.171  1.00  0.00    -0.311 NA
HETATM   30  H8  UNL     1      -1.310  -5.083  -1.043  1.00  0.00     0.186 HD
ENDBRANCH   4  28
BRANCH   1  31
HETATM   31  N1  UNL     1       4.378  -1.872  -2.178  1.00  0.00    -0.277 NA
HETATM   32  C1  UNL     1       5.251  -2.800  -1.990  1.00  0.00     0.145 C 
ENDBRANCH   1  31
TORSDOF 6
