REMARK  4 active torsions:
REMARK  status: ('A' for Active; 'I' for Inactive)
REMARK    1  A    between atoms: O1_2  and  C2_3 
REMARK    2  A    between atoms: C6_9  and  N3_10 
REMARK    3  A    between atoms: N3_10  and  C7_11 
REMARK    4  A    between atoms: C17_22  and  O2_23 
ROOT
HETATM    1  C2  UNL     1      -3.874  -0.410  -0.077  1.00  0.00     0.103 A 
HETATM    2  C3  UNL     1      -3.482  -0.620  -1.401  1.00  0.00     0.072 A 
HETATM    3  C4  UNL     1      -2.190  -0.432  -1.830  1.00  0.00     0.075 A 
HETATM    4  N1  UNL     1      -1.811  -0.653  -3.123  1.00  0.00    -0.241 NA
HETATM    5  C5  UNL     1      -0.525  -0.466  -3.482  1.00  0.00     0.236 A 
HETATM    6  N2  UNL     1       0.444  -0.065  -2.626  1.00  0.00    -0.223 NA
HETATM    7  C6  UNL     1       0.118   0.170  -1.327  1.00  0.00     0.143 A 
HETATM    8  C15 UNL     1      -1.210  -0.014  -0.924  1.00  0.00     0.042 A 
HETATM    9  C16 UNL     1      -1.567   0.203   0.401  1.00  0.00     0.057 A 
HETATM   10  C17 UNL     1      -2.883   0.008   0.821  1.00  0.00     0.102 A 
ENDROOT
BRANCH   7  11
HETATM   11  N3  UNL     1       1.100   0.562  -0.342  1.00  0.00    -0.324 N 
HETATM   12  H6  UNL     1       0.990   1.252   0.442  1.00  0.00     0.169 HD
BRANCH  11  13
HETATM   13  C7  UNL     1       2.427  -0.003  -0.357  1.00  0.00     0.141 A 
HETATM   14  N4  UNL     1       2.617  -1.269  -0.594  1.00  0.00    -0.241 NA
HETATM   15  C8  UNL     1       4.019  -1.558  -0.547  1.00  0.00     0.131 A 
HETATM   16  C9  UNL     1       4.737  -0.488  -0.278  1.00  0.00    -0.004 A 
HETATM   17  C10 UNL     1       6.110  -0.054  -0.089  1.00  0.00     0.014 A 
HETATM   18  C14 UNL     1       3.734   0.582  -0.141  1.00  0.00     0.033 A 
HETATM   19  C11 UNL     1       6.368   1.201   0.178  1.00  0.00     0.002 A 
HETATM   20  C12 UNL     1       5.274   2.174   0.285  1.00  0.00     0.013 A 
HETATM   21  C13 UNL     1       4.004   1.843   0.135  1.00  0.00    -0.010 A 
ENDBRANCH  11  13
ENDBRANCH   7  11
BRANCH  10  22
HETATM   22  O2  UNL     1      -3.330   0.197   2.114  1.00  0.00    -0.353 OA
HETATM   23  C18 UNL     1      -2.436   0.610   3.115  1.00  0.00     0.210 C 
ENDBRANCH  10  22
BRANCH   1  24
HETATM   24  O1  UNL     1      -5.170  -0.600   0.362  1.00  0.00    -0.353 OA
HETATM   25  C1  UNL     1      -6.203  -1.022  -0.484  1.00  0.00     0.210 C 
ENDBRANCH   1  24
TORSDOF 4
