REMARK  6 active torsions:
REMARK  status: ('A' for Active; 'I' for Inactive)
REMARK    1  A    between atoms: C1_1  and  C2_2 
REMARK    2  A    between atoms: C1_1  and  C11_14 
REMARK    3  A    between atoms: C2_2  and  N1_3 
REMARK    4  A    between atoms: N1_3  and  C3_4 
REMARK    5  A    between atoms: C11_14  and  C12_15 
REMARK    6  A    between atoms: C13_16  and  C14_17 
ROOT
HETATM    1  N1  UNL     1      -1.955   0.316  -1.106  1.00  0.00    -0.366 N 
HETATM    2  H3  UNL     1      -1.774   0.267  -2.153  1.00  0.00     0.162 HD
ENDROOT
BRANCH   1   3
HETATM    3  C2  UNL     1      -0.824   0.335  -0.259  1.00  0.00     0.082 C 
BRANCH   3   4
HETATM    4  C1  UNL     1       0.212   0.578   0.511  1.00  0.00    -0.006 C 
BRANCH   4   5
HETATM    5  C11 UNL     1       1.277  -0.101   1.327  1.00  0.00     0.055 C 
BRANCH   5   6
HETATM    6  C12 UNL     1       2.573   0.309   0.774  1.00  0.00    -0.021 C 
HETATM    7  C13 UNL     1       3.437  -0.542   0.288  1.00  0.00     0.028 C 
BRANCH   7   8
HETATM    8  C14 UNL     1       4.719  -0.137  -0.259  1.00  0.00     0.059 A 
HETATM    9  C15 UNL     1       5.086   1.211  -0.284  1.00  0.00     0.051 A 
HETATM   10  C16 UNL     1       6.326   1.580  -0.815  1.00  0.00     0.120 A 
HETATM   11  N3  UNL     1       7.148   0.623  -1.296  1.00  0.00    -0.254 NA
HETATM   12  C17 UNL     1       6.784  -0.689  -1.269  1.00  0.00     0.233 A 
HETATM   13  N4  UNL     1       5.586  -1.012  -0.752  1.00  0.00    -0.242 NA
ENDBRANCH   7   8
ENDBRANCH   5   6
ENDBRANCH   4   5
ENDBRANCH   3   4
ENDBRANCH   1   3
BRANCH   1  14
HETATM   14  C3  UNL     1      -3.178   0.375  -0.290  1.00  0.00     0.151 C 
HETATM   15  C4  UNL     1      -4.356   0.350  -1.200  1.00  0.00     0.028 C 
HETATM   16  C5  UNL     1      -4.691  -0.803  -1.771  1.00  0.00    -0.022 C 
HETATM   17  C6  UNL     1      -3.901  -2.041  -1.500  1.00  0.00     0.054 C 
HETATM   18  C7  UNL     1      -3.549  -1.989  -0.043  1.00  0.00    -0.011 C 
HETATM   19  C8  UNL     1      -3.207  -0.840   0.523  1.00  0.00    -0.003 C 
HETATM   20  C9  UNL     1      -2.880  -0.882   1.944  1.00  0.00     0.062 C 
HETATM   21  S1  UNL     1      -2.642   0.524   2.742  1.00  0.00    -0.096 SA
HETATM   22  C10 UNL     1      -2.808   1.853   1.806  1.00  0.00     0.136 C 
HETATM   23  N2  UNL     1      -3.132   1.593   0.446  1.00  0.00    -0.360 N 
HETATM   24  H11 UNL     1      -3.390   2.434  -0.148  1.00  0.00     0.162 HD
ENDBRANCH   1  14
TORSDOF 6
