REMARK  3 active torsions:
REMARK  status: ('A' for Active; 'I' for Inactive)
REMARK    1  A    between atoms: O1_2  and  C2_3 
REMARK    2  A    between atoms: C3_4  and  O2_5 
REMARK    3  A    between atoms: N2_13  and  C10_14 
ROOT
HETATM    1  C2  UNL     1      -2.810   0.213   0.420  1.00  0.00     0.080 C 
HETATM    2  C3  UNL     1      -1.570  -0.130  -0.188  1.00  0.00     0.106 C 
HETATM    3  C5  UNL     1      -0.522   1.211  -0.411  1.00  0.00     0.121 A 
HETATM    4  C6  UNL     1      -1.335   2.164   0.222  1.00  0.00     0.066 A 
HETATM    5  C7  UNL     1      -1.686   1.710  -1.055  1.00  0.00     0.095 A 
HETATM    6  N1  UNL     1      -1.431   0.978  -2.144  1.00  0.00    -0.290 NA
HETATM    7  C8  UNL     1       0.147   1.218  -2.425  1.00  0.00     0.202 C 
HETATM    8  C9  UNL     1       0.352   2.643  -2.284  1.00  0.00     0.057 C 
HETATM    9  N2  UNL     1       0.519   0.455  -1.155  1.00  0.00    -0.324 N 
HETATM   10  C19 UNL     1      -3.133   1.408  -0.651  1.00  0.00     0.103 C 
ENDROOT
BRANCH   9  11
HETATM   11  C10 UNL     1       1.326  -0.596  -0.675  1.00  0.00     0.139 A 
HETATM   12  N3  UNL     1       1.125  -1.855  -1.085  1.00  0.00    -0.242 NA
HETATM   13  C11 UNL     1       1.870  -2.849  -0.643  1.00  0.00     0.120 A 
HETATM   14  C12 UNL     1       2.865  -2.554   0.256  1.00  0.00     0.031 A 
HETATM   15  C13 UNL     1       3.106  -1.275   0.703  1.00  0.00    -0.021 A 
HETATM   16  C14 UNL     1       4.136  -1.111   1.607  1.00  0.00     0.012 A 
HETATM   17  C18 UNL     1       2.301  -0.277   0.210  1.00  0.00     0.020 A 
HETATM   18  C15 UNL     1       4.381   0.187   2.063  1.00  0.00     0.001 A 
HETATM   19  C16 UNL     1       3.607   1.236   1.606  1.00  0.00     0.001 A 
HETATM   20  C17 UNL     1       2.594   0.993   0.701  1.00  0.00     0.016 A 
ENDBRANCH   9  11
BRANCH   2  21
HETATM   21  O2  UNL     1      -1.421  -1.596  -0.483  1.00  0.00    -0.355 OA
HETATM   22  C4  UNL     1      -1.512  -2.424   0.662  1.00  0.00     0.209 C 
ENDBRANCH   2  21
BRANCH   1  23
HETATM   23  O1  UNL     1      -3.177  -0.517   1.522  1.00  0.00    -0.358 OA
HETATM   24  C1  UNL     1      -4.539  -0.450   1.902  1.00  0.00     0.209 C 
ENDBRANCH   1  23
TORSDOF 3
