REMARK  3 active torsions:
REMARK  status: ('A' for Active; 'I' for Inactive)
REMARK    1  A    between atoms: C2_2  and  C3_3 
REMARK    2  A    between atoms: C8_10  and  N3_11 
REMARK    3  A    between atoms: N3_11  and  C9_12 
ROOT
HETATM    1  C3  UNL     1      -2.767   0.958  -0.140  1.00  0.00    -0.055 C 
HETATM    2  C4  UNL     1      -1.674   0.218  -0.056  1.00  0.00     0.022 C 
HETATM    3  C5  UNL     1      -1.407  -1.185   0.223  1.00  0.00     0.039 A 
HETATM    4  C6  UNL     1      -2.213  -2.189   0.712  1.00  0.00     0.074 A 
HETATM    5  N1  UNL     1      -1.691  -3.418   0.856  1.00  0.00    -0.241 NA
HETATM    6  C7  UNL     1      -0.403  -3.633   0.520  1.00  0.00     0.236 A 
HETATM    7  N2  UNL     1       0.321  -2.629   0.056  1.00  0.00    -0.223 NA
HETATM    8  C8  UNL     1      -0.086  -1.363  -0.132  1.00  0.00     0.143 A 
HETATM    9  C18 UNL     1      -3.607  -2.284   1.161  1.00  0.00     0.057 C 
HETATM   10  C19 UNL     1      -4.601  -1.392   1.286  1.00  0.00     0.137 C 
HETATM   11  O1  UNL     1      -4.647  -0.034   1.022  1.00  0.00    -0.359 OA
HETATM   12  C20 UNL     1      -4.240   0.824  -0.016  1.00  0.00     0.208 C 
ENDROOT
BRANCH   8  13
HETATM   13  N3  UNL     1       0.770  -0.312  -0.630  1.00  0.00    -0.324 N 
HETATM   14  H8  UNL     1       0.612  -0.140  -1.659  1.00  0.00     0.169 HD
BRANCH  13  15
HETATM   15  C9  UNL     1       1.750   0.497   0.017  1.00  0.00     0.140 A 
HETATM   16  N4  UNL     1       1.663   1.640   0.715  1.00  0.00    -0.242 NA
HETATM   17  C10 UNL     1       2.701   2.263   1.252  1.00  0.00     0.120 A 
HETATM   18  C11 UNL     1       3.997   1.809   1.157  1.00  0.00     0.031 A 
HETATM   19  C12 UNL     1       4.156   0.636   0.450  1.00  0.00    -0.021 A 
HETATM   20  C13 UNL     1       5.441   0.158   0.334  1.00  0.00     0.012 A 
HETATM   21  C17 UNL     1       3.051   0.019  -0.093  1.00  0.00     0.020 A 
HETATM   22  C14 UNL     1       5.678  -1.005  -0.361  1.00  0.00     0.001 A 
HETATM   23  C15 UNL     1       4.615  -1.668  -0.928  1.00  0.00     0.001 A 
HETATM   24  C16 UNL     1       3.353  -1.139  -0.776  1.00  0.00     0.016 A 
ENDBRANCH  13  15
ENDBRANCH   8  13
BRANCH   1  25
HETATM   25  C2  UNL     1      -2.416   2.381  -0.463  1.00  0.00     0.032 C 
HETATM   26  C1  UNL     1      -3.017   2.847  -1.747  1.00  0.00     0.010 C 
ENDBRANCH   1  25
TORSDOF 3
