REMARK  8 active torsions:
REMARK  status: ('A' for Active; 'I' for Inactive)
REMARK    1  A    between atoms: C2_2  and  N1_3 
REMARK    2  A    between atoms: N1_3  and  C4_5 
REMARK    3  A    between atoms: C4_5  and  C5_6 
REMARK    4  A    between atoms: C5_6  and  N2_7 
REMARK    5  A    between atoms: N2_7  and  C6_8 
REMARK    6  A    between atoms: C12_16  and  N4_17 
REMARK    7  A    between atoms: N4_17  and  C13_18 
REMARK    8  A    between atoms: C13_18  and  C14_19 
ROOT
HETATM    1  C6  UNL     1       2.436   0.534   0.032  1.00  0.00     0.056 A 
HETATM    2  C7  UNL     1       2.559   1.847   0.062  1.00  0.00     0.030 A 
HETATM    3  C8  UNL     1       1.413   2.727   0.222  1.00  0.00     0.019 A 
HETATM    4  C9  UNL     1       0.184   2.271   0.346  1.00  0.00     0.097 A 
HETATM    5  N3  UNL     1       0.043   0.858   0.315  1.00  0.00    -0.289 N 
HETATM    6  C10 UNL     1      -1.370   0.660   0.470  1.00  0.00     0.268 C 
HETATM    7  O1  UNL     1      -2.026   1.736   0.259  1.00  0.00    -0.266 OA
HETATM    8  C11 UNL     1      -2.283  -0.429   0.804  1.00  0.00     0.088 C 
HETATM    9  C12 UNL     1      -3.547  -0.101   1.021  1.00  0.00     0.107 C 
HETATM   10  S1  UNL     1      -1.970  -2.182   0.964  1.00  0.00    -0.093 SA
HETATM   11  C19 UNL     1      -0.452  -2.390   1.877  1.00  0.00     0.084 C 
HETATM   12  C20 UNL     1       0.548  -1.605   2.203  1.00  0.00     0.089 C 
HETATM   13  N5  UNL     1       1.208  -0.974   1.334  1.00  0.00    -0.248 NA
HETATM   14  C21 UNL     1       1.091  -0.131   0.167  1.00  0.00     0.173 A 
HETATM   15  C22 UNL     1       0.823  -0.925  -1.094  1.00  0.00     0.073 C 
ENDROOT
BRANCH   9  16
HETATM   16  N4  UNL     1      -4.603   0.830   1.114  1.00  0.00    -0.397 N 
HETATM   17  H16 UNL     1      -4.724   1.434   1.980  1.00  0.00     0.158 HD
BRANCH  16  18
HETATM   18  C13 UNL     1      -5.546   0.969   0.012  1.00  0.00     0.131 C 
BRANCH  18  19
HETATM   19  C14 UNL     1      -6.399  -0.275  -0.129  1.00  0.00     0.048 A 
HETATM   20  C15 UNL     1      -7.329  -0.063  -1.263  1.00  0.00    -0.017 A 
HETATM   21  C16 UNL     1      -8.570  -0.029  -0.799  1.00  0.00    -0.004 A 
HETATM   22  C17 UNL     1      -8.587  -0.210   0.650  1.00  0.00    -0.004 A 
HETATM   23  C18 UNL     1      -7.312  -0.352   1.027  1.00  0.00    -0.017 A 
ENDBRANCH  18  19
ENDBRANCH  16  18
ENDBRANCH   9  16
BRANCH   1  24
HETATM   24  N2  UNL     1       3.385  -0.512  -0.111  1.00  0.00    -0.388 N 
HETATM   25  H11 UNL     1       3.550  -1.011   0.814  1.00  0.00     0.159 HD
BRANCH  24  26
HETATM   26  C5  UNL     1       4.155  -1.026  -1.223  1.00  0.00     0.139 C 
BRANCH  26  27
HETATM   27  C4  UNL     1       5.170   0.029  -1.599  1.00  0.00     0.141 C 
BRANCH  27  28
HETATM   28  N1  UNL     1       6.017   0.261  -0.448  1.00  0.00    -0.393 N 
HETATM   29  C3  UNL     1       7.123   1.156  -0.336  1.00  0.00     0.148 C 
BRANCH  28  30
HETATM   30  C2  UNL     1       5.923  -0.355   0.807  1.00  0.00     0.075 C 
HETATM   31  C1  UNL     1       6.519  -1.516   0.624  1.00  0.00     0.029 C 
ENDBRANCH  28  30
ENDBRANCH  27  28
ENDBRANCH  26  27
ENDBRANCH  24  26
ENDBRANCH   1  24
TORSDOF 8
