REMARK  4 active torsions:
REMARK  status: ('A' for Active; 'I' for Inactive)
REMARK    1  A    between atoms: O1_2  and  C2_3 
REMARK    2  A    between atoms: C6_9  and  N3_10 
REMARK    3  A    between atoms: N3_10  and  C7_11 
REMARK    4  A    between atoms: C18_23  and  O2_24 
ROOT
HETATM    1  C2  UNL     1      -4.209   0.350   0.142  1.00  0.00     0.103 A 
HETATM    2  C3  UNL     1      -3.992  -1.022   0.047  1.00  0.00     0.072 A 
HETATM    3  C4  UNL     1      -2.695  -1.496   0.084  1.00  0.00     0.075 A 
HETATM    4  N1  UNL     1      -2.603  -2.849  -0.018  1.00  0.00    -0.241 NA
HETATM    5  C5  UNL     1      -1.360  -3.381   0.010  1.00  0.00     0.236 A 
HETATM    6  N2  UNL     1      -0.205  -2.664   0.132  1.00  0.00    -0.223 NA
HETATM    7  C6  UNL     1      -0.366  -1.339   0.228  1.00  0.00     0.143 A 
HETATM    8  C16 UNL     1      -1.580  -0.694   0.212  1.00  0.00     0.042 A 
HETATM    9  C17 UNL     1      -1.816   0.659   0.307  1.00  0.00     0.057 A 
HETATM   10  C18 UNL     1      -3.097   1.186   0.275  1.00  0.00     0.102 A 
ENDROOT
BRANCH   7  11
HETATM   11  N3  UNL     1       0.767  -0.520   0.278  1.00  0.00    -0.325 N 
HETATM   12  H6  UNL     1       0.872   0.489   0.426  1.00  0.00     0.169 HD
BRANCH  11  13
HETATM   13  C7  UNL     1       2.171  -0.828   0.143  1.00  0.00     0.128 C 
HETATM   14  C8  UNL     1       3.042  -0.781   1.210  1.00  0.00     0.051 C 
HETATM   15  C9  UNL     1       4.390  -0.391   1.274  1.00  0.00     0.016 C 
HETATM   16  C10 UNL     1       5.245   0.247   0.408  1.00  0.00    -0.026 A 
HETATM   17  C11 UNL     1       6.343   1.054   0.574  1.00  0.00     0.013 A 
HETATM   18  C13 UNL     1       5.299   0.308  -1.050  1.00  0.00    -0.025 A 
HETATM   19  C12 UNL     1       6.397   1.114  -0.824  1.00  0.00     0.013 A 
HETATM   20  C14 UNL     1       4.572  -0.215  -2.093  1.00  0.00     0.031 C 
HETATM   21  C15 UNL     1       3.363  -0.908  -2.067  1.00  0.00     0.120 C 
HETATM   22  N4  UNL     1       2.348  -1.136  -1.181  1.00  0.00    -0.243 NA
ENDBRANCH  11  13
ENDBRANCH   7  11
BRANCH  10  23
HETATM   23  O2  UNL     1      -3.350   2.534   0.372  1.00  0.00    -0.353 OA
HETATM   24  C19 UNL     1      -2.428   3.566   0.524  1.00  0.00     0.210 C 
ENDBRANCH  10  23
BRANCH   1  25
HETATM   25  O1  UNL     1      -5.502   0.866   0.103  1.00  0.00    -0.353 OA
HETATM   26  C1  UNL     1      -6.574  -0.044  -0.044  1.00  0.00     0.210 C 
ENDBRANCH   1  25
TORSDOF 4
