REMARK  3 active torsions:
REMARK  status: ('A' for Active; 'I' for Inactive)
REMARK    1  A    between atoms: C2_2  and  C3_4 
REMARK    2  A    between atoms: C4_5  and  C5_6 
REMARK    3  A    between atoms: C7_9  and  O1_10 
ROOT
HETATM    1  C5  UNL     1       2.603  -1.164   0.134  1.00  0.00     0.124 C 
HETATM    2  N1  UNL     1       1.974  -1.157  -1.182  1.00  0.00    -0.387 N 
HETATM    3  C6  UNL     1       0.655  -1.382  -1.560  1.00  0.00     0.139 C 
HETATM    4  C7  UNL     1      -0.417  -0.764  -1.935  1.00  0.00     0.151 C 
HETATM    5  N2  UNL     1      -1.645  -1.374  -2.255  1.00  0.00    -0.366 N 
HETATM    6  C8  UNL     1      -2.691  -1.707  -1.307  1.00  0.00     0.162 C 
HETATM    7  C9  UNL     1      -3.304  -0.559  -0.643  1.00  0.00    -0.012 A 
HETATM    8  C10 UNL     1      -4.418   0.014  -1.260  1.00  0.00     0.011 A 
HETATM    9  C11 UNL     1      -5.147   1.094  -0.805  1.00  0.00     0.001 A 
HETATM   10  C12 UNL     1      -4.733   1.664   0.378  1.00  0.00     0.002 A 
HETATM   11  C13 UNL     1      -3.619   1.110   1.017  1.00  0.00     0.032 A 
HETATM   12  C14 UNL     1      -2.909   0.028   0.538  1.00  0.00     0.060 A 
HETATM   13  N3  UNL     1      -1.839  -0.304   1.387  1.00  0.00    -0.266 N 
HETATM   14  C15 UNL     1      -1.874  -1.070   2.414  1.00  0.00     0.198 A 
HETATM   15  N4  UNL     1      -0.638  -0.464   2.055  1.00  0.00    -0.150 NA
HETATM   16  C16 UNL     1       0.304  -0.400   2.967  1.00  0.00     0.268 C 
HETATM   17  O2  UNL     1       0.840   0.189   1.835  1.00  0.00    -0.349 OA
HETATM   18  C17 UNL     1       1.908  -0.308   1.117  1.00  0.00     0.117 C 
HETATM   19  C18 UNL     1       2.684   0.558   1.790  1.00  0.00     0.047 C 
HETATM   20  H6  UNL     1       2.566  -0.953  -2.043  1.00  0.00     0.159 HD
HETATM   21  H9  UNL     1      -1.264  -1.340  -3.225  1.00  0.00     0.162 HD
ENDROOT
BRANCH   1  22
HETATM   22  C4  UNL     1       4.055  -0.905   0.054  1.00  0.00     0.029 C 
HETATM   23  C3  UNL     1       3.931   0.312  -0.414  1.00  0.00     0.060 C 
BRANCH  23  24
HETATM   24  C2  UNL     1       4.640   1.479  -0.851  1.00  0.00     0.061 A 
HETATM   25  C1  UNL     1       3.809   2.438  -1.228  1.00  0.00     0.245 A 
HETATM   26  F1  UNL     1       5.363   2.533  -1.244  1.00  0.00    -0.371 F 
ENDBRANCH  23  24
ENDBRANCH   1  22
BRANCH   4  27
HETATM   27  O1  UNL     1       0.479   0.263  -1.753  1.00  0.00    -0.345 OA
HETATM   28  H8  UNL     1       0.268   1.200  -1.442  1.00  0.00     0.219 HD
ENDBRANCH   4  27
TORSDOF 3
