REMARK  6 active torsions:
REMARK  status: ('A' for Active; 'I' for Inactive)
REMARK    1  A    between atoms: C2_2  and  N1_3 
REMARK    2  A    between atoms: N1_3  and  C4_5 
REMARK    3  A    between atoms: C4_5  and  C5_6 
REMARK    4  A    between atoms: C5_6  and  C6_7 
REMARK    5  A    between atoms: C9_10  and  N2_11 
REMARK    6  A    between atoms: N2_11  and  C10_12 
ROOT
HETATM    1  C6  UNL     1       0.720  -0.295   0.370  1.00  0.00    -0.056 A 
HETATM    2  C7  UNL     1       0.490  -1.650   0.297  1.00  0.00     0.009 A 
HETATM    3  C8  UNL     1      -0.783  -2.099   0.283  1.00  0.00     0.029 A 
HETATM    4  C9  UNL     1      -1.900  -1.281   0.336  1.00  0.00     0.028 A 
HETATM    5  C15 UNL     1      -1.591   0.057   0.407  1.00  0.00     0.029 A 
HETATM    6  C16 UNL     1      -0.330   0.614   0.428  1.00  0.00     0.009 A 
ENDROOT
BRANCH   4   7
HETATM    7  N2  UNL     1      -3.210  -1.801   0.315  1.00  0.00    -0.375 N 
HETATM    8  H15 UNL     1      -3.259  -2.854   0.245  1.00  0.00     0.160 HD
BRANCH   7   9
HETATM    9  C10 UNL     1      -4.487  -1.140   0.373  1.00  0.00     0.186 A 
HETATM   10  C11 UNL     1      -4.698  -0.141  -0.699  1.00  0.00     0.023 A 
HETATM   11  C12 UNL     1      -4.970   1.173  -0.753  1.00  0.00     0.090 A 
HETATM   12  N3  UNL     1      -5.085   1.776   0.545  1.00  0.00    -0.331 N 
HETATM   13  C13 UNL     1      -4.915   1.009   1.724  1.00  0.00     0.293 A 
HETATM   14  H19 UNL     1      -5.299   2.797   0.532  1.00  0.00     0.168 HD
HETATM   15  O1  UNL     1      -5.019   1.539   2.839  1.00  0.00    -0.264 OA
HETATM   16  C14 UNL     1      -4.611  -0.438   1.681  1.00  0.00     0.242 A 
HETATM   17  O2  UNL     1      -4.447  -1.116   2.716  1.00  0.00    -0.285 OA
ENDBRANCH   7   9
ENDBRANCH   4   7
BRANCH   1  18
HETATM   18  C5  UNL     1       2.112   0.229   0.391  1.00  0.00     0.068 C 
BRANCH  18  19
HETATM   19  C4  UNL     1       2.657   0.499  -1.005  1.00  0.00     0.276 C 
BRANCH  19  20
HETATM   20  N1  UNL     1       3.988   1.003  -0.990  1.00  0.00     0.084 N 
HETATM   21  C3  UNL     1       4.038   2.231  -0.222  1.00  0.00     0.309 C 
BRANCH  20  22
HETATM   22  C2  UNL     1       4.991   0.083  -0.552  1.00  0.00     0.267 C 
HETATM   23  C1  UNL     1       5.052  -1.216  -1.257  1.00  0.00     0.037 C 
ENDBRANCH  20  22
ENDBRANCH  19  20
ENDBRANCH  18  19
ENDBRANCH   1  18
TORSDOF 6
