REMARK  0 active torsions:
REMARK  status: ('A' for Active; 'I' for Inactive)
ROOT
HETATM    1  F1  UNL     1       5.550  -0.271  -0.760  1.00  0.00    -0.206 F 
HETATM    2  C1  UNL     1       4.256  -0.291  -0.374  1.00  0.00     0.117 A 
HETATM    3  C2  UNL     1       3.626  -1.456  -0.060  1.00  0.00     0.043 A 
HETATM    4  C3  UNL     1       2.327  -1.522   0.333  1.00  0.00     0.012 A 
HETATM    5  C4  UNL     1       1.589  -0.388   0.427  1.00  0.00    -0.038 A 
HETATM    6  C5  UNL     1       2.159   0.892   0.118  1.00  0.00    -0.030 A 
HETATM    7  C6  UNL     1       3.516   0.859  -0.281  1.00  0.00     0.051 A 
HETATM    8  C7  UNL     1       1.755   2.311   0.079  1.00  0.00     0.160 C 
HETATM    9  N1  UNL     1       0.329   2.569  -0.050  1.00  0.00    -0.372 N 
HETATM   10  C8  UNL     1      -0.772   1.707  -0.105  1.00  0.00     0.094 C 
HETATM   11  C9  UNL     1      -0.447   0.453  -0.193  1.00  0.00     0.035 C 
HETATM   12  C10 UNL     1       0.267  -0.484   0.849  1.00  0.00     0.079 C 
HETATM   13  C11 UNL     1      -0.739  -1.488   0.912  1.00  0.00    -0.039 C 
HETATM   14  C12 UNL     1      -1.522  -1.544   2.054  1.00  0.00     0.058 C 
HETATM   15  S1  UNL     1      -3.010  -0.505   1.742  1.00  0.00    -0.104 SA
HETATM   16  C13 UNL     1      -3.175  -0.247  -0.061  1.00  0.00     0.000 C 
HETATM   17  C14 UNL     1      -3.240  -1.275  -0.966  1.00  0.00     0.016 C 
HETATM   18  C15 UNL     1      -2.253  -2.433  -0.901  1.00  0.00     0.002 C 
HETATM   19  C16 UNL     1      -1.034  -2.380  -0.250  1.00  0.00     0.009 C 
HETATM   20  C17 UNL     1      -3.179   1.123  -0.718  1.00  0.00     0.167 C 
HETATM   21  N2  UNL     1      -2.148   1.953  -0.059  1.00  0.00    -0.372 N 
HETATM   22  H6  UNL     1      -0.101   3.515  -0.117  1.00  0.00     0.161 HD
HETATM   23  H15 UNL     1      -2.168   2.803   0.518  1.00  0.00     0.161 HD
ENDROOT
TORSDOF 0
