REMARK  8 active torsions:
REMARK  status: ('A' for Active; 'I' for Inactive)
REMARK    1  A    between atoms: C2_2  and  N1_3 
REMARK    2  A    between atoms: N1_3  and  C3_4 
REMARK    3  A    between atoms: C6_7  and  N2_8 
REMARK       I    between atoms: N2_8  and  C7_9 
REMARK    4  A    between atoms: C7_9  and  C8_11 
REMARK    5  A    between atoms: C15_18  and  C16_19 
REMARK    6  A    between atoms: C16_19  and  N3_20 
REMARK    7  A    between atoms: C16_19  and  N4_21 
REMARK    8  A    between atoms: C17_22  and  C18_23 
ROOT
HETATM    1  C3  UNL     1       0.749  -1.417  -1.636  1.00  0.00     0.042 A 
HETATM    2  C4  UNL     1      -0.253  -1.030  -2.495  1.00  0.00     0.032 A 
HETATM    3  C5  UNL     1      -1.454  -0.594  -1.925  1.00  0.00     0.032 A 
HETATM    4  C6  UNL     1      -1.611  -0.560  -0.550  1.00  0.00     0.035 A 
HETATM    5  C14 UNL     1      -0.543  -0.970   0.230  1.00  0.00     0.043 A 
HETATM    6  C15 UNL     1       0.665  -1.410  -0.263  1.00  0.00     0.024 A 
ENDROOT
BRANCH   6   7
HETATM    7  C16 UNL     1       1.783  -1.841   0.616  1.00  0.00     0.374 C 
BRANCH   7   8
HETATM    8  N3  UNL     1       2.407  -3.066   0.183  1.00  0.00     0.107 N 
HETATM    9  H15 UNL     1       1.779  -3.670  -0.378  1.00  0.00     0.316 HD
HETATM   10  H16 UNL     1       2.813  -3.608   0.969  1.00  0.00     0.316 HD
ENDBRANCH   7   8
BRANCH   7  11
HETATM   11  N4  UNL     1       2.725  -0.786   0.861  1.00  0.00    -0.261 NA
HETATM   12  C17 UNL     1       2.822   0.311   0.214  1.00  0.00     0.126 C 
BRANCH  12  13
HETATM   13  C18 UNL     1       3.887   1.197   0.700  1.00  0.00    -0.002 A 
HETATM   14  C19 UNL     1       4.686   0.834   1.766  1.00  0.00     0.016 A 
HETATM   15  C20 UNL     1       5.710   1.634   2.269  1.00  0.00     0.020 A 
HETATM   16  C21 UNL     1       5.915   2.859   1.644  1.00  0.00     0.116 A 
HETATM   17  N5  UNL     1       5.142   3.224   0.604  1.00  0.00    -0.272 NA
HETATM   18  C22 UNL     1       4.153   2.434   0.130  1.00  0.00     0.129 A 
ENDBRANCH  12  13
ENDBRANCH   7  11
ENDBRANCH   6   7
BRANCH   1  19
HETATM   19  N1  UNL     1       1.932  -1.845  -2.276  1.00  0.00    -0.366 N 
HETATM   20  H4  UNL     1       2.868  -2.197  -1.983  1.00  0.00     0.165 HD
BRANCH  19  21
HETATM   21  C2  UNL     1       2.050  -1.864  -3.691  1.00  0.00     0.078 C 
HETATM   22  C1  UNL     1       2.708  -0.922  -4.363  1.00  0.00     0.029 C 
ENDBRANCH  19  21
ENDBRANCH   1  19
BRANCH   4  23
HETATM   23  N2  UNL     1      -2.824  -0.121   0.050  1.00  0.00    -0.323 N 
HETATM   24  C7  UNL     1      -3.387   1.079   0.505  1.00  0.00     0.256 C 
HETATM   25  O1  UNL     1      -2.626   2.068   0.353  1.00  0.00    -0.267 OA
HETATM   26  H7  UNL     1      -3.253  -1.071   0.066  1.00  0.00     0.169 HD
BRANCH  24  27
HETATM   27  C8  UNL     1      -4.729   1.027   1.073  1.00  0.00     0.032 A 
HETATM   28  C9  UNL     1      -5.551  -0.068   1.231  1.00  0.00     0.017 A 
HETATM   29  C10 UNL     1      -6.793   0.118   1.799  1.00  0.00     0.001 A 
HETATM   30  C11 UNL     1      -7.222   1.368   2.205  1.00  0.00     0.000 A 
HETATM   31  C12 UNL     1      -6.407   2.486   2.054  1.00  0.00     0.001 A 
HETATM   32  C13 UNL     1      -5.157   2.280   1.480  1.00  0.00     0.017 A 
ENDBRANCH  24  27
ENDBRANCH   4  23
TORSDOF 8
