REMARK  6 active torsions:
REMARK  status: ('A' for Active; 'I' for Inactive)
REMARK       I    between atoms: C1_2  and  N1_3 
REMARK    1  A    between atoms: C1_2  and  C17_23 
REMARK    2  A    between atoms: N1_3  and  C2_4 
REMARK    3  A    between atoms: C2_4  and  C3_5 
REMARK    4  A    between atoms: C4_6  and  N2_7 
REMARK    5  A    between atoms: C4_6  and  C14_20 
REMARK    6  A    between atoms: N2_7  and  C5_8 
ROOT
HETATM    1  C3  UNL     1       1.083  -0.015  -0.380  1.00  0.00     0.023 C 
HETATM    2  C4  UNL     1       0.024  -0.177   0.405  1.00  0.00     0.053 C 
ENDROOT
BRANCH   2   3
HETATM    3  N2  UNL     1      -0.612  -1.438   0.713  1.00  0.00    -0.188 N 
HETATM    4  H5  UNL     1      -0.391  -2.225   1.351  1.00  0.00     0.184 HD
BRANCH   3   5
HETATM    5  C5  UNL     1      -1.763  -1.429  -0.124  1.00  0.00     0.727 A 
HETATM    6  N3  UNL     1      -1.668  -1.967  -1.347  1.00  0.00    -0.075 NA
HETATM    7  C6  UNL     1      -2.731  -1.992  -2.203  1.00  0.00     0.139 A 
HETATM    8  C7  UNL     1      -3.903  -1.428  -1.723  1.00  0.00     0.053 A 
HETATM    9  C8  UNL     1      -4.030  -0.867  -0.470  1.00  0.00     0.089 A 
HETATM   10  C9  UNL     1      -5.269  -0.285  -0.003  1.00  0.00     0.011 A 
HETATM   11  N5  UNL     1      -2.929  -0.889   0.301  1.00  0.00    -0.062 NA
HETATM   12  C10 UNL     1      -6.431  -0.230  -0.740  1.00  0.00     0.017 A 
HETATM   13  C13 UNL     1      -5.335   0.265   1.257  1.00  0.00     0.130 A 
HETATM   14  C11 UNL     1      -7.573   0.349  -0.212  1.00  0.00     0.020 A 
HETATM   15  C12 UNL     1      -7.616   0.892   1.047  1.00  0.00     0.116 A 
HETATM   16  N4  UNL     1      -6.464   0.828   1.754  1.00  0.00    -0.272 NA
ENDBRANCH   3   5
ENDBRANCH   2   3
BRANCH   2  17
HETATM   17  C14 UNL     1      -0.656   0.954   1.078  1.00  0.00    -0.031 A 
HETATM   18  C15 UNL     1      -0.525   2.319   1.167  1.00  0.00    -0.013 A 
HETATM   19  C16 UNL     1      -1.604   1.671   1.899  1.00  0.00     0.068 A 
ENDBRANCH   2  17
BRANCH   1  20
HETATM   20  C2  UNL     1       1.842   1.190  -0.790  1.00  0.00     0.152 C 
BRANCH  20  21
HETATM   21  N1  UNL     1       3.218   1.038  -0.349  1.00  0.00    -0.353 N 
HETATM   22  C1  UNL     1       4.052  -0.026  -0.785  1.00  0.00     0.251 C 
HETATM   23  O1  UNL     1       3.628  -0.890  -1.579  1.00  0.00    -0.268 OA
HETATM   24  H1  UNL     1       3.588   1.753   0.315  1.00  0.00     0.163 HD
BRANCH  22  25
HETATM   25  C17 UNL     1       5.433  -0.170  -0.336  1.00  0.00     0.032 A 
HETATM   26  C18 UNL     1       6.179  -1.227  -0.811  1.00  0.00     0.017 A 
HETATM   27  C19 UNL     1       7.492  -1.390  -0.403  1.00  0.00     0.001 A 
HETATM   28  C20 UNL     1       8.104  -0.505   0.489  1.00  0.00     0.000 A 
HETATM   29  C21 UNL     1       7.357   0.564   0.972  1.00  0.00     0.001 A 
HETATM   30  C22 UNL     1       6.053   0.686   0.538  1.00  0.00     0.017 A 
ENDBRANCH  22  25
ENDBRANCH  20  21
ENDBRANCH   1  20
TORSDOF 6
