REMARK  6 active torsions:
REMARK  status: ('A' for Active; 'I' for Inactive)
REMARK    1  A    between atoms: C2_2  and  N5_20 
REMARK    2  A    between atoms: C3_3  and  C4_4 
REMARK    3  A    between atoms: C5_5  and  C6_6 
REMARK    4  A    between atoms: C6_6  and  N1_7 
REMARK    5  A    between atoms: N1_7  and  C7_8 
REMARK    6  A    between atoms: C10_12  and  C11_13 
ROOT
HETATM    1  N1  UNL     1      -1.785  -0.843  -0.383  1.00  0.00    -0.219 N 
HETATM    2  H9  UNL     1      -1.736  -0.935   0.634  1.00  0.00     0.178 HD
ENDROOT
BRANCH   1   3
HETATM    3  C6  UNL     1      -0.623  -0.948  -1.260  1.00  0.00     0.165 C 
BRANCH   3   4
HETATM    4  C5  UNL     1       0.631  -1.202  -0.537  1.00  0.00    -0.007 C 
HETATM    5  C4  UNL     1       1.674  -0.360  -0.596  1.00  0.00    -0.001 C 
BRANCH   5   6
HETATM    6  C3  UNL     1       2.970  -0.477   0.060  1.00  0.00     0.024 C 
HETATM    7  C2  UNL     1       3.954   0.401  -0.047  1.00  0.00     0.007 C 
HETATM    8  C1  UNL     1       3.666   1.568  -0.908  1.00  0.00     0.068 C 
BRANCH   7   9
HETATM    9  N5  UNL     1       5.141   0.107   0.671  1.00  0.00    -0.361 N 
HETATM   10  C16 UNL     1       6.147  -0.774   0.143  1.00  0.00     0.087 C 
HETATM   11  C17 UNL     1       7.431  -0.467   0.388  1.00  0.00    -0.009 C 
HETATM   12  C18 UNL     1       7.574   0.759   1.182  1.00  0.00     0.030 C 
HETATM   13  C19 UNL     1       6.707   0.665   2.432  1.00  0.00     0.024 C 
HETATM   14  C20 UNL     1       5.272   0.749   1.964  1.00  0.00     0.128 C 
ENDBRANCH   7   9
ENDBRANCH   5   6
ENDBRANCH   3   4
ENDBRANCH   1   3
BRANCH   1  15
HETATM   15  C7  UNL     1      -3.028  -0.596  -1.042  1.00  0.00     0.723 A 
HETATM   16  N2  UNL     1      -3.065  -0.477  -2.390  1.00  0.00    -0.075 NA
HETATM   17  C8  UNL     1      -4.236  -0.242  -3.039  1.00  0.00     0.139 A 
HETATM   18  C9  UNL     1      -5.366  -0.134  -2.237  1.00  0.00     0.053 A 
HETATM   19  C10 UNL     1      -5.348  -0.252  -0.864  1.00  0.00     0.089 A 
HETATM   20  N4  UNL     1      -4.150  -0.484  -0.310  1.00  0.00    -0.062 NA
BRANCH  19  21
HETATM   21  C11 UNL     1      -6.550  -0.135  -0.046  1.00  0.00     0.011 A 
HETATM   22  C12 UNL     1      -7.820   0.101  -0.528  1.00  0.00     0.017 A 
HETATM   23  C13 UNL     1      -8.924   0.203   0.289  1.00  0.00     0.020 A 
HETATM   24  C14 UNL     1      -8.726   0.058   1.644  1.00  0.00     0.116 A 
HETATM   25  N3  UNL     1      -7.498  -0.174   2.157  1.00  0.00    -0.272 NA
HETATM   26  C15 UNL     1      -6.443  -0.266   1.313  1.00  0.00     0.130 A 
ENDBRANCH  19  21
ENDBRANCH   1  15
TORSDOF 6
