REMARK  5 active torsions:
REMARK  status: ('A' for Active; 'I' for Inactive)
REMARK    1  A    between atoms: N1_1  and  C1_2 
REMARK    2  A    between atoms: C4_6  and  N3_7 
REMARK    3  A    between atoms: N3_7  and  C5_8 
REMARK    4  A    between atoms: C5_8  and  C6_9 
REMARK    5  A    between atoms: C12_15  and  C13_16 
ROOT
HETATM    1  C1  UNL     1      -1.280  -1.510  -1.686  1.00  0.00     0.327 C 
HETATM    2  N2  UNL     1      -0.873  -2.742  -1.002  1.00  0.00    -0.370 N 
HETATM    3  C2  UNL     1      -0.500  -2.733   0.384  1.00  0.00     0.083 C 
HETATM    4  C3  UNL     1       0.119  -1.649   0.852  1.00  0.00     0.026 C 
HETATM    5  C4  UNL     1       0.345  -0.577  -0.140  1.00  0.00     0.257 C 
HETATM    6  C12 UNL     1      -0.946  -0.305  -0.851  1.00  0.00     0.105 C 
HETATM    7  H4  UNL     1      -0.861  -3.627  -1.547  1.00  0.00     0.161 HD
ENDROOT
BRANCH   5   8
HETATM    8  N3  UNL     1       1.302  -0.953  -1.148  1.00  0.00     0.096 N 
HETATM    9  H8  UNL     1       1.332  -0.290  -1.941  1.00  0.00     0.317 HD
BRANCH   8  10
HETATM   10  C5  UNL     1       2.617  -1.257  -0.641  1.00  0.00     0.309 C 
BRANCH  10  11
HETATM   11  C6  UNL     1       3.149  -0.045   0.033  1.00  0.00    -0.030 A 
HETATM   12  C7  UNL     1       3.871   0.862  -0.753  1.00  0.00     0.009 A 
HETATM   13  C8  UNL     1       4.441   2.037  -0.305  1.00  0.00     0.001 A 
HETATM   14  C9  UNL     1       4.288   2.347   1.030  1.00  0.00     0.000 A 
HETATM   15  C10 UNL     1       3.582   1.477   1.836  1.00  0.00     0.001 A 
HETATM   16  C11 UNL     1       3.024   0.309   1.360  1.00  0.00     0.009 A 
ENDBRANCH  10  11
ENDBRANCH   8  10
ENDBRANCH   5   8
BRANCH   6  17
HETATM   17  C13 UNL     1      -2.034   0.116   0.052  1.00  0.00    -0.055 C 
HETATM   18  C14 UNL     1      -1.918   0.167   1.327  1.00  0.00     0.004 C 
HETATM   19  C15 UNL     1      -2.470   1.070   2.081  1.00  0.00     0.037 A 
HETATM   20  C16 UNL     1      -3.147   2.065   2.851  1.00  0.00     0.180 A 
HETATM   21  N4  UNL     1      -3.728   1.548   1.633  1.00  0.00    -0.376 N 
HETATM   22  C17 UNL     1      -4.313   1.042   0.426  1.00  0.00     0.127 C 
HETATM   23  C18 UNL     1      -3.331   0.499  -0.554  1.00  0.00     0.055 C 
ENDBRANCH   6  17
BRANCH   1  24
HETATM   24  N1  UNL     1      -0.526  -1.419  -2.932  1.00  0.00     0.102 N 
HETATM   25  H1  UNL     1      -0.679  -0.438  -3.295  1.00  0.00     0.315 HD
HETATM   26  H2  UNL     1      -0.922  -2.110  -3.595  1.00  0.00     0.315 HD
ENDBRANCH   1  24
TORSDOF 5
