REMARK  7 active torsions:
REMARK  status: ('A' for Active; 'I' for Inactive)
REMARK    1  A    between atoms: C2_2  and  C3_3 
REMARK    2  A    between atoms: C4_4  and  N5_21 
REMARK    3  A    between atoms: C5_6  and  N2_7 
REMARK    4  A    between atoms: N2_7  and  C6_8 
REMARK    5  A    between atoms: C9_11  and  N3_12 
REMARK    6  A    between atoms: N5_21  and  N6_22 
REMARK    7  A    between atoms: N5_21  and  O1_23 
ROOT
HETATM    1  C6  UNL     1      -1.275   0.673  -0.521  1.00  0.00     0.030 A 
HETATM    2  C7  UNL     1      -0.502  -0.382  -0.005  1.00  0.00     0.031 A 
HETATM    3  C8  UNL     1       0.801  -0.501   0.316  1.00  0.00     0.030 A 
HETATM    4  C9  UNL     1       1.472   0.706   0.077  1.00  0.00     0.015 A 
HETATM    5  C14 UNL     1       0.797   1.840  -0.431  1.00  0.00     0.030 A 
HETATM    6  C15 UNL     1      -0.512   1.756  -0.703  1.00  0.00     0.031 A 
ENDROOT
BRANCH   1   7
HETATM    7  N2  UNL     1      -2.603   0.965  -0.805  1.00  0.00    -0.345 N 
HETATM    8  H4  UNL     1      -2.901   1.682  -1.571  1.00  0.00     0.162 HD
BRANCH   7   9
HETATM    9  C5  UNL     1      -3.150   0.020   0.230  1.00  0.00     0.397 A 
HETATM   10  N1  UNL     1      -3.962  -0.782   0.716  1.00  0.00     0.398 N 
HETATM   11  C4  UNL     1      -5.140  -0.998  -0.115  1.00  0.00     0.523 A 
HETATM   12  N5  UNL     1      -4.388  -0.201  -0.561  1.00  0.00     0.000 N 
HETATM   13  N6  UNL     1      -4.395  -1.154   0.876  1.00  0.00     0.359 N 
HETATM   14  C3  UNL     1      -6.234  -1.549  -0.393  1.00  0.00     0.013 A 
HETATM   15  O1  UNL     1      -5.692  -0.623  -1.176  1.00  0.00     0.000 OA
HETATM   16  H19 UNL     1      -4.510  -1.894   1.900  1.00  0.00     0.363 HD
BRANCH  14  17
HETATM   17  C2  UNL     1      -7.356  -2.147  -0.629  1.00  0.00     0.046 C 
HETATM   18  C1  UNL     1      -8.419  -2.485  -1.199  1.00  0.00    -0.008 C 
ENDBRANCH  14  17
ENDBRANCH   7   9
ENDBRANCH   1   7
BRANCH   4  19
HETATM   19  N3  UNL     1       2.890   0.724   0.359  1.00  0.00    -0.431 N 
HETATM   20  B1  UNL     1       3.680   2.015   0.045  1.00  0.00     0.290 B 
HETATM   21  C10 UNL     1       5.120   2.063   0.757  1.00  0.00     0.087 C 
HETATM   22  H7  UNL     1       3.293   2.847  -0.720  1.00  0.00     0.001 HD
HETATM   23  N4  UNL     1       5.693   0.766   0.856  1.00  0.00    -0.422 N 
HETATM   24  C11 UNL     1       6.502   0.307  -0.210  1.00  0.00     0.142 C 
HETATM   25  C12 UNL     1       4.861  -0.254   1.438  1.00  0.00     0.133 C 
HETATM   26  C13 UNL     1       3.502  -0.432   0.916  1.00  0.00     0.124 C 
ENDBRANCH   4  19
TORSDOF 7
