REMARK  7 active torsions:
REMARK  status: ('A' for Active; 'I' for Inactive)
REMARK    1  A    between atoms: C2_2  and  C3_3 
REMARK       I    between atoms: C3_3  and  N1_5 
REMARK    2  A    between atoms: N1_5  and  C4_6 
REMARK    3  A    between atoms: C8_10  and  O2_11 
REMARK    4  A    between atoms: O2_11  and  C9_12 
REMARK    5  A    between atoms: C9_12  and  N2_13 
REMARK    6  A    between atoms: C12_16  and  N3_17 
REMARK    7  A    between atoms: N3_17  and  C13_18 
ROOT
HETATM    1  N2  UNL     1      -0.826  -1.445   0.228  1.00  0.00    -0.255 N 
HETATM    2  C10 UNL     1      -1.499  -1.641  -0.920  1.00  0.00     0.118 A 
HETATM    3  C11 UNL     1      -2.608  -0.830  -0.799  1.00  0.00     0.071 A 
HETATM    4  C12 UNL     1      -2.609  -0.153   0.399  1.00  0.00     0.164 A 
HETATM    5  N7  UNL     1      -1.477  -0.582   0.985  1.00  0.00    -0.152 NA
ENDROOT
BRANCH   1   6
HETATM    6  C9  UNL     1       0.431  -2.045   0.660  1.00  0.00     0.325 C 
BRANCH   6   7
HETATM    7  O2  UNL     1       1.491  -1.206   0.215  1.00  0.00    -0.330 OA
BRANCH   7   8
HETATM    8  C8  UNL     1       2.790  -1.559   0.501  1.00  0.00     0.073 A 
HETATM    9  C7  UNL     1       3.188  -2.678   1.198  1.00  0.00     0.037 A 
HETATM   10  C6  UNL     1       4.519  -2.894   1.404  1.00  0.00     0.005 A 
HETATM   11  C5  UNL     1       5.515  -2.051   0.952  1.00  0.00     0.029 A 
HETATM   12  C4  UNL     1       5.108  -0.929   0.253  1.00  0.00     0.037 A 
HETATM   13  C18 UNL     1       3.767  -0.711   0.045  1.00  0.00     0.066 A 
BRANCH  12  14
HETATM   14  N1  UNL     1       6.115  -0.029  -0.232  1.00  0.00    -0.324 N 
HETATM   15  C3  UNL     1       6.460   1.004   0.676  1.00  0.00     0.244 C 
HETATM   16  O1  UNL     1       5.985   1.199   1.824  1.00  0.00    -0.268 OA
HETATM   17  H4  UNL     1       6.569  -0.106  -1.166  1.00  0.00     0.169 HD
BRANCH  15  18
HETATM   18  C2  UNL     1       7.483   1.953   0.236  1.00  0.00     0.064 C 
HETATM   19  C1  UNL     1       8.136   1.973  -0.916  1.00  0.00     0.017 C 
ENDBRANCH  15  18
ENDBRANCH  12  14
ENDBRANCH   7   8
ENDBRANCH   6   7
ENDBRANCH   1   6
BRANCH   4  20
HETATM   20  N3  UNL     1      -3.531   0.777   0.950  1.00  0.00    -0.172 N 
HETATM   21  H12 UNL     1      -3.347   1.179   1.895  1.00  0.00     0.186 HD
BRANCH  20  22
HETATM   22  C13 UNL     1      -4.703   1.180   0.257  1.00  0.00     0.699 C 
HETATM   23  N4  UNL     1      -4.618   1.164  -1.007  1.00  0.00    -0.088 NA
HETATM   24  C14 UNL     1      -5.490   1.470  -2.100  1.00  0.00     0.290 C 
HETATM   25  N5  UNL     1      -6.884   1.278  -1.865  1.00  0.00    -0.373 N 
HETATM   26  C15 UNL     1      -7.494   1.320  -0.600  1.00  0.00     0.032 A 
HETATM   27  H15 UNL     1      -7.478   1.093  -2.703  1.00  0.00     0.161 HD
HETATM   28  C16 UNL     1      -8.279   1.199   0.535  1.00  0.00     0.032 A 
HETATM   29  C17 UNL     1      -7.118   1.994   0.593  1.00  0.00     0.174 A 
HETATM   30  N6  UNL     1      -5.808   1.549   1.035  1.00  0.00    -0.211 N 
HETATM   31  H18 UNL     1      -5.655   1.492   2.085  1.00  0.00     0.178 HD
ENDBRANCH  20  22
ENDBRANCH   4  20
TORSDOF 7
