REMARK  2 active torsions:
REMARK  status: ('A' for Active; 'I' for Inactive)
REMARK       I    between atoms: C1_2  and  N1_3 
REMARK    1  A    between atoms: C1_2  and  C18_24 
REMARK    2  A    between atoms: N1_3  and  C2_4 
ROOT
HETATM    1  C2  UNL     1       1.747   0.975  -0.756  1.00  0.00     0.037 A 
HETATM    2  C3  UNL     1       1.515   2.322  -0.597  1.00  0.00     0.030 A 
HETATM    3  C4  UNL     1       0.221   2.772  -0.745  1.00  0.00     0.016 A 
HETATM    4  C5  UNL     1      -0.864   1.974  -1.040  1.00  0.00    -0.009 A 
HETATM    5  C6  UNL     1      -0.641   0.629  -1.200  1.00  0.00     0.061 A 
HETATM    6  C7  UNL     1       0.649   0.178  -1.054  1.00  0.00     0.060 A 
HETATM    7  N2  UNL     1      -1.535  -0.428  -1.494  1.00  0.00    -0.187 N 
HETATM    8  C8  UNL     1      -2.526  -1.204  -0.838  1.00  0.00     0.727 A 
HETATM    9  N3  UNL     1      -2.382  -2.530  -1.078  1.00  0.00    -0.075 NA
HETATM   10  C9  UNL     1      -3.259  -3.371  -0.510  1.00  0.00     0.138 A 
HETATM   11  C10 UNL     1      -4.292  -2.970   0.299  1.00  0.00     0.048 A 
HETATM   12  C11 UNL     1      -4.378  -1.620   0.500  1.00  0.00     0.059 A 
HETATM   13  N4  UNL     1      -3.524  -0.784  -0.052  1.00  0.00    -0.067 NA
HETATM   14  C12 UNL     1      -5.396  -0.927   1.328  1.00  0.00     0.106 C 
HETATM   15  C13 UNL     1      -4.878  -0.402   2.594  1.00  0.00     0.089 C 
HETATM   16  N5  UNL     1      -4.386   0.781   2.771  1.00  0.00    -0.304 NA
HETATM   17  C14 UNL     1      -4.318   1.704   1.656  1.00  0.00     0.095 C 
HETATM   18  C15 UNL     1      -4.140   2.493   0.618  1.00  0.00     0.098 C 
HETATM   19  C16 UNL     1      -3.193   2.834  -0.430  1.00  0.00    -0.018 C 
HETATM   20  C17 UNL     1      -2.075   2.767  -1.123  1.00  0.00     0.010 C 
HETATM   21  H5  UNL     1      -1.334  -0.641  -2.496  1.00  0.00     0.184 HD
ENDROOT
BRANCH   1  22
HETATM   22  N1  UNL     1       3.066   0.464  -0.614  1.00  0.00    -0.323 N 
HETATM   23  C1  UNL     1       3.684  -0.001   0.559  1.00  0.00     0.256 C 
HETATM   24  O1  UNL     1       2.926   0.068   1.580  1.00  0.00    -0.267 OA
HETATM   25  H1  UNL     1       3.557   0.471  -1.531  1.00  0.00     0.169 HD
BRANCH  23  26
HETATM   26  C18 UNL     1       5.052  -0.504   0.571  1.00  0.00     0.032 A 
HETATM   27  C19 UNL     1       5.876  -0.584  -0.532  1.00  0.00     0.017 A 
HETATM   28  C20 UNL     1       7.157  -1.071  -0.434  1.00  0.00     0.001 A 
HETATM   29  C21 UNL     1       7.634  -1.491   0.802  1.00  0.00     0.000 A 
HETATM   30  C22 UNL     1       6.801  -1.403   1.885  1.00  0.00     0.001 A 
HETATM   31  C23 UNL     1       5.519  -0.921   1.810  1.00  0.00     0.017 A 
ENDBRANCH  23  26
ENDBRANCH   1  22
TORSDOF 2
