REMARK  2 active torsions:
REMARK  status: ('A' for Active; 'I' for Inactive)
REMARK    1  A    between atoms: C5_5  and  O1_6 
REMARK    2  A    between atoms: N1_8  and  C7_9 
ROOT
HETATM    1  C7  UNL     1      -1.435  -0.412  -0.812  1.00  0.00     0.068 C 
HETATM    2  C8  UNL     1      -1.628  -1.697  -1.192  1.00  0.00     0.034 C 
HETATM    3  C9  UNL     1      -0.607  -2.811  -1.183  1.00  0.00     0.029 C 
HETATM    4  C10 UNL     1       0.702  -2.445  -1.173  1.00  0.00     0.027 C 
HETATM    5  C11 UNL     1       1.497  -3.143  -0.020  1.00  0.00     0.178 C 
HETATM    6  N2  UNL     1       2.316  -2.090   0.143  1.00  0.00    -0.367 N 
HETATM    7  C12 UNL     1       1.984  -0.743   0.669  1.00  0.00     0.153 C 
HETATM    8  N3  UNL     1       1.976  -1.103   1.963  1.00  0.00    -0.242 NA
HETATM    9  C13 UNL     1       2.723  -0.188   2.886  1.00  0.00     0.115 C 
HETATM   10  C14 UNL     1       3.302   1.039   2.568  1.00  0.00    -0.003 C 
HETATM   11  C15 UNL     1       3.611   1.624   1.176  1.00  0.00     0.069 C 
HETATM   12  C16 UNL     1       3.036   0.777   0.117  1.00  0.00    -0.020 A 
HETATM   13  C17 UNL     1       2.572  -0.055  -0.934  1.00  0.00     0.041 A 
HETATM   14  C18 UNL     1       1.178  -0.317  -1.096  1.00  0.00     0.064 A 
HETATM   15  C19 UNL     1      -0.095   0.025  -0.482  1.00  0.00     0.111 A 
HETATM   16  N4  UNL     1       0.296   0.866   0.572  1.00  0.00    -0.240 NA
HETATM   17  C20 UNL     1       1.676   0.850   0.380  1.00  0.00     0.110 A 
HETATM   18  N5  UNL     1       1.256  -1.402  -2.117  1.00  0.00    -0.356 N 
HETATM   19  H13 UNL     1       3.315  -2.218  -0.123  1.00  0.00     0.161 HD
HETATM   20  H19 UNL     1       1.534  -1.559  -3.084  1.00  0.00     0.166 HD
ENDROOT
BRANCH   1  21
HETATM   21  N1  UNL     1      -2.223   0.702  -0.595  1.00  0.00    -0.315 N 
HETATM   22  C2  UNL     1      -2.444   1.768  -1.468  1.00  0.00     0.028 A 
HETATM   23  C1  UNL     1      -1.995   2.014  -2.644  1.00  0.00     0.043 C 
HETATM   24  C3  UNL     1      -3.357   2.707  -0.847  1.00  0.00     0.029 A 
HETATM   25  C4  UNL     1      -3.693   2.277   0.334  1.00  0.00     0.029 A 
HETATM   26  C5  UNL     1      -3.015   1.008   0.579  1.00  0.00     0.252 A 
BRANCH  26  27
HETATM   27  O1  UNL     1      -2.256   1.119   1.743  1.00  0.00    -0.368 OA
HETATM   28  C6  UNL     1      -2.814   0.197   2.653  1.00  0.00     0.204 C 
ENDBRANCH  26  27
ENDBRANCH   1  21
TORSDOF 2
