REMARK  3 active torsions:
REMARK  status: ('A' for Active; 'I' for Inactive)
REMARK    1  A    between atoms: C9_11  and  N2_12 
REMARK    2  A    between atoms: N2_12  and  P1_13 
REMARK    3  A    between atoms: P1_13  and  C10_14 
ROOT
HETATM    1  F1  UNL     1      -6.962  -0.149  -0.851  1.00  0.00    -0.206 F 
HETATM    2  C1  UNL     1      -5.718   0.220  -0.450  1.00  0.00     0.117 A 
HETATM    3  C2  UNL     1      -5.567   1.211   0.497  1.00  0.00     0.045 A 
HETATM    4  C3  UNL     1      -4.290   1.571   0.892  1.00  0.00     0.041 A 
HETATM    5  C4  UNL     1      -3.185   0.936   0.334  1.00  0.00     0.086 A 
HETATM    6  C5  UNL     1      -3.305  -0.051  -0.608  1.00  0.00    -0.004 A 
HETATM    7  C6  UNL     1      -4.588  -0.396  -0.988  1.00  0.00     0.054 A 
HETATM    8  C7  UNL     1      -2.361  -0.883  -1.360  1.00  0.00     0.161 C 
HETATM    9  N1  UNL     1      -1.100  -1.107  -0.717  1.00  0.00    -0.379 N 
HETATM   10  C8  UNL     1      -0.454  -0.472   0.361  1.00  0.00     0.130 A 
HETATM   11  C9  UNL     1       0.722  -1.079   0.753  1.00  0.00     0.181 A 
HETATM   12  N3  UNL     1       1.516  -0.650   1.765  1.00  0.00    -0.220 NA
HETATM   13  C16 UNL     1       1.087   0.467   2.419  1.00  0.00     0.238 A 
HETATM   14  N4  UNL     1      -0.060   1.111   2.083  1.00  0.00    -0.215 NA
HETATM   15  C17 UNL     1      -0.834   0.652   1.060  1.00  0.00     0.202 A 
HETATM   16  O1  UNL     1      -1.969   1.417   0.841  1.00  0.00    -0.289 OA
HETATM   17  H6  UNL     1      -0.557  -1.896  -1.131  1.00  0.00     0.160 HD
ENDROOT
BRANCH  11  18
HETATM   18  N2  UNL     1       1.139  -2.248   0.043  1.00  0.00    -0.228 NA
BRANCH  18  19
HETATM   19  P1  UNL     1       2.651  -2.389  -0.565  1.00  0.00     0.101 P 
BRANCH  19  20
HETATM   20  C10 UNL     1       3.771  -0.953  -0.277  1.00  0.00    -0.003 A 
HETATM   21  C11 UNL     1       4.823  -1.166   0.586  1.00  0.00     0.014 A 
HETATM   22  C12 UNL     1       5.687  -0.130   0.836  1.00  0.00     0.001 A 
HETATM   23  C13 UNL     1       5.483   1.099   0.217  1.00  0.00     0.000 A 
HETATM   24  C14 UNL     1       4.417   1.278  -0.643  1.00  0.00     0.001 A 
HETATM   25  C15 UNL     1       3.556   0.249  -0.893  1.00  0.00     0.014 A 
ENDBRANCH  19  20
ENDBRANCH  18  19
ENDBRANCH  11  18
TORSDOF 3
