REMARK  7 active torsions:
REMARK  status: ('A' for Active; 'I' for Inactive)
REMARK    1  A    between atoms: C2_2  and  C3_3 
REMARK       I    between atoms: C3_3  and  N1_5 
REMARK    2  A    between atoms: C5_7  and  C6_8 
REMARK    3  A    between atoms: C6_8  and  O2_9 
REMARK    4  A    between atoms: O2_9  and  C7_10 
REMARK    5  A    between atoms: C8_12  and  N3_13 
REMARK    6  A    between atoms: N3_13  and  C9_14 
REMARK    7  A    between atoms: C16_26  and  C17_27 
ROOT
HETATM    1  C7  UNL     1       0.909  -0.992  -0.897  1.00  0.00     0.174 A 
HETATM    2  N2  UNL     1       1.617  -0.157  -0.260  1.00  0.00    -0.041 NA
HETATM    3  C8  UNL     1       3.007  -0.316  -0.000  1.00  0.00     0.730 A 
HETATM    4  N6  UNL     1       3.763  -1.289  -0.347  1.00  0.00    -0.053 NA
HETATM    5  P1  UNL     1       3.087  -2.657  -1.270  1.00  0.00     0.147 P 
HETATM    6  N7  UNL     1       2.778  -4.000  -0.103  1.00  0.00    -0.356 N 
HETATM    7  C13 UNL     1       1.381  -4.272  -0.164  1.00  0.00     0.086 C 
HETATM    8  C14 UNL     1       0.653  -3.440  -0.844  1.00  0.00     0.011 C 
HETATM    9  C15 UNL     1       1.278  -2.274  -1.511  1.00  0.00     0.159 A 
HETATM   10  H15 UNL     1       3.479  -4.469   0.486  1.00  0.00     0.165 HD
ENDROOT
BRANCH   1  11
HETATM   11  O2  UNL     1      -0.424  -0.667  -1.051  1.00  0.00    -0.336 OA
BRANCH  11  12
HETATM   12  C6  UNL     1      -1.019   0.477  -0.468  1.00  0.00     0.184 C 
BRANCH  12  13
HETATM   13  C5  UNL     1      -2.472   0.445  -0.892  1.00  0.00     0.042 C 
HETATM   14  C4  UNL     1      -3.272   1.609  -0.354  1.00  0.00     0.133 C 
HETATM   15  N1  UNL     1      -4.387   0.997   0.334  1.00  0.00    -0.348 N 
HETATM   16  C3  UNL     1      -5.614   1.631   0.662  1.00  0.00     0.242 C 
HETATM   17  C18 UNL     1      -4.066  -0.367   0.643  1.00  0.00     0.140 C 
HETATM   18  O1  UNL     1      -5.914   2.822   0.401  1.00  0.00    -0.268 OA
HETATM   19  C16 UNL     1      -3.121  -0.815  -0.423  1.00  0.00     0.119 C 
BRANCH  16  20
HETATM   20  C2  UNL     1      -6.687   0.938   1.360  1.00  0.00     0.064 C 
HETATM   21  C1  UNL     1      -7.660   1.826   1.493  1.00  0.00     0.017 C 
ENDBRANCH  16  20
BRANCH  19  22
HETATM   22  C17 UNL     1      -3.839  -1.533  -1.546  1.00  0.00     0.393 C 
HETATM   23  F1  UNL     1      -4.823  -0.737  -2.083  1.00  0.00    -0.171 F 
HETATM   24  F2  UNL     1      -2.910  -1.962  -2.471  1.00  0.00    -0.171 F 
HETATM   25  F3  UNL     1      -4.452  -2.657  -1.008  1.00  0.00    -0.171 F 
ENDBRANCH  19  22
ENDBRANCH  12  13
ENDBRANCH  11  12
ENDBRANCH   1  11
BRANCH   3  26
HETATM   26  N3  UNL     1       3.668   0.734   0.744  1.00  0.00    -0.185 N 
HETATM   27  H9  UNL     1       3.150   1.242   1.510  1.00  0.00     0.184 HD
BRANCH  26  28
HETATM   28  C9  UNL     1       5.005   1.112   0.475  1.00  0.00     0.085 A 
HETATM   29  C10 UNL     1       5.861   0.602  -0.476  1.00  0.00     0.170 A 
HETATM   30  N4  UNL     1       7.033   1.250  -0.383  1.00  0.00    -0.183 NA
HETATM   31  N5  UNL     1       6.976   2.151   0.581  1.00  0.00    -0.283 N 
HETATM   32  C11 UNL     1       8.113   3.000   0.901  1.00  0.00     0.179 C 
HETATM   33  C12 UNL     1       5.740   2.068   1.105  1.00  0.00     0.143 A 
ENDBRANCH  26  28
ENDBRANCH   3  26
TORSDOF 7
