REMARK  4 active torsions:
REMARK  status: ('A' for Active; 'I' for Inactive)
REMARK    1  A    between atoms: C2_2  and  C3_3 
REMARK       I    between atoms: C3_3  and  N1_5 
REMARK    2  A    between atoms: N1_5  and  C4_6 
REMARK    3  A    between atoms: C8_10  and  O2_11 
REMARK    4  A    between atoms: O2_11  and  C9_12 
ROOT
HETATM    1  C9  UNL     1      -1.117  -0.573   0.026  1.00  0.00     0.205 C 
HETATM    2  N2  UNL     1      -1.143   0.539  -0.688  1.00  0.00    -0.129 NA
HETATM    3  N3  UNL     1      -1.622   1.696  -0.305  1.00  0.00    -0.191 N 
HETATM    4  C10 UNL     1      -0.985   2.890  -0.864  1.00  0.00     0.205 C 
HETATM    5  N4  UNL     1      -2.607   2.090   0.518  1.00  0.00    -0.166 NA
HETATM    6  C11 UNL     1      -3.851   1.787   0.047  1.00  0.00     0.159 C 
HETATM    7  C12 UNL     1      -4.071   0.657  -0.747  1.00  0.00     0.140 C 
HETATM    8  N5  UNL     1      -4.004  -0.233   0.258  1.00  0.00    -0.241 NA
HETATM    9  C13 UNL     1      -3.354  -1.382   0.077  1.00  0.00     0.143 A 
HETATM   10  C14 UNL     1      -2.001  -1.626  -0.043  1.00  0.00     0.066 A 
HETATM   11  C15 UNL     1      -1.895  -2.991  -0.214  1.00  0.00     0.037 A 
HETATM   12  C16 UNL     1      -3.163  -3.584  -0.202  1.00  0.00     0.093 A 
HETATM   13  N6  UNL     1      -4.014  -2.547  -0.020  1.00  0.00    -0.345 N 
HETATM   14  C17 UNL     1      -5.439  -2.907   0.031  1.00  0.00     0.157 C 
ENDROOT
BRANCH   1  15
HETATM   15  O2  UNL     1      -0.154  -0.843   0.982  1.00  0.00    -0.290 OA
BRANCH  15  16
HETATM   16  C8  UNL     1       0.889  -0.032   1.331  1.00  0.00     0.080 A 
HETATM   17  C7  UNL     1       0.852   0.928   2.320  1.00  0.00     0.037 A 
HETATM   18  C6  UNL     1       1.955   1.702   2.605  1.00  0.00     0.005 A 
HETATM   19  C5  UNL     1       3.108   1.504   1.884  1.00  0.00     0.029 A 
HETATM   20  C4  UNL     1       3.178   0.550   0.887  1.00  0.00     0.037 A 
HETATM   21  C18 UNL     1       2.056  -0.215   0.620  1.00  0.00     0.066 A 
BRANCH  20  22
HETATM   22  N1  UNL     1       4.383   0.373   0.163  1.00  0.00    -0.324 N 
HETATM   23  C3  UNL     1       4.940   0.924  -1.021  1.00  0.00     0.244 C 
HETATM   24  O1  UNL     1       4.132   1.770  -1.513  1.00  0.00    -0.268 OA
HETATM   25  H4  UNL     1       4.816  -0.343   0.780  1.00  0.00     0.169 HD
BRANCH  23  26
HETATM   26  C2  UNL     1       6.244   0.462  -1.441  1.00  0.00     0.064 C 
HETATM   27  C1  UNL     1       7.004  -0.438  -0.838  1.00  0.00     0.017 C 
ENDBRANCH  23  26
ENDBRANCH  20  22
ENDBRANCH  15  16
ENDBRANCH   1  15
TORSDOF 4
