REMARK  5 active torsions:
REMARK  status: ('A' for Active; 'I' for Inactive)
REMARK    1  A    between atoms: P1_2  and  C2_3 
REMARK    2  A    between atoms: C2_3  and  C3_4 
REMARK    3  A    between atoms: C2_3  and  N1_6 
REMARK    4  A    between atoms: C9_14  and  N3_15 
REMARK    5  A    between atoms: N3_15  and  C10_16 
ROOT
HETATM    1  N1  UNL     1      -2.249  -0.906  -0.931  1.00  0.00    -0.264 N 
HETATM    2  C4  UNL     1      -2.430   0.508  -0.778  1.00  0.00     0.158 C 
HETATM    3  C5  UNL     1      -2.611   0.979   0.590  1.00  0.00     0.026 C 
HETATM    4  C6  UNL     1      -3.048   2.494   0.544  1.00  0.00     0.014 C 
HETATM    5  C7  UNL     1      -1.546   0.965   1.602  1.00  0.00     0.183 C 
HETATM    6  O2  UNL     1      -0.881  -0.203   1.912  1.00  0.00    -0.333 OA
HETATM    7  C8  UNL     1      -0.094  -0.911   1.017  1.00  0.00     0.197 A 
HETATM    8  N2  UNL     1       0.976  -0.120   0.883  1.00  0.00    -0.037 NA
HETATM    9  C9  UNL     1       2.056  -0.366   0.105  1.00  0.00     0.729 A 
HETATM   10  N6  UNL     1       2.076  -1.525  -0.616  1.00  0.00    -0.074 NA
HETATM   11  C14 UNL     1       0.947  -2.303  -0.439  1.00  0.00     0.154 A 
HETATM   12  C15 UNL     1      -0.199  -2.066   0.367  1.00  0.00     0.060 A 
HETATM   13  C16 UNL     1      -0.990  -3.285   0.052  1.00  0.00     0.083 C 
HETATM   14 CL1  UNL     1      -0.408  -4.170   1.429  1.00  0.00    -0.081 Cl
HETATM   15  C17 UNL     1      -1.652  -3.015  -1.071  1.00  0.00     0.132 C 
HETATM   16  N7  UNL     1      -1.349  -1.813  -1.511  1.00  0.00    -0.168 NA
ENDROOT
BRANCH   9  17
HETATM   17  N3  UNL     1       3.219   0.413  -0.096  1.00  0.00    -0.185 N 
HETATM   18  H13 UNL     1       2.747   1.209  -0.565  1.00  0.00     0.184 HD
BRANCH  17  19
HETATM   19  C10 UNL     1       4.577   0.254   0.196  1.00  0.00     0.085 A 
HETATM   20  C11 UNL     1       5.307  -0.787   0.660  1.00  0.00     0.170 A 
HETATM   21  N4  UNL     1       6.586  -0.387   0.771  1.00  0.00    -0.183 NA
HETATM   22  N5  UNL     1       6.661   0.887   0.384  1.00  0.00    -0.283 N 
HETATM   23  C12 UNL     1       7.843   1.740   0.337  1.00  0.00     0.179 C 
HETATM   24  C13 UNL     1       5.419   1.316   0.018  1.00  0.00     0.143 A 
ENDBRANCH  17  19
ENDBRANCH   9  17
BRANCH   1  25
HETATM   25  C2  UNL     1      -3.526  -1.399  -0.378  1.00  0.00     0.107 C 
BRANCH  25  26
HETATM   26  P1  UNL     1      -4.937  -1.072  -1.502  1.00  0.00    -0.074 P 
HETATM   27  C1  UNL     1      -6.041   0.265  -0.904  1.00  0.00     0.047 C 
HETATM   28  H4  UNL     1      -4.528  -0.850  -2.864  1.00  0.00     0.064 HD
ENDBRANCH  25  26
BRANCH  25  29
HETATM   29  C3  UNL     1      -3.912  -2.009   0.710  1.00  0.00     0.252 C 
HETATM   30  O1  UNL     1      -3.780  -2.473   1.846  1.00  0.00    -0.281 OA
ENDBRANCH  25  29
ENDBRANCH   1  25
TORSDOF 5
