REMARK  1 active torsions:
REMARK  status: ('A' for Active; 'I' for Inactive)
REMARK    1  A    between atoms: O1_1  and  C1_2 
ROOT
HETATM    1  C1  UNL     1      -0.774  -2.225  -0.147  1.00  0.00     0.126 C 
HETATM    2  C2  UNL     1      -2.052  -2.502   0.011  1.00  0.00     0.262 C 
HETATM    3  N1  UNL     1      -3.299  -1.877  -0.185  1.00  0.00    -0.410 N 
HETATM    4  C3  UNL     1      -4.216  -0.726  -0.111  1.00  0.00     0.121 C 
HETATM    5  C4  UNL     1      -3.823   0.368  -1.045  1.00  0.00     0.086 C 
HETATM    6  C5  UNL     1      -2.475   0.862  -0.709  1.00  0.00     0.092 A 
HETATM    7  F1  UNL     1      -1.192   1.080  -0.452  1.00  0.00    -0.338 F 
HETATM    8  C6  UNL     1      -2.391   2.168  -0.368  1.00  0.00     0.336 A 
HETATM    9  O2  UNL     1      -2.009   3.477   0.021  1.00  0.00    -0.306 OA
HETATM   10  C7  UNL     1      -0.625   3.722   0.090  1.00  0.00     0.256 C 
HETATM   11  N2  UNL     1       0.668   3.745   0.243  1.00  0.00    -0.230 NA
HETATM   12  C8  UNL     1       1.318   2.612   0.804  1.00  0.00     0.235 C 
HETATM   13  N3  UNL     1       1.752   1.639   1.569  1.00  0.00    -0.242 NA
HETATM   14  C9  UNL     1       2.709   0.692   1.106  1.00  0.00     0.066 A 
HETATM   15  C10 UNL     1       4.029   1.059   0.966  1.00  0.00     0.032 A 
HETATM   16  C11 UNL     1       5.036   0.205   0.519  1.00  0.00     0.002 A 
HETATM   17  C12 UNL     1       4.650  -1.084   0.205  1.00  0.00     0.001 A 
HETATM   18  C13 UNL     1       3.334  -1.469   0.339  1.00  0.00     0.011 A 
HETATM   19  C14 UNL     1       2.367  -0.603   0.782  1.00  0.00    -0.012 A 
HETATM   20  C15 UNL     1       0.991  -1.153   0.879  1.00  0.00     0.157 C 
HETATM   21  N4  UNL     1       0.569  -1.737  -0.389  1.00  0.00    -0.391 N 
HETATM   22  H3  UNL     1      -3.710  -2.785  -0.586  1.00  0.00     0.153 HD
HETATM   23  H17 UNL     1       0.848  -1.932  -1.371  1.00  0.00     0.156 HD
ENDROOT
BRANCH   1  24
HETATM   24  O1  UNL     1      -0.494  -3.517   0.345  1.00  0.00    -0.374 OA
HETATM   25  H1  UNL     1      -0.201  -4.227  -0.313  1.00  0.00     0.212 HD
ENDBRANCH   1  24
TORSDOF 1
