REMARK  7 active torsions:
REMARK  status: ('A' for Active; 'I' for Inactive)
REMARK    1  A    between atoms: C3_3  and  N1_5 
REMARK    2  A    between atoms: C7_10  and  N3_11 
REMARK    3  A    between atoms: N3_11  and  C8_12 
REMARK    4  A    between atoms: C9_14  and  C10_15 
REMARK    5  A    between atoms: C11_16  and  N5_17 
REMARK    6  A    between atoms: C13_19  and  N6_20 
REMARK    7  A    between atoms: C17_26  and  C18_27 
ROOT
HETATM    1  N1  UNL     1       3.339  -0.428  -0.160  1.00  0.00    -0.373 N 
HETATM    2  C4  UNL     1       3.413  -0.621  -1.624  1.00  0.00     0.145 C 
HETATM    3  C5  UNL     1       2.254  -0.260  -2.448  1.00  0.00     0.170 C 
HETATM    4  N2  UNL     1       1.075   0.253  -1.907  1.00  0.00    -0.277 N 
HETATM    5  C6  UNL     1      -0.137   0.679  -1.673  1.00  0.00     0.143 A 
HETATM    6  C7  UNL     1      -0.352   1.106  -0.426  1.00  0.00     0.075 A 
HETATM    7  C15 UNL     1       0.858   0.911   0.130  1.00  0.00     0.084 A 
HETATM    8  N7  UNL     1       1.606   0.425  -0.788  1.00  0.00    -0.175 NA
HETATM    9  C16 UNL     1       1.785   0.941   1.259  1.00  0.00     0.091 C 
HETATM   10  C17 UNL     1       2.750  -0.259   1.162  1.00  0.00     0.118 C 
ENDROOT
BRANCH   6  11
HETATM   11  N3  UNL     1      -1.210   1.620   0.478  1.00  0.00    -0.343 N 
HETATM   12  H9  UNL     1      -1.257   1.918   1.444  1.00  0.00     0.164 HD
BRANCH  11  13
HETATM   13  C8  UNL     1      -2.454   1.772  -0.235  1.00  0.00     0.363 A 
HETATM   14  N4  UNL     1      -2.986   0.554  -0.789  1.00  0.00    -0.213 NA
HETATM   15  C9  UNL     1      -4.012   0.504  -0.019  1.00  0.00     0.182 A 
HETATM   16  O2  UNL     1      -3.602   1.668   0.587  1.00  0.00    -0.288 OA
BRANCH  15  17
HETATM   17  C10 UNL     1      -5.142  -0.416   0.137  1.00  0.00     0.072 A 
HETATM   18  C11 UNL     1      -5.532  -1.536  -0.451  1.00  0.00     0.045 A 
HETATM   19  C12 UNL     1      -6.702  -1.590   0.429  1.00  0.00     0.062 A 
HETATM   20  C13 UNL     1      -6.307  -0.472   1.010  1.00  0.00     0.074 A 
BRANCH  18  21
HETATM   21  N5  UNL     1      -5.100  -2.413  -1.491  1.00  0.00    -0.398 N 
HETATM   22  H11 UNL     1      -4.746  -3.400  -1.318  1.00  0.00     0.156 HD
HETATM   23  H12 UNL     1      -5.115  -2.104  -2.505  1.00  0.00     0.156 HD
ENDBRANCH  18  21
BRANCH  20  24
HETATM   24  N6  UNL     1      -6.743   0.414   2.062  1.00  0.00    -0.271 NA
HETATM   25  C14 UNL     1      -7.575   1.382   1.782  1.00  0.00     0.149 C 
ENDBRANCH  20  24
ENDBRANCH  15  17
ENDBRANCH  11  13
ENDBRANCH   6  11
BRANCH  10  26
HETATM   26  C18 UNL     1       3.643  -0.274   2.315  1.00  0.00     0.247 C 
HETATM   27  F1  UNL     1       4.356  -1.466   2.460  1.00  0.00    -0.253 F 
ENDBRANCH  10  26
BRANCH   1  28
HETATM   28  C3  UNL     1       4.762  -0.382   0.180  1.00  0.00     0.035 A 
HETATM   29  C2  UNL     1       5.931  -0.504  -0.725  1.00  0.00     0.047 A 
HETATM   30  C1  UNL     1       6.741  -0.363   0.320  1.00  0.00     0.012 A 
HETATM   31  O1  UNL     1       5.874  -0.305   0.756  1.00  0.00     0.000 OA
ENDBRANCH   1  28
TORSDOF 7
