REMARK  6 active torsions:
REMARK  status: ('A' for Active; 'I' for Inactive)
REMARK    1  A    between atoms: C2_2  and  C3_3 
REMARK       I    between atoms: C3_3  and  N1_5 
REMARK    2  A    between atoms: C5_7  and  C6_8 
REMARK    3  A    between atoms: C6_8  and  O2_9 
REMARK    4  A    between atoms: O2_9  and  C7_10 
REMARK    5  A    between atoms: N3_13  and  C9_14 
REMARK    6  A    between atoms: C13_20  and  C14_21 
ROOT
HETATM    1  C3  UNL     1      -4.152  -0.023  -1.806  1.00  0.00     0.242 C 
HETATM    2  O1  UNL     1      -3.268   0.202  -2.669  1.00  0.00    -0.268 OA
HETATM    3  N1  UNL     1      -3.570   0.164  -0.537  1.00  0.00    -0.348 N 
HETATM    4  C4  UNL     1      -2.152   0.554  -0.566  1.00  0.00     0.133 C 
HETATM    5  C5  UNL     1      -1.691   0.441   0.844  1.00  0.00     0.042 C 
HETATM    6  C13 UNL     1      -2.663  -0.496   1.460  1.00  0.00     0.119 C 
HETATM    7  C15 UNL     1      -3.968   0.082   0.877  1.00  0.00     0.140 C 
ENDROOT
BRANCH   5   8
HETATM    8  C6  UNL     1      -0.262   0.102   1.028  1.00  0.00     0.185 C 
BRANCH   8   9
HETATM    9  O2  UNL     1       0.632   1.009   0.482  1.00  0.00    -0.320 OA
BRANCH   9  10
HETATM   10  C7  UNL     1       1.959   1.100   0.443  1.00  0.00     0.247 A 
HETATM   11  N2  UNL     1       1.863   2.049   1.315  1.00  0.00    -0.230 NA
HETATM   12  C8  UNL     1       3.285   2.258   1.376  1.00  0.00     0.287 A 
HETATM   13  N3  UNL     1       3.365   1.202   0.406  1.00  0.00    -0.290 N 
BRANCH  13  14
HETATM   14  C9  UNL     1       4.037   0.308  -0.478  1.00  0.00     0.075 A 
HETATM   15  C10 UNL     1       3.841  -0.744  -1.385  1.00  0.00     0.170 A 
HETATM   16  N4  UNL     1       5.053  -1.082  -1.857  1.00  0.00    -0.183 NA
HETATM   17  N5  UNL     1       5.959  -0.304  -1.293  1.00  0.00    -0.283 N 
HETATM   18  C11 UNL     1       7.306  -0.589  -1.740  1.00  0.00     0.179 C 
HETATM   19  C12 UNL     1       5.403   0.578  -0.431  1.00  0.00     0.143 A 
ENDBRANCH  13  14
ENDBRANCH   9  10
ENDBRANCH   8   9
ENDBRANCH   5   8
BRANCH   6  20
HETATM   20  C14 UNL     1      -2.627  -1.911   1.002  1.00  0.00     0.393 C 
HETATM   21  F1  UNL     1      -3.636  -2.563   1.733  1.00  0.00    -0.171 F 
HETATM   22  F2  UNL     1      -3.002  -2.035  -0.315  1.00  0.00    -0.171 F 
HETATM   23  F3  UNL     1      -1.482  -2.604   1.317  1.00  0.00    -0.171 F 
ENDBRANCH   6  20
BRANCH   1  24
HETATM   24  C2  UNL     1      -5.521  -0.406  -2.116  1.00  0.00     0.064 C 
HETATM   25  C1  UNL     1      -6.553  -0.672  -1.342  1.00  0.00     0.017 C 
ENDBRANCH   1  24
TORSDOF 6
