REMARK  7 active torsions:
REMARK  status: ('A' for Active; 'I' for Inactive)
REMARK    1  A    between atoms: O1_2  and  C2_3 
REMARK    2  A    between atoms: C2_3  and  N1_5 
REMARK    3  A    between atoms: C6_8  and  N2_9 
REMARK    4  A    between atoms: C6_8  and  C17_26 
REMARK    5  A    between atoms: N2_9  and  C7_10 
REMARK    6  A    between atoms: C9_13  and  N4_14 
REMARK    7  A    between atoms: N4_14  and  C10_15 
ROOT
HETATM    1  C7  UNL     1       0.119  -1.504   1.288  1.00  0.00     0.122 C 
HETATM    2  C8  UNL     1       1.471  -0.801   1.500  1.00  0.00     0.134 C 
HETATM    3  N3  UNL     1       1.743  -0.617   0.267  1.00  0.00    -0.076 NA
HETATM    4  C9  UNL     1       2.900   0.002  -0.189  1.00  0.00     0.738 C 
HETATM    5  N7  UNL     1       3.404  -1.159  -0.584  1.00  0.00    -0.005 NA
HETATM    6  N8  UNL     1       2.615  -2.287  -0.371  1.00  0.00    -0.178 NA
HETATM    7  C14 UNL     1       2.624  -3.400   0.533  1.00  0.00     0.078 C 
HETATM    8  C15 UNL     1       1.342  -3.539   0.871  1.00  0.00    -0.011 C 
HETATM    9  C16 UNL     1       0.351  -2.575   0.243  1.00  0.00     0.058 C 
HETATM   10  H21 UNL     1       3.471  -2.196   0.263  1.00  0.00     0.154 HD
ENDROOT
BRANCH   1  11
HETATM   11  N2  UNL     1      -0.773  -0.481   0.974  1.00  0.00    -0.395 N 
HETATM   12  H12 UNL     1      -0.573   0.480   1.252  1.00  0.00     0.155 HD
BRANCH  11  13
HETATM   13  C6  UNL     1      -2.146  -0.719   0.804  1.00  0.00     0.153 C 
HETATM   14  C5  UNL     1      -2.505  -1.529  -0.389  1.00  0.00     0.072 C 
HETATM   15  C4  UNL     1      -3.709  -0.815  -0.974  1.00  0.00     0.278 C 
HETATM   16  N1  UNL     1      -4.020   0.266  -0.092  1.00  0.00     0.119 N 
HETATM   17  C18 UNL     1      -2.815   0.626   0.582  1.00  0.00     0.315 C 
BRANCH  16  18
HETATM   18  C2  UNL     1      -4.743   1.349  -0.682  1.00  0.00     0.354 C 
HETATM   19  C3  UNL     1      -4.967   2.378   0.403  1.00  0.00     0.073 C 
BRANCH  18  20
HETATM   20  O1  UNL     1      -5.942   0.860  -1.190  1.00  0.00    -0.362 OA
HETATM   21  C1  UNL     1      -6.152   1.125  -2.521  1.00  0.00     0.204 C 
ENDBRANCH  18  20
ENDBRANCH  16  18
BRANCH  13  22
HETATM   22  C17 UNL     1      -2.810  -1.270   2.072  1.00  0.00     0.414 C 
HETATM   23  F1  UNL     1      -4.173  -1.208   1.834  1.00  0.00    -0.168 F 
HETATM   24  F2  UNL     1      -2.471  -2.568   2.322  1.00  0.00    -0.168 F 
HETATM   25  F3  UNL     1      -2.484  -0.407   3.093  1.00  0.00    -0.168 F 
ENDBRANCH  13  22
ENDBRANCH  11  13
ENDBRANCH   1  11
BRANCH   4  26
HETATM   26  N4  UNL     1       3.557   1.243  -0.324  1.00  0.00    -0.184 N 
HETATM   27  H15 UNL     1       2.791   1.928  -0.205  1.00  0.00     0.184 HD
BRANCH  26  28
HETATM   28  C10 UNL     1       4.945   1.285  -0.561  1.00  0.00     0.085 A 
HETATM   29  C11 UNL     1       5.862   0.280  -0.661  1.00  0.00     0.170 A 
HETATM   30  N5  UNL     1       7.023   0.896  -0.893  1.00  0.00    -0.183 NA
HETATM   31  N6  UNL     1       6.883   2.216  -0.944  1.00  0.00    -0.283 N 
HETATM   32  C12 UNL     1       7.920   3.223  -1.177  1.00  0.00     0.179 C 
HETATM   33  C13 UNL     1       5.578   2.491  -0.737  1.00  0.00     0.143 A 
ENDBRANCH  26  28
ENDBRANCH   4  26
TORSDOF 7
