REMARK  10 active torsions:
REMARK  status: ('A' for Active; 'I' for Inactive)
REMARK    1  A    between atoms: N1_1  and  C1_2 
REMARK    2  A    between atoms: C1_2  and  C2_3 
REMARK    3  A    between atoms: C3_4  and  C16_26 
REMARK    4  A    between atoms: C5_6  and  C6_7 
REMARK    5  A    between atoms: C7_9  and  N3_10 
REMARK    6  A    between atoms: N5_14  and  N6_15 
REMARK    7  A    between atoms: N6_15  and  C10_16 
REMARK    8  A    between atoms: C11_17  and  C12_18 
REMARK    9  A    between atoms: C12_18  and  C13_20 
REMARK   10  A    between atoms: C14_21  and  C15_22 
ROOT
HETATM    1  N3  UNL     1       0.014   0.930  -0.485  1.00  0.00    -0.158 NA
HETATM    2  C8  UNL     1      -0.054   1.711  -1.679  1.00  0.00     0.168 C 
HETATM    3  C9  UNL     1       0.521   0.769  -2.697  1.00  0.00     0.131 C 
HETATM    4  N4  UNL     1       1.052  -0.230  -2.069  1.00  0.00    -0.155 NA
HETATM    5  N5  UNL     1       0.910  -0.091  -0.679  1.00  0.00    -0.128 N 
ENDROOT
BRANCH   1   6
HETATM    6  C7  UNL     1      -1.215   0.696   0.061  1.00  0.00     0.234 C 
HETATM    7  N2  UNL     1      -1.178  -0.422   1.136  1.00  0.00    -0.271 NA
HETATM    8  C6  UNL     1      -2.225  -1.186   0.691  1.00  0.00     0.017 C 
HETATM    9  C18 UNL     1      -1.709  -2.045  -0.463  1.00  0.00     0.082 C 
HETATM   10  C17 UNL     1      -1.849  -1.023  -1.639  1.00  0.00    -0.014 C 
HETATM   11  C16 UNL     1      -2.290  -0.043  -0.795  1.00  0.00    -0.039 C 
BRANCH   8  12
HETATM   12  C5  UNL     1      -3.709  -1.079   1.053  1.00  0.00     0.040 C 
HETATM   13  C2  UNL     1      -4.065   0.426   0.908  1.00  0.00     0.031 C 
HETATM   14  C3  UNL     1      -3.794   0.241  -0.550  1.00  0.00     0.025 C 
HETATM   15  C4  UNL     1      -4.499  -1.104  -0.265  1.00  0.00     0.020 C 
BRANCH  13  16
HETATM   16  C1  UNL     1      -5.419   0.781   1.274  1.00  0.00     0.272 C 
BRANCH  16  17
HETATM   17  N1  UNL     1      -5.822   2.053   0.631  1.00  0.00     0.078 N 
HETATM   18  H1  UNL     1      -6.700   1.884   0.084  1.00  0.00     0.312 HD
HETATM   19  H2  UNL     1      -5.101   2.380  -0.043  1.00  0.00     0.312 HD
ENDBRANCH  16  17
ENDBRANCH  13  16
ENDBRANCH   8  12
ENDBRANCH   1   6
BRANCH   5  20
HETATM   20  N6  UNL     1       1.503  -0.784   0.381  1.00  0.00    -0.278 N 
HETATM   21  H14 UNL     1       1.015  -1.344   1.099  1.00  0.00     0.189 HD
BRANCH  20  22
HETATM   22  C10 UNL     1       2.931  -0.621   0.355  1.00  0.00     0.114 C 
HETATM   23  C11 UNL     1       3.744   0.164   1.043  1.00  0.00     0.073 C 
BRANCH  23  24
HETATM   24  C12 UNL     1       5.210   0.246   0.931  1.00  0.00     0.173 C 
HETATM   25  O1  UNL     1       5.742   1.074   1.699  1.00  0.00    -0.288 OA
BRANCH  24  26
HETATM   26  C13 UNL     1       5.929  -0.592  -0.016  1.00  0.00     0.059 C 
HETATM   27  C14 UNL     1       7.235  -0.593  -0.191  1.00  0.00     0.092 C 
BRANCH  27  28
HETATM   28  C15 UNL     1       8.143   0.288   0.580  1.00  0.00     0.408 C 
HETATM   29  F1  UNL     1       7.827   1.599   0.272  1.00  0.00    -0.167 F 
HETATM   30  F2  UNL     1       8.086   0.022   1.935  1.00  0.00    -0.167 F 
HETATM   31  F3  UNL     1       9.464   0.037   0.185  1.00  0.00    -0.167 F 
ENDBRANCH  27  28
ENDBRANCH  24  26
ENDBRANCH  23  24
ENDBRANCH  20  22
ENDBRANCH   5  20
TORSDOF 10
