REMARK  1 active torsions:
REMARK  status: ('A' for Active; 'I' for Inactive)
REMARK    1  A    between atoms: C2_2  and  N1_3 
ROOT
HETATM    1  N1  UNL     1      -3.130   1.204   0.199  1.00  0.00    -0.209 N 
HETATM    2  O1  UNL     1      -2.711   2.374   0.682  1.00  0.00    -0.149 OA
HETATM    3  N2  UNL     1      -1.873   3.017  -0.176  1.00  0.00    -0.233 N 
HETATM    4  C3  UNL     1      -0.585   3.612  -0.388  1.00  0.00     0.254 C 
HETATM    5  N3  UNL     1      -0.076   2.477  -0.047  1.00  0.00    -0.171 NA
HETATM    6  N4  UNL     1       1.311   2.328  -0.031  1.00  0.00    -0.302 N 
HETATM    7  C4  UNL     1       2.223   2.909   0.935  1.00  0.00     0.173 C 
HETATM    8  C5  UNL     1       1.856   1.515  -1.081  1.00  0.00     0.224 C 
HETATM    9  C6  UNL     1       2.401   0.259  -0.537  1.00  0.00     0.142 C 
HETATM   10  N5  UNL     1       3.699   0.270  -0.658  1.00  0.00    -0.254 NA
HETATM   11  C7  UNL     1       4.771  -0.627  -0.257  1.00  0.00     0.271 C 
HETATM   12  N6  UNL     1       4.638  -1.933  -0.901  1.00  0.00    -0.381 N 
HETATM   13  C8  UNL     1       3.682  -2.982  -0.646  1.00  0.00     0.086 C 
HETATM   14  C9  UNL     1       2.475  -3.013  -0.051  1.00  0.00     0.046 C 
HETATM   15  C10 UNL     1       1.570  -1.937   0.406  1.00  0.00     0.062 C 
HETATM   16  N7  UNL     1       1.471  -0.695  -0.006  1.00  0.00    -0.234 NA
HETATM   17  C11 UNL     1       0.734  -2.503   1.473  1.00  0.00     0.235 C 
HETATM   18  O2  UNL     1      -0.547  -2.862   1.069  1.00  0.00    -0.345 OA
HETATM   19  C12 UNL     1      -1.531  -2.084   0.539  1.00  0.00     0.071 A 
HETATM   20  C13 UNL     1      -2.408  -2.788  -0.293  1.00  0.00     0.037 A 
HETATM   21  C14 UNL     1      -3.481  -2.200  -0.939  1.00  0.00     0.005 A 
HETATM   22  C15 UNL     1      -3.694  -0.850  -0.749  1.00  0.00     0.032 A 
HETATM   23  C16 UNL     1      -2.826  -0.175   0.068  1.00  0.00     0.067 A 
HETATM   24  C17 UNL     1      -1.766  -0.737   0.711  1.00  0.00     0.068 A 
HETATM   25  H4  UNL     1      -2.472   3.085  -1.049  1.00  0.00     0.197 HD
HETATM   26  H13 UNL     1       5.270  -2.282  -1.680  1.00  0.00     0.160 HD
ENDROOT
BRANCH   1  27
HETATM   27  C2  UNL     1      -4.308   1.805  -0.319  1.00  0.00     0.115 C 
HETATM   28  C1  UNL     1      -5.360   1.598   0.487  1.00  0.00     0.032 C 
ENDBRANCH   1  27
TORSDOF 1
