REMARK  8 active torsions:
REMARK  status: ('A' for Active; 'I' for Inactive)
REMARK    1  A    between atoms: C2_2  and  C3_3 
REMARK    2  A    between atoms: C3_3  and  C4_5 
REMARK    3  A    between atoms: C5_6  and  C6_7 
REMARK    4  A    between atoms: C7_8  and  C8_9 
REMARK    5  A    between atoms: C8_9  and  O2_10 
REMARK    6  A    between atoms: O2_10  and  C9_11 
REMARK    7  A    between atoms: C12_16  and  C13_17 
REMARK    8  A    between atoms: C13_17  and  N3_18 
ROOT
HETATM    1  C9  UNL     1      -1.496  -0.661  -0.762  1.00  0.00     0.174 A 
HETATM    2  N1  UNL     1      -1.976  -1.824  -0.539  1.00  0.00    -0.205 NA
HETATM    3  C10 UNL     1      -3.037  -1.779   0.375  1.00  0.00     0.145 A 
HETATM    4  N2  UNL     1      -3.756  -2.760   0.833  1.00  0.00    -0.282 NA
HETATM    5  C11 UNL     1      -3.169  -0.368   0.716  1.00  0.00     0.064 A 
HETATM    6  C12 UNL     1      -2.246   0.309   0.035  1.00  0.00     0.015 A 
HETATM    7  H10 UNL     1      -4.538  -2.626   1.523  1.00  0.00     0.188 HD
ENDROOT
BRANCH   1   8
HETATM    8  O2  UNL     1      -0.419  -0.552  -1.665  1.00  0.00    -0.330 OA
BRANCH   8   9
HETATM    9  C8  UNL     1       0.573  -1.579  -1.720  1.00  0.00     0.205 C 
BRANCH   9  10
HETATM   10  C7  UNL     1       1.669  -1.228  -2.658  1.00  0.00    -0.000 C 
HETATM   11  C6  UNL     1       2.917  -1.122  -2.252  1.00  0.00    -0.002 C 
BRANCH  11  12
HETATM   12  C5  UNL     1       3.157  -1.362  -0.838  1.00  0.00     0.004 C 
HETATM   13  C4  UNL     1       4.437  -1.259  -0.436  1.00  0.00     0.054 C 
BRANCH  13  14
HETATM   14  C3  UNL     1       5.187  -1.391   0.803  1.00  0.00     0.171 C 
HETATM   15  O1  UNL     1       4.267  -1.676   1.629  1.00  0.00    -0.289 OA
BRANCH  14  16
HETATM   16  C2  UNL     1       6.588  -1.264   1.162  1.00  0.00     0.044 C 
HETATM   17  C1  UNL     1       7.618  -0.980   0.400  1.00  0.00     0.015 C 
ENDBRANCH  14  16
ENDBRANCH  13  14
ENDBRANCH  11  12
ENDBRANCH   9  10
ENDBRANCH   8   9
ENDBRANCH   1   8
BRANCH   6  18
HETATM   18  C13 UNL     1      -1.912   1.740  -0.016  1.00  0.00     0.183 C 
BRANCH  18  19
HETATM   19  N3  UNL     1      -2.691   2.596   0.805  1.00  0.00    -0.117 NA
HETATM   20  N4  UNL     1      -2.617   2.306   2.168  1.00  0.00    -0.292 N 
HETATM   21  C14 UNL     1      -3.881   2.668   2.727  1.00  0.00     0.243 C 
HETATM   22  H14 UNL     1      -1.720   1.901   2.530  1.00  0.00     0.183 HD
HETATM   23  N5  UNL     1      -4.699   2.886   1.751  1.00  0.00    -0.154 NA
HETATM   24  N6  UNL     1      -4.034   2.685   0.516  1.00  0.00    -0.216 N 
HETATM   25  C15 UNL     1      -4.923   2.638  -0.621  1.00  0.00     0.198 C 
ENDBRANCH  18  19
ENDBRANCH   6  18
TORSDOF 8
