REMARK  5 active torsions:
REMARK  status: ('A' for Active; 'I' for Inactive)
REMARK    1  A    between atoms: C2_2  and  C3_3 
REMARK       I    between atoms: C3_3  and  N1_5 
REMARK    2  A    between atoms: C5_7  and  C6_8 
REMARK    3  A    between atoms: C6_8  and  O2_9 
REMARK    4  A    between atoms: O2_9  and  C7_10 
REMARK    5  A    between atoms: C17_25  and  C18_26 
ROOT
HETATM    1  C7  UNL     1      -0.809  -0.673  -0.102  1.00  0.00     0.171 C 
HETATM    2  N2  UNL     1      -1.056  -0.222   1.139  1.00  0.00    -0.238 NA
HETATM    3  C8  UNL     1      -2.375  -0.023   1.696  1.00  0.00     0.230 C 
HETATM    4  C9  UNL     1      -3.144  -1.333   1.715  1.00  0.00     0.170 C 
HETATM    5  N3  UNL     1      -3.708  -1.667   0.391  1.00  0.00    -0.371 N 
HETATM    6  C10 UNL     1      -3.215  -0.845  -0.711  1.00  0.00     0.133 C 
HETATM    7  C11 UNL     1      -1.907  -0.804  -1.128  1.00  0.00     0.036 C 
HETATM    8  C12 UNL     1      -1.851  -0.806  -2.588  1.00  0.00     0.057 C 
HETATM    9  N4  UNL     1      -3.838   0.180  -1.615  1.00  0.00    -0.243 NA
HETATM   10  C13 UNL     1      -4.265   1.381  -1.052  1.00  0.00     0.138 C 
HETATM   11  C14 UNL     1      -3.865   2.063   0.294  1.00  0.00     0.227 A 
HETATM   12  N5  UNL     1      -5.038   2.516   0.893  1.00  0.00    -0.372 N 
HETATM   13  C15 UNL     1      -5.267   1.806   2.091  1.00  0.00     0.102 A 
HETATM   14  C16 UNL     1      -4.280   0.971   2.233  1.00  0.00     0.107 A 
HETATM   15  N6  UNL     1      -3.263   0.993   1.175  1.00  0.00    -0.339 N 
HETATM   16  H12 UNL     1      -4.371  -2.480   0.588  1.00  0.00     0.161 HD
HETATM   17  H18 UNL     1      -5.512   3.273   0.353  1.00  0.00     0.161 HD
ENDROOT
BRANCH   1  18
HETATM   18  O2  UNL     1       0.394  -1.067  -0.655  1.00  0.00    -0.334 OA
BRANCH  18  19
HETATM   19  C6  UNL     1       1.515  -0.452   0.014  1.00  0.00     0.185 C 
BRANCH  19  20
HETATM   20  C5  UNL     1       2.756  -1.088  -0.520  1.00  0.00     0.053 C 
HETATM   21  C4  UNL     1       4.020  -0.562   0.072  1.00  0.00     0.148 C 
HETATM   22  N1  UNL     1       4.394   0.636  -0.617  1.00  0.00    -0.287 N 
HETATM   23  C3  UNL     1       5.091   1.825  -0.281  1.00  0.00     0.252 C 
HETATM   24  S1  UNL     1       3.771   0.450  -2.283  1.00  0.00    -0.036 SA
HETATM   25  O1  UNL     1       5.340   2.808  -1.020  1.00  0.00    -0.268 OA
HETATM   26  C17 UNL     1       2.850  -1.092  -2.006  1.00  0.00     0.184 C 
BRANCH  23  27
HETATM   27  C2  UNL     1       5.602   1.979   1.073  1.00  0.00     0.065 C 
HETATM   28  C1  UNL     1       5.543   1.182   2.114  1.00  0.00     0.017 C 
ENDBRANCH  23  27
BRANCH  26  29
HETATM   29  C18 UNL     1       3.692  -2.237  -2.536  1.00  0.00     0.402 C 
HETATM   30  F1  UNL     1       4.977  -2.146  -2.034  1.00  0.00    -0.170 F 
HETATM   31  F2  UNL     1       3.789  -2.134  -3.910  1.00  0.00    -0.170 F 
HETATM   32  F3  UNL     1       3.210  -3.467  -2.162  1.00  0.00    -0.170 F 
ENDBRANCH  26  29
ENDBRANCH  19  20
ENDBRANCH  18  19
ENDBRANCH   1  18
TORSDOF 5
