REMARK  1 active torsions:
REMARK  status: ('A' for Active; 'I' for Inactive)
REMARK    1  A    between atoms: C2_2  and  C3_3 
REMARK       I    between atoms: C3_3  and  N1_5 
ROOT
HETATM    1  C3  UNL     1       3.352   0.135  -0.817  1.00  0.00     0.242 C 
HETATM    2  O1  UNL     1       4.093   1.139  -0.975  1.00  0.00    -0.268 OA
HETATM    3  N1  UNL     1       2.003   0.198  -0.447  1.00  0.00    -0.348 N 
HETATM    4  C4  UNL     1       1.154  -0.926  -0.266  1.00  0.00     0.131 C 
HETATM    5  C5  UNL     1      -0.235  -0.430   0.060  1.00  0.00     0.021 C 
HETATM    6  C6  UNL     1      -0.837  -1.415   1.060  1.00  0.00     0.068 C 
HETATM    7  C7  UNL     1      -2.237  -1.663   0.928  1.00  0.00     0.063 A 
HETATM    8  N2  UNL     1      -2.457  -0.474   0.759  1.00  0.00    -0.232 NA
HETATM    9  C8  UNL     1      -3.827  -0.750   0.628  1.00  0.00     0.151 A 
HETATM   10  C9  UNL     1      -3.598  -2.036   0.815  1.00  0.00     0.104 A 
HETATM   11 CL1  UNL     1      -4.688  -3.366   0.853  1.00  0.00    -0.078 Cl
HETATM   12  N3  UNL     1      -3.946   0.691   0.435  1.00  0.00    -0.349 N 
HETATM   13  C10 UNL     1      -3.327   1.333  -0.718  1.00  0.00     0.091 C 
HETATM   14  C11 UNL     1      -2.104   1.822  -0.588  1.00  0.00     0.068 C 
HETATM   15  C12 UNL     1      -1.023   1.989   0.350  1.00  0.00     0.268 C 
HETATM   16  F1  UNL     1      -0.370   3.222   0.056  1.00  0.00    -0.201 F 
HETATM   17  F2  UNL     1      -1.615   2.302   1.598  1.00  0.00    -0.201 F 
HETATM   18  C13 UNL     1      -0.021   0.934   0.572  1.00  0.00     0.086 C 
HETATM   19  C14 UNL     1       1.247   1.380  -0.190  1.00  0.00     0.137 C 
HETATM   20  H9  UNL     1      -4.502   1.147   1.192  1.00  0.00     0.166 HD
ENDROOT
BRANCH   1  21
HETATM   21  C2  UNL     1       4.043  -1.136  -1.061  1.00  0.00     0.064 C 
HETATM   22  C1  UNL     1       5.310  -1.150  -1.406  1.00  0.00     0.017 C 
ENDBRANCH   1  21
TORSDOF 1
