REMARK  8 active torsions:
REMARK  status: ('A' for Active; 'I' for Inactive)
REMARK    1  A    between atoms: C2_2  and  C3_3 
REMARK       I    between atoms: C3_3  and  N1_5 
REMARK    2  A    between atoms: C5_7  and  C6_8 
REMARK    3  A    between atoms: C6_8  and  C7_9 
REMARK    4  A    between atoms: C8_11  and  C9_12 
REMARK    5  A    between atoms: C9_12  and  O2_13 
REMARK    6  A    between atoms: O2_13  and  C10_14 
REMARK    7  A    between atoms: C11_16  and  N3_17 
REMARK    8  A    between atoms: N3_17  and  C12_18 
ROOT
HETATM    1  C10 UNL     1       1.078  -0.303  -1.399  1.00  0.00     0.195 A 
HETATM    2  N2  UNL     1       2.050   0.162  -0.592  1.00  0.00    -0.037 NA
HETATM    3  C11 UNL     1       3.299   0.384  -1.031  1.00  0.00     0.731 A 
HETATM    4  N6  UNL     1       3.562   0.120  -2.331  1.00  0.00    -0.043 NA
HETATM    5  C16 UNL     1       2.625  -0.346  -3.170  1.00  0.00     0.172 A 
HETATM    6  C17 UNL     1       1.310  -0.590  -2.755  1.00  0.00     0.062 A 
HETATM    7  C18 UNL     1       0.860  -1.031  -4.104  1.00  0.00     0.192 A 
HETATM    8  N7  UNL     1       2.231  -0.775  -4.470  1.00  0.00    -0.268 N 
HETATM    9 CL1  UNL     1       3.026  -0.951  -5.979  1.00  0.00     0.015 Cl
ENDROOT
BRANCH   1  10
HETATM   10  O2  UNL     1      -0.227  -0.551  -1.023  1.00  0.00    -0.333 OA
BRANCH  10  11
HETATM   11  C9  UNL     1      -0.763  -0.379   0.245  1.00  0.00     0.184 C 
BRANCH  11  12
HETATM   12  C8  UNL     1      -2.199  -0.691   0.383  1.00  0.00     0.034 C 
HETATM   13  C5  UNL     1      -3.202   0.031  -0.376  1.00  0.00     0.013 C 
HETATM   14  C4  UNL     1      -3.952   0.834   0.698  1.00  0.00     0.131 C 
HETATM   15  N1  UNL     1      -4.045  -0.163   1.741  1.00  0.00    -0.348 N 
HETATM   16  C3  UNL     1      -4.985  -0.876   2.528  1.00  0.00     0.242 C 
HETATM   17  C19 UNL     1      -2.610  -0.303   1.822  1.00  0.00     0.133 C 
HETATM   18  O1  UNL     1      -4.951  -1.749   3.435  1.00  0.00    -0.268 OA
BRANCH  13  19
HETATM   19  C6  UNL     1      -2.914   0.812  -1.579  1.00  0.00     0.038 C 
BRANCH  19  20
HETATM   20  C7  UNL     1      -2.099   2.060  -1.429  1.00  0.00     0.222 C 
HETATM   21  F1  UNL     1      -1.997   2.587  -2.736  1.00  0.00    -0.255 F 
ENDBRANCH  19  20
ENDBRANCH  13  19
BRANCH  16  22
HETATM   22  C2  UNL     1      -6.349  -0.488   2.187  1.00  0.00     0.064 C 
HETATM   23  C1  UNL     1      -7.668  -0.418   2.173  1.00  0.00     0.017 C 
ENDBRANCH  16  22
ENDBRANCH  11  12
ENDBRANCH  10  11
ENDBRANCH   1  10
BRANCH   3  24
HETATM   24  N3  UNL     1       4.138   0.879  -0.019  1.00  0.00    -0.185 N 
HETATM   25  H14 UNL     1       3.939   1.868   0.226  1.00  0.00     0.184 HD
BRANCH  24  26
HETATM   26  C12 UNL     1       5.142   0.087   0.595  1.00  0.00     0.085 A 
HETATM   27  C13 UNL     1       5.444  -1.207   0.237  1.00  0.00     0.170 A 
HETATM   28  N4  UNL     1       6.455  -1.532   1.076  1.00  0.00    -0.183 NA
HETATM   29  N5  UNL     1       6.730  -0.502   1.873  1.00  0.00    -0.283 N 
HETATM   30  C14 UNL     1       7.780  -0.563   2.864  1.00  0.00     0.179 C 
HETATM   31  C15 UNL     1       5.930   0.565   1.623  1.00  0.00     0.143 A 
ENDBRANCH  24  26
ENDBRANCH   3  24
TORSDOF 8
