REMARK  4 active torsions:
REMARK  status: ('A' for Active; 'I' for Inactive)
REMARK    1  A    between atoms: C2_2  and  C3_3 
REMARK       I    between atoms: C3_3  and  N1_5 
REMARK    2  A    between atoms: C5_7  and  C6_8 
REMARK    3  A    between atoms: C7_10  and  C8_11 
REMARK    4  A    between atoms: C11_16  and  C12_17 
ROOT
HETATM    1  C6  UNL     1       0.493  -0.510  -0.345  1.00  0.00     0.148 C 
HETATM    2  N2  UNL     1      -0.394   0.373   0.085  1.00  0.00    -0.254 NA
HETATM    3  C7  UNL     1      -1.621   0.007   0.897  1.00  0.00     0.198 C 
HETATM    4  C13 UNL     1      -1.397  -1.461   1.050  1.00  0.00     0.064 C 
HETATM    5  C14 UNL     1      -1.650  -2.711   0.789  1.00  0.00     0.042 C 
HETATM    6  C15 UNL     1      -0.174  -2.840   0.622  1.00  0.00     0.219 C 
HETATM    7  O2  UNL     1       0.438  -1.867  -0.110  1.00  0.00    -0.321 OA
HETATM    8  C16 UNL     1       0.171  -2.719   2.090  1.00  0.00     0.137 C 
HETATM    9 CL1  UNL     1       0.786  -4.009   3.110  1.00  0.00    -0.064 Cl
HETATM   10  N5  UNL     1      -0.207  -1.513   1.907  1.00  0.00    -0.240 NA
ENDROOT
BRANCH   1  11
HETATM   11  C5  UNL     1       1.643  -0.002  -1.149  1.00  0.00     0.154 C 
HETATM   12  C4  UNL     1       2.964  -0.313  -0.489  1.00  0.00     0.145 C 
HETATM   13  N1  UNL     1       3.468   0.927   0.040  1.00  0.00    -0.342 N 
HETATM   14  C3  UNL     1       4.714   1.077   0.703  1.00  0.00     0.242 C 
HETATM   15  C18 UNL     1       2.539   2.020  -0.187  1.00  0.00     0.206 C 
HETATM   16  O1  UNL     1       5.100   2.207   1.147  1.00  0.00    -0.268 OA
HETATM   17  C17 UNL     1       1.583   1.485  -1.232  1.00  0.00     0.271 C 
HETATM   18  F2  UNL     1       0.338   2.018  -1.104  1.00  0.00    -0.204 F 
HETATM   19  F3  UNL     1       2.081   1.838  -2.475  1.00  0.00    -0.204 F 
BRANCH  14  20
HETATM   20  C2  UNL     1       5.612  -0.047   0.907  1.00  0.00     0.064 C 
HETATM   21  C1  UNL     1       5.313  -1.253   0.488  1.00  0.00     0.017 C 
ENDBRANCH  14  20
ENDBRANCH   1  11
BRANCH   3  22
HETATM   22  C8  UNL     1      -2.809   0.409   0.166  1.00  0.00     0.018 A 
HETATM   23  C9  UNL     1      -3.727   1.354   0.659  1.00  0.00     0.123 A 
HETATM   24  N3  UNL     1      -4.756   1.580  -0.160  1.00  0.00    -0.284 N 
HETATM   25  C10 UNL     1      -5.875   2.480   0.027  1.00  0.00     0.179 C 
HETATM   26  N4  UNL     1      -4.566   0.808  -1.210  1.00  0.00    -0.175 NA
HETATM   27  C11 UNL     1      -3.410   0.103  -1.032  1.00  0.00     0.093 A 
BRANCH  27  28
HETATM   28  C12 UNL     1      -2.914  -0.860  -2.041  1.00  0.00     0.283 C 
HETATM   29  F1  UNL     1      -3.186  -2.164  -1.794  1.00  0.00    -0.249 F 
ENDBRANCH  27  28
ENDBRANCH   3  22
TORSDOF 4
