REMARK  5 active torsions:
REMARK  status: ('A' for Active; 'I' for Inactive)
REMARK    1  A    between atoms: C3_4  and  N2_5 
REMARK    2  A    between atoms: N2_5  and  C4_6 
REMARK    3  A    between atoms: C5_8  and  O1_9 
REMARK    4  A    between atoms: O1_9  and  C6_10 
REMARK    5  A    between atoms: N4_15  and  C10_16 
ROOT
HETATM    1  C4  UNL     1       1.414   0.059   0.264  1.00  0.00     0.731 A 
HETATM    2  N3  UNL     1       0.165   0.436   0.596  1.00  0.00    -0.037 NA
HETATM    3  C5  UNL     1      -0.919  -0.229   0.159  1.00  0.00     0.197 A 
HETATM    4  C11 UNL     1      -0.813  -1.337  -0.657  1.00  0.00     0.062 A 
HETATM    5  C12 UNL     1       0.468  -1.722  -0.997  1.00  0.00     0.172 A 
HETATM    6  N5  UNL     1       1.515  -1.020  -0.530  1.00  0.00    -0.043 NA
HETATM    7  N6  UNL     1      -0.098  -2.787  -1.750  1.00  0.00    -0.268 N 
HETATM    8 CL1  UNL     1       0.539  -4.067  -2.716  1.00  0.00     0.015 Cl
HETATM    9  C13 UNL     1      -1.448  -2.420  -1.421  1.00  0.00     0.192 A 
ENDROOT
BRANCH   3  10
HETATM   10  O1  UNL     1      -2.106   0.300   0.599  1.00  0.00    -0.307 OA
BRANCH  10  11
HETATM   11  C6  UNL     1      -3.351  -0.266   0.241  1.00  0.00     0.236 C 
HETATM   12  C7  UNL     1      -4.073  -0.530   1.568  1.00  0.00     0.093 C 
HETATM   13  C8  UNL     1      -4.189   0.907   2.072  1.00  0.00     0.192 C 
HETATM   14  F1  UNL     1      -2.942   1.221   2.616  1.00  0.00    -0.248 F 
HETATM   15  C9  UNL     1      -4.461   1.669   0.814  1.00  0.00     0.165 C 
HETATM   16  N4  UNL     1      -4.250   0.760  -0.305  1.00  0.00    -0.329 N 
BRANCH  16  17
HETATM   17  C10 UNL     1      -4.888   1.027  -1.557  1.00  0.00     0.353 C 
HETATM   18  O2  UNL     1      -5.560   2.092  -1.408  1.00  0.00    -0.283 OA
ENDBRANCH  16  17
ENDBRANCH  10  11
ENDBRANCH   3  10
BRANCH   1  19
HETATM   19  N2  UNL     1       2.551   0.771   0.734  1.00  0.00    -0.185 N 
HETATM   20  H5  UNL     1       2.360   1.612   1.358  1.00  0.00     0.184 HD
BRANCH  19  21
HETATM   21  C3  UNL     1       3.909   0.467   0.450  1.00  0.00     0.085 A 
HETATM   22  C2  UNL     1       5.024   1.149   0.899  1.00  0.00     0.143 A 
HETATM   23  N1  UNL     1       6.114   0.539   0.404  1.00  0.00    -0.283 N 
HETATM   24  C1  UNL     1       7.502   0.939   0.634  1.00  0.00     0.179 C 
HETATM   25  N7  UNL     1       5.720  -0.483  -0.327  1.00  0.00    -0.183 NA
HETATM   26  C14 UNL     1       4.376  -0.570  -0.330  1.00  0.00     0.170 A 
ENDBRANCH  19  21
ENDBRANCH   1  19
TORSDOF 5
