REMARK  8 active torsions:
REMARK  status: ('A' for Active; 'I' for Inactive)
REMARK    1  A    between atoms: C2_2  and  C3_3 
REMARK    2  A    between atoms: N1_4  and  C4_5 
REMARK    3  A    between atoms: C4_5  and  C5_6 
REMARK    4  A    between atoms: C5_6  and  C6_7 
REMARK    5  A    between atoms: C6_7  and  O1_8 
REMARK    6  A    between atoms: O1_8  and  C7_9 
REMARK    7  A    between atoms: C7_9  and  C8_10 
REMARK    8  A    between atoms: C12_16  and  C13_17 
ROOT
HETATM    1  C7  UNL     1      -0.953  -0.874   0.560  1.00  0.00     0.155 A 
HETATM    2  C10 UNL     1      -0.448  -1.290   1.954  1.00  0.00     0.039 A 
HETATM    3  C11 UNL     1      -1.365  -1.011   2.856  1.00  0.00     0.116 A 
HETATM    4  N2  UNL     1      -2.444  -0.440   2.194  1.00  0.00    -0.261 NA
HETATM    5  C12 UNL     1      -2.272  -0.333   0.899  1.00  0.00     0.088 A 
ENDROOT
BRANCH   1   6
HETATM    6  O1  UNL     1      -0.124   0.105   0.132  1.00  0.00    -0.367 OA
BRANCH   6   7
HETATM    7  C6  UNL     1       1.199  -0.235   0.119  1.00  0.00     0.171 C 
BRANCH   7   8
HETATM    8  C5  UNL     1       2.068   0.948  -0.347  1.00  0.00     0.048 C 
BRANCH   8   9
HETATM    9  C4  UNL     1       3.520   0.501  -0.337  1.00  0.00     0.150 C 
BRANCH   9  10
HETATM   10  N1  UNL     1       4.334   1.627  -0.779  1.00  0.00    -0.302 NA
HETATM   11  C3  UNL     1       5.599   1.643  -0.682  1.00  0.00     0.109 C 
BRANCH  11  12
HETATM   12  C2  UNL     1       6.303   0.522  -0.117  1.00  0.00     0.009 C 
HETATM   13  C1  UNL     1       7.617   0.555  -0.023  1.00  0.00     0.013 C 
ENDBRANCH  11  12
ENDBRANCH   9  10
ENDBRANCH   8   9
ENDBRANCH   7   8
ENDBRANCH   6   7
ENDBRANCH   1   6
BRANCH   1  14
HETATM   14  C8  UNL     1      -0.952  -2.162  -0.214  1.00  0.00     0.210 C 
HETATM   15  C9  UNL     1      -1.296  -2.055  -1.665  1.00  0.00     0.049 C 
HETATM   16  F1  UNL     1       0.251  -2.824  -0.099  1.00  0.00    -0.246 F 
ENDBRANCH   1  14
BRANCH   5  17
HETATM   17  C13 UNL     1      -3.379   0.278   0.174  1.00  0.00     0.028 A 
HETATM   18  C14 UNL     1      -3.437   0.536  -1.177  1.00  0.00     0.153 A 
HETATM   19  N3  UNL     1      -4.636   1.105  -1.482  1.00  0.00    -0.185 NA
HETATM   20  N4  UNL     1      -5.352   1.226  -0.392  1.00  0.00    -0.285 N 
HETATM   21  C15 UNL     1      -6.685   1.774  -0.238  1.00  0.00     0.179 C 
HETATM   22  C16 UNL     1      -4.606   0.733   0.606  1.00  0.00     0.126 A 
ENDBRANCH   5  17
TORSDOF 8
