REMARK  4 active torsions:
REMARK  status: ('A' for Active; 'I' for Inactive)
REMARK       I    between atoms: C3_3  and  N1_5 
REMARK    1  A    between atoms: C5_8  and  C6_9 
REMARK    2  A    between atoms: C6_9  and  O2_10 
REMARK    3  A    between atoms: O2_10  and  C7_11 
REMARK    4  A    between atoms: C8_13  and  C9_14 
ROOT
HETATM    1  C1  UNL     1      -3.829  -1.482  -3.557  1.00  0.00     0.037 C 
HETATM    2  C2  UNL     1      -4.104  -1.196  -2.309  1.00  0.00     0.046 C 
HETATM    3  C3  UNL     1      -4.287  -0.737  -0.927  1.00  0.00     0.225 C 
HETATM    4  O1  UNL     1      -5.125  -1.350  -0.182  1.00  0.00    -0.270 OA
HETATM    5  N1  UNL     1      -3.509   0.379  -0.489  1.00  0.00    -0.403 N 
HETATM    6  B1  UNL     1      -2.523   1.077  -1.410  1.00  0.00     0.276 B 
HETATM    7  C4  UNL     1      -1.533   2.099  -0.712  1.00  0.00    -0.021 C 
HETATM    8  C5  UNL     1      -1.297   1.542   0.699  1.00  0.00     0.004 C 
HETATM    9  C16 UNL     1      -2.615   1.629   1.446  1.00  0.00     0.024 C 
HETATM   10  C17 UNL     1      -3.708   0.803   0.863  1.00  0.00     0.108 C 
HETATM   11  H4  UNL     1      -2.751   1.073  -2.572  1.00  0.00    -0.000 HD
ENDROOT
BRANCH   8  12
HETATM   12  C6  UNL     1      -0.379   2.509   1.460  1.00  0.00     0.181 C 
BRANCH  12  13
HETATM   13  O2  UNL     1       0.853   2.668   0.840  1.00  0.00    -0.334 OA
BRANCH  13  14
HETATM   14  C7  UNL     1       1.759   1.655   0.595  1.00  0.00     0.173 A 
HETATM   15  N2  UNL     1       1.635   0.332   0.902  1.00  0.00    -0.204 NA
HETATM   16  C8  UNL     1       2.635  -0.517   0.582  1.00  0.00     0.165 A 
HETATM   17  N5  UNL     1       3.757  -0.098  -0.034  1.00  0.00    -0.240 NA
HETATM   18  C13 UNL     1       3.948   1.212  -0.371  1.00  0.00     0.130 A 
HETATM   19  C14 UNL     1       2.925   2.093  -0.045  1.00  0.00     0.009 A 
HETATM   20  C15 UNL     1       3.178   3.512  -0.432  1.00  0.00     0.054 C 
BRANCH  16  21
HETATM   21  C9  UNL     1       2.475  -1.928   0.922  1.00  0.00     0.048 A 
HETATM   22  C10 UNL     1       1.765  -2.550   1.930  1.00  0.00     0.155 A 
HETATM   23  N3  UNL     1       1.920  -3.886   1.842  1.00  0.00    -0.185 NA
HETATM   24  N4  UNL     1       2.702  -4.152   0.816  1.00  0.00    -0.285 N 
HETATM   25  C11 UNL     1       3.168  -5.422   0.304  1.00  0.00     0.179 C 
HETATM   26  C12 UNL     1       3.062  -2.990   0.229  1.00  0.00     0.128 A 
ENDBRANCH  16  21
ENDBRANCH  13  14
ENDBRANCH  12  13
ENDBRANCH   8  12
TORSDOF 4
