REMARK  9 active torsions:
REMARK  status: ('A' for Active; 'I' for Inactive)
REMARK    1  A    between atoms: C2_2  and  C3_3 
REMARK    2  A    between atoms: C6_9  and  O1_10 
REMARK    3  A    between atoms: O1_10  and  C7_11 
REMARK    4  A    between atoms: C7_11  and  C8_12 
REMARK    5  A    between atoms: C8_12  and  C9_13 
REMARK    6  A    between atoms: C8_12  and  C10_15 
REMARK    7  A    between atoms: C10_15  and  N3_16 
REMARK    8  A    between atoms: N3_16  and  C11_17 
REMARK    9  A    between atoms: C11_17  and  C12_18 
ROOT
HETATM    1  C7  UNL     1       0.461  -1.098  -1.095  1.00  0.00     0.186 C 
ENDROOT
BRANCH   1   2
HETATM    2  O1  UNL     1       1.662  -0.649  -0.827  1.00  0.00    -0.333 OA
BRANCH   2   3
HETATM    3  C6  UNL     1       2.795  -0.059  -0.792  1.00  0.00     0.178 A 
HETATM    4  C3  UNL     1       3.685  -0.376   0.244  1.00  0.00     0.031 A 
HETATM    5  C4  UNL     1       4.919   0.197   0.374  1.00  0.00     0.135 A 
HETATM    6  N1  UNL     1       5.238   1.099  -0.565  1.00  0.00    -0.230 NA
HETATM    7  C5  UNL     1       4.441   1.455  -1.588  1.00  0.00     0.225 A 
HETATM    8 CL1  UNL     1       4.965   2.648  -2.758  1.00  0.00    -0.041 Cl
HETATM    9  N2  UNL     1       3.236   0.858  -1.667  1.00  0.00    -0.193 NA
BRANCH   4  10
HETATM   10  C2  UNL     1       3.229  -1.368   1.205  1.00  0.00    -0.009 C 
HETATM   11  C1  UNL     1       4.008  -1.714   2.219  1.00  0.00     0.032 C 
ENDBRANCH   4  10
ENDBRANCH   2   3
ENDBRANCH   1   2
BRANCH   1  12
HETATM   12  C8  UNL     1      -0.585   0.064  -1.053  1.00  0.00     0.056 C 
BRANCH  12  13
HETATM   13  C9  UNL     1      -0.490   0.553   0.367  1.00  0.00     0.230 C 
HETATM   14  F1  UNL     1       0.831   0.979   0.601  1.00  0.00    -0.255 F 
ENDBRANCH  12  13
BRANCH  12  15
HETATM   15  C10 UNL     1      -1.913  -0.472  -1.456  1.00  0.00     0.123 C 
BRANCH  15  16
HETATM   16  N3  UNL     1      -3.016   0.357  -1.539  1.00  0.00    -0.414 N 
HETATM   17  H12 UNL     1      -3.239   0.734  -2.477  1.00  0.00     0.153 HD
BRANCH  16  18
HETATM   18  C11 UNL     1      -3.717   0.961  -0.521  1.00  0.00     0.192 C 
BRANCH  18  19
HETATM   19  C12 UNL     1      -4.468   0.012   0.376  1.00  0.00     0.140 C 
HETATM   20  C13 UNL     1      -5.292   0.645   1.473  1.00  0.00     0.092 C 
HETATM   21  O2  UNL     1      -4.525  -1.202   0.365  1.00  0.00    -0.297 OA
ENDBRANCH  18  19
ENDBRANCH  16  18
ENDBRANCH  15  16
ENDBRANCH  12  15
ENDBRANCH   1  12
TORSDOF 9
