REMARK  1 active torsions:
REMARK  status: ('A' for Active; 'I' for Inactive)
REMARK    1  A    between atoms: C3_3  and  N1_5 
ROOT
HETATM    1  N1  UNL     1       1.166   1.195  -0.296  1.00  0.00    -0.345 N 
HETATM    2  C4  UNL     1       0.495   2.506  -0.350  1.00  0.00     0.126 C 
HETATM    3  C5  UNL     1      -0.977   2.521   0.057  1.00  0.00     0.061 C 
HETATM    4  C6  UNL     1      -1.508   1.112  -0.150  1.00  0.00     0.181 A 
HETATM    5  N2  UNL     1      -1.586   0.596   1.075  1.00  0.00    -0.087 NA
HETATM    6  C7  UNL     1      -1.361  -0.669   1.386  1.00  0.00     0.717 A 
HETATM    7  N3  UNL     1      -1.120  -0.859   0.135  1.00  0.00    -0.055 NA
HETATM    8  C8  UNL     1      -1.158  -0.036  -0.802  1.00  0.00     0.343 A 
HETATM    9  C9  UNL     1      -1.305   1.094  -1.493  1.00  0.00     0.292 A 
HETATM   10  C10 UNL     1      -1.146   1.380  -2.771  1.00  0.00     0.084 A 
HETATM   11 CL1  UNL     1      -1.532   3.007  -3.158  1.00  0.00    -0.084 Cl
HETATM   12  C11 UNL     1      -0.715   0.091  -3.242  1.00  0.00     0.258 A 
HETATM   13  N4  UNL     1      -0.814  -0.407  -2.022  1.00  0.00     0.108 N 
HETATM   14  N5  UNL     1      -0.129  -1.586  -1.557  1.00  0.00    -0.115 N 
HETATM   15  C12 UNL     1       1.239  -1.243  -1.058  1.00  0.00     0.238 C 
HETATM   16  C13 UNL     1       1.650   0.168  -1.196  1.00  0.00     0.291 C 
HETATM   17  F1  UNL     1       3.040   0.207  -1.167  1.00  0.00    -0.225 F 
HETATM   18  N6  UNL     1      -0.696  -2.866  -1.536  1.00  0.00    -0.165 NA
HETATM   19  C14 UNL     1      -1.194  -3.354  -0.427  1.00  0.00     0.133 C 
HETATM   20  C15 UNL     1      -1.531  -3.274   1.026  1.00  0.00     0.186 C 
HETATM   21  N7  UNL     1      -1.108  -2.007   1.620  1.00  0.00    -0.218 N 
HETATM   22  H15 UNL     1      -0.502  -1.618   2.409  1.00  0.00     0.178 HD
ENDROOT
BRANCH   1  23
HETATM   23  C3  UNL     1       1.679   0.621   0.934  1.00  0.00     0.215 A 
HETATM   24  C2  UNL     1       2.028   0.451   2.336  1.00  0.00     0.185 A 
HETATM   25  C1  UNL     1       1.830   1.259   3.361  1.00  0.00     0.040 C 
HETATM   26  O1  UNL     1       1.288   1.658   1.524  1.00  0.00    -0.343 OA
ENDBRANCH   1  23
TORSDOF 1
