REMARK  6 active torsions:
REMARK  status: ('A' for Active; 'I' for Inactive)
REMARK    1  A    between atoms: C2_2  and  C3_3 
REMARK       I    between atoms: C3_3  and  N1_5 
REMARK    2  A    between atoms: C5_7  and  O2_8 
REMARK    3  A    between atoms: C6_9  and  O3_10 
REMARK    4  A    between atoms: O3_10  and  C7_11 
REMARK    5  A    between atoms: C11_18  and  N4_19 
REMARK    6  A    between atoms: N4_19  and  C12_20 
ROOT
HETATM    1  C7  UNL     1      -0.293   2.289   0.846  1.00  0.00     0.139 A 
HETATM    2  C8  UNL     1      -0.445   3.651   1.054  1.00  0.00     0.087 A 
HETATM    3 CL1  UNL     1      -1.600   4.315   2.188  1.00  0.00    -0.080 Cl
HETATM    4  C9  UNL     1       0.463   4.292   0.215  1.00  0.00     0.126 A 
HETATM    5  N2  UNL     1       1.165   3.380  -0.499  1.00  0.00    -0.296 N 
HETATM    6  C10 UNL     1       2.129   3.566  -1.408  1.00  0.00     0.235 A 
HETATM    7  N3  UNL     1       2.676   2.453  -1.977  1.00  0.00    -0.057 NA
HETATM    8  C11 UNL     1       2.231   1.218  -1.608  1.00  0.00     0.730 A 
HETATM    9  N7  UNL     1       1.260   1.083  -0.691  1.00  0.00    -0.041 NA
HETATM   10  C16 UNL     1       0.696   2.165  -0.106  1.00  0.00     0.189 A 
ENDROOT
BRANCH   1  11
HETATM   11  O3  UNL     1      -0.922   1.184   1.397  1.00  0.00    -0.336 OA
BRANCH  11  12
HETATM   12  C6  UNL     1      -2.082   0.613   0.875  1.00  0.00     0.177 C 
HETATM   13  C5  UNL     1      -3.072   0.410   2.014  1.00  0.00     0.167 C 
HETATM   14  C4  UNL     1      -3.668  -0.978   1.755  1.00  0.00     0.160 C 
HETATM   15  N1  UNL     1      -3.291  -1.256   0.360  1.00  0.00    -0.344 N 
HETATM   16  C3  UNL     1      -3.871  -1.763  -0.861  1.00  0.00     0.242 C 
HETATM   17  C17 UNL     1      -1.882  -0.836   0.408  1.00  0.00     0.161 C 
HETATM   18  O1  UNL     1      -3.535  -1.993  -2.047  1.00  0.00    -0.268 OA
BRANCH  13  19
HETATM   19  O2  UNL     1      -2.369   0.324   3.235  1.00  0.00    -0.391 OA
HETATM   20  H7  UNL     1      -1.786  -0.482   3.180  1.00  0.00     0.210 HD
ENDBRANCH  13  19
BRANCH  16  21
HETATM   21  C2  UNL     1      -5.264  -2.127  -0.700  1.00  0.00     0.064 C 
HETATM   22  C1  UNL     1      -6.358  -2.250   0.018  1.00  0.00     0.017 C 
ENDBRANCH  16  21
ENDBRANCH  11  12
ENDBRANCH   1  11
BRANCH   8  23
HETATM   23  N4  UNL     1       2.757   0.002  -2.151  1.00  0.00    -0.185 N 
HETATM   24  H11 UNL     1       2.459  -0.487  -3.026  1.00  0.00     0.184 HD
BRANCH  23  25
HETATM   25  C12 UNL     1       3.804  -0.572  -1.386  1.00  0.00     0.085 A 
HETATM   26  C13 UNL     1       4.317  -0.079  -0.188  1.00  0.00     0.170 A 
HETATM   27  N5  UNL     1       5.310  -0.903   0.248  1.00  0.00    -0.183 NA
HETATM   28  N6  UNL     1       5.449  -1.897  -0.623  1.00  0.00    -0.283 N 
HETATM   29  C14 UNL     1       6.438  -2.943  -0.427  1.00  0.00     0.179 C 
HETATM   30  C15 UNL     1       4.557  -1.722  -1.611  1.00  0.00     0.143 A 
ENDBRANCH  23  25
ENDBRANCH   8  23
TORSDOF 6
