REMARK  2 active torsions:
REMARK  status: ('A' for Active; 'I' for Inactive)
REMARK    1  A    between atoms: C2_2  and  C3_3 
REMARK       I    between atoms: C3_3  and  N1_5 
REMARK    2  A    between atoms: C8_12  and  C9_13 
ROOT
HETATM    1  C3  UNL     1       4.756  -0.383  -0.312  1.00  0.00     0.239 C 
HETATM    2  O1  UNL     1       4.978  -1.607  -0.483  1.00  0.00    -0.269 OA
HETATM    3  N1  UNL     1       3.366  -0.124  -0.152  1.00  0.00    -0.346 N 
HETATM    4  C4  UNL     1       2.601  -1.387  -0.236  1.00  0.00     0.135 C 
HETATM    5  C5  UNL     1       1.189  -0.908  -0.108  1.00  0.00     0.059 C 
HETATM    6  C6  UNL     1       0.199  -1.935   0.387  1.00  0.00     0.186 C 
HETATM    7  O2  UNL     1      -1.031  -1.385   0.071  1.00  0.00    -0.335 OA
HETATM    8  C7  UNL     1      -2.300  -1.768   0.281  1.00  0.00     0.171 C 
HETATM    9  N2  UNL     1      -2.378  -2.787   1.046  1.00  0.00    -0.279 NA
HETATM   10  C8  UNL     1      -3.274  -0.903  -0.434  1.00  0.00     0.176 C 
HETATM   11  N3  UNL     1      -4.617  -1.127   0.006  1.00  0.00    -0.258 NA
HETATM   12  C10 UNL     1      -5.350  -0.345   0.691  1.00  0.00     0.198 C 
HETATM   13  N4  UNL     1      -4.796   0.923   1.087  1.00  0.00    -0.379 N 
HETATM   14  C11 UNL     1      -3.856   1.522   0.142  1.00  0.00     0.180 C 
HETATM   15  C12 UNL     1      -2.850   0.538  -0.298  1.00  0.00     0.089 C 
HETATM   16  N5  UNL     1      -1.634   0.558  -0.625  1.00  0.00    -0.180 NA
HETATM   17  N6  UNL     1      -0.726   1.584  -0.692  1.00  0.00    -0.286 N 
HETATM   18  C13 UNL     1      -0.542   2.004  -2.077  1.00  0.00     0.175 C 
HETATM   19  C14 UNL     1      -0.251   1.909   0.636  1.00  0.00     0.312 C 
HETATM   20  O3  UNL     1       0.316   0.880   1.302  1.00  0.00    -0.363 OA
HETATM   21  C15 UNL     1       1.393   0.245   0.853  1.00  0.00     0.149 C 
HETATM   22  C16 UNL     1       2.426   0.996   0.072  1.00  0.00     0.158 C 
HETATM   23  H9  UNL     1      -1.468  -3.164   1.388  1.00  0.00     0.189 HD
HETATM   24  H13 UNL     1      -5.087   1.344   2.011  1.00  0.00     0.160 HD
ENDROOT
BRANCH   1  25
HETATM   25  C2  UNL     1       5.875   0.551  -0.301  1.00  0.00     0.048 C 
HETATM   26  C1  UNL     1       6.946  -0.189  -0.490  1.00  0.00     0.037 C 
ENDBRANCH   1  25
BRANCH  10  27
HETATM   27  C9  UNL     1      -3.199  -1.161  -1.945  1.00  0.00     0.163 C 
HETATM   28 CL1  UNL     1      -3.572  -2.849  -2.322  1.00  0.00    -0.127 Cl
ENDBRANCH  10  27
TORSDOF 2
