REMARK  4 active torsions:
REMARK  status: ('A' for Active; 'I' for Inactive)
REMARK    1  A    between atoms: C3_4  and  N2_5 
REMARK    2  A    between atoms: N2_5  and  C4_6 
REMARK    3  A    between atoms: C11_16  and  C12_17 
REMARK    4  A    between atoms: C12_17  and  O2_18 
ROOT
HETATM    1  C4  UNL     1       1.088   0.288  -0.908  1.00  0.00     0.733 C 
HETATM    2  N3  UNL     1       0.274  -0.431  -0.228  1.00  0.00    -0.042 NA
HETATM    3  C5  UNL     1      -0.178  -1.741  -0.386  1.00  0.00     0.173 C 
HETATM    4  C6  UNL     1      -1.303  -2.419  -0.333  1.00  0.00     0.083 A 
HETATM    5  C7  UNL     1      -1.751  -3.773  -0.463  1.00  0.00     0.038 A 
HETATM    6  C8  UNL     1      -3.028  -3.798  -0.687  1.00  0.00     0.061 A 
HETATM    7  C9  UNL     1      -3.454  -2.416  -0.711  1.00  0.00     0.181 A 
HETATM    8  O1  UNL     1      -4.739  -2.434  -0.936  1.00  0.00    -0.172 OA
HETATM    9  N4  UNL     1      -2.363  -1.432  -0.484  1.00  0.00    -0.322 N 
HETATM   10  C10 UNL     1      -2.875  -0.144  -0.600  1.00  0.00     0.138 C 
HETATM   11  C11 UNL     1      -2.314   1.116  -0.201  1.00  0.00     0.030 C 
HETATM   12  C13 UNL     1      -1.112   1.779  -0.674  1.00  0.00     0.037 C 
HETATM   13  C14 UNL     1      -0.659   1.882  -2.057  1.00  0.00     0.203 C 
HETATM   14  O3  UNL     1      -0.362   0.800  -2.828  1.00  0.00    -0.260 OA
HETATM   15  N5  UNL     1       0.633   0.066  -2.276  1.00  0.00    -0.058 N 
HETATM   16  C15 UNL     1       1.273  -1.042  -2.989  1.00  0.00     0.159 C 
HETATM   17  C16 UNL     1       1.429  -2.269  -2.366  1.00  0.00     0.110 C 
HETATM   18  N6  UNL     1       0.705  -2.703  -1.109  1.00  0.00    -0.347 N 
HETATM   19  H20 UNL     1       0.779  -3.648  -0.791  1.00  0.00     0.167 HD
ENDROOT
BRANCH   1  20
HETATM   20  N2  UNL     1       2.128   1.019  -0.329  1.00  0.00    -0.185 N 
HETATM   21  H5  UNL     1       2.509   1.610  -1.077  1.00  0.00     0.184 HD
BRANCH  20  22
HETATM   22  C3  UNL     1       2.438   0.838   1.021  1.00  0.00     0.085 A 
HETATM   23  C2  UNL     1       3.463   1.600   1.534  1.00  0.00     0.143 A 
HETATM   24  N1  UNL     1       3.600   1.273   2.845  1.00  0.00    -0.283 N 
HETATM   25  C1  UNL     1       4.565   1.826   3.803  1.00  0.00     0.179 C 
HETATM   26  N7  UNL     1       2.702   0.347   3.145  1.00  0.00    -0.183 NA
HETATM   27  C17 UNL     1       1.982   0.066   2.052  1.00  0.00     0.170 A 
ENDBRANCH  20  22
ENDBRANCH   1  20
BRANCH  11  28
HETATM   28  C12 UNL     1      -2.240   1.081   1.387  1.00  0.00     0.170 C 
BRANCH  28  29
HETATM   29  O2  UNL     1      -1.696   2.317   1.719  1.00  0.00    -0.400 OA
HETATM   30  H13 UNL     1      -2.208   2.713   2.467  1.00  0.00     0.209 HD
ENDBRANCH  28  29
ENDBRANCH  11  28
TORSDOF 4
