REMARK  5 active torsions:
REMARK  status: ('A' for Active; 'I' for Inactive)
REMARK    1  A    between atoms: C2_2  and  C3_3 
REMARK    2  A    between atoms: C3_3  and  C4_5 
REMARK    3  A    between atoms: C7_9  and  O2_10 
REMARK    4  A    between atoms: O2_10  and  C8_11 
REMARK    5  A    between atoms: C10_13  and  C11_14 
ROOT
HETATM    1  C8  UNL     1      -1.326   0.148  -1.473  1.00  0.00     0.132 C 
HETATM    2  C9  UNL     1      -1.956  -0.178  -2.817  1.00  0.00     0.058 C 
HETATM    3  C10 UNL     1      -1.706   1.517  -1.041  1.00  0.00    -0.009 C 
HETATM    4  C12 UNL     1      -1.766   2.235   0.087  1.00  0.00     0.125 C 
HETATM    5  N1  UNL     1      -1.509   2.113   1.497  1.00  0.00    -0.256 NA
HETATM    6  C13 UNL     1      -1.449   1.058   2.271  1.00  0.00     0.207 C 
HETATM    7  N2  UNL     1      -1.612  -0.355   2.025  1.00  0.00    -0.348 N 
HETATM    8  C14 UNL     1      -2.015  -1.084   0.872  1.00  0.00     0.080 A 
HETATM    9  C15 UNL     1      -2.670  -2.273   1.116  1.00  0.00     0.143 A 
HETATM   10  N3  UNL     1      -2.920  -2.731  -0.122  1.00  0.00    -0.283 N 
HETATM   11  C16 UNL     1      -3.612  -3.988  -0.408  1.00  0.00     0.179 C 
HETATM   12  N4  UNL     1      -2.463  -1.901  -1.034  1.00  0.00    -0.172 NA
HETATM   13  C17 UNL     1      -1.862  -0.809  -0.471  1.00  0.00     0.121 A 
HETATM   14  H16 UNL     1      -1.394  -0.978   2.845  1.00  0.00     0.167 HD
ENDROOT
BRANCH   1  15
HETATM   15  O2  UNL     1       0.011   0.100  -1.639  1.00  0.00    -0.361 OA
BRANCH  15  16
HETATM   16  C7  UNL     1       0.934   0.290  -0.737  1.00  0.00     0.158 C 
HETATM   17  C6  UNL     1       1.940   1.415  -0.913  1.00  0.00     0.199 C 
HETATM   18  C5  UNL     1       2.642   1.297   0.453  1.00  0.00     0.052 C 
HETATM   19  F1  UNL     1       1.357   2.655  -1.032  1.00  0.00    -0.247 F 
HETATM   20  C4  UNL     1       2.744  -0.183   0.642  1.00  0.00     0.065 C 
HETATM   21  C18 UNL     1       1.899  -0.831  -0.438  1.00  0.00     0.047 C 
BRANCH  20  22
HETATM   22  C3  UNL     1       4.163  -0.587   0.546  1.00  0.00     0.152 C 
HETATM   23  O1  UNL     1       4.716  -1.381  -0.258  1.00  0.00    -0.293 OA
BRANCH  22  24
HETATM   24  C2  UNL     1       5.063   0.015   1.521  1.00  0.00     0.040 C 
HETATM   25  C1  UNL     1       4.704   0.867   2.450  1.00  0.00     0.015 C 
ENDBRANCH  22  24
ENDBRANCH  20  22
ENDBRANCH  15  16
ENDBRANCH   1  15
BRANCH   3  26
HETATM   26  C11 UNL     1      -2.171   2.425  -2.149  1.00  0.00     0.153 C 
HETATM   27 CL1  UNL     1      -0.918   2.656  -3.389  1.00  0.00    -0.126 Cl
ENDBRANCH   3  26
TORSDOF 5
