REMARK  4 active torsions:
REMARK  status: ('A' for Active; 'I' for Inactive)
REMARK    1  A    between atoms: O1_2  and  C2_3 
REMARK    2  A    between atoms: C2_3  and  C3_4 
REMARK    3  A    between atoms: C4_5  and  C5_6 
REMARK    4  A    between atoms: C5_6  and  C6_8 
ROOT
HETATM    1  C6  UNL     1       0.724  -1.340  -0.561  1.00  0.00     0.120 C 
HETATM    2  C7  UNL     1      -0.375  -1.188   0.417  1.00  0.00     0.193 C 
HETATM    3  O3  UNL     1       0.043  -1.681   1.694  1.00  0.00    -0.344 OA
HETATM    4  C8  UNL     1      -0.954  -1.708   2.715  1.00  0.00     0.247 C 
HETATM    5  N1  UNL     1      -1.897  -1.315   3.473  1.00  0.00    -0.259 NA
HETATM    6  C9  UNL     1      -2.444  -0.009   3.379  1.00  0.00     0.271 C 
HETATM    7  N2  UNL     1      -3.628   0.037   2.568  1.00  0.00    -0.380 N 
HETATM    8  C10 UNL     1      -3.523  -0.282   1.186  1.00  0.00     0.103 C 
HETATM    9  C11 UNL     1      -3.346   0.281  -0.025  1.00  0.00     0.128 C 
HETATM   10  N3  UNL     1      -3.199   0.313  -1.462  1.00  0.00    -0.282 N 
HETATM   11  C12 UNL     1      -4.373   0.804  -2.107  1.00  0.00     0.179 C 
HETATM   12  N4  UNL     1      -1.928  -0.181  -1.376  1.00  0.00    -0.155 NA
HETATM   13  C13 UNL     1      -1.041  -0.339  -2.261  1.00  0.00     0.150 A 
HETATM   14  N5  UNL     1      -0.975  -0.088  -3.656  1.00  0.00    -0.370 N 
HETATM   15  C14 UNL     1       0.323  -0.475  -4.171  1.00  0.00     0.149 A 
HETATM   16  C15 UNL     1       1.024  -0.973  -2.991  1.00  0.00     0.004 A 
HETATM   17  C16 UNL     1       0.270  -0.901  -1.913  1.00  0.00     0.001 A 
HETATM   18  H14 UNL     1      -4.653   0.189   2.382  1.00  0.00     0.160 HD
HETATM   19  H20 UNL     1      -1.773   0.319  -4.195  1.00  0.00     0.161 HD
ENDROOT
BRANCH   1  20
HETATM   20  C5  UNL     1       1.913  -0.582  -0.114  1.00  0.00     0.159 C 
HETATM   21  O2  UNL     1       3.006  -1.191   0.096  1.00  0.00    -0.292 OA
BRANCH  20  22
HETATM   22  C4  UNL     1       1.837   0.840   0.082  1.00  0.00     0.049 C 
HETATM   23  C3  UNL     1       2.831   1.620   0.477  1.00  0.00     0.003 C 
BRANCH  23  24
HETATM   24  C2  UNL     1       4.242   1.427   0.839  1.00  0.00     0.194 C 
BRANCH  24  25
HETATM   25  O1  UNL     1       4.470   1.840   2.153  1.00  0.00    -0.392 OA
HETATM   26  C1  UNL     1       5.803   1.659   2.497  1.00  0.00     0.201 C 
ENDBRANCH  24  25
ENDBRANCH  23  24
ENDBRANCH  20  22
ENDBRANCH   1  20
TORSDOF 4
