REMARK  6 active torsions:
REMARK  status: ('A' for Active; 'I' for Inactive)
REMARK    1  A    between atoms: C2_2  and  C3_3 
REMARK       I    between atoms: C3_3  and  N1_5 
REMARK    2  A    between atoms: C5_7  and  O2_8 
REMARK    3  A    between atoms: O2_8  and  C6_9 
REMARK    4  A    between atoms: C10_15  and  N3_16 
REMARK    5  A    between atoms: C11_18  and  C12_19 
REMARK    6  A    between atoms: C13_21  and  N4_22 
ROOT
HETATM    1  C3  UNL     1       1.816  -1.651  -0.011  1.00  0.00     0.243 C 
HETATM    2  O1  UNL     1       1.926  -2.810   0.462  1.00  0.00    -0.268 OA
HETATM    3  N1  UNL     1       1.099  -0.505  -0.449  1.00  0.00    -0.337 N 
HETATM    4  C4  UNL     1       1.464   0.809  -1.009  1.00  0.00     0.169 C 
HETATM    5  C5  UNL     1       0.287   1.341  -0.185  1.00  0.00     0.120 C 
HETATM    6  C8  UNL     1       0.545   1.458   1.263  1.00  0.00     0.218 C 
HETATM    7  O3  UNL     1      -0.640   1.831   1.936  1.00  0.00    -0.342 OA
HETATM    8  C9  UNL     1      -1.983   1.960   1.656  1.00  0.00     0.247 C 
HETATM    9  N2  UNL     1      -2.744   1.125   1.039  1.00  0.00    -0.255 NA
HETATM   10  C10 UNL     1      -2.568  -0.147   0.444  1.00  0.00     0.223 C 
HETATM   11  C11 UNL     1      -1.159  -0.674   0.391  1.00  0.00     0.099 C 
HETATM   12  C14 UNL     1      -0.276  -0.019  -0.580  1.00  0.00     0.138 C 
ENDROOT
BRANCH  11  13
HETATM   13  C12 UNL     1      -1.327  -2.086  -0.130  1.00  0.00     0.031 C 
HETATM   14 CL1  UNL     1      -2.302  -3.268   0.696  1.00  0.00    -0.087 Cl
HETATM   15  C13 UNL     1      -0.869  -2.742  -1.185  1.00  0.00     0.074 C 
BRANCH  15  16
HETATM   16  N4  UNL     1      -0.947  -4.034  -1.777  1.00  0.00    -0.311 NA
HETATM   17  H18 UNL     1      -1.626  -4.745  -1.409  1.00  0.00     0.123 HD
HETATM   18  H19 UNL     1      -1.579  -4.831  -1.506  1.00  0.00     0.123 HD
ENDBRANCH  15  16
ENDBRANCH  11  13
BRANCH  10  19
HETATM   19  N3  UNL     1      -3.344  -1.158   1.183  1.00  0.00    -0.137 NA
HETATM   20  F1  UNL     1      -2.908  -1.195   2.484  1.00  0.00    -0.134 F 
HETATM   21  H15 UNL     1      -4.341  -0.798   1.270  1.00  0.00     0.161 HD
ENDBRANCH  10  19
BRANCH   5  22
HETATM   22  O2  UNL     1      -0.479   2.308  -0.747  1.00  0.00    -0.374 OA
BRANCH  22  23
HETATM   23  C6  UNL     1       0.077   3.456  -1.194  1.00  0.00     0.164 C 
HETATM   24  C7  UNL     1       0.761   4.237  -0.116  1.00  0.00     0.033 C 
ENDBRANCH  22  23
ENDBRANCH   5  22
BRANCH   1  25
HETATM   25  C2  UNL     1       3.263  -1.645  -0.087  1.00  0.00     0.064 C 
HETATM   26  C1  UNL     1       3.722  -2.779   0.359  1.00  0.00     0.017 C 
ENDBRANCH   1  25
TORSDOF 6
