REMARK  3 active torsions:
REMARK  status: ('A' for Active; 'I' for Inactive)
REMARK    1  A    between atoms: C3_3  and  N1_5 
REMARK    2  A    between atoms: N1_5  and  C5_7 
REMARK    3  A    between atoms: N3_10  and  C7_11 
ROOT
HETATM    1  C5  UNL     1      -1.084   0.057  -0.808  1.00  0.00     0.109 C 
HETATM    2  N2  UNL     1      -1.138  -0.706   0.203  1.00  0.00    -0.257 NA
HETATM    3  C6  UNL     1      -0.443  -1.917   0.471  1.00  0.00     0.277 C 
HETATM    4  N3  UNL     1       0.994  -1.813   0.361  1.00  0.00    -0.344 N 
HETATM    5  C11 UNL     1       1.880  -2.593  -0.475  1.00  0.00     0.247 C 
HETATM    6  N6  UNL     1       1.553  -2.372  -1.866  1.00  0.00    -0.381 N 
HETATM    7  C12 UNL     1       0.258  -2.650  -2.382  1.00  0.00     0.104 C 
HETATM    8  C13 UNL     1      -0.617  -1.630  -2.427  1.00  0.00     0.034 C 
HETATM    9 CL1  UNL     1      -2.255  -1.790  -3.031  1.00  0.00    -0.087 Cl
HETATM   10  C14 UNL     1      -0.189  -0.270  -1.947  1.00  0.00     0.131 C 
HETATM   11  H16 UNL     1       1.938  -2.045  -2.778  1.00  0.00     0.160 HD
ENDROOT
BRANCH   1  12
HETATM   12  N1  UNL     1      -1.935   1.190  -0.715  1.00  0.00    -0.322 N 
HETATM   13  C4  UNL     1      -1.878   2.076  -1.869  1.00  0.00     0.159 C 
BRANCH  12  14
HETATM   14  C3  UNL     1      -2.681   1.245   0.489  1.00  0.00     0.152 A 
HETATM   15  C2  UNL     1      -3.532   2.425   0.516  1.00  0.00     0.205 A 
HETATM   16  C1  UNL     1      -4.419   3.261   1.016  1.00  0.00     0.044 C 
HETATM   17  O1  UNL     1      -3.290   1.209   1.569  1.00  0.00    -0.323 OA
ENDBRANCH  12  14
ENDBRANCH   1  12
BRANCH   4  18
HETATM   18  C7  UNL     1       1.540  -0.807   1.215  1.00  0.00     0.069 A 
HETATM   19  C8  UNL     1       0.891   0.029   2.095  1.00  0.00     0.169 A 
HETATM   20  N4  UNL     1       1.798   0.827   2.696  1.00  0.00    -0.183 NA
HETATM   21  N5  UNL     1       3.022   0.556   2.253  1.00  0.00    -0.283 N 
HETATM   22  C9  UNL     1       4.273   1.196   2.653  1.00  0.00     0.179 C 
HETATM   23  C10 UNL     1       2.861  -0.432   1.359  1.00  0.00     0.142 A 
ENDBRANCH   4  18
TORSDOF 3
