REMARK  4 active torsions:
REMARK  status: ('A' for Active; 'I' for Inactive)
REMARK    1  A    between atoms: C2_2  and  C3_3 
REMARK       I    between atoms: C3_3  and  N1_5 
REMARK    2  A    between atoms: N1_5  and  C5_7 
REMARK    3  A    between atoms: C5_7  and  C6_8 
REMARK    4  A    between atoms: C6_8  and  C7_9 
ROOT
HETATM    1  C7  UNL     1       0.099  -0.757   0.035  1.00  0.00     0.061 C 
HETATM    2  C8  UNL     1      -0.288  -1.631  -1.104  1.00  0.00     0.039 C 
HETATM    3  C9  UNL     1      -1.102  -0.929  -2.159  1.00  0.00     0.178 C 
HETATM    4  O2  UNL     1      -2.483  -0.824  -1.823  1.00  0.00    -0.337 OA
HETATM    5  C10 UNL     1      -2.948  -0.172  -0.664  1.00  0.00     0.147 C 
HETATM    6  N2  UNL     1      -2.275   0.208   0.376  1.00  0.00    -0.212 NA
HETATM    7  C11 UNL     1      -1.108  -0.485   0.869  1.00  0.00     0.142 C 
HETATM    8  N3  UNL     1      -1.081  -0.904   2.101  1.00  0.00    -0.179 NA
HETATM    9  S1  UNL     1      -2.476  -0.617   3.146  1.00  0.00     0.092 SA
HETATM   10  N4  UNL     1      -3.452   0.678   2.425  1.00  0.00    -0.320 N 
HETATM   11  C12 UNL     1      -4.603   0.651   1.589  1.00  0.00     0.117 C 
HETATM   12  C13 UNL     1      -5.106   0.429   0.385  1.00  0.00     0.035 C 
HETATM   13 CL1  UNL     1      -6.829   0.612   0.030  1.00  0.00    -0.087 Cl
HETATM   14  C14 UNL     1      -4.429   0.013  -0.855  1.00  0.00     0.138 C 
HETATM   15  H16 UNL     1      -3.050   1.598   2.709  1.00  0.00     0.175 HD
ENDROOT
BRANCH   1  16
HETATM   16  C6  UNL     1       0.734   0.540  -0.326  1.00  0.00     0.032 C 
BRANCH  16  17
HETATM   17  C5  UNL     1       1.998   0.398  -1.099  1.00  0.00     0.126 C 
BRANCH  17  18
HETATM   18  N1  UNL     1       3.041  -0.318  -0.439  1.00  0.00    -0.353 N 
HETATM   19  C3  UNL     1       3.948   0.433   0.369  1.00  0.00     0.242 C 
HETATM   20  O1  UNL     1       4.920  -0.044   1.016  1.00  0.00    -0.268 OA
HETATM   21  C4  UNL     1       3.509  -1.685  -0.320  1.00  0.00     0.152 C 
BRANCH  19  22
HETATM   22  C2  UNL     1       3.885   1.879   0.567  1.00  0.00     0.064 C 
HETATM   23  C1  UNL     1       4.889   2.189   1.372  1.00  0.00     0.017 C 
ENDBRANCH  19  22
ENDBRANCH  17  18
ENDBRANCH  16  17
ENDBRANCH   1  16
TORSDOF 4
