REMARK  4 active torsions:
REMARK  status: ('A' for Active; 'I' for Inactive)
REMARK    1  A    between atoms: C2_2  and  C3_4 
REMARK    2  A    between atoms: C6_9  and  N3_10 
REMARK    3  A    between atoms: N3_10  and  N4_11 
REMARK    4  A    between atoms: C12_20  and  C13_21 
ROOT
HETATM    1  N4  UNL     1       1.705  -1.015   1.833  1.00  0.00    -0.247 N 
HETATM    2  C7  UNL     1       0.934  -1.820   2.584  1.00  0.00     0.143 A 
HETATM    3  C8  UNL     1      -0.350  -1.328   2.494  1.00  0.00     0.064 A 
HETATM    4 CL1  UNL     1      -1.622  -2.123   3.396  1.00  0.00    -0.082 Cl
HETATM    5  C9  UNL     1      -0.445  -0.211   1.695  1.00  0.00     0.043 A 
HETATM    6  C10 UNL     1       0.887  -0.081   1.324  1.00  0.00     0.161 A 
HETATM    7  N5  UNL     1       1.306   1.053   0.551  1.00  0.00    -0.217 NA
HETATM    8  C11 UNL     1       0.380   1.894   0.266  1.00  0.00     0.254 C 
HETATM    9  O2  UNL     1      -0.945   1.857   0.603  1.00  0.00    -0.334 OA
HETATM   10  C12 UNL     1      -1.508   0.683   1.193  1.00  0.00     0.176 C 
ENDROOT
BRANCH   1  11
HETATM   11  N3  UNL     1       3.085  -1.155   1.654  1.00  0.00    -0.289 N 
HETATM   12  H8  UNL     1       3.595  -1.924   2.140  1.00  0.00     0.188 HD
BRANCH  11  13
HETATM   13  C6  UNL     1       3.996  -0.409   0.888  1.00  0.00     0.100 A 
HETATM   14  C3  UNL     1       4.128  -0.153  -0.459  1.00  0.00     0.151 A 
HETATM   15  N1  UNL     1       5.192   0.632  -0.695  1.00  0.00    -0.167 NA
HETATM   16  N2  UNL     1       5.779   0.910   0.461  1.00  0.00    -0.282 N 
HETATM   17  C4  UNL     1       6.966   1.717   0.764  1.00  0.00     0.179 C 
HETATM   18  C5  UNL     1       5.078   0.294   1.436  1.00  0.00     0.145 A 
BRANCH  14  19
HETATM   19  C2  UNL     1       3.233  -0.684  -1.474  1.00  0.00     0.178 C 
HETATM   20  C1  UNL     1       3.440  -0.344  -2.906  1.00  0.00     0.099 C 
HETATM   21  O1  UNL     1       2.253  -1.439  -1.260  1.00  0.00    -0.291 OA
ENDBRANCH  14  19
ENDBRANCH  11  13
ENDBRANCH   1  11
BRANCH  10  22
HETATM   22  C13 UNL     1      -2.352   0.053   0.074  1.00  0.00     0.072 C 
HETATM   23  C14 UNL     1      -3.068  -1.136   0.531  1.00  0.00     0.279 C 
HETATM   24  N6  UNL     1      -4.175  -1.552  -0.305  1.00  0.00     0.086 N 
HETATM   25  C15 UNL     1      -4.175  -1.000  -1.625  1.00  0.00     0.300 C 
HETATM   26  H15 UNL     1      -5.091  -1.510   0.176  1.00  0.00     0.315 HD
HETATM   27  C16 UNL     1      -5.009   0.280  -1.547  1.00  0.00     0.145 C 
HETATM   28  C17 UNL     1      -6.479  -0.045  -1.446  1.00  0.00     0.041 C 
HETATM   29  O3  UNL     1      -4.546   0.944  -0.400  1.00  0.00    -0.384 OA
HETATM   30  C18 UNL     1      -3.175   1.120  -0.575  1.00  0.00     0.177 C 
ENDBRANCH  10  22
TORSDOF 4
