REMARK  11 active torsions:
REMARK  status: ('A' for Active; 'I' for Inactive)
REMARK    1  A    between atoms: C2_2  and  C3_3 
REMARK       I    between atoms: C3_3  and  N1_5 
REMARK    2  A    between atoms: C5_7  and  C7_9 
REMARK    3  A    between atoms: C7_9  and  C8_10 
REMARK    4  A    between atoms: C8_10  and  O2_11 
REMARK    5  A    between atoms: O2_11  and  C9_12 
REMARK    6  A    between atoms: C10_14  and  N3_15 
REMARK    7  A    between atoms: N3_15  and  C11_16 
REMARK    8  A    between atoms: C11_16  and  C12_17 
REMARK    9  A    between atoms: C15_22  and  C16_23 
REMARK   10  A    between atoms: C16_23  and  C17_24 
REMARK   11  A    between atoms: C18_26  and  N5_27 
ROOT
HETATM    1  C12 UNL     1       5.789   2.109   0.660  1.00  0.00    -0.092 C 
HETATM    2  S1  UNL     1       5.664   3.317   0.255  1.00  0.00    -0.095 SA
HETATM    3  C13 UNL     1       5.536   4.797  -0.228  1.00  0.00     0.104 C 
ENDROOT
BRANCH   1   4
HETATM    4  C11 UNL     1       5.956   0.752   1.122  1.00  0.00     0.231 C 
BRANCH   4   5
HETATM    5  N3  UNL     1       4.634   0.272   1.559  1.00  0.00    -0.212 N 
HETATM    6  H13 UNL     1       4.455   0.344   2.583  1.00  0.00     0.178 HD
BRANCH   5   7
HETATM    7  C10 UNL     1       3.815  -0.223   0.535  1.00  0.00     0.725 A 
HETATM    8  N2  UNL     1       2.571  -0.316   0.600  1.00  0.00    -0.038 NA
HETATM    9  C9  UNL     1       1.461  -0.681   0.121  1.00  0.00     0.191 A 
HETATM   10  C15 UNL     1       2.024  -1.275  -1.114  1.00  0.00     0.019 A 
HETATM   11  C14 UNL     1       3.424  -1.324  -1.483  1.00  0.00     0.148 A 
HETATM   12  N4  UNL     1       4.317  -0.760  -0.590  1.00  0.00    -0.075 NA
BRANCH   9  13
HETATM   13  O2  UNL     1       0.287  -1.069  -0.388  1.00  0.00    -0.334 OA
BRANCH  13  14
HETATM   14  C8  UNL     1      -1.005  -0.928   0.077  1.00  0.00     0.178 C 
BRANCH  14  15
HETATM   15  C7  UNL     1      -1.410   0.522   0.235  1.00  0.00     0.039 C 
BRANCH  15  16
HETATM   16  C5  UNL     1      -2.831   0.677   0.666  1.00  0.00    -0.010 C 
HETATM   17  C4  UNL     1      -3.824   0.074  -0.312  1.00  0.00     0.136 C 
HETATM   18  N1  UNL     1      -4.659   1.240  -0.121  1.00  0.00    -0.347 N 
HETATM   19  C3  UNL     1      -5.983   1.690  -0.260  1.00  0.00     0.242 C 
HETATM   20  C19 UNL     1      -3.491   1.981   0.283  1.00  0.00     0.136 C 
HETATM   21  O1  UNL     1      -6.411   2.851   0.067  1.00  0.00    -0.268 OA
HETATM   22  C6  UNL     1      -3.206   0.289   2.058  1.00  0.00     0.018 C 
BRANCH  19  23
HETATM   23  C2  UNL     1      -7.135   1.029  -0.765  1.00  0.00     0.064 C 
HETATM   24  C1  UNL     1      -8.371   0.950  -1.070  1.00  0.00     0.017 C 
ENDBRANCH  19  23
ENDBRANCH  15  16
ENDBRANCH  14  15
ENDBRANCH  13  14
ENDBRANCH   9  13
BRANCH  10  25
HETATM   25  C16 UNL     1       1.456  -2.098  -2.279  1.00  0.00     0.097 C 
BRANCH  25  26
HETATM   26  C17 UNL     1       1.511  -3.535  -1.902  1.00  0.00     0.031 C 
HETATM   27 CL1  UNL     1       0.982  -5.047  -2.591  1.00  0.00    -0.087 Cl
HETATM   28  C18 UNL     1       2.127  -3.606  -0.740  1.00  0.00     0.100 C 
BRANCH  28  29
HETATM   29  N5  UNL     1       2.384  -4.796  -0.029  1.00  0.00    -0.407 N 
HETATM   30  H23 UNL     1       3.111  -5.580   0.014  1.00  0.00     0.155 HD
HETATM   31  H24 UNL     1       2.329  -5.592   0.621  1.00  0.00     0.155 HD
ENDBRANCH  28  29
ENDBRANCH  25  26
ENDBRANCH  10  25
ENDBRANCH   5   7
ENDBRANCH   4   5
ENDBRANCH   1   4
TORSDOF 11
