REMARK  6 active torsions:
REMARK  status: ('A' for Active; 'I' for Inactive)
REMARK    1  A    between atoms: C3_3  and  O1_4 
REMARK    2  A    between atoms: O1_4  and  C4_5 
REMARK    3  A    between atoms: C8_11  and  N3_12 
REMARK    4  A    between atoms: N3_12  and  C9_13 
REMARK    5  A    between atoms: C17_23  and  C18_24 
REMARK    6  A    between atoms: C18_24  and  N4_26 
ROOT
HETATM    1  C1  UNL     1      -3.060   2.878   3.189  1.00  0.00     0.014 C 
HETATM    2  C2  UNL     1      -3.628   2.253   2.331  1.00  0.00    -0.091 C 
HETATM    3  C3  UNL     1      -4.319   1.489   1.312  1.00  0.00     0.268 C 
ENDROOT
BRANCH   3   4
HETATM    4  O1  UNL     1      -3.590   0.341   0.918  1.00  0.00    -0.339 OA
BRANCH   4   5
HETATM    5  C4  UNL     1      -2.345   0.359   0.334  1.00  0.00     0.080 A 
HETATM    6  C5  UNL     1      -1.783   1.603   0.109  1.00  0.00     0.070 A 
HETATM    7  C6  UNL     1      -0.539   1.684  -0.477  1.00  0.00     0.074 A 
HETATM    8  N1  UNL     1       0.048   2.848  -0.734  1.00  0.00    -0.241 NA
HETATM    9  C15 UNL     1       0.105   0.513  -0.820  1.00  0.00     0.039 A 
HETATM   10  C7  UNL     1       1.234   2.982  -1.308  1.00  0.00     0.236 A 
HETATM   11  N2  UNL     1       1.857   1.830  -1.640  1.00  0.00    -0.224 NA
HETATM   12  C8  UNL     1       1.359   0.603  -1.428  1.00  0.00     0.142 A 
HETATM   13  C16 UNL     1      -0.442  -0.729  -0.602  1.00  0.00     0.029 A 
HETATM   14  C17 UNL     1      -1.692  -0.832  -0.015  1.00  0.00    -0.002 A 
BRANCH  12  15
HETATM   15  N3  UNL     1       2.125  -0.554  -1.834  1.00  0.00    -0.340 N 
HETATM   16  H6  UNL     1       2.015  -1.249  -2.607  1.00  0.00     0.167 HD
BRANCH  15  17
HETATM   17  C9  UNL     1       3.170  -0.531  -0.835  1.00  0.00     0.035 A 
HETATM   18  C10 UNL     1       4.240   0.165  -1.420  1.00  0.00     0.032 A 
HETATM   19  C11 UNL     1       5.425   0.372  -0.700  1.00  0.00     0.046 A 
HETATM   20  C12 UNL     1       5.511  -0.120   0.583  1.00  0.00     0.138 A 
HETATM   21  F1  UNL     1       6.616   0.032   1.352  1.00  0.00    -0.204 F 
HETATM   22  C13 UNL     1       4.454  -0.802   1.144  1.00  0.00     0.074 A 
HETATM   23 CL1  UNL     1       4.459  -1.468   2.762  1.00  0.00    -0.081 Cl
HETATM   24  C14 UNL     1       3.286  -1.013   0.451  1.00  0.00     0.056 A 
ENDBRANCH  15  17
ENDBRANCH  12  15
BRANCH  14  25
HETATM   25  C18 UNL     1      -2.433  -2.047   0.299  1.00  0.00     0.106 C 
HETATM   26  C19 UNL     1      -3.444  -2.309  -0.819  1.00  0.00     0.037 C 
BRANCH  25  27
HETATM   27  N4  UNL     1      -1.655  -3.235   0.464  1.00  0.00    -0.422 N 
HETATM   28  H15 UNL     1      -1.897  -3.834   1.277  1.00  0.00     0.150 HD
HETATM   29  H16 UNL     1      -1.393  -3.736  -0.407  1.00  0.00     0.150 HD
ENDBRANCH  25  27
ENDBRANCH  14  25
ENDBRANCH   4   5
ENDBRANCH   3   4
TORSDOF 6
