REMARK  6 active torsions:
REMARK  status: ('A' for Active; 'I' for Inactive)
REMARK    1  A    between atoms: O1_3  and  C3_4 
REMARK    2  A    between atoms: C3_4  and  C4_5 
REMARK    3  A    between atoms: C4_5  and  N1_6 
REMARK       I    between atoms: N1_6  and  C5_7 
REMARK    4  A    between atoms: C5_7  and  C6_9 
REMARK    5  A    between atoms: C18_24  and  C19_25 
REMARK    6  A    between atoms: C19_25  and  N3_26 
ROOT
HETATM    1  C1  UNL     1      -4.167  -4.232  -1.663  1.00  0.00     0.044 C 
HETATM    2  C2  UNL     1      -3.338  -3.458  -1.317  1.00  0.00     0.043 C 
HETATM    3  O1  UNL     1      -2.419  -2.567  -0.924  1.00  0.00    -0.298 OA
ENDROOT
BRANCH   3   4
HETATM    4  C3  UNL     1      -2.633  -1.202  -0.736  1.00  0.00     0.245 C 
BRANCH   4   5
HETATM    5  C4  UNL     1      -1.432  -0.488  -0.303  1.00  0.00     0.048 C 
HETATM    6  C8  UNL     1      -0.180  -0.609  -0.022  1.00  0.00     0.001 C 
HETATM    7  C9  UNL     1       0.853   0.350   0.439  1.00  0.00     0.046 C 
HETATM    8  C18 UNL     1       0.456  -1.895  -0.253  1.00  0.00     0.013 C 
HETATM    9  C10 UNL     1       2.099  -0.035   0.588  1.00  0.00     0.068 C 
HETATM   10  C11 UNL     1       3.062   0.924   1.023  1.00  0.00    -0.006 A 
HETATM   11  N2  UNL     1       2.483  -1.422   0.414  1.00  0.00    -0.245 NA
HETATM   12  C12 UNL     1       4.372   0.494   1.170  1.00  0.00     0.017 A 
HETATM   13  C16 UNL     1       2.855   2.229   1.318  1.00  0.00     0.040 A 
HETATM   14  C13 UNL     1       5.370   1.343   1.584  1.00  0.00     0.045 A 
HETATM   15  C14 UNL     1       5.133   2.648   1.872  1.00  0.00     0.138 A 
HETATM   16  F1  UNL     1       6.111   3.472   2.276  1.00  0.00    -0.204 F 
HETATM   17  C15 UNL     1       3.837   3.119   1.739  1.00  0.00     0.073 A 
HETATM   18 CL1  UNL     1       3.464   4.785   2.094  1.00  0.00    -0.081 Cl
HETATM   19  C17 UNL     1       1.445  -2.276   0.576  1.00  0.00     0.095 C 
BRANCH   5  20
HETATM   20  N1  UNL     1      -1.750   0.893  -0.183  1.00  0.00    -0.324 N 
HETATM   21  C5  UNL     1      -2.993   1.531  -0.385  1.00  0.00     0.244 C 
HETATM   22  O2  UNL     1      -4.060   0.907  -0.714  1.00  0.00    -0.268 OA
HETATM   23  H4  UNL     1      -1.163   1.744   0.069  1.00  0.00     0.169 HD
BRANCH  21  24
HETATM   24  C6  UNL     1      -3.309   2.947  -0.271  1.00  0.00     0.064 C 
HETATM   25  C7  UNL     1      -4.506   3.458  -0.482  1.00  0.00     0.017 C 
ENDBRANCH  21  24
ENDBRANCH   5  20
BRANCH   8  26
HETATM   26  C19 UNL     1       0.249  -2.822  -1.384  1.00  0.00     0.308 C 
BRANCH  26  27
HETATM   27  N3  UNL     1       0.152  -4.215  -1.004  1.00  0.00     0.082 N 
HETATM   28  H14 UNL     1      -0.706  -4.681  -1.351  1.00  0.00     0.313 HD
HETATM   29  H15 UNL     1       0.277  -4.284   0.025  1.00  0.00     0.313 HD
ENDBRANCH  26  27
ENDBRANCH   8  26
ENDBRANCH   4   5
ENDBRANCH   3   4
TORSDOF 6
