REMARK  7 active torsions:
REMARK  status: ('A' for Active; 'I' for Inactive)
REMARK    1  A    between atoms: C3_3  and  O1_4 
REMARK    2  A    between atoms: O1_4  and  C4_5 
REMARK    3  A    between atoms: C8_11  and  N3_12 
REMARK    4  A    between atoms: N3_12  and  C9_13 
REMARK    5  A    between atoms: C9_13  and  C10_14 
REMARK    6  A    between atoms: C11_15  and  C12_17 
REMARK    7  A    between atoms: C15_21  and  N4_22 
REMARK       I    between atoms: N4_22  and  C16_23 
ROOT
HETATM    1  C1  UNL     1      -6.784  -0.153  -1.712  1.00  0.00     0.014 C 
HETATM    2  C2  UNL     1      -5.628  -0.517  -1.676  1.00  0.00    -0.091 C 
HETATM    3  C3  UNL     1      -4.218  -0.970  -1.611  1.00  0.00     0.268 C 
ENDROOT
BRANCH   3   4
HETATM    4  O1  UNL     1      -3.503  -0.189  -0.686  1.00  0.00    -0.337 OA
BRANCH   4   5
HETATM    5  C4  UNL     1      -2.159  -0.399  -0.428  1.00  0.00     0.099 A 
HETATM    6  C5  UNL     1      -1.438  -1.390  -1.065  1.00  0.00     0.071 A 
HETATM    7  C6  UNL     1      -0.099  -1.573  -0.785  1.00  0.00     0.075 A 
HETATM    8  N1  UNL     1       0.574  -2.548  -1.424  1.00  0.00    -0.241 NA
HETATM    9  C13 UNL     1       0.590  -0.799   0.125  1.00  0.00     0.041 A 
HETATM   10  C7  UNL     1       1.878  -2.705  -1.133  1.00  0.00     0.235 A 
HETATM   11  N2  UNL     1       2.513  -1.930  -0.238  1.00  0.00    -0.224 NA
HETATM   12  C8  UNL     1       1.921  -0.936   0.444  1.00  0.00     0.137 A 
HETATM   13  C14 UNL     1      -0.167   0.177   0.738  1.00  0.00     0.050 A 
HETATM   14  C15 UNL     1      -1.505   0.404   0.497  1.00  0.00     0.069 A 
BRANCH  12  15
HETATM   15  N3  UNL     1       2.597  -0.128   1.400  1.00  0.00    -0.370 N 
HETATM   16  H6  UNL     1       2.160   0.633   1.953  1.00  0.00     0.161 HD
BRANCH  15  17
HETATM   17  C9  UNL     1       4.007  -0.435   1.577  1.00  0.00     0.150 C 
BRANCH  17  18
HETATM   18  C10 UNL     1       4.702  -0.072   0.315  1.00  0.00     0.014 C 
HETATM   19  C11 UNL     1       4.448   0.441  -0.861  1.00  0.00     0.038 C 
HETATM   20 CL1  UNL     1       3.032   1.044  -1.695  1.00  0.00    -0.087 Cl
BRANCH  19  21
HETATM   21  C12 UNL     1       5.530   0.627  -1.858  1.00  0.00     0.273 C 
HETATM   22  F1  UNL     1       5.655   1.971  -2.203  1.00  0.00    -0.250 F 
ENDBRANCH  19  21
ENDBRANCH  17  18
ENDBRANCH  15  17
ENDBRANCH  12  15
BRANCH  14  23
HETATM   23  N4  UNL     1      -2.256   1.420   1.146  1.00  0.00    -0.325 N 
HETATM   24  C16 UNL     1      -3.027   1.499   2.331  1.00  0.00     0.218 C 
HETATM   25  C17 UNL     1      -3.608   2.843   2.534  1.00  0.00     0.117 C 
HETATM   26  O2  UNL     1      -3.169   0.506   3.091  1.00  0.00    -0.274 OA
HETATM   27  H13 UNL     1      -2.085   2.195   0.458  1.00  0.00     0.169 HD
ENDBRANCH  14  23
ENDBRANCH   4   5
ENDBRANCH   3   4
TORSDOF 7
