REMARK  2 active torsions:
REMARK  status: ('A' for Active; 'I' for Inactive)
REMARK    1  A    between atoms: C3_3  and  O1_4 
REMARK    2  A    between atoms: O1_4  and  C4_5 
ROOT
HETATM    1  C1  UNL     1      -3.551  -1.272   3.453  1.00  0.00     0.014 C 
HETATM    2  C2  UNL     1      -3.454  -1.760   2.338  1.00  0.00    -0.091 C 
HETATM    3  C3  UNL     1      -3.348  -2.360   0.996  1.00  0.00     0.268 C 
ENDROOT
BRANCH   3   4
HETATM    4  O1  UNL     1      -2.193  -1.951   0.312  1.00  0.00    -0.337 OA
BRANCH   4   5
HETATM    5  C4  UNL     1      -2.021  -0.592   0.051  1.00  0.00     0.099 A 
HETATM    6  C5  UNL     1      -2.875   0.436   0.403  1.00  0.00     0.071 A 
HETATM    7  C6  UNL     1      -2.391   1.656  -0.000  1.00  0.00     0.075 A 
HETATM    8  N1  UNL     1      -3.106   2.756   0.296  1.00  0.00    -0.241 NA
HETATM    9  C9  UNL     1      -1.204   1.799  -0.669  1.00  0.00     0.042 A 
HETATM   10  C7  UNL     1      -2.659   3.976  -0.058  1.00  0.00     0.236 A 
HETATM   11  N2  UNL     1      -1.479   4.141  -0.720  1.00  0.00    -0.223 NA
HETATM   12  C8  UNL     1      -0.760   3.050  -1.020  1.00  0.00     0.149 A 
HETATM   13  N4  UNL     1       0.471   3.324  -1.652  1.00  0.00    -0.299 N 
HETATM   14  C20 UNL     1       1.541   2.843  -0.973  1.00  0.00     0.017 C 
HETATM   15  H12 UNL     1       0.532   3.847  -2.548  1.00  0.00     0.178 HD
HETATM   16  C19 UNL     1       2.456   2.441  -0.416  1.00  0.00    -0.052 C 
HETATM   17  C18 UNL     1       3.560   1.961   0.228  1.00  0.00     0.110 C 
HETATM   18  C17 UNL     1       4.100   0.826   0.491  1.00  0.00     0.142 C 
HETATM   19  C16 UNL     1       4.072  -0.584   0.395  1.00  0.00     0.057 A 
HETATM   20  F1  UNL     1       5.251   1.080   1.202  1.00  0.00    -0.204 F 
HETATM   21  C15 UNL     1       3.721  -1.790   0.124  1.00  0.00     0.141 A 
HETATM   22 CL1  UNL     1       5.333  -1.765   0.669  1.00  0.00    -0.169 Cl
HETATM   23  C14 UNL     1       2.799  -2.791  -0.306  1.00  0.00     0.004 C 
HETATM   24  C13 UNL     1       1.760  -3.443  -0.715  1.00  0.00     0.072 C 
HETATM   25  C12 UNL     1       0.455  -2.951  -1.000  1.00  0.00     0.245 C 
HETATM   26  N3  UNL     1      -0.171  -1.729  -0.816  1.00  0.00    -0.321 N 
HETATM   27  O2  UNL     1      -0.591  -3.375  -1.510  1.00  0.00    -0.268 OA
HETATM   28  C11 UNL     1      -0.819  -0.467  -0.627  1.00  0.00     0.069 A 
HETATM   29  H7  UNL     1       0.450  -1.311  -0.130  1.00  0.00     0.169 HD
HETATM   30  C10 UNL     1      -0.365   0.789  -1.021  1.00  0.00     0.050 A 
ENDBRANCH   4   5
ENDBRANCH   3   4
TORSDOF 2
