REMARK  3 active torsions:
REMARK  status: ('A' for Active; 'I' for Inactive)
REMARK    1  A    between atoms: C3_3  and  C4_4 
REMARK    2  A    between atoms: C8_10  and  N3_11 
REMARK    3  A    between atoms: N3_11  and  C9_12 
ROOT
HETATM    1  C1  UNL     1       6.448   0.601  -0.102  1.00  0.00     0.012 C 
HETATM    2  C2  UNL     1       5.631  -0.277   0.099  1.00  0.00    -0.113 C 
HETATM    3  C3  UNL     1       4.664  -1.340   0.356  1.00  0.00     0.127 C 
ENDROOT
BRANCH   3   4
HETATM    4  C4  UNL     1       3.286  -0.764   0.216  1.00  0.00    -0.066 A 
HETATM    5  C5  UNL     1       3.144   0.514  -0.093  1.00  0.00     0.036 A 
HETATM    6  C6  UNL     1       1.752   0.958  -0.201  1.00  0.00     0.068 A 
HETATM    7  N1  UNL     1       1.584   2.273  -0.518  1.00  0.00    -0.241 NA
HETATM    8  C15 UNL     1       0.700   0.091   0.007  1.00  0.00     0.017 A 
HETATM    9  C7  UNL     1       0.338   2.715  -0.625  1.00  0.00     0.235 A 
HETATM   10  N2  UNL     1      -0.664   1.881  -0.424  1.00  0.00    -0.224 NA
HETATM   11  C8  UNL     1      -0.604   0.585  -0.112  1.00  0.00     0.138 A 
HETATM   12  C16 UNL     1       0.852  -1.335   0.350  1.00  0.00     0.049 A 
HETATM   13  C17 UNL     1       2.266  -1.788   0.464  1.00  0.00     0.040 A 
BRANCH  11  14
HETATM   14  N3  UNL     1      -1.706  -0.259   0.091  1.00  0.00    -0.340 N 
HETATM   15  H6  UNL     1      -1.494  -1.273   0.335  1.00  0.00     0.167 HD
BRANCH  14  16
HETATM   16  C9  UNL     1      -3.066   0.046   0.018  1.00  0.00     0.035 A 
HETATM   17  C10 UNL     1      -3.612   1.275  -0.278  1.00  0.00     0.032 A 
HETATM   18  C11 UNL     1      -4.950   1.592  -0.355  1.00  0.00     0.046 A 
HETATM   19  C12 UNL     1      -5.847   0.573  -0.110  1.00  0.00     0.138 A 
HETATM   20  F1  UNL     1      -7.177   0.805  -0.166  1.00  0.00    -0.204 F 
HETATM   21  C13 UNL     1      -5.396  -0.692   0.194  1.00  0.00     0.074 A 
HETATM   22 CL1  UNL     1      -6.524  -1.993   0.507  1.00  0.00    -0.081 Cl
HETATM   23  C14 UNL     1      -4.040  -0.911   0.247  1.00  0.00     0.056 A 
ENDBRANCH  14  16
ENDBRANCH  11  14
ENDBRANCH   3   4
TORSDOF 3
