REMARK  2 active torsions:
REMARK  status: ('A' for Active; 'I' for Inactive)
REMARK    1  A    between atoms: C4_4  and  N1_5 
REMARK    2  A    between atoms: N1_5  and  C5_6 
ROOT
HETATM    1  C1  UNL     1      -0.887   3.984  -0.233  1.00  0.00     0.020 C 
HETATM    2  C2  UNL     1      -0.067   3.098  -0.155  1.00  0.00    -0.050 C 
HETATM    3  C3  UNL     1       0.919   2.051  -0.077  1.00  0.00     0.151 A 
HETATM    4  C4  UNL     1       0.590   0.784  -0.292  1.00  0.00     0.105 A 
HETATM    5  C11 UNL     1       1.554  -0.309  -0.223  1.00  0.00     0.095 A 
HETATM    6  N2  UNL     1       1.247  -1.596  -0.436  1.00  0.00    -0.258 NA
HETATM    7  C12 UNL     1       2.206  -2.541  -0.351  1.00  0.00     0.117 A 
HETATM    8  C13 UNL     1       3.547  -2.277  -0.047  1.00  0.00     0.020 A 
HETATM    9  C14 UNL     1       3.867  -0.933   0.176  1.00  0.00     0.013 A 
HETATM   10  C15 UNL     1       2.864  -0.001   0.080  1.00  0.00    -0.003 A 
HETATM   11  C16 UNL     1       3.273   1.385   0.325  1.00  0.00     0.217 A 
HETATM   12  O1  UNL     1       2.237   2.309   0.222  1.00  0.00    -0.336 OA
ENDROOT
BRANCH   4  13
HETATM   13  N1  UNL     1      -0.758   0.496  -0.600  1.00  0.00    -0.352 N 
HETATM   14  H2  UNL     1      -1.108   0.730  -1.560  1.00  0.00     0.166 HD
BRANCH  13  15
HETATM   15  C5  UNL     1      -1.936  -0.044  -0.048  1.00  0.00     0.034 A 
HETATM   16  C6  UNL     1      -2.170  -1.416  -0.179  1.00  0.00     0.032 A 
HETATM   17  C7  UNL     1      -3.316  -2.015   0.345  1.00  0.00     0.046 A 
HETATM   18  C8  UNL     1      -4.190  -1.168   0.991  1.00  0.00     0.138 A 
HETATM   19  F1  UNL     1      -5.310  -1.712   1.510  1.00  0.00    -0.204 F 
HETATM   20  C9  UNL     1      -4.031   0.203   1.163  1.00  0.00     0.074 A 
HETATM   21 CL1  UNL     1      -5.231   1.136   2.007  1.00  0.00    -0.081 Cl
HETATM   22  C10 UNL     1      -2.864   0.739   0.617  1.00  0.00     0.056 A 
ENDBRANCH  13  15
ENDBRANCH   4  13
TORSDOF 2
