REMARK  8 active torsions:
REMARK  status: ('A' for Active; 'I' for Inactive)
REMARK    1  A    between atoms: C11_11  and  O1_12 
REMARK    2  A    between atoms: O1_12  and  C12_13 
REMARK    3  A    between atoms: C12_13  and  C13_14 
REMARK    4  A    between atoms: C13_14  and  O2_15 
REMARK    5  A    between atoms: C15_17  and  O3_18 
REMARK    6  A    between atoms: O3_18  and  C16_19 
REMARK    7  A    between atoms: C16_19  and  C17_20 
REMARK    8  A    between atoms: C17_20  and  O4_21 
ROOT
HETATM    1  C1  UNL     1      -4.877   2.739   2.426  1.00  0.00     0.018 C 
HETATM    2  C2  UNL     1      -4.917   1.789   1.652  1.00  0.00    -0.077 C 
HETATM    3  C3  UNL     1      -4.988   0.667   0.742  1.00  0.00     0.029 A 
HETATM    4  C4  UNL     1      -6.238   0.455   0.203  1.00  0.00     0.021 A 
HETATM    5  C5  UNL     1      -6.401  -0.588  -0.674  1.00  0.00     0.004 A 
HETATM    6  C6  UNL     1      -5.258  -1.332  -0.927  1.00  0.00     0.030 A 
HETATM    7  C7  UNL     1      -3.976  -1.133  -0.388  1.00  0.00     0.043 A 
HETATM    8  C8  UNL     1      -3.826  -0.068   0.503  1.00  0.00     0.006 A 
HETATM    9  C9  UNL     1      -2.554   0.296   1.167  1.00  0.00     0.001 C 
HETATM   10  C10 UNL     1      -1.514  -0.034   0.338  1.00  0.00     0.083 C 
HETATM   11  C11 UNL     1      -0.020   0.103   0.476  1.00  0.00     0.090 C 
HETATM   12  C15 UNL     1       0.530  -0.399  -0.628  1.00  0.00     0.117 C 
HETATM   13  C19 UNL     1       0.668  -1.035  -1.964  1.00  0.00     0.043 A 
HETATM   14  C20 UNL     1       1.215  -1.533  -3.063  1.00  0.00     0.156 A 
HETATM   15  N1  UNL     1      -0.384  -1.585  -2.793  1.00  0.00    -0.239 NA
HETATM   16  C21 UNL     1      -1.002  -2.604  -2.209  1.00  0.00     0.184 C 
HETATM   17  N2  UNL     1      -0.434  -2.852  -0.928  1.00  0.00    -0.245 NA
HETATM   18  C22 UNL     1      -1.202  -3.363  -0.047  1.00  0.00     0.103 C 
HETATM   19  C23 UNL     1      -2.469  -3.333  -0.336  1.00  0.00     0.122 C 
HETATM   20  N3  UNL     1      -2.948  -2.066  -0.812  1.00  0.00    -0.363 N 
HETATM   21  H25 UNL     1      -2.823  -1.352  -1.554  1.00  0.00     0.165 HD
ENDROOT
BRANCH  11  22
HETATM   22  O1  UNL     1       1.043   0.565   1.328  1.00  0.00    -0.350 OA
BRANCH  22  23
HETATM   23  C12 UNL     1       1.591   1.824   0.902  1.00  0.00     0.201 C 
BRANCH  23  24
HETATM   24  C13 UNL     1       2.185   2.611   2.023  1.00  0.00     0.193 C 
BRANCH  24  25
HETATM   25  O2  UNL     1       2.712   3.814   1.609  1.00  0.00    -0.394 OA
HETATM   26  C14 UNL     1       3.741   3.758   0.707  1.00  0.00     0.201 C 
ENDBRANCH  24  25
ENDBRANCH  23  24
ENDBRANCH  22  23
ENDBRANCH  11  22
BRANCH  12  27
HETATM   27  O3  UNL     1       1.928  -0.404  -0.778  1.00  0.00    -0.345 OA
BRANCH  27  28
HETATM   28  C16 UNL     1       2.624  -1.384  -0.022  1.00  0.00     0.202 C 
BRANCH  28  29
HETATM   29  C17 UNL     1       4.123  -1.236  -0.103  1.00  0.00     0.193 C 
BRANCH  29  30
HETATM   30  O4  UNL     1       4.479   0.012   0.386  1.00  0.00    -0.394 OA
HETATM   31  C18 UNL     1       5.866   0.193   0.344  1.00  0.00     0.201 C 
ENDBRANCH  29  30
ENDBRANCH  28  29
ENDBRANCH  27  28
ENDBRANCH  12  27
TORSDOF 8
