REMARK  7 active torsions:
REMARK  status: ('A' for Active; 'I' for Inactive)
REMARK    1  A    between atoms: C2_2  and  C3_3 
REMARK       I    between atoms: C3_3  and  N1_5 
REMARK    2  A    between atoms: N1_5  and  C4_6 
REMARK    3  A    between atoms: C4_6  and  C5_7 
REMARK    4  A    between atoms: C5_7  and  O2_8 
REMARK    5  A    between atoms: C9_12  and  C10_13 
REMARK    6  A    between atoms: C16_23  and  C17_24 
REMARK    7  A    between atoms: C17_24  and  N4_25 
ROOT
HETATM    1  C4  UNL     1      -1.376   0.384  -0.427  1.00  0.00     0.048 C 
HETATM    2  C7  UNL     1      -0.429  -0.485  -0.423  1.00  0.00     0.019 A 
HETATM    3  C8  UNL     1       0.911  -0.045  -0.056  1.00  0.00     0.047 A 
HETATM    4  C9  UNL     1       2.016  -0.754   0.008  1.00  0.00     0.061 A 
HETATM    5  N2  UNL     1       1.854  -2.126  -0.329  1.00  0.00    -0.277 N 
HETATM    6  N3  UNL     1       0.603  -2.619  -0.690  1.00  0.00    -0.176 NA
HETATM    7  C16 UNL     1      -0.469  -1.903  -0.747  1.00  0.00     0.094 A 
HETATM    8  H14 UNL     1       2.559  -2.890  -0.358  1.00  0.00     0.189 HD
ENDROOT
BRANCH   1   9
HETATM    9  N1  UNL     1      -2.702   0.046  -0.767  1.00  0.00    -0.324 N 
HETATM   10  C3  UNL     1      -3.738   1.011  -0.787  1.00  0.00     0.244 C 
HETATM   11  O1  UNL     1      -3.725   2.224  -0.551  1.00  0.00    -0.268 OA
HETATM   12  H4  UNL     1      -3.379  -0.681  -1.049  1.00  0.00     0.169 HD
BRANCH  10  13
HETATM   13  C2  UNL     1      -5.147   1.126  -1.045  1.00  0.00     0.064 C 
HETATM   14  C1  UNL     1      -5.399   2.424  -0.845  1.00  0.00     0.017 C 
ENDBRANCH  10  13
ENDBRANCH   1   9
BRANCH   1  15
HETATM   15  C5  UNL     1      -1.148   1.794  -0.103  1.00  0.00     0.225 C 
BRANCH  15  16
HETATM   16  O2  UNL     1      -1.910   2.151   1.030  1.00  0.00    -0.390 OA
HETATM   17  C6  UNL     1      -1.485   1.328   2.079  1.00  0.00     0.201 C 
ENDBRANCH  15  16
ENDBRANCH   1  15
BRANCH   7  18
HETATM   18  C17 UNL     1      -1.731  -2.566  -1.157  1.00  0.00     0.328 C 
BRANCH  18  19
HETATM   19  N4  UNL     1      -1.403  -4.000  -1.345  1.00  0.00     0.084 N 
HETATM   20  H17 UNL     1      -0.997  -4.295  -0.430  1.00  0.00     0.313 HD
HETATM   21  H18 UNL     1      -0.755  -4.112  -2.137  1.00  0.00     0.313 HD
ENDBRANCH  18  19
ENDBRANCH   7  18
BRANCH   4  22
HETATM   22  C10 UNL     1       3.354  -0.321   0.373  1.00  0.00    -0.006 A 
HETATM   23  C11 UNL     1       4.422  -1.179   0.397  1.00  0.00     0.017 A 
HETATM   24  C12 UNL     1       5.686  -0.797   0.735  1.00  0.00     0.045 A 
HETATM   25  C13 UNL     1       5.972   0.507   1.083  1.00  0.00     0.138 A 
HETATM   26  F1  UNL     1       7.228   0.882   1.418  1.00  0.00    -0.204 F 
HETATM   27  C14 UNL     1       4.930   1.413   1.075  1.00  0.00     0.073 A 
HETATM   28 CL1  UNL     1       5.284   3.069   1.515  1.00  0.00    -0.081 Cl
HETATM   29  C15 UNL     1       3.670   0.974   0.725  1.00  0.00     0.040 A 
ENDBRANCH   4  22
TORSDOF 7
