REMARK  6 active torsions:
REMARK  status: ('A' for Active; 'I' for Inactive)
REMARK    1  A    between atoms: C4_5  and  N2_6 
REMARK    2  A    between atoms: C6_9  and  C7_10 
REMARK    3  A    between atoms: C9_12  and  O1_13 
REMARK       I    between atoms: N4_15  and  C11_16 
REMARK    4  A    between atoms: C11_16  and  C12_18 
REMARK    5  A    between atoms: C13_19  and  C14_20 
REMARK    6  A    between atoms: C18_24  and  O3_25 
ROOT
HETATM    1  C1  UNL     1       7.151   4.616  -1.298  1.00  0.00     0.039 C 
HETATM    2  C2  UNL     1       6.382   3.732  -0.938  1.00  0.00     0.024 C 
HETATM    3  N1  UNL     1       5.519   2.707  -0.527  1.00  0.00    -0.200 N 
HETATM    4  C3  UNL     1       5.085   1.665  -1.268  1.00  0.00     0.162 A 
HETATM    5  C4  UNL     1       4.236   0.856  -0.503  1.00  0.00     0.097 A 
HETATM    6  C21 UNL     1       4.197   1.487   0.738  1.00  0.00     0.173 A 
HETATM    7  N6  UNL     1       4.973   2.587   0.688  1.00  0.00    -0.170 NA
ENDROOT
BRANCH   5   8
HETATM    8  N2  UNL     1       3.596  -0.332  -0.968  1.00  0.00    -0.225 N 
HETATM    9  C5  UNL     1       2.305  -0.409  -1.360  1.00  0.00     0.235 C 
HETATM   10  N3  UNL     1       1.352  -1.274  -0.924  1.00  0.00    -0.246 NA
HETATM   11  C6  UNL     1       1.002  -1.438   0.346  1.00  0.00     0.044 C 
HETATM   12  C17 UNL     1       2.109  -1.899   1.011  1.00  0.00     0.064 C 
HETATM   13  C18 UNL     1       2.976  -2.955   0.819  1.00  0.00     0.069 C 
HETATM   14  C19 UNL     1       4.286  -3.028   0.387  1.00  0.00     0.057 C 
HETATM   15  C20 UNL     1       4.860  -1.781   0.252  1.00  0.00     0.142 C 
HETATM   16  N5  UNL     1       4.456  -1.325  -0.952  1.00  0.00    -0.179 NA
BRANCH  11  17
HETATM   17  C7  UNL     1      -0.254  -1.236   1.120  1.00  0.00     0.060 C 
HETATM   18  C8  UNL     1      -1.270  -2.182   0.526  1.00  0.00     0.066 C 
HETATM   19  C9  UNL     1      -2.559  -1.491   0.931  1.00  0.00     0.226 C 
HETATM   20  N4  UNL     1      -2.245  -0.105   0.578  1.00  0.00    -0.321 N 
HETATM   21  C11 UNL     1      -3.150   0.843   0.010  1.00  0.00     0.245 C 
HETATM   22  C16 UNL     1      -0.859   0.104   0.918  1.00  0.00     0.139 C 
HETATM   23  O2  UNL     1      -2.641   1.993  -0.213  1.00  0.00    -0.268 OA
BRANCH  19  24
HETATM   24  O1  UNL     1      -2.836  -1.638   2.268  1.00  0.00    -0.371 OA
HETATM   25  C10 UNL     1      -4.033  -2.293   2.446  1.00  0.00     0.204 C 
ENDBRANCH  19  24
BRANCH  21  26
HETATM   26  C12 UNL     1      -4.534   0.499  -0.281  1.00  0.00     0.070 C 
HETATM   27  C13 UNL     1      -5.504   1.225  -0.798  1.00  0.00    -0.022 C 
BRANCH  27  28
HETATM   28  C14 UNL     1      -5.982   2.489  -1.346  1.00  0.00     0.023 C 
HETATM   29  C15 UNL     1      -4.932   3.589  -1.395  1.00  0.00     0.009 C 
ENDBRANCH  27  28
ENDBRANCH  21  26
ENDBRANCH  11  17
BRANCH  13  30
HETATM   30  O3  UNL     1       2.044  -3.904   1.221  1.00  0.00    -0.361 OA
HETATM   31  H21 UNL     1       1.511  -4.388   0.499  1.00  0.00     0.217 HD
ENDBRANCH  13  30
ENDBRANCH   5   8
TORSDOF 6
