REMARK  7 active torsions:
REMARK  status: ('A' for Active; 'I' for Inactive)
REMARK    1  A    between atoms: C2_2  and  C3_3 
REMARK       I    between atoms: C3_3  and  N1_5 
REMARK    2  A    between atoms: C5_7  and  O2_8 
REMARK    3  A    between atoms: C7_10  and  O3_11 
REMARK    4  A    between atoms: O3_11  and  C8_12 
REMARK    5  A    between atoms: C9_14  and  N3_15 
REMARK    6  A    between atoms: N3_15  and  C10_16 
REMARK    7  A    between atoms: C13_21  and  N6_22 
ROOT
HETATM    1  C8  UNL     1       0.449   0.597   0.015  1.00  0.00     0.150 A 
HETATM    2  N2  UNL     1      -0.210  -0.527   0.046  1.00  0.00    -0.243 NA
HETATM    3  C9  UNL     1      -1.353  -0.415   0.904  1.00  0.00     0.220 A 
HETATM    4  C15 UNL     1      -1.292   0.996   1.411  1.00  0.00     0.050 A 
HETATM    5  C16 UNL     1      -0.214   1.576   0.869  1.00  0.00     0.075 A 
HETATM    6  C17 UNL     1      -1.077   2.361   1.791  1.00  0.00     0.115 A 
HETATM    7 CL1  UNL     1      -1.957   3.694   1.037  1.00  0.00    -0.123 Cl
ENDROOT
BRANCH   1   8
HETATM    8  O3  UNL     1       1.615   0.834  -0.723  1.00  0.00    -0.327 OA
BRANCH   8   9
HETATM    9  C7  UNL     1       2.222  -0.286  -1.329  1.00  0.00     0.178 C 
HETATM   10  C5  UNL     1       3.472   0.053  -2.109  1.00  0.00     0.169 C 
HETATM   11  C4  UNL     1       4.439  -1.005  -1.563  1.00  0.00     0.160 C 
HETATM   12  N1  UNL     1       4.147  -0.959  -0.143  1.00  0.00    -0.344 N 
HETATM   13  C3  UNL     1       4.810  -0.708   1.113  1.00  0.00     0.239 C 
HETATM   14  C18 UNL     1       2.749  -1.293  -0.327  1.00  0.00     0.161 C 
HETATM   15  O1  UNL     1       4.112  -0.782   2.179  1.00  0.00    -0.269 OA
BRANCH  10  16
HETATM   16  O2  UNL     1       4.007   1.273  -1.675  1.00  0.00    -0.386 OA
HETATM   17  C6  UNL     1       4.299   2.141  -2.700  1.00  0.00     0.202 C 
ENDBRANCH  10  16
BRANCH  13  18
HETATM   18  C2  UNL     1       6.227  -0.382   1.150  1.00  0.00     0.048 C 
HETATM   19  C1  UNL     1       6.981  -0.294   0.087  1.00  0.00     0.037 C 
ENDBRANCH  13  18
ENDBRANCH   8   9
ENDBRANCH   1   8
BRANCH   3  20
HETATM   20  N3  UNL     1      -2.605  -0.512   0.150  1.00  0.00    -0.362 N 
HETATM   21  H12 UNL     1      -2.545  -0.646  -0.887  1.00  0.00     0.162 HD
BRANCH  20  22
HETATM   22  C10 UNL     1      -3.912  -0.439   0.718  1.00  0.00     0.095 A 
HETATM   23  C11 UNL     1      -4.221  -0.266   2.058  1.00  0.00     0.145 A 
HETATM   24  N4  UNL     1      -5.535  -0.244   2.229  1.00  0.00    -0.281 N 
HETATM   25  C12 UNL     1      -6.347  -0.089   3.425  1.00  0.00     0.179 C 
HETATM   26  N5  UNL     1      -6.082  -0.400   1.015  1.00  0.00    -0.153 NA
HETATM   27  C13 UNL     1      -5.134  -0.520   0.083  1.00  0.00     0.171 A 
BRANCH  27  28
HETATM   28  N6  UNL     1      -5.342  -0.700  -1.308  1.00  0.00    -0.376 N 
HETATM   29  C14 UNL     1      -6.581  -0.796  -2.056  1.00  0.00     0.148 C 
HETATM   30  H17 UNL     1      -4.531  -0.784  -1.962  1.00  0.00     0.160 HD
ENDBRANCH  27  28
ENDBRANCH  20  22
ENDBRANCH   3  20
TORSDOF 7
