REMARK  7 active torsions:
REMARK  status: ('A' for Active; 'I' for Inactive)
REMARK    1  A    between atoms: C2_2  and  C3_3 
REMARK       I    between atoms: C3_3  and  N1_5 
REMARK    2  A    between atoms: C5_7  and  C6_8 
REMARK    3  A    between atoms: C6_8  and  O2_9 
REMARK    4  A    between atoms: O2_9  and  C7_10 
REMARK    5  A    between atoms: N3_13  and  C9_14 
REMARK    6  A    between atoms: C11_16  and  N4_17 
REMARK    7  A    between atoms: C15_21  and  O3_22 
ROOT
HETATM    1  O2  UNL     1      -0.461   0.032   0.868  1.00  0.00    -0.334 OA
ENDROOT
BRANCH   1   2
HETATM    2  C6  UNL     1      -1.292  -0.809   0.102  1.00  0.00     0.186 C 
BRANCH   2   3
HETATM    3  C5  UNL     1      -2.764  -0.594   0.343  1.00  0.00     0.058 C 
HETATM    4  C4  UNL     1      -3.569  -1.546  -0.528  1.00  0.00     0.135 C 
HETATM    5  N1  UNL     1      -4.918  -0.993  -0.326  1.00  0.00    -0.346 N 
HETATM    6  C3  UNL     1      -5.961  -1.775   0.238  1.00  0.00     0.242 C 
HETATM    7  C17 UNL     1      -4.547   0.299  -0.870  1.00  0.00     0.158 C 
HETATM    8  O1  UNL     1      -5.607  -2.944   0.532  1.00  0.00    -0.268 OA
HETATM    9  C15 UNL     1      -3.269   0.724  -0.152  1.00  0.00     0.146 C 
BRANCH   6  10
HETATM   10  C2  UNL     1      -7.298  -1.237   0.441  1.00  0.00     0.064 C 
HETATM   11  C1  UNL     1      -7.569   0.008   0.097  1.00  0.00     0.017 C 
ENDBRANCH   6  10
BRANCH   9  12
HETATM   12  O3  UNL     1      -3.530   1.609   0.892  1.00  0.00    -0.389 OA
HETATM   13  C16 UNL     1      -2.917   2.837   0.734  1.00  0.00     0.202 C 
ENDBRANCH   9  12
ENDBRANCH   2   3
ENDBRANCH   1   2
BRANCH   1  14
HETATM   14  C7  UNL     1       0.908  -0.084   0.716  1.00  0.00     0.162 A 
HETATM   15  N2  UNL     1       1.379  -0.903  -0.145  1.00  0.00    -0.247 NA
HETATM   16  C8  UNL     1       2.779  -1.106  -0.388  1.00  0.00     0.280 A 
HETATM   17  N3  UNL     1       3.531  -0.238   0.495  1.00  0.00    -0.341 N 
HETATM   18  C13 UNL     1       3.057   0.685   1.464  1.00  0.00     0.097 A 
HETATM   19  C14 UNL     1       1.739   0.741   1.553  1.00  0.00     0.075 A 
BRANCH  17  20
HETATM   20  C9  UNL     1       4.961  -0.352   0.343  1.00  0.00     0.024 C 
HETATM   21  C10 UNL     1       5.758  -1.183   1.257  1.00  0.00     0.070 C 
HETATM   22  C11 UNL     1       5.569   0.301  -0.633  1.00  0.00     0.107 C 
BRANCH  22  23
HETATM   23  N4  UNL     1       6.977   0.260  -0.875  1.00  0.00    -0.402 N 
HETATM   24  C12 UNL     1       7.866   1.291  -0.333  1.00  0.00     0.145 C 
HETATM   25  H15 UNL     1       7.504  -0.458  -1.427  1.00  0.00     0.158 HD
ENDBRANCH  22  23
ENDBRANCH  17  20
ENDBRANCH   1  14
TORSDOF 7
