REMARK  9 active torsions:
REMARK  status: ('A' for Active; 'I' for Inactive)
REMARK    1  A    between atoms: C7_7  and  N1_8 
REMARK    2  A    between atoms: N1_8  and  C8_9 
REMARK    3  A    between atoms: C10_13  and  C11_14 
REMARK    4  A    between atoms: C11_14  and  C12_15 
REMARK    5  A    between atoms: C12_15  and  C13_16 
REMARK    6  A    between atoms: C14_17  and  O1_18 
REMARK    7  A    between atoms: O1_18  and  C15_19 
REMARK    8  A    between atoms: C15_19  and  C16_20 
REMARK    9  A    between atoms: C16_20  and  O2_21 
ROOT
HETATM    1  C1  UNL     1      -9.029   2.400   3.059  1.00  0.00     0.018 C 
HETATM    2  C2  UNL     1      -8.249   2.162   2.159  1.00  0.00    -0.078 C 
HETATM    3  C3  UNL     1      -7.307   1.892   1.106  1.00  0.00     0.019 A 
HETATM    4  C4  UNL     1      -7.587   2.103  -0.226  1.00  0.00     0.021 A 
HETATM    5  C5  UNL     1      -6.667   1.836  -1.214  1.00  0.00     0.004 A 
HETATM    6  C6  UNL     1      -5.424   1.336  -0.813  1.00  0.00     0.029 A 
HETATM    7  C7  UNL     1      -5.095   1.108   0.502  1.00  0.00     0.034 A 
HETATM    8  C20 UNL     1      -6.058   1.397   1.413  1.00  0.00     0.050 A 
ENDROOT
BRANCH   7   9
HETATM    9  N1  UNL     1      -3.836   0.605   0.929  1.00  0.00    -0.344 N 
HETATM   10  H5  UNL     1      -3.713   0.418   1.973  1.00  0.00     0.167 HD
BRANCH   9  11
HETATM   11  C8  UNL     1      -2.711   0.320   0.073  1.00  0.00     0.107 A 
HETATM   12  N2  UNL     1      -2.539   1.249  -0.839  1.00  0.00    -0.229 NA
HETATM   13  C9  UNL     1      -1.455   1.068  -1.738  1.00  0.00     0.229 A 
HETATM   14  N3  UNL     1      -0.750   0.042  -1.594  1.00  0.00    -0.277 NA
HETATM   15  C10 UNL     1      -0.811  -1.015  -0.686  1.00  0.00     0.116 A 
HETATM   16  C19 UNL     1      -1.925  -0.902   0.304  1.00  0.00     0.105 A 
BRANCH  15  17
HETATM   17  C11 UNL     1       0.523  -1.264   0.031  1.00  0.00     0.032 C 
BRANCH  17  18
HETATM   18  C12 UNL     1       1.558  -1.589  -0.995  1.00  0.00     0.039 C 
BRANCH  18  19
HETATM   19  C13 UNL     1       2.851  -1.826  -0.261  1.00  0.00    -0.044 A 
HETATM   20  C14 UNL     1       4.138  -1.631   0.081  1.00  0.00     0.053 A 
HETATM   21  C18 UNL     1       3.457  -2.697   0.767  1.00  0.00     0.101 A 
BRANCH  20  22
HETATM   22  O1  UNL     1       5.329  -0.904  -0.096  1.00  0.00    -0.353 OA
BRANCH  22  23
HETATM   23  C15 UNL     1       6.573  -1.546  -0.019  1.00  0.00     0.201 C 
BRANCH  23  24
HETATM   24  C16 UNL     1       7.684  -0.533  -0.243  1.00  0.00     0.193 C 
BRANCH  24  25
HETATM   25  O2  UNL     1       7.569   0.426   0.751  1.00  0.00    -0.394 OA
HETATM   26  C17 UNL     1       8.530   1.419   0.666  1.00  0.00     0.201 C 
ENDBRANCH  24  25
ENDBRANCH  23  24
ENDBRANCH  22  23
ENDBRANCH  20  22
ENDBRANCH  18  19
ENDBRANCH  17  18
ENDBRANCH  15  17
ENDBRANCH   9  11
ENDBRANCH   7   9
TORSDOF 9
