REMARK  3 active torsions:
REMARK  status: ('A' for Active; 'I' for Inactive)
REMARK    1  A    between atoms: O1_2  and  C2_3 
REMARK    2  A    between atoms: C10_12  and  N2_13 
REMARK    3  A    between atoms: N2_13  and  C11_14 
ROOT
HETATM    1  C2  UNL     1      -3.675   0.542   0.235  1.00  0.00     0.078 A 
HETATM    2  C3  UNL     1      -4.831   0.072  -0.387  1.00  0.00     0.037 A 
HETATM    3  C4  UNL     1      -4.863  -1.137  -1.048  1.00  0.00     0.005 A 
HETATM    4  C5  UNL     1      -3.721  -1.909  -1.098  1.00  0.00     0.038 A 
HETATM    5  C6  UNL     1      -2.590  -1.424  -0.476  1.00  0.00     0.088 A 
HETATM    6  C7  UNL     1      -2.504  -0.226   0.195  1.00  0.00     0.027 A 
HETATM    7  C8  UNL     1      -1.500   0.536   0.925  1.00  0.00     0.164 C 
HETATM    8  N1  UNL     1      -0.144   0.051   0.818  1.00  0.00    -0.379 N 
HETATM    9  C9  UNL     1       0.415  -0.927  -0.013  1.00  0.00     0.129 A 
HETATM   10  C10 UNL     1       1.768  -0.684  -0.119  1.00  0.00     0.160 A 
HETATM   11  N3  UNL     1       2.493  -1.523  -0.880  1.00  0.00    -0.222 NA
HETATM   12  C16 UNL     1       1.927  -2.563  -1.518  1.00  0.00     0.238 A 
HETATM   13  N4  UNL     1       0.614  -2.781  -1.402  1.00  0.00    -0.215 NA
HETATM   14  C17 UNL     1      -0.159  -1.980  -0.658  1.00  0.00     0.202 A 
HETATM   15  O2  UNL     1      -1.527  -2.313  -0.615  1.00  0.00    -0.289 OA
HETATM   16  H9  UNL     1       0.524   0.510   1.470  1.00  0.00     0.160 HD
ENDROOT
BRANCH  10  17
HETATM   17  N2  UNL     1       2.495   0.361   0.484  1.00  0.00    -0.341 N 
HETATM   18  H10 UNL     1       2.362   1.184   1.101  1.00  0.00     0.167 HD
BRANCH  17  19
HETATM   19  C11 UNL     1       3.919   0.541   0.326  1.00  0.00     0.029 A 
HETATM   20  C12 UNL     1       4.701  -0.430   0.803  1.00  0.00     0.026 A 
HETATM   21  C13 UNL     1       6.124  -0.134   0.584  1.00  0.00    -0.001 A 
HETATM   22  C14 UNL     1       6.133   1.034  -0.032  1.00  0.00    -0.005 A 
HETATM   23  C15 UNL     1       4.787   1.609  -0.275  1.00  0.00     0.130 A 
HETATM   24 BR1  UNL     1       4.546   1.752  -2.182  1.00  0.00    -0.080 Br
ENDBRANCH  17  19
ENDBRANCH  10  17
BRANCH   1  25
HETATM   25  O1  UNL     1      -3.742   1.772   0.875  1.00  0.00    -0.355 OA
HETATM   26  C1  UNL     1      -4.932   2.539   0.908  1.00  0.00     0.210 C 
ENDBRANCH   1  25
TORSDOF 3
