REMARK  2 active torsions:
REMARK  status: ('A' for Active; 'I' for Inactive)
REMARK    1  A    between atoms: N1_7  and  C7_8 
REMARK    2  A    between atoms: C13_17  and  O2_18 
ROOT
HETATM    1  C1  UNL     1      -2.423  -2.931   2.293  1.00  0.00     0.012 C 
HETATM    2  C2  UNL     1      -2.773  -1.963   1.659  1.00  0.00    -0.107 C 
HETATM    3  C3  UNL     1      -3.207  -0.785   0.906  1.00  0.00     0.109 C 
HETATM    4  C4  UNL     1      -3.436  -1.231  -0.493  1.00  0.00    -0.010 C 
HETATM    5  C5  UNL     1      -2.784  -0.745  -1.534  1.00  0.00    -0.010 C 
HETATM    6  C6  UNL     1      -1.728   0.320  -1.446  1.00  0.00     0.151 C 
HETATM    7  N1  UNL     1      -1.225   0.268  -0.080  1.00  0.00    -0.358 N 
HETATM    8  C15 UNL     1      -2.222   0.349   0.978  1.00  0.00     0.101 C 
HETATM    9  C16 UNL     1      -3.012   1.644   0.816  1.00  0.00     0.034 C 
ENDROOT
BRANCH   7  10
HETATM   10  C7  UNL     1       0.209   0.141   0.052  1.00  0.00     0.135 C 
HETATM   11  N2  UNL     1       0.166  -1.063   0.604  1.00  0.00    -0.226 NA
HETATM   12  C8  UNL     1       1.388  -1.706   0.966  1.00  0.00     0.234 C 
HETATM   13  N3  UNL     1       2.088  -1.935  -0.076  1.00  0.00    -0.254 NA
HETATM   14  C9  UNL     1       3.342  -2.538  -0.163  1.00  0.00     0.116 C 
HETATM   15  C10 UNL     1       4.218  -1.604   0.245  1.00  0.00     0.018 C 
HETATM   16  C11 UNL     1       4.304  -0.200   0.735  1.00  0.00     0.196 C 
HETATM   17  O1  UNL     1       3.081   0.441   0.810  1.00  0.00    -0.384 OA
HETATM   18  C12 UNL     1       2.566   0.785  -0.396  1.00  0.00     0.207 C 
HETATM   19  C13 UNL     1       1.133   1.247  -0.402  1.00  0.00     0.213 C 
BRANCH  19  20
HETATM   20  O2  UNL     1       0.756   1.549  -1.704  1.00  0.00    -0.381 OA
HETATM   21  C14 UNL     1       0.378   2.905  -1.814  1.00  0.00     0.202 C 
ENDBRANCH  19  20
ENDBRANCH   7  10
TORSDOF 2
