REMARK  8 active torsions:
REMARK  status: ('A' for Active; 'I' for Inactive)
REMARK    1  A    between atoms: O1_2  and  C2_3 
REMARK    2  A    between atoms: C2_3  and  C3_4 
REMARK    3  A    between atoms: C3_4  and  O2_5 
REMARK    4  A    between atoms: O2_5  and  C4_6 
REMARK    5  A    between atoms: C5_7  and  O3_8 
REMARK    6  A    between atoms: O3_8  and  C6_9 
REMARK    7  A    between atoms: C6_9  and  C7_10 
REMARK    8  A    between atoms: C7_10  and  O4_11 
ROOT
HETATM    1  C4  UNL     1      -1.271  -0.243   0.706  1.00  0.00     0.102 A 
HETATM    2  C5  UNL     1      -0.703   0.959   0.554  1.00  0.00     0.129 A 
HETATM    3  C9  UNL     1       0.802   0.939   0.636  1.00  0.00     0.182 A 
HETATM    4  C10 UNL     1       1.425   1.153  -0.707  1.00  0.00     0.047 C 
HETATM    5  C11 UNL     1       2.213   0.748  -1.720  1.00  0.00     0.088 C 
HETATM    6  N1  UNL     1       3.081  -0.192  -2.337  1.00  0.00    -0.371 N 
HETATM    7  C12 UNL     1       4.321  -0.418  -1.840  1.00  0.00     0.008 A 
HETATM    8  C13 UNL     1       5.549  -0.749  -1.758  1.00  0.00     0.072 A 
HETATM    9  C14 UNL     1       6.843  -1.058  -1.531  1.00  0.00    -0.014 A 
HETATM   10  C15 UNL     1       6.795  -0.666  -0.147  1.00  0.00     0.005 A 
HETATM   11  C16 UNL     1       5.769  -0.196   0.502  1.00  0.00    -0.036 A 
HETATM   12  C17 UNL     1       4.624  -0.125  -0.449  1.00  0.00     0.096 A 
HETATM   13  C18 UNL     1       4.768   0.281   1.205  1.00  0.00    -0.021 A 
HETATM   14  C19 UNL     1       3.923   0.674   1.773  1.00  0.00     0.002 A 
HETATM   15  N2  UNL     1       2.908   1.131   2.425  1.00  0.00    -0.244 NA
HETATM   16  C20 UNL     1       1.960   2.063   2.571  1.00  0.00     0.243 C 
HETATM   17  N3  UNL     1       1.296   1.665   1.696  1.00  0.00    -0.422 NA
HETATM   18  C21 UNL     1       0.980  -0.570   0.865  1.00  0.00     0.033 A 
HETATM   19  C22 UNL     1      -0.190  -1.197   0.900  1.00  0.00     0.040 A 
HETATM   20  H17 UNL     1       3.071  -0.835  -3.117  1.00  0.00     0.164 HD
HETATM   21  H22 UNL     1       3.309   1.784   1.656  1.00  0.00     0.188 HD
ENDROOT
BRANCH   2  22
HETATM   22  O3  UNL     1      -1.504   2.067   0.345  1.00  0.00    -0.346 OA
BRANCH  22  23
HETATM   23  C6  UNL     1      -2.586   2.092  -0.546  1.00  0.00     0.201 C 
BRANCH  23  24
HETATM   24  C7  UNL     1      -3.546   3.161  -0.153  1.00  0.00     0.193 C 
BRANCH  24  25
HETATM   25  O4  UNL     1      -4.637   3.268  -0.966  1.00  0.00    -0.394 OA
HETATM   26  C8  UNL     1      -5.390   2.120  -1.015  1.00  0.00     0.201 C 
ENDBRANCH  24  25
ENDBRANCH  23  24
ENDBRANCH  22  23
ENDBRANCH   2  22
BRANCH   1  27
HETATM   27  O2  UNL     1      -2.588  -0.623   0.698  1.00  0.00    -0.346 OA
BRANCH  27  28
HETATM   28  C3  UNL     1      -3.005  -1.740   1.497  1.00  0.00     0.201 C 
BRANCH  28  29
HETATM   29  C2  UNL     1      -4.413  -2.148   1.088  1.00  0.00     0.193 C 
BRANCH  29  30
HETATM   30  O1  UNL     1      -4.824  -3.218   1.849  1.00  0.00    -0.394 OA
HETATM   31  C1  UNL     1      -4.053  -4.346   1.744  1.00  0.00     0.201 C 
ENDBRANCH  29  30
ENDBRANCH  28  29
ENDBRANCH  27  28
ENDBRANCH   1  27
TORSDOF 8
