REMARK  4 active torsions:
REMARK  status: ('A' for Active; 'I' for Inactive)
REMARK       I    between atoms: N1_2  and  C2_3 
REMARK       I    between atoms: C2_3  and  N2_5 
REMARK    1  A    between atoms: C4_7  and  C5_8 
REMARK    2  A    between atoms: C5_8  and  O2_9 
REMARK    3  A    between atoms: O2_9  and  C6_10 
REMARK    4  A    between atoms: C13_21  and  O3_22 
ROOT
HETATM    1  C5  UNL     1       0.748   0.561  -0.668  1.00  0.00     0.186 C 
ENDROOT
BRANCH   1   2
HETATM    2  C4  UNL     1       2.156  -0.007  -0.669  1.00  0.00     0.059 C 
HETATM    3  C3  UNL     1       3.022   1.066  -0.038  1.00  0.00     0.137 C 
HETATM    4  N2  UNL     1       3.977   0.314   0.786  1.00  0.00    -0.331 N 
HETATM    5  C2  UNL     1       4.922   1.064   1.537  1.00  0.00     0.318 C 
HETATM    6  C15 UNL     1       3.770  -1.107   0.675  1.00  0.00     0.160 C 
HETATM    7  N1  UNL     1       5.914   0.470   2.383  1.00  0.00    -0.347 N 
HETATM    8  O1  UNL     1       4.883   2.318   1.451  1.00  0.00    -0.247 OA
HETATM    9  C1  UNL     1       6.825   1.377   3.098  1.00  0.00     0.151 C 
HETATM   10  H4  UNL     1       5.941  -0.578   2.450  1.00  0.00     0.163 HD
HETATM   11  C13 UNL     1       2.330  -1.199   0.210  1.00  0.00     0.146 C 
BRANCH  11  12
HETATM   12  O3  UNL     1       1.439  -1.295   1.243  1.00  0.00    -0.389 OA
HETATM   13  C14 UNL     1       0.667  -2.421   1.299  1.00  0.00     0.202 C 
ENDBRANCH  11  12
ENDBRANCH   1   2
BRANCH   1  14
HETATM   14  O2  UNL     1      -0.097  -0.385  -1.246  1.00  0.00    -0.337 OA
BRANCH  14  15
HETATM   15  C6  UNL     1      -1.451  -0.160  -1.463  1.00  0.00     0.143 C 
HETATM   16  N3  UNL     1      -1.747   1.076  -1.259  1.00  0.00    -0.199 NA
HETATM   17  C7  UNL     1      -2.961   1.735  -1.356  1.00  0.00     0.222 C 
HETATM   18 CL1  UNL     1      -1.961   3.081  -0.787  1.00  0.00    -0.041 Cl
HETATM   19  N4  UNL     1      -4.178   2.066  -1.539  1.00  0.00    -0.230 NA
HETATM   20  C8  UNL     1      -5.267   1.280  -1.984  1.00  0.00     0.423 C 
HETATM   21  N5  UNL     1      -5.548   0.077  -1.197  1.00  0.00     0.103 N 
HETATM   22  C9  UNL     1      -6.106   0.459   0.101  1.00  0.00     0.312 C 
HETATM   23  C10 UNL     1      -4.274  -0.590  -0.918  1.00  0.00     0.274 C 
HETATM   24  C11 UNL     1      -3.624  -1.096  -2.148  1.00  0.00     0.038 C 
HETATM   25  C12 UNL     1      -2.167  -1.443  -1.876  1.00  0.00     0.088 C 
ENDBRANCH  14  15
ENDBRANCH   1  14
TORSDOF 4
