REMARK  7 active torsions:
REMARK  status: ('A' for Active; 'I' for Inactive)
REMARK    1  A    between atoms: C2_2  and  C3_3 
REMARK       I    between atoms: C3_3  and  N1_5 
REMARK    2  A    between atoms: N1_5  and  B1_6 
REMARK    3  A    between atoms: B1_6  and  O2_7 
REMARK    4  A    between atoms: B1_6  and  C11_17 
REMARK    5  A    between atoms: O2_7  and  C4_8 
REMARK    6  A    between atoms: C4_8  and  C5_9 
REMARK    7  A    between atoms: C5_9  and  C6_10 
ROOT
HETATM    1  B1  UNL     1      -2.384  -0.824   0.086  1.00  0.00     0.466 B 
ENDROOT
BRANCH   1   2
HETATM    2  N1  UNL     1      -2.823   0.566  -0.357  1.00  0.00    -0.380 N 
HETATM    3  C3  UNL     1      -1.959   1.331  -1.171  1.00  0.00     0.225 C 
HETATM    4  O1  UNL     1      -0.884   1.471  -1.792  1.00  0.00    -0.270 OA
HETATM    5  H4  UNL     1      -3.740   0.970  -0.078  1.00  0.00     0.144 HD
BRANCH   3   6
HETATM    6  C2  UNL     1      -2.422   2.651  -1.570  1.00  0.00     0.046 C 
HETATM    7  C1  UNL     1      -2.642   3.851  -2.037  1.00  0.00     0.037 C 
ENDBRANCH   3   6
ENDBRANCH   1   2
BRANCH   1   8
HETATM    8  O2  UNL     1      -1.006  -1.202  -0.331  1.00  0.00    -0.432 OA
BRANCH   8   9
HETATM    9  C4  UNL     1      -0.057  -0.685   0.519  1.00  0.00     0.147 C 
BRANCH   9  10
HETATM   10  C5  UNL     1       1.342  -1.039   0.203  1.00  0.00     0.062 C 
BRANCH  10  11
HETATM   11  C6  UNL     1       2.264  -0.395   1.220  1.00  0.00     0.250 C 
HETATM   12  N2  UNL     1       3.663  -0.742   0.931  1.00  0.00     0.092 N 
HETATM   13  C7  UNL     1       4.438  -0.162   2.024  1.00  0.00     0.296 C 
HETATM   14  H10 UNL     1       3.923  -0.201   0.071  1.00  0.00     0.316 HD
HETATM   15  C8  UNL     1       4.398   1.349   1.858  1.00  0.00     0.198 C 
HETATM   16  O3  UNL     1       3.424   1.712   0.932  1.00  0.00    -0.382 OA
HETATM   17  C9  UNL     1       2.182   1.113   1.187  1.00  0.00     0.150 C 
HETATM   18  C10 UNL     1       1.663   1.702   2.466  1.00  0.00     0.042 C 
ENDBRANCH  10  11
ENDBRANCH   9  10
ENDBRANCH   8   9
ENDBRANCH   1   8
BRANCH   1  19
HETATM   19  C11 UNL     1      -3.421  -1.964  -0.433  1.00  0.00     0.052 A 
HETATM   20  C12 UNL     1      -2.843  -3.308  -0.338  1.00  0.00    -0.020 A 
HETATM   21  C13 UNL     1      -2.701  -3.908  -1.535  1.00  0.00     0.038 A 
HETATM   22  C14 UNL     1      -3.210  -2.918  -2.492  1.00  0.00     0.112 A 
HETATM   23  F1  UNL     1      -3.232  -3.164  -3.845  1.00  0.00    -0.206 F 
HETATM   24  C15 UNL     1      -3.624  -1.812  -1.897  1.00  0.00     0.019 A 
ENDBRANCH   1  19
TORSDOF 7
