REMARK  3 active torsions:
REMARK  status: ('A' for Active; 'I' for Inactive)
REMARK    1  A    between atoms: O1_2  and  C2_3 
REMARK    2  A    between atoms: C4_5  and  N1_6 
REMARK    3  A    between atoms: C11_16  and  C12_17 
ROOT
HETATM    1  C2  UNL     1      -3.107   0.350   0.830  1.00  0.00     0.077 A 
HETATM    2  C3  UNL     1      -4.058   0.667  -0.064  1.00  0.00     0.052 A 
HETATM    3  C4  UNL     1      -3.524   0.456  -1.428  1.00  0.00     0.301 A 
HETATM    4  C5  UNL     1      -2.154  -0.018  -1.144  1.00  0.00     0.102 A 
HETATM    5  C6  UNL     1      -1.876  -0.092   0.148  1.00  0.00     0.025 A 
HETATM    6  C7  UNL     1      -0.676  -0.498   0.905  1.00  0.00     0.164 C 
HETATM    7  N2  UNL     1       0.568  -0.078   0.269  1.00  0.00    -0.380 N 
HETATM    8  C8  UNL     1       0.931  -0.345  -1.102  1.00  0.00     0.112 A 
HETATM    9  C9  UNL     1       0.095  -0.452  -2.221  1.00  0.00     0.200 A 
HETATM   10  N3  UNL     1       0.636  -0.692  -3.435  1.00  0.00    -0.215 NA
HETATM   11  C10 UNL     1       1.992  -0.823  -3.532  1.00  0.00     0.236 A 
HETATM   12  N4  UNL     1       2.799  -0.721  -2.462  1.00  0.00    -0.239 NA
HETATM   13  C11 UNL     1       2.302  -0.481  -1.216  1.00  0.00     0.099 A 
HETATM   14  O2  UNL     1      -1.308  -0.333  -2.222  1.00  0.00    -0.291 OA
HETATM   15  H10 UNL     1       1.367   0.476   0.707  1.00  0.00     0.160 HD
ENDROOT
BRANCH  13  16
HETATM   16  C12 UNL     1       3.238  -0.387  -0.103  1.00  0.00    -0.004 A 
HETATM   17  C13 UNL     1       4.314   0.449  -0.429  1.00  0.00     0.014 A 
HETATM   18  C14 UNL     1       5.344   0.692   0.453  1.00  0.00     0.002 A 
HETATM   19  C15 UNL     1       5.337   0.112   1.685  1.00  0.00     0.019 A 
HETATM   20  C16 UNL     1       4.288  -0.709   2.015  1.00  0.00     0.011 A 
HETATM   21 BR1  UNL     1       4.188  -1.563   3.707  1.00  0.00    -0.051 Br
HETATM   22  C17 UNL     1       3.253  -0.972   1.168  1.00  0.00     0.033 A 
ENDBRANCH  13  16
BRANCH   1  23
HETATM   23  O1  UNL     1      -3.241   0.422   2.230  1.00  0.00    -0.356 OA
HETATM   24  C1  UNL     1      -4.490   0.801   2.774  1.00  0.00     0.210 C 
ENDBRANCH   1  23
BRANCH   3  25
HETATM   25  N1  UNL     1      -4.287  -0.641  -2.000  1.00  0.00     0.092 N 
HETATM   26  H6  UNL     1      -5.250  -0.708  -1.603  1.00  0.00     0.314 HD
HETATM   27  H7  UNL     1      -3.750  -1.520  -2.007  1.00  0.00     0.314 HD
ENDBRANCH   3  25
TORSDOF 3
