REMARK  3 active torsions:
REMARK  status: ('A' for Active; 'I' for Inactive)
REMARK    1  A    between atoms: N1_1  and  C1_2 
REMARK    2  A    between atoms: C5_8  and  N4_9 
REMARK    3  A    between atoms: N4_9  and  C6_10 
ROOT
HETATM    1  C1  UNL     1       0.717   2.128   0.596  1.00  0.00     0.116 C 
HETATM    2  C2  UNL     1      -0.639   2.111   0.560  1.00  0.00     0.081 C 
HETATM    3  C3  UNL     1      -1.792   1.931  -0.367  1.00  0.00     0.071 A 
HETATM    4  N2  UNL     1      -2.183   3.179  -0.643  1.00  0.00    -0.241 NA
HETATM    5  C4  UNL     1      -3.208   3.490  -1.452  1.00  0.00     0.236 A 
HETATM    6  N3  UNL     1      -3.868   2.464  -2.008  1.00  0.00    -0.222 NA
HETATM    7  C5  UNL     1      -3.464   1.220  -1.721  1.00  0.00     0.163 A 
HETATM    8  C7  UNL     1      -2.420   0.837  -0.900  1.00  0.00     0.019 A 
HETATM    9  C8  UNL     1      -2.316  -0.645  -0.880  1.00  0.00     0.050 C 
HETATM   10  C9  UNL     1      -1.034  -1.184  -0.475  1.00  0.00     0.003 C 
HETATM   11  C10 UNL     1      -1.107  -2.070   0.562  1.00  0.00     0.020 C 
HETATM   12  C11 UNL     1      -0.216  -2.918   1.396  1.00  0.00    -0.023 C 
HETATM   13  C12 UNL     1       1.005  -3.401   1.754  1.00  0.00    -0.001 C 
HETATM   14  C13 UNL     1       2.040  -2.767   0.851  1.00  0.00     0.296 C 
HETATM   15  N5  UNL     1       2.938  -1.952   1.600  1.00  0.00     0.086 N 
HETATM   16  C14 UNL     1       3.594  -0.907   0.757  1.00  0.00     0.272 C 
HETATM   17  C15 UNL     1       2.469   0.027   0.376  1.00  0.00     0.056 C 
HETATM   18  C16 UNL     1       2.837   1.315  -0.287  1.00  0.00     0.178 C 
HETATM   19  O2  UNL     1       1.518   1.925  -0.523  1.00  0.00    -0.340 OA
HETATM   20  H13 UNL     1       3.647  -2.461   2.151  1.00  0.00     0.316 HD
ENDROOT
BRANCH   1  21
HETATM   21  N1  UNL     1       1.334   2.374   1.885  1.00  0.00    -0.283 NA
HETATM   22  H1  UNL     1       1.733   3.305   1.727  1.00  0.00     0.126 HD
HETATM   23  H2  UNL     1       1.840   3.293   2.030  1.00  0.00     0.126 HD
ENDBRANCH   1  21
BRANCH   7  24
HETATM   24  N4  UNL     1      -4.296   0.267  -2.413  1.00  0.00    -0.185 NA
BRANCH  24  25
HETATM   25  C6  UNL     1      -5.153  -0.307  -1.653  1.00  0.00     0.339 C 
HETATM   26  O1  UNL     1      -5.749  -1.248  -1.119  1.00  0.00    -0.260 OA
ENDBRANCH  24  25
ENDBRANCH   7  24
TORSDOF 3
