REMARK  9 active torsions:
REMARK  status: ('A' for Active; 'I' for Inactive)
REMARK    1  A    between atoms: N1_3  and  C3_4 
REMARK    2  A    between atoms: C3_4  and  C4_5 
REMARK    3  A    between atoms: C4_5  and  O1_20 
REMARK    4  A    between atoms: C5_6  and  C6_7 
REMARK    5  A    between atoms: C8_9  and  N2_10 
REMARK    6  A    between atoms: N2_10  and  C9_11 
REMARK    7  A    between atoms: O1_20  and  C16_21 
REMARK    8  A    between atoms: C16_21  and  C17_22 
REMARK    9  A    between atoms: C17_22  and  N5_23 
ROOT
HETATM    1  C1  UNL     1      -0.852  -6.510   0.696  1.00  0.00     0.119 C 
HETATM    2  C2  UNL     1      -0.959  -5.209   0.927  1.00  0.00    -0.049 C 
HETATM    3  N1  UNL     1      -0.902  -3.921   1.011  1.00  0.00    -0.246 NA
ENDROOT
BRANCH   3   4
HETATM    4  C3  UNL     1      -0.499  -3.254  -0.217  1.00  0.00     0.223 C 
BRANCH   4   5
HETATM    5  C4  UNL     1      -0.310  -1.796  -0.055  1.00  0.00     0.069 C 
HETATM    6  C5  UNL     1       0.711  -0.991  -0.222  1.00  0.00     0.066 C 
BRANCH   6   7
HETATM    7  C6  UNL     1       2.089  -1.216  -0.635  1.00  0.00     0.064 A 
HETATM    8  C7  UNL     1       3.151  -0.369  -0.416  1.00  0.00     0.082 A 
HETATM    9  C8  UNL     1       4.354  -0.800  -0.884  1.00  0.00     0.131 A 
HETATM   10  N3  UNL     1       4.478  -1.973  -1.513  1.00  0.00    -0.224 NA
HETATM   11  C15 UNL     1       3.452  -2.807  -1.732  1.00  0.00     0.235 A 
HETATM   12  N4  UNL     1       2.236  -2.386  -1.267  1.00  0.00    -0.242 NA
BRANCH   9  13
HETATM   13  N2  UNL     1       5.545  -0.057  -0.772  1.00  0.00    -0.341 N 
HETATM   14  H7  UNL     1       6.469  -0.442  -1.099  1.00  0.00     0.167 HD
BRANCH  13  15
HETATM   15  C9  UNL     1       6.152   1.140  -0.359  1.00  0.00     0.033 A 
HETATM   16  C10 UNL     1       6.191   2.198  -1.279  1.00  0.00     0.029 A 
HETATM   17  C11 UNL     1       6.780   3.438  -0.995  1.00  0.00     0.002 A 
HETATM   18  C12 UNL     1       7.310   3.501   0.273  1.00  0.00     0.000 A 
HETATM   19  C13 UNL     1       7.335   2.538   1.265  1.00  0.00     0.002 A 
HETATM   20  C14 UNL     1       6.723   1.337   0.887  1.00  0.00     0.029 A 
ENDBRANCH  13  15
ENDBRANCH   9  13
ENDBRANCH   6   7
BRANCH   5  21
HETATM   21  O1  UNL     1      -1.517  -1.315   0.354  1.00  0.00    -0.352 OA
BRANCH  21  22
HETATM   22  C16 UNL     1      -2.231  -0.224  -0.113  1.00  0.00     0.195 C 
BRANCH  22  23
HETATM   23  C17 UNL     1      -3.407   0.034   0.842  1.00  0.00     0.144 C 
BRANCH  23  24
HETATM   24  N5  UNL     1      -4.182   1.142   0.446  1.00  0.00    -0.403 N 
HETATM   25  C18 UNL     1      -3.604   2.433   0.540  1.00  0.00     0.143 C 
HETATM   26  C19 UNL     1      -4.724   3.455   0.622  1.00  0.00     0.187 C 
HETATM   27  O2  UNL     1      -5.649   3.312  -0.379  1.00  0.00    -0.388 OA
HETATM   28  C20 UNL     1      -6.272   2.068  -0.411  1.00  0.00     0.192 C 
HETATM   29  C21 UNL     1      -5.589   1.084   0.536  1.00  0.00     0.099 C 
HETATM   30  C22 UNL     1      -6.202  -0.258   0.314  1.00  0.00     0.034 C 
ENDBRANCH  23  24
ENDBRANCH  22  23
ENDBRANCH  21  22
ENDBRANCH   5  21
ENDBRANCH   4   5
ENDBRANCH   3   4
TORSDOF 9
