REMARK  4 active torsions:
REMARK  status: ('A' for Active; 'I' for Inactive)
REMARK    1  A    between atoms: C3_3  and  C4_4 
REMARK    2  A    between atoms: C5_5  and  N1_6 
REMARK    3  A    between atoms: N1_6  and  N2_8 
REMARK    4  A    between atoms: C13_19  and  N7_20 
ROOT
HETATM    1  N2  UNL     1      -0.345  -1.023   0.559  1.00  0.00    -0.268 N 
HETATM    2  C7  UNL     1      -0.471  -0.078   1.637  1.00  0.00     0.229 C 
HETATM    3  N3  UNL     1      -0.864   0.996   1.049  1.00  0.00    -0.234 NA
HETATM    4  C8  UNL     1      -1.092   2.148   1.847  1.00  0.00     0.255 C 
HETATM    5  N4  UNL     1      -2.314   1.877   2.254  1.00  0.00    -0.171 NA
HETATM    6  N5  UNL     1      -2.886   0.660   1.794  1.00  0.00    -0.295 N 
HETATM    7  C9  UNL     1      -3.706  -0.483   2.027  1.00  0.00     0.263 C 
HETATM    8  N6  UNL     1      -3.187  -1.710   1.398  1.00  0.00    -0.374 N 
HETATM    9  C10 UNL     1      -2.626  -1.746   0.061  1.00  0.00     0.037 A 
HETATM   10  C11 UNL     1      -3.140  -1.641  -1.175  1.00  0.00     0.029 A 
HETATM   11  C12 UNL     1      -2.174  -1.735  -2.294  1.00  0.00     0.029 A 
HETATM   12  C13 UNL     1      -1.044  -1.906  -1.627  1.00  0.00     0.034 A 
HETATM   13  C14 UNL     1      -1.151  -1.963  -0.176  1.00  0.00     0.207 A 
HETATM   14  H13 UNL     1      -2.649   0.497   0.766  1.00  0.00     0.184 HD
HETATM   15  H16 UNL     1      -3.043  -2.724   1.525  1.00  0.00     0.161 HD
ENDROOT
BRANCH   1  16
HETATM   16  N1  UNL     1       1.017  -0.934   0.184  1.00  0.00    -0.304 N 
HETATM   17  C6  UNL     1       1.680  -1.927   1.036  1.00  0.00     0.177 C 
BRANCH  16  18
HETATM   18  C5  UNL     1       1.880  -0.233  -0.700  1.00  0.00     0.110 C 
HETATM   19  C4  UNL     1       2.200   1.004  -0.363  1.00  0.00     0.018 C 
BRANCH  19  20
HETATM   20  C3  UNL     1       3.005   2.102  -0.885  1.00  0.00    -0.003 C 
HETATM   21  C2  UNL     1       3.350   3.341  -0.590  1.00  0.00    -0.031 C 
HETATM   22  C1  UNL     1       4.251   4.035  -1.534  1.00  0.00     0.036 C 
ENDBRANCH  19  20
ENDBRANCH  16  18
ENDBRANCH   1  16
BRANCH  12  23
HETATM   23  N7  UNL     1       0.041  -2.018  -2.543  1.00  0.00    -0.400 N 
HETATM   24  H19 UNL     1       0.389  -1.274  -3.188  1.00  0.00     0.156 HD
HETATM   25  H20 UNL     1       0.602  -2.891  -2.648  1.00  0.00     0.156 HD
ENDBRANCH  12  23
TORSDOF 4
