REMARK  6 active torsions:
REMARK  status: ('A' for Active; 'I' for Inactive)
REMARK    1  A    between atoms: C2_2  and  C3_3 
REMARK       I    between atoms: C3_3  and  N1_5 
REMARK    2  A    between atoms: N1_5  and  C4_6 
REMARK    3  A    between atoms: C8_10  and  N2_11 
REMARK    4  A    between atoms: N2_11  and  C9_12 
REMARK    5  A    between atoms: C10_14  and  N4_15 
REMARK    6  A    between atoms: C12_19  and  C13_20 
ROOT
HETATM    1  N2  UNL     1      -0.922   0.291   1.177  1.00  0.00    -0.340 N 
HETATM    2  H8  UNL     1      -0.655   0.093   2.152  1.00  0.00     0.167 HD
ENDROOT
BRANCH   1   3
HETATM    3  C8  UNL     1       0.098   0.639   0.249  1.00  0.00     0.035 A 
HETATM    4  C7  UNL     1      -0.133   0.890  -1.083  1.00  0.00     0.029 A 
HETATM    5  C6  UNL     1       0.830   1.237  -1.997  1.00  0.00     0.004 A 
HETATM    6  C5  UNL     1       2.131   1.348  -1.572  1.00  0.00     0.029 A 
HETATM    7  C4  UNL     1       2.406   1.105  -0.243  1.00  0.00     0.037 A 
HETATM    8  C15 UNL     1       1.430   0.758   0.662  1.00  0.00     0.059 A 
BRANCH   7   9
HETATM    9  N1  UNL     1       3.735   1.195   0.301  1.00  0.00    -0.324 N 
HETATM   10  C3  UNL     1       4.474  -0.003   0.266  1.00  0.00     0.244 C 
HETATM   11  O1  UNL     1       4.434  -1.200  -0.072  1.00  0.00    -0.268 OA
HETATM   12  H4  UNL     1       4.220   2.022   0.713  1.00  0.00     0.169 HD
BRANCH  10  13
HETATM   13  C2  UNL     1       5.838  -0.052   0.787  1.00  0.00     0.064 C 
HETATM   14  C1  UNL     1       6.513  -1.180   0.747  1.00  0.00     0.017 C 
ENDBRANCH  10  13
ENDBRANCH   7   9
ENDBRANCH   1   3
BRANCH   1  15
HETATM   15  C9  UNL     1      -2.234   0.259   0.615  1.00  0.00     0.161 A 
HETATM   16  N3  UNL     1      -2.776   1.504   0.575  1.00  0.00    -0.042 NA
HETATM   17  C10 UNL     1      -4.003   1.694   0.089  1.00  0.00     0.751 A 
HETATM   18  N5  UNL     1      -4.707   0.642  -0.365  1.00  0.00    -0.072 NA
HETATM   19  C11 UNL     1      -4.187  -0.596  -0.334  1.00  0.00     0.153 A 
HETATM   20  C12 UNL     1      -2.931  -0.836   0.157  1.00  0.00     0.077 A 
BRANCH  17  21
HETATM   21  N4  UNL     1      -4.580   3.012   0.043  1.00  0.00    -0.050 N 
HETATM   22  F1  UNL     1      -3.808   4.011   0.510  1.00  0.00    -0.086 F 
HETATM   23  H9  UNL     1      -5.535   3.162  -0.333  1.00  0.00     0.219 HD
ENDBRANCH  17  21
BRANCH  20  24
HETATM   24  C13 UNL     1      -2.258  -2.135   0.245  1.00  0.00     0.272 C 
HETATM   25  C14 UNL     1      -3.202  -3.186  -0.308  1.00  0.00     0.096 C 
HETATM   26  F2  UNL     1      -2.065  -2.465   1.582  1.00  0.00    -0.201 F 
HETATM   27  F3  UNL     1      -1.080  -2.084  -0.434  1.00  0.00    -0.201 F 
ENDBRANCH  20  24
ENDBRANCH   1  15
TORSDOF 6
