REMARK  4 active torsions:
REMARK  status: ('A' for Active; 'I' for Inactive)
REMARK    1  A    between atoms: C2_2  and  C3_4 
REMARK    2  A    between atoms: C7_9  and  C8_10 
REMARK    3  A    between atoms: C19_24  and  N5_25 
REMARK    4  A    between atoms: N5_25  and  C20_26 
ROOT
HETATM    1  C20 UNL     1      -5.001   2.986  -0.891  1.00  0.00     0.189 C 
HETATM    2  C21 UNL     1      -5.594   4.127  -0.168  1.00  0.00     0.250 C 
HETATM    3  O2  UNL     1      -6.066   5.162   0.261  1.00  0.00    -0.305 OA
ENDROOT
BRANCH   1   4
HETATM    4  N5  UNL     1      -4.914   1.858   0.046  1.00  0.00    -0.382 N 
HETATM    5  H24 UNL     1      -5.283   1.965   1.033  1.00  0.00     0.160 HD
BRANCH   4   6
HETATM    6  C19 UNL     1      -4.425   0.553  -0.059  1.00  0.00     0.053 C 
HETATM    7  C11 UNL     1      -3.044   0.951   0.050  1.00  0.00     0.065 C 
HETATM    8  C10 UNL     1      -2.616   1.337   1.416  1.00  0.00     0.108 C 
HETATM    9  N3  UNL     1      -2.613   0.824  -1.196  1.00  0.00    -0.263 NA
HETATM   10  C9  UNL     1      -1.481   0.438   1.874  1.00  0.00     0.091 C 
HETATM   11  N2  UNL     1      -0.485  -0.191   1.376  1.00  0.00    -0.289 NA
HETATM   12  C8  UNL     1       0.222  -0.042   0.145  1.00  0.00     0.195 C 
HETATM   13  C13 UNL     1      -0.596  -0.711  -0.941  1.00  0.00    -0.014 C 
HETATM   14  C12 UNL     1      -1.476   0.035  -1.669  1.00  0.00     0.124 C 
HETATM   15  C14 UNL     1      -0.113  -2.090  -0.833  1.00  0.00     0.152 C 
HETATM   16  N4  UNL     1      -0.994  -3.167  -1.057  1.00  0.00    -0.414 N 
HETATM   17  C15 UNL     1      -2.047  -3.428  -0.152  1.00  0.00     0.141 C 
HETATM   18  H18 UNL     1      -0.556  -4.005  -1.501  1.00  0.00     0.153 HD
HETATM   19  C16 UNL     1      -3.205  -2.530  -0.179  1.00  0.00    -0.008 C 
HETATM   20  C17 UNL     1      -4.308  -1.828  -0.220  1.00  0.00    -0.000 C 
HETATM   21  C18 UNL     1      -5.013  -0.599  -0.179  1.00  0.00     0.031 C 
BRANCH  12  22
HETATM   22  C7  UNL     1       1.624  -0.504   0.190  1.00  0.00     0.073 C 
HETATM   23  C6  UNL     1       2.170  -0.986   1.295  1.00  0.00     0.037 C 
HETATM   24  C5  UNL     1       3.438  -1.547   1.848  1.00  0.00     0.299 C 
HETATM   25  N1  UNL     1       4.489  -0.555   1.833  1.00  0.00     0.087 N 
HETATM   26  C4  UNL     1       5.086  -0.436   0.510  1.00  0.00     0.284 C 
HETATM   27  H7  UNL     1       5.250  -0.867   2.481  1.00  0.00     0.316 HD
HETATM   28  C3  UNL     1       4.374   0.657  -0.232  1.00  0.00     0.107 C 
HETATM   29  C22 UNL     1       3.661   0.022  -1.414  1.00  0.00     0.189 C 
HETATM   30  O3  UNL     1       2.340  -0.395  -1.022  1.00  0.00    -0.352 OA
BRANCH  28  31
HETATM   31  C2  UNL     1       5.206   1.815  -0.585  1.00  0.00     0.131 C 
HETATM   32  C1  UNL     1       6.377   1.605  -1.473  1.00  0.00     0.091 C 
HETATM   33  O1  UNL     1       4.957   2.956  -0.163  1.00  0.00    -0.298 OA
ENDBRANCH  28  31
ENDBRANCH  12  22
ENDBRANCH   4   6
ENDBRANCH   1   4
TORSDOF 4
