REMARK  5 active torsions:
REMARK  status: ('A' for Active; 'I' for Inactive)
REMARK    1  A    between atoms: C2_2  and  C3_3 
REMARK    2  A    between atoms: C4_4  and  N1_5 
REMARK    3  A    between atoms: C6_8  and  C7_9 
REMARK    4  A    between atoms: C17_21  and  C18_22 
REMARK    5  A    between atoms: C19_24  and  N5_25 
ROOT
HETATM    1  N1  UNL     1      -0.643  -0.582  -0.021  1.00  0.00    -0.295 N 
HETATM    2  C5  UNL     1      -0.012  -0.068   1.208  1.00  0.00     0.291 C 
HETATM    3  N2  UNL     1       1.351   0.358   0.923  1.00  0.00    -0.271 NA
HETATM    4  C6  UNL     1       2.103  -0.209   0.085  1.00  0.00     0.053 C 
HETATM    5  C16 UNL     1       1.504  -1.358  -0.610  1.00  0.00     0.170 C 
HETATM    6  N4  UNL     1       0.153  -1.131  -1.037  1.00  0.00    -0.231 NA
HETATM    7  H20 UNL     1       0.163  -0.525  -1.889  1.00  0.00     0.147 HD
ENDROOT
BRANCH   1   8
HETATM    8  C4  UNL     1      -2.057  -0.547  -0.236  1.00  0.00     0.046 C 
HETATM    9  C3  UNL     1      -2.687  -1.733  -0.316  1.00  0.00    -0.032 C 
HETATM   10  C24 UNL     1      -4.124  -2.012  -0.530  1.00  0.00     0.026 C 
HETATM   11  C23 UNL     1      -5.137  -1.129  -0.535  1.00  0.00     0.088 C 
HETATM   12  N6  UNL     1      -5.061   0.299  -0.333  1.00  0.00    -0.364 N 
HETATM   13  C19 UNL     1      -3.962   0.931   0.404  1.00  0.00     0.339 C 
HETATM   14  C22 UNL     1      -6.193   0.961  -0.949  1.00  0.00     0.151 C 
HETATM   15  C17 UNL     1      -2.664   0.809  -0.345  1.00  0.00     0.151 C 
BRANCH   9  16
HETATM   16  C2  UNL     1      -1.913  -2.993  -0.183  1.00  0.00     0.036 C 
HETATM   17  C1  UNL     1      -2.039  -3.844  -1.421  1.00  0.00     0.010 C 
ENDBRANCH   9  16
BRANCH  13  18
HETATM   18  N5  UNL     1      -4.253   2.296   0.703  1.00  0.00     0.104 N 
HETATM   19  C20 UNL     1      -5.475   2.513   1.425  1.00  0.00     0.312 C 
HETATM   20  C21 UNL     1      -3.166   2.871   1.444  1.00  0.00     0.312 C 
ENDBRANCH  13  18
BRANCH  15  21
HETATM   21  C18 UNL     1      -2.910   1.135  -1.762  1.00  0.00     0.245 C 
HETATM   22  O1  UNL     1      -2.445   2.061  -2.380  1.00  0.00    -0.306 OA
ENDBRANCH  15  21
ENDBRANCH   1   8
BRANCH   4  23
HETATM   23  C7  UNL     1       3.475   0.181  -0.234  1.00  0.00    -0.008 C 
HETATM   24  C8  UNL     1       3.940   1.274   0.472  1.00  0.00     0.100 C 
HETATM   25  N3  UNL     1       5.301   1.260  -0.046  1.00  0.00    -0.364 N 
HETATM   26  C9  UNL     1       6.533   1.308   0.754  1.00  0.00     0.097 C 
HETATM   27  C15 UNL     1       5.117   1.043  -1.523  1.00  0.00     0.141 C 
HETATM   28  C10 UNL     1       7.253   0.157   0.566  1.00  0.00    -0.047 C 
HETATM   29  C11 UNL     1       8.579   0.426   1.130  1.00  0.00     0.049 C 
HETATM   30  C12 UNL     1       6.778  -1.115  -0.059  1.00  0.00     0.005 C 
HETATM   31  C13 UNL     1       5.537  -1.222  -0.613  1.00  0.00    -0.015 C 
HETATM   32  C14 UNL     1       4.497  -0.376  -1.204  1.00  0.00     0.063 C 
ENDBRANCH   4  23
TORSDOF 5
