REMARK  8 active torsions:
REMARK  status: ('A' for Active; 'I' for Inactive)
REMARK    1  A    between atoms: O1_2  and  C2_3 
REMARK    2  A    between atoms: C3_4  and  C4_5 
REMARK    3  A    between atoms: C4_5  and  N4_22 
REMARK    4  A    between atoms: C5_6  and  C6_7 
REMARK    5  A    between atoms: C6_7  and  C7_8 
REMARK    6  A    between atoms: C8_10  and  C9_11 
REMARK    7  A    between atoms: C9_11  and  C10_12 
REMARK    8  A    between atoms: N2_14  and  C11_15 
REMARK       I    between atoms: N5_25  and  C19_26 
ROOT
HETATM    1  C4  UNL     1       1.364   0.876  -0.421  1.00  0.00     0.083 C 
HETATM    2  C5  UNL     1       0.208   1.079   0.192  1.00  0.00     0.020 C 
ENDROOT
BRANCH   2   3
HETATM    3  C6  UNL     1      -0.843   1.855  -0.541  1.00  0.00     0.110 C 
BRANCH   3   4
HETATM    4  C7  UNL     1      -2.062   1.032  -0.719  1.00  0.00     0.128 A 
HETATM    5  N1  UNL     1      -3.159   1.386  -0.215  1.00  0.00    -0.249 NA
HETATM    6  C8  UNL     1      -4.432   0.727  -0.284  1.00  0.00     0.213 A 
HETATM    7  N2  UNL     1      -4.312  -0.530  -0.974  1.00  0.00    -0.343 N 
HETATM    8  C16 UNL     1      -3.035  -0.885  -1.541  1.00  0.00     0.209 A 
HETATM    9  N3  UNL     1      -1.968  -0.181  -1.438  1.00  0.00    -0.229 NA
BRANCH   6  10
HETATM   10  C9  UNL     1      -4.964   0.624   1.117  1.00  0.00     0.080 C 
BRANCH  10  11
HETATM   11  C10 UNL     1      -5.065   2.049   1.656  1.00  0.00     0.226 C 
HETATM   12  F1  UNL     1      -5.931   2.714   0.815  1.00  0.00    -0.255 F 
ENDBRANCH  10  11
ENDBRANCH   6  10
BRANCH   7  13
HETATM   13  C11 UNL     1      -5.551  -1.487  -1.070  1.00  0.00     0.129 A 
HETATM   14  C12 UNL     1      -5.727  -2.022  -0.137  1.00  0.00    -0.042 A 
HETATM   15  C13 UNL     1      -5.837  -2.429   0.560  1.00  0.00    -0.059 A 
HETATM   16  C15 UNL     1      -4.501  -2.715   0.302  1.00  0.00     0.069 A 
HETATM   17  C14 UNL     1      -5.953  -2.955   1.447  1.00  0.00     0.038 A 
ENDBRANCH   7  13
ENDBRANCH   3   4
ENDBRANCH   2   3
BRANCH   1  18
HETATM   18  C3  UNL     1       1.499   1.424  -1.741  1.00  0.00    -0.019 C 
HETATM   19  C2  UNL     1       1.616   1.876  -2.853  1.00  0.00     0.060 C 
BRANCH  19  20
HETATM   20  O1  UNL     1       1.742   2.370  -4.120  1.00  0.00    -0.308 OA
HETATM   21  C1  UNL     1       2.916   3.092  -4.418  1.00  0.00     0.223 C 
ENDBRANCH  19  20
ENDBRANCH   1  18
BRANCH   1  22
HETATM   22  N4  UNL     1       2.416   0.149   0.202  1.00  0.00    -0.371 N 
HETATM   23  C17 UNL     1       3.592   0.967   0.396  1.00  0.00     0.143 C 
HETATM   24  C18 UNL     1       4.480   0.488   1.513  1.00  0.00     0.145 C 
HETATM   25  N5  UNL     1       4.689  -0.920   1.398  1.00  0.00    -0.349 N 
HETATM   26  C19 UNL     1       5.824  -1.330   2.117  1.00  0.00     0.215 C 
HETATM   27  C21 UNL     1       3.810  -1.773   0.624  1.00  0.00     0.145 C 
HETATM   28  C20 UNL     1       6.214  -2.772   2.122  1.00  0.00     0.117 C 
HETATM   29  O2  UNL     1       6.342  -0.321   2.667  1.00  0.00    -0.274 OA
HETATM   30  C22 UNL     1       2.397  -1.242   0.622  1.00  0.00     0.143 C 
ENDBRANCH   1  22
TORSDOF 8
