REMARK  9 active torsions:
REMARK  status: ('A' for Active; 'I' for Inactive)
REMARK    1  A    between atoms: O1_2  and  C2_3 
REMARK    2  A    between atoms: C2_3  and  C3_4 
REMARK    3  A    between atoms: C7_10  and  C8_11 
REMARK    4  A    between atoms: C7_10  and  C9_13 
REMARK    5  A    between atoms: C9_13  and  N2_14 
REMARK    6  A    between atoms: N2_14  and  C10_15 
REMARK    7  A    between atoms: C12_18  and  C13_19 
REMARK    8  A    between atoms: C14_21  and  N4_22 
REMARK    9  A    between atoms: N4_22  and  C15_23 
ROOT
HETATM    1  C10 UNL     1       0.415  -0.665  -0.441  1.00  0.00     0.724 A 
HETATM    2  N3  UNL     1       0.546  -1.641  -1.333  1.00  0.00    -0.075 NA
HETATM    3  C11 UNL     1      -0.458  -2.408  -1.758  1.00  0.00     0.149 A 
HETATM    4  C12 UNL     1      -1.732  -2.233  -1.284  1.00  0.00     0.035 A 
HETATM    5  C14 UNL     1      -1.889  -1.210  -0.343  1.00  0.00     0.157 A 
HETATM    6  N6  UNL     1      -0.819  -0.485   0.027  1.00  0.00    -0.045 NA
ENDROOT
BRANCH   1   7
HETATM    7  N2  UNL     1       1.455   0.166   0.071  1.00  0.00    -0.220 N 
HETATM    8  H18 UNL     1       1.239   0.968   0.697  1.00  0.00     0.177 HD
BRANCH   7   9
HETATM    9  C9  UNL     1       2.797  -0.144  -0.311  1.00  0.00     0.172 C 
BRANCH   9  10
HETATM   10  C7  UNL     1       3.846   0.789   0.266  1.00  0.00     0.084 C 
HETATM   11  C3  UNL     1       3.576   2.182  -0.217  1.00  0.00     0.103 C 
HETATM   12  S1  UNL     1       4.244   2.464  -1.876  1.00  0.00    -0.158 SA
HETATM   13  C4  UNL     1       5.679   1.455  -2.191  1.00  0.00     0.093 C 
HETATM   14  C5  UNL     1       5.457   0.151  -1.457  1.00  0.00     0.127 C 
HETATM   15  N1  UNL     1       5.121   0.267  -0.098  1.00  0.00    -0.403 N 
HETATM   16  C6  UNL     1       5.757  -0.620   0.801  1.00  0.00     0.144 C 
BRANCH  11  17
HETATM   17  C2  UNL     1       3.982   3.289   0.671  1.00  0.00     0.184 C 
BRANCH  17  18
HETATM   18  O1  UNL     1       3.548   4.513   0.282  1.00  0.00    -0.395 OA
HETATM   19  C1  UNL     1       3.858   5.043  -0.927  1.00  0.00     0.201 C 
ENDBRANCH  17  18
ENDBRANCH  11  17
BRANCH  10  20
HETATM   20  C8  UNL     1       3.752   0.708   1.767  1.00  0.00     0.255 C 
HETATM   21  F1  UNL     1       4.621   1.472   2.464  1.00  0.00    -0.253 F 
ENDBRANCH  10  20
ENDBRANCH   9  10
ENDBRANCH   7   9
ENDBRANCH   1   7
BRANCH   5  22
HETATM   22  N4  UNL     1      -3.109  -0.922   0.253  1.00  0.00    -0.340 N 
HETATM   23  H22 UNL     1      -3.135  -0.084   0.915  1.00  0.00     0.167 HD
BRANCH  22  24
HETATM   24  C15 UNL     1      -4.468  -1.021   0.568  1.00  0.00     0.033 C 
HETATM   25  C16 UNL     1      -5.459  -0.531  -0.179  1.00  0.00     0.031 C 
HETATM   26  C17 UNL     1      -6.788  -0.241  -0.539  1.00  0.00     0.028 C 
HETATM   27  C18 UNL     1      -7.871  -0.557   0.128  1.00  0.00     0.160 C 
HETATM   28  O2  UNL     1      -8.823  -1.049   1.085  1.00  0.00    -0.276 OA
HETATM   29  N5  UNL     1      -8.309  -1.252   2.413  1.00  0.00    -0.197 NA
HETATM   30  C19 UNL     1      -7.101  -1.810   2.122  1.00  0.00     0.145 C 
HETATM   31  H26 UNL     1      -8.956  -1.911   2.888  1.00  0.00     0.154 HD
HETATM   32  C20 UNL     1      -5.816  -2.154   2.548  1.00  0.00    -0.008 C 
HETATM   33  C21 UNL     1      -4.684  -1.795   1.855  1.00  0.00     0.026 C 
ENDBRANCH  22  24
ENDBRANCH   5  22
BRANCH   4  34
HETATM   34  C13 UNL     1      -2.882  -3.063  -1.717  1.00  0.00     0.266 C 
HETATM   35  F2  UNL     1      -3.653  -2.277  -2.566  1.00  0.00    -0.250 F 
ENDBRANCH   4  34
TORSDOF 9
