REMARK  5 active torsions:
REMARK  status: ('A' for Active; 'I' for Inactive)
REMARK    1  A    between atoms: O1_2  and  C2_3 
REMARK    2  A    between atoms: C5_6  and  N1_7 
REMARK    3  A    between atoms: C9_12  and  N4_15 
REMARK    4  A    between atoms: N4_15  and  C11_16 
REMARK    5  A    between atoms: C13_19  and  C14_20 
ROOT
HETATM    1  C2  UNL     1       1.768  -1.169   1.096  1.00  0.00     0.059 A 
HETATM    2  C3  UNL     1       1.699  -0.192   0.165  1.00  0.00     0.088 A 
HETATM    3  C4  UNL     1       0.721   0.407  -0.667  1.00  0.00     0.046 A 
HETATM    4  C5  UNL     1      -0.161   0.865  -1.340  1.00  0.00     0.215 A 
HETATM    5  C6  UNL     1      -0.170  -0.260  -0.312  1.00  0.00     0.047 A 
HETATM    6  C7  UNL     1       0.665  -0.849   0.477  1.00  0.00     0.077 A 
HETATM    7  N2  UNL     1      -0.085  -1.805   1.126  1.00  0.00    -0.389 N 
HETATM    8  C8  UNL     1      -1.367  -1.682   0.627  1.00  0.00     0.199 A 
HETATM    9  C9  UNL     1      -2.243  -0.653  -0.222  1.00  0.00     0.402 A 
HETATM   10  N3  UNL     1      -3.443  -0.918  -0.484  1.00  0.00     0.218 N 
HETATM   11  C10 UNL     1      -4.567  -1.482  -0.563  1.00  0.00     0.534 A 
HETATM   12  N4  UNL     1      -3.425  -1.560  -0.135  1.00  0.00     0.218 N 
HETATM   13  C11 UNL     1      -2.286  -1.585   0.261  1.00  0.00     0.459 A 
HETATM   14  O2  UNL     1      -0.876  -1.210   0.335  1.00  0.00     0.000 OA
HETATM   15  C12 UNL     1      -1.870   0.740  -0.708  1.00  0.00     0.086 C 
HETATM   16  C13 UNL     1      -0.573   1.195  -0.177  1.00  0.00     0.024 A 
HETATM   17  H7  UNL     1      -0.347  -2.615   1.779  1.00  0.00     0.155 HD
ENDROOT
BRANCH   4  18
HETATM   18  N1  UNL     1       1.013   1.542  -1.957  1.00  0.00     0.092 N 
HETATM   19  H5  UNL     1       2.103   1.539  -2.093  1.00  0.00     0.314 HD
HETATM   20  H6  UNL     1       2.076   1.561  -2.107  1.00  0.00     0.314 HD
ENDBRANCH   4  18
BRANCH  16  21
HETATM   21  C14 UNL     1      -0.403   2.654  -0.426  1.00  0.00     0.091 C 
HETATM   22 BR1  UNL     1       1.089   3.490   0.389  1.00  0.00    -0.096 Br
ENDBRANCH  16  21
BRANCH   1  23
HETATM   23  O1  UNL     1       2.810  -1.620   1.831  1.00  0.00    -0.361 OA
HETATM   24  C1  UNL     1       4.126  -1.091   1.564  1.00  0.00     0.209 C 
ENDBRANCH   1  23
TORSDOF 5
