REMARK  8 active torsions:
REMARK  status: ('A' for Active; 'I' for Inactive)
REMARK    1  A    between atoms: C2_2  and  O1_4 
REMARK    2  A    between atoms: O1_4  and  C4_5 
REMARK    3  A    between atoms: C4_5  and  N1_7 
REMARK    4  A    between atoms: N1_7  and  C6_8 
REMARK    5  A    between atoms: C7_9  and  C8_10 
REMARK    6  A    between atoms: C8_10  and  O2_11 
REMARK    7  A    between atoms: O2_11  and  C9_12 
REMARK    8  A    between atoms: C12_15  and  O3_16 
ROOT
HETATM    1  C9  UNL     1      -1.531   1.448   0.316  1.00  0.00     0.146 C 
HETATM    2  C10 UNL     1      -0.669   1.866   1.466  1.00  0.00     0.093 C 
HETATM    3  C11 UNL     1      -1.587   1.833   2.636  1.00  0.00     0.034 C 
HETATM    4  C12 UNL     1      -2.685   1.097   2.349  1.00  0.00     0.141 C 
HETATM    5  N2  UNL     1      -2.528   0.619   0.981  1.00  0.00    -0.294 N 
HETATM    6  C13 UNL     1      -3.383  -0.501   0.664  1.00  0.00     0.046 A 
HETATM    7  C14 UNL     1      -3.402  -1.207   1.851  1.00  0.00     0.030 A 
HETATM    8  C15 UNL     1      -4.193  -2.339   1.822  1.00  0.00     0.002 A 
HETATM    9  C16 UNL     1      -4.893  -2.695   0.662  1.00  0.00     0.001 A 
HETATM   10  C17 UNL     1      -4.819  -1.925  -0.503  1.00  0.00     0.010 A 
HETATM   11  C18 UNL     1      -4.033  -0.767  -0.530  1.00  0.00    -0.022 A 
HETATM   12  C19 UNL     1      -4.170  -0.212  -1.894  1.00  0.00     0.114 C 
HETATM   13  S1  UNL     1      -4.332   1.584  -1.902  1.00  0.00    -0.164 SA
HETATM   14  C20 UNL     1      -3.764   2.331  -0.367  1.00  0.00     0.079 C 
HETATM   15  C21 UNL     1      -2.276   2.604  -0.339  1.00  0.00     0.072 C 
ENDROOT
BRANCH   1  16
HETATM   16  O2  UNL     1      -0.883   0.769  -0.692  1.00  0.00    -0.356 OA
BRANCH  16  17
HETATM   17  C8  UNL     1      -0.285  -0.411  -0.342  1.00  0.00     0.200 C 
BRANCH  17  18
HETATM   18  C7  UNL     1       0.382  -1.053  -1.532  1.00  0.00     0.016 C 
HETATM   19  C6  UNL     1       1.670  -1.336  -1.643  1.00  0.00     0.083 C 
BRANCH  19  20
HETATM   20  N1  UNL     1       2.509  -1.013  -0.553  1.00  0.00    -0.374 N 
HETATM   21  H12 UNL     1       2.314  -1.227   0.434  1.00  0.00     0.161 HD
BRANCH  20  22
HETATM   22  C4  UNL     1       3.752  -0.319  -0.841  1.00  0.00     0.216 C 
HETATM   23  C5  UNL     1       3.438   0.987  -1.506  1.00  0.00     0.063 C 
BRANCH  22  24
HETATM   24  O1  UNL     1       4.524  -0.132   0.282  1.00  0.00    -0.363 OA
BRANCH  24  25
HETATM   25  C2  UNL     1       5.755  -0.727   0.123  1.00  0.00     0.116 C 
HETATM   26  C1  UNL     1       5.984  -1.820   1.175  1.00  0.00     0.039 C 
HETATM   27  C3  UNL     1       6.879   0.274   0.322  1.00  0.00     0.039 C 
ENDBRANCH  24  25
ENDBRANCH  22  24
ENDBRANCH  20  22
ENDBRANCH  19  20
ENDBRANCH  17  18
ENDBRANCH  16  17
ENDBRANCH   1  16
BRANCH   4  28
HETATM   28  O3  UNL     1      -3.792   0.829   3.204  1.00  0.00    -0.346 OA
HETATM   29  H20 UNL     1      -4.615   1.421   3.180  1.00  0.00     0.219 HD
ENDBRANCH   4  28
TORSDOF 8
