REMARK  0 active torsions:
REMARK  status: ('A' for Active; 'I' for Inactive)
ROOT
HETATM    1  O1  UNL     1      -1.136   2.828  -0.631  1.00  0.00     0.000 OA
HETATM    2  C1  UNL     1      -0.097   3.085  -0.073  1.00  0.00     0.421 A 
HETATM    3  N1  UNL     1      -1.234   3.473  -0.900  1.00  0.00     0.147 N 
HETATM    4  C2  UNL     1      -2.375   2.680  -1.348  1.00  0.00     0.313 A 
HETATM    5  C3  UNL     1      -2.923   1.810  -0.188  1.00  0.00    -0.001 C 
HETATM    6  C4  UNL     1      -2.791   0.851   0.772  1.00  0.00     0.041 C 
HETATM    7  C5  UNL     1      -1.749  -0.044   1.291  1.00  0.00    -0.004 C 
HETATM    8  C6  UNL     1      -0.534  -0.510   1.371  1.00  0.00    -0.007 C 
HETATM    9  C7  UNL     1      -0.104  -1.562   2.132  1.00  0.00     0.025 C 
HETATM   10  C8  UNL     1      -0.761  -2.511   1.474  1.00  0.00    -0.029 C 
HETATM   11  C9  UNL     1      -0.745  -2.392   0.162  1.00  0.00    -0.014 C 
HETATM   12  C10 UNL     1      -0.635  -1.447  -0.883  1.00  0.00     0.028 C 
HETATM   13  C11 UNL     1      -1.966  -1.146  -1.602  1.00  0.00     0.011 C 
HETATM   14  C12 UNL     1      -2.028   0.052  -2.447  1.00  0.00     0.081 C 
HETATM   15  C13 UNL     1      -1.675   1.409  -2.003  1.00  0.00     0.163 C 
HETATM   16  O2  UNL     1      -0.456   1.289  -2.316  1.00  0.00    -0.295 OA
HETATM   17  C14 UNL     1       0.863  -0.129   1.195  1.00  0.00     0.104 C 
HETATM   18  C15 UNL     1       2.196  -0.584   1.186  1.00  0.00    -0.004 A 
HETATM   19  C16 UNL     1       3.082   0.478   0.972  1.00  0.00     0.014 A 
HETATM   20  C17 UNL     1       4.449   0.256   0.900  1.00  0.00     0.001 A 
HETATM   21  C18 UNL     1       4.841  -1.070   1.053  1.00  0.00     0.000 A 
HETATM   22  C19 UNL     1       4.025  -2.195   1.270  1.00  0.00     0.001 A 
HETATM   23  C20 UNL     1       2.716  -1.810   1.315  1.00  0.00     0.014 A 
HETATM   24  N2  UNL     1       0.546   1.016   0.995  1.00  0.00    -0.130 NA
HETATM   25  O3  UNL     1       0.784   2.294   0.728  1.00  0.00    -0.202 OA
HETATM   26  H1  UNL     1      -1.099   4.557  -1.162  1.00  0.00     0.321 HD
ENDROOT
TORSDOF 0
