REMARK  1 active torsions:
REMARK  status: ('A' for Active; 'I' for Inactive)
REMARK    1  A    between atoms: C2_2  and  C3_3 
ROOT
HETATM    1  C3  UNL     1      -2.464   0.830  -1.455  1.00  0.00     0.051 C 
HETATM    2  C4  UNL     1      -2.995  -0.536  -1.206  1.00  0.00     0.091 C 
HETATM    3  C5  UNL     1      -2.428  -1.248   0.014  1.00  0.00     0.149 C 
HETATM    4  O1  UNL     1      -3.054  -1.954   0.752  1.00  0.00    -0.296 OA
HETATM    5  C6  UNL     1      -1.008  -0.925   0.128  1.00  0.00     0.158 C 
HETATM    6  C7  UNL     1      -1.118   0.591   0.096  1.00  0.00     0.036 C 
HETATM    7  C8  UNL     1      -1.045   1.094  -1.160  1.00  0.00     0.081 C 
HETATM    8  O2  UNL     1       0.302   1.532  -1.365  1.00  0.00    -0.218 OA
HETATM    9  N1  UNL     1       1.307   1.084  -0.610  1.00  0.00    -0.144 NA
HETATM   10  C9  UNL     1       2.398   0.586  -0.578  1.00  0.00     0.133 C 
HETATM   11  C10 UNL     1       2.966   0.341   0.760  1.00  0.00     0.091 A 
HETATM   12  C11 UNL     1       4.446   0.380   0.813  1.00  0.00     0.005 A 
HETATM   13  C12 UNL     1       5.341  -0.482   1.266  1.00  0.00     0.084 A 
HETATM   14  N2  UNL     1       4.757  -1.665   1.799  1.00  0.00    -0.375 N 
HETATM   15  C13 UNL     1       3.379  -1.913   1.848  1.00  0.00     0.100 A 
HETATM   16  C14 UNL     1       2.578  -0.980   1.366  1.00  0.00     0.021 A 
HETATM   17  C15 UNL     1       1.166  -1.417   1.479  1.00  0.00     0.162 A 
HETATM   18  O3  UNL     1       0.679  -2.196   2.349  1.00  0.00    -0.286 OA
HETATM   19  N3  UNL     1      -0.207  -1.476   1.105  1.00  0.00    -0.245 NA
HETATM   20  H15 UNL     1       5.460  -2.361   2.164  1.00  0.00     0.164 HD
HETATM   21  H17 UNL     1       0.489  -0.916   0.608  1.00  0.00     0.225 HD
ENDROOT
BRANCH   1  22
HETATM   22  C2  UNL     1      -3.318   1.819  -0.680  1.00  0.00     0.007 C 
HETATM   23  C1  UNL     1      -4.736   1.669  -1.203  1.00  0.00     0.006 C 
ENDBRANCH   1  22
TORSDOF 1
