REMARK  2 active torsions:
REMARK  status: ('A' for Active; 'I' for Inactive)
REMARK    1  A    between atoms: C2_2  and  C4_4 
REMARK       I    between atoms: C4_4  and  N1_6 
REMARK    2  A    between atoms: N1_6  and  C5_7 
ROOT
HETATM    1  C5  UNL     1       2.569  -1.018  -0.072  1.00  0.00     0.015 A 
HETATM    2  C6  UNL     1       2.558  -2.228  -0.593  1.00  0.00     0.027 A 
HETATM    3  C7  UNL     1       1.403  -3.028  -0.962  1.00  0.00     0.032 A 
HETATM    4  C8  UNL     1       0.104  -2.708  -0.850  1.00  0.00     0.046 A 
HETATM    5  N2  UNL     1      -1.001  -3.543  -1.233  1.00  0.00    -0.322 N 
HETATM    6  C9  UNL     1      -2.215  -2.859  -0.960  1.00  0.00     0.259 A 
HETATM    7  O2  UNL     1      -3.187  -3.577  -1.290  1.00  0.00    -0.267 OA
HETATM    8  C10 UNL     1      -1.963  -1.543  -0.385  1.00  0.00     0.073 A 
HETATM    9  C11 UNL     1      -2.929  -0.729  -0.051  1.00  0.00     0.078 A 
HETATM   10  N3  UNL     1      -2.931   0.565   0.509  1.00  0.00    -0.353 N 
HETATM   11  C12 UNL     1      -4.217   1.126   0.728  1.00  0.00     0.045 A 
HETATM   12  C13 UNL     1      -4.763   2.293   1.222  1.00  0.00     0.030 A 
HETATM   13  C14 UNL     1      -6.115   2.538   1.303  1.00  0.00     0.002 A 
HETATM   14  C15 UNL     1      -7.005   1.595   0.877  1.00  0.00     0.001 A 
HETATM   15  C16 UNL     1      -6.506   0.419   0.377  1.00  0.00     0.016 A 
HETATM   16  C17 UNL     1      -5.128   0.183   0.302  1.00  0.00     0.021 A 
HETATM   17  C18 UNL     1      -4.369  -0.965  -0.181  1.00  0.00     0.088 A 
HETATM   18  N4  UNL     1      -4.959  -2.002  -0.641  1.00  0.00    -0.297 NA
HETATM   19  C19 UNL     1      -0.528  -1.498  -0.338  1.00  0.00     0.005 A 
HETATM   20  C20 UNL     1       0.166  -0.495   0.106  1.00  0.00    -0.006 A 
HETATM   21  C21 UNL     1       1.539  -0.065   0.314  1.00  0.00     0.085 A 
HETATM   22  H11 UNL     1      -0.754  -4.491  -1.638  1.00  0.00     0.169 HD
HETATM   23  H12 UNL     1      -2.183   1.190   0.794  1.00  0.00     0.166 HD
HETATM   24  H17 UNL     1      -5.966  -2.077  -0.693  1.00  0.00     0.187 HD
ENDROOT
BRANCH   1  25
HETATM   25  N1  UNL     1       3.817  -0.402   0.220  1.00  0.00    -0.330 N 
HETATM   26  C4  UNL     1       4.335   0.817  -0.304  1.00  0.00     0.225 C 
HETATM   27  O1  UNL     1       3.742   1.556  -1.135  1.00  0.00    -0.273 OA
HETATM   28  H8  UNL     1       4.389  -0.946   0.908  1.00  0.00     0.168 HD
BRANCH  26  29
HETATM   29  C2  UNL     1       5.666   1.255   0.155  1.00  0.00     0.070 C 
HETATM   30  C1  UNL     1       6.011   2.563  -0.526  1.00  0.00     0.019 C 
HETATM   31  C3  UNL     1       5.794   1.440   1.632  1.00  0.00     0.019 C 
ENDBRANCH  26  29
ENDBRANCH   1  25
TORSDOF 2
