REMARK  9 active torsions:
REMARK  status: ('A' for Active; 'I' for Inactive)
REMARK    1  A    between atoms: O1_2  and  C2_3 
REMARK    2  A    between atoms: C2_3  and  C13_19 
REMARK    3  A    between atoms: C3_4  and  C4_5 
REMARK    4  A    between atoms: C4_5  and  N1_6 
REMARK    5  A    between atoms: C4_5  and  O2_14 
REMARK    6  A    between atoms: N1_6  and  C5_7 
REMARK    7  A    between atoms: O2_14  and  C11_15 
REMARK    8  A    between atoms: C13_19  and  C14_20 
REMARK    9  A    between atoms: C14_20  and  N4_21 
ROOT
HETATM    1  C4  UNL     1      -0.295   0.893   0.312  1.00  0.00     0.257 C 
ENDROOT
BRANCH   1   2
HETATM    2  C3  UNL     1       0.638   0.195  -0.601  1.00  0.00     0.058 C 
HETATM    3  C2  UNL     1       1.708  -0.576  -0.538  1.00  0.00     0.048 C 
BRANCH   3   4
HETATM    4  O1  UNL     1       2.563  -1.218  -1.450  1.00  0.00    -0.360 OA
HETATM    5  C1  UNL     1       1.987  -2.264  -2.226  1.00  0.00     0.209 C 
ENDBRANCH   3   4
BRANCH   3   6
HETATM    6  C13 UNL     1       2.333  -0.994   0.748  1.00  0.00     0.094 C 
BRANCH   6   7
HETATM    7  C14 UNL     1       3.771  -0.531   0.865  1.00  0.00     0.273 C 
BRANCH   7   8
HETATM    8  N4  UNL     1       4.385  -0.940   2.123  1.00  0.00     0.078 N 
HETATM    9  H18 UNL     1       3.776  -1.584   2.677  1.00  0.00     0.312 HD
HETATM   10  H19 UNL     1       5.292  -1.448   1.960  1.00  0.00     0.312 HD
ENDBRANCH   7   8
ENDBRANCH   6   7
ENDBRANCH   3   6
ENDBRANCH   1   2
BRANCH   1  11
HETATM   11  N1  UNL     1      -1.561   1.031  -0.367  1.00  0.00    -0.360 N 
HETATM   12  H6  UNL     1      -1.964   1.971  -0.552  1.00  0.00     0.162 HD
BRANCH  11  13
HETATM   13  C5  UNL     1      -2.300  -0.099  -0.804  1.00  0.00     0.031 A 
HETATM   14  C6  UNL     1      -3.517   0.031  -1.460  1.00  0.00     0.029 A 
HETATM   15  C7  UNL     1      -4.292  -1.015  -1.913  1.00  0.00     0.004 A 
HETATM   16  C8  UNL     1      -3.835  -2.302  -1.706  1.00  0.00     0.019 A 
HETATM   17  C9  UNL     1      -2.643  -2.487  -1.065  1.00  0.00     0.013 A 
HETATM   18 BR1  UNL     1      -2.009  -4.282  -0.778  1.00  0.00    -0.051 Br
HETATM   19  C10 UNL     1      -1.904  -1.401  -0.630  1.00  0.00     0.048 A 
ENDBRANCH  11  13
ENDBRANCH   1  11
BRANCH   1  20
HETATM   20  O2  UNL     1       0.291   2.148   0.599  1.00  0.00    -0.291 OA
BRANCH  20  21
HETATM   21  C11 UNL     1      -0.273   3.103   1.421  1.00  0.00     0.242 A 
HETATM   22  N2  UNL     1      -1.006   2.875   2.434  1.00  0.00    -0.231 NA
HETATM   23  C12 UNL     1      -1.154   4.284   2.694  1.00  0.00     0.278 A 
HETATM   24  N3  UNL     1      -0.318   4.509   1.539  1.00  0.00    -0.337 N 
HETATM   25  H13 UNL     1       0.116   5.268   0.965  1.00  0.00     0.164 HD
ENDBRANCH  20  21
ENDBRANCH   1  20
TORSDOF 9
