REMARK  7 active torsions:
REMARK  status: ('A' for Active; 'I' for Inactive)
REMARK    1  A    between atoms: C2_2  and  C3_3 
REMARK       I    between atoms: C3_3  and  N1_5 
REMARK    2  A    between atoms: C5_7  and  C6_8 
REMARK    3  A    between atoms: C6_8  and  O2_9 
REMARK    4  A    between atoms: O2_9  and  C7_10 
REMARK    5  A    between atoms: C8_12  and  N3_13 
REMARK    6  A    between atoms: N3_13  and  C9_14 
REMARK    7  A    between atoms: C17_27  and  O3_28 
ROOT
HETATM    1  C7  UNL     1       0.356  -1.418  -0.138  1.00  0.00     0.199 A 
HETATM    2  N2  UNL     1       0.769  -0.703  -1.195  1.00  0.00    -0.037 NA
HETATM    3  C8  UNL     1       2.054  -0.665  -1.572  1.00  0.00     0.731 A 
HETATM    4  N6  UNL     1       3.005  -1.365  -0.886  1.00  0.00    -0.042 NA
HETATM    5  C13 UNL     1       2.579  -2.084   0.177  1.00  0.00     0.180 A 
HETATM    6  C14 UNL     1       1.246  -2.149   0.605  1.00  0.00     0.089 A 
HETATM    7  C15 UNL     1       1.732  -3.063   1.679  1.00  0.00     0.050 A 
HETATM    8  C16 UNL     1       0.921  -3.606   2.581  1.00  0.00     0.066 C 
HETATM    9  N7  UNL     1       3.038  -2.950   1.198  1.00  0.00    -0.239 N 
HETATM   10 CL1  UNL     1       4.391  -3.740   1.913  1.00  0.00     0.020 Cl
ENDROOT
BRANCH   1  11
HETATM   11  O2  UNL     1      -0.882  -1.402   0.155  1.00  0.00    -0.333 OA
BRANCH  11  12
HETATM   12  C6  UNL     1      -2.154  -1.201   0.210  1.00  0.00     0.186 C 
BRANCH  12  13
HETATM   13  C5  UNL     1      -2.614   0.252   0.451  1.00  0.00     0.058 C 
HETATM   14  C4  UNL     1      -2.063   0.760   1.769  1.00  0.00     0.135 C 
HETATM   15  N1  UNL     1      -3.257   1.037   2.532  1.00  0.00    -0.346 N 
HETATM   16  C3  UNL     1      -3.296   1.893   3.687  1.00  0.00     0.239 C 
HETATM   17  C19 UNL     1      -4.401   0.340   2.017  1.00  0.00     0.158 C 
HETATM   18  O1  UNL     1      -4.385   2.118   4.268  1.00  0.00    -0.269 OA
HETATM   19  C17 UNL     1      -4.107   0.212   0.548  1.00  0.00     0.146 C 
BRANCH  16  20
HETATM   20  C2  UNL     1      -2.103   2.526   4.229  1.00  0.00     0.048 C 
HETATM   21  C1  UNL     1      -0.835   2.506   3.898  1.00  0.00     0.037 C 
ENDBRANCH  16  20
BRANCH  19  22
HETATM   22  O3  UNL     1      -4.599   1.321  -0.131  1.00  0.00    -0.389 OA
HETATM   23  C18 UNL     1      -5.466   0.906  -1.128  1.00  0.00     0.202 C 
ENDBRANCH  19  22
ENDBRANCH  12  13
ENDBRANCH  11  12
ENDBRANCH   1  11
BRANCH   3  24
HETATM   24  N3  UNL     1       2.526   0.054  -2.700  1.00  0.00    -0.185 N 
HETATM   25  H9  UNL     1       1.760   0.502  -3.269  1.00  0.00     0.184 HD
BRANCH  24  26
HETATM   26  C9  UNL     1       3.861   0.225  -3.121  1.00  0.00     0.085 A 
HETATM   27  C10 UNL     1       5.042  -0.106  -2.429  1.00  0.00     0.170 A 
HETATM   28  N4  UNL     1       6.071   0.250  -3.260  1.00  0.00    -0.183 NA
HETATM   29  N5  UNL     1       5.552   0.743  -4.341  1.00  0.00    -0.283 N 
HETATM   30  C11 UNL     1       6.486   1.205  -5.337  1.00  0.00     0.179 C 
HETATM   31  C12 UNL     1       4.230   0.786  -4.392  1.00  0.00     0.143 A 
ENDBRANCH  24  26
ENDBRANCH   3  24
TORSDOF 7
