REMARK  4 active torsions:
REMARK  status: ('A' for Active; 'I' for Inactive)
REMARK    1  A    between atoms: C1_2  and  C2_3 
REMARK    2  A    between atoms: C2_3  and  C3_4 
REMARK    3  A    between atoms: C3_4  and  C4_5 
REMARK       I    between atoms: C4_5  and  N1_7 
REMARK    4  A    between atoms: N1_7  and  C5_8 
ROOT
HETATM    1  C5  UNL     1       1.027  -1.228  -1.485  1.00  0.00     0.061 A 
HETATM    2  C6  UNL     1       1.016  -1.212  -2.858  1.00  0.00     0.032 A 
HETATM    3  C7  UNL     1      -0.195  -1.230  -3.491  1.00  0.00     0.003 A 
HETATM    4  C8  UNL     1      -1.358  -1.263  -2.749  1.00  0.00     0.012 A 
HETATM    5  C9  UNL     1      -1.402  -1.280  -1.363  1.00  0.00    -0.001 A 
HETATM    6  C10 UNL     1      -0.140  -1.261  -0.752  1.00  0.00     0.064 A 
HETATM    7  N2  UNL     1       0.213  -1.270   0.649  1.00  0.00    -0.385 N 
HETATM    8  C11 UNL     1      -0.359  -0.894   1.957  1.00  0.00     0.162 C 
HETATM    9  C12 UNL     1      -1.139   0.314   1.756  1.00  0.00     0.290 C 
HETATM   10  N3  UNL     1      -1.725   1.020   2.822  1.00  0.00     0.099 N 
HETATM   11  C13 UNL     1      -2.794   1.859   2.241  1.00  0.00     0.311 C 
HETATM   12  C14 UNL     1      -3.172   1.161   0.991  1.00  0.00    -0.004 C 
HETATM   13  C15 UNL     1      -4.015   1.538   0.011  1.00  0.00     0.011 C 
HETATM   14  C16 UNL     1      -4.262   0.858  -1.287  1.00  0.00    -0.001 C 
HETATM   15  C17 UNL     1      -3.688  -0.325  -1.603  1.00  0.00     0.005 C 
HETATM   16  C18 UNL     1      -2.830  -1.321  -0.966  1.00  0.00     0.166 C 
HETATM   17  N4  UNL     1      -2.845  -1.237   0.493  1.00  0.00    -0.277 NA
HETATM   18  C19 UNL     1      -2.403  -0.108   1.020  1.00  0.00     0.072 C 
HETATM   19  H10 UNL     1       1.189  -1.676   0.735  1.00  0.00     0.159 HD
HETATM   20  H14 UNL     1      -2.065   0.380   3.542  1.00  0.00     0.317 HD
ENDROOT
BRANCH   1  21
HETATM   21  N1  UNL     1       2.269  -1.211  -0.748  1.00  0.00    -0.325 N 
HETATM   22  C4  UNL     1       2.826   0.042  -0.383  1.00  0.00     0.222 C 
HETATM   23  O2  UNL     1       2.126   1.003  -0.771  1.00  0.00    -0.273 OA
HETATM   24  H6  UNL     1       2.755  -2.120  -0.486  1.00  0.00     0.169 HD
BRANCH  22  25
HETATM   25  C3  UNL     1       4.109  -0.008   0.377  1.00  0.00     0.110 C 
BRANCH  25  26
HETATM   26  C2  UNL     1       4.635   1.359   0.728  1.00  0.00     0.078 C 
BRANCH  26  27
HETATM   27  C1  UNL     1       5.914   1.275   1.484  1.00  0.00     0.231 C 
HETATM   28  O1  UNL     1       6.665   0.423   1.905  1.00  0.00    -0.307 OA
ENDBRANCH  26  27
ENDBRANCH  25  26
ENDBRANCH  22  25
ENDBRANCH   1  21
TORSDOF 4
