REMARK  0 active torsions:
REMARK  status: ('A' for Active; 'I' for Inactive)
ROOT
HETATM    1  C1  UNL     1      -2.563   2.468   0.921  1.00  0.00     0.311 C 
HETATM    2  N1  UNL     1      -1.975   1.162   0.935  1.00  0.00     0.098 N 
HETATM    3  C2  UNL     1      -3.081   0.197   0.724  1.00  0.00     0.329 C 
HETATM    4  C3  UNL     1      -2.418  -1.018   0.081  1.00  0.00     0.034 C 
HETATM    5  C4  UNL     1      -1.555  -1.935   0.670  1.00  0.00     0.027 C 
HETATM    6  C5  UNL     1      -0.239  -1.249   1.117  1.00  0.00     0.009 C 
HETATM    7  C6  UNL     1       0.022  -0.094   0.418  1.00  0.00    -0.019 C 
HETATM    8  C7  UNL     1      -0.931   0.986  -0.045  1.00  0.00     0.256 C 
HETATM    9  C8  UNL     1      -1.488   0.790  -1.390  1.00  0.00     0.069 C 
HETATM   10  C9  UNL     1      -1.579  -0.505  -2.069  1.00  0.00     0.108 C 
HETATM   11  C10 UNL     1      -0.308  -0.931  -2.726  1.00  0.00     0.015 C 
HETATM   12  C11 UNL     1       0.810  -1.364  -2.105  1.00  0.00     0.082 C 
HETATM   13  N2  UNL     1       1.562  -1.333  -0.865  1.00  0.00    -0.386 N 
HETATM   14  C12 UNL     1       1.462  -0.408   0.284  1.00  0.00     0.059 C 
HETATM   15  C13 UNL     1       2.170  -0.945   1.461  1.00  0.00     0.062 C 
HETATM   16  C14 UNL     1       3.660  -0.513   1.448  1.00  0.00     0.170 C 
HETATM   17  O1  UNL     1       3.771   0.854   1.628  1.00  0.00    -0.391 OA
HETATM   18  C15 UNL     1       2.764   1.596   1.025  1.00  0.00     0.170 C 
HETATM   19  C16 UNL     1       2.168   0.843  -0.144  1.00  0.00     0.062 C 
HETATM   20  N3  UNL     1      -2.222  -1.600  -1.268  1.00  0.00    -0.384 N 
HETATM   21  H14 UNL     1       2.269  -2.100  -0.824  1.00  0.00     0.160 HD
HETATM   22  H23 UNL     1      -2.608  -2.549  -1.085  1.00  0.00     0.160 HD
ENDROOT
TORSDOF 0
