REMARK  3 active torsions:
REMARK  status: ('A' for Active; 'I' for Inactive)
REMARK    1  A    between atoms: O1_2  and  C2_3 
REMARK    2  A    between atoms: C10_12  and  N2_13 
REMARK    3  A    between atoms: N2_13  and  C11_14 
ROOT
HETATM    1  C2  UNL     1      -3.375   0.565  -1.908  1.00  0.00     0.078 A 
HETATM    2  C3  UNL     1      -4.418  -0.135  -2.524  1.00  0.00     0.037 A 
HETATM    3  C4  UNL     1      -4.708  -1.432  -2.162  1.00  0.00     0.005 A 
HETATM    4  C5  UNL     1      -3.950  -2.037  -1.177  1.00  0.00     0.038 A 
HETATM    5  C6  UNL     1      -2.913  -1.354  -0.559  1.00  0.00     0.088 A 
HETATM    6  C7  UNL     1      -2.619  -0.050  -0.920  1.00  0.00     0.027 A 
HETATM    7  C8  UNL     1      -1.637   0.969  -0.514  1.00  0.00     0.164 C 
HETATM    8  N1  UNL     1      -0.585   0.511   0.343  1.00  0.00    -0.379 N 
HETATM    9  C9  UNL     1      -0.092  -0.785   0.678  1.00  0.00     0.129 A 
HETATM   10  C10 UNL     1       1.246  -0.723   0.977  1.00  0.00     0.160 A 
HETATM   11  N3  UNL     1       1.785  -1.897   1.323  1.00  0.00    -0.222 NA
HETATM   12  C17 UNL     1       1.068  -3.024   1.367  1.00  0.00     0.238 A 
HETATM   13  N4  UNL     1      -0.260  -3.095   1.070  1.00  0.00    -0.215 NA
HETATM   14  C18 UNL     1      -0.867  -1.926   0.711  1.00  0.00     0.202 A 
HETATM   15  O2  UNL     1      -2.222  -2.073   0.421  1.00  0.00    -0.289 OA
HETATM   16  H9  UNL     1      -0.074   1.301   0.829  1.00  0.00     0.160 HD
ENDROOT
BRANCH  10  17
HETATM   17  N2  UNL     1       2.040   0.449   0.904  1.00  0.00    -0.339 N 
HETATM   18  H10 UNL     1       1.795   1.399   0.564  1.00  0.00     0.167 HD
BRANCH  17  19
HETATM   19  C11 UNL     1       3.402   0.488   1.313  1.00  0.00     0.035 A 
HETATM   20  C12 UNL     1       3.973  -0.359   2.238  1.00  0.00     0.029 A 
HETATM   21  C13 UNL     1       5.294  -0.353   2.626  1.00  0.00     0.004 A 
HETATM   22  C14 UNL     1       6.141   0.566   2.061  1.00  0.00     0.019 A 
HETATM   23  C15 UNL     1       5.664   1.456   1.127  1.00  0.00     0.013 A 
HETATM   24 BR1  UNL     1       6.825   2.739   0.328  1.00  0.00    -0.051 Br
HETATM   25  C16 UNL     1       4.336   1.389   0.790  1.00  0.00     0.048 A 
ENDBRANCH  17  19
ENDBRANCH  10  17
BRANCH   1  26
HETATM   26  O1  UNL     1      -3.194   1.860  -2.369  1.00  0.00    -0.355 OA
HETATM   27  C1  UNL     1      -3.946   2.490  -3.361  1.00  0.00     0.210 C 
ENDBRANCH   1  26
TORSDOF 3
