REMARK  7 active torsions:
REMARK  status: ('A' for Active; 'I' for Inactive)
REMARK    1  A    between atoms: N1_1  and  C1_2 
REMARK    2  A    between atoms: C9_11  and  N3_12 
REMARK    3  A    between atoms: N3_12  and  C10_13 
REMARK    4  A    between atoms: C10_13  and  C11_14 
REMARK    5  A    between atoms: C11_14  and  C12_15 
REMARK    6  A    between atoms: C12_15  and  C13_16 
REMARK    7  A    between atoms: C19_23  and  O1_24 
ROOT
HETATM    1  C1  UNL     1      -4.539   1.782   0.138  1.00  0.00     0.053 A 
HETATM    2  C2  UNL     1      -5.524   2.631   0.376  1.00  0.00     0.143 A 
HETATM    3  N2  UNL     1      -6.729   1.843   0.448  1.00  0.00    -0.275 NA
HETATM    4  C3  UNL     1      -6.661   0.551   0.282  1.00  0.00     0.092 A 
HETATM    5  C4  UNL     1      -5.561  -0.407   0.014  1.00  0.00     0.088 A 
HETATM    6  C5  UNL     1      -4.274   0.340  -0.070  1.00  0.00     0.097 A 
HETATM    7  C6  UNL     1      -3.235  -0.184   0.847  1.00  0.00     0.020 A 
HETATM    8  C7  UNL     1      -2.214  -0.617   0.128  1.00  0.00    -0.027 A 
HETATM    9  C8  UNL     1      -1.008  -1.202   0.751  1.00  0.00     0.100 A 
HETATM   10  C9  UNL     1      -0.022  -1.604  -0.280  1.00  0.00     0.043 A 
HETATM   11  C19 UNL     1      -0.272  -1.426  -1.574  1.00  0.00     0.090 A 
HETATM   12  C20 UNL     1      -1.492  -0.840  -2.112  1.00  0.00     0.068 A 
HETATM   13  C21 UNL     1      -2.441  -0.443  -1.300  1.00  0.00     0.038 A 
HETATM   14  N4  UNL     1      -3.729   0.152  -1.396  1.00  0.00    -0.371 N 
HETATM   15  H23 UNL     1      -4.198   0.409  -2.290  1.00  0.00     0.161 HD
ENDROOT
BRANCH  10  16
HETATM   16  N3  UNL     1       1.175  -2.178   0.204  1.00  0.00    -0.391 N 
HETATM   17  H10 UNL     1       0.840  -3.166   0.410  1.00  0.00     0.159 HD
BRANCH  16  18
HETATM   18  C10 UNL     1       2.552  -1.804   0.452  1.00  0.00     0.120 C 
BRANCH  18  19
HETATM   19  C11 UNL     1       3.338  -1.528  -0.801  1.00  0.00     0.024 C 
BRANCH  19  20
HETATM   20  C12 UNL     1       4.769  -1.142  -0.530  1.00  0.00     0.040 C 
BRANCH  20  21
HETATM   21  C13 UNL     1       4.906   0.081   0.297  1.00  0.00    -0.057 A 
HETATM   22  C14 UNL     1       4.963   0.021   1.695  1.00  0.00     0.007 A 
HETATM   23  C15 UNL     1       5.093   1.215   2.357  1.00  0.00     0.002 A 
HETATM   24  C16 UNL     1       5.173   2.464   1.782  1.00  0.00     0.024 A 
HETATM   25  C17 UNL     1       5.116   2.521   0.390  1.00  0.00     0.034 A 
HETATM   26 CL1  UNL     1       5.208   4.060  -0.445  1.00  0.00    -0.084 Cl
HETATM   27  C18 UNL     1       4.986   1.344  -0.301  1.00  0.00     0.031 A 
ENDBRANCH  20  21
ENDBRANCH  19  20
ENDBRANCH  18  19
ENDBRANCH  16  18
ENDBRANCH  10  16
BRANCH  11  28
HETATM   28  O1  UNL     1       0.689  -1.822  -2.503  1.00  0.00    -0.359 OA
HETATM   29  H21 UNL     1       0.458  -2.144  -3.426  1.00  0.00     0.217 HD
ENDBRANCH  11  28
BRANCH   1  30
HETATM   30  N1  UNL     1      -3.225   2.371   0.028  1.00  0.00    -0.399 N 
HETATM   31  H1  UNL     1      -2.610   2.731   0.792  1.00  0.00     0.156 HD
HETATM   32  H2  UNL     1      -2.764   2.485  -0.919  1.00  0.00     0.156 HD
ENDBRANCH   1  30
TORSDOF 7
