REMARK  4 active torsions:
REMARK  status: ('A' for Active; 'I' for Inactive)
REMARK    1  A    between atoms: C2_2  and  N1_3 
REMARK    2  A    between atoms: C2_2  and  C14_20 
REMARK       I    between atoms: N1_3  and  C3_4 
REMARK    3  A    between atoms: C3_4  and  C4_6 
REMARK    4  A    between atoms: C7_11  and  C8_12 
ROOT
HETATM    1  C4  UNL     1      -0.094  -2.160   0.175  1.00  0.00     0.036 C 
HETATM    2  C5  UNL     1       0.259  -3.451   0.093  1.00  0.00     0.009 C 
HETATM    3  C6  UNL     1       1.608  -3.610   0.633  1.00  0.00     0.174 C 
HETATM    4  N2  UNL     1       2.238  -2.334   0.347  1.00  0.00    -0.288 N 
HETATM    5  N3  UNL     1       3.428  -1.814  -0.135  1.00  0.00    -0.175 NA
HETATM    6  C7  UNL     1       3.319  -0.545  -0.411  1.00  0.00     0.090 C 
HETATM    7  P1  UNL     1       1.616   0.045  -0.045  1.00  0.00    -0.041 P 
HETATM    8  C13 UNL     1       1.076  -1.537   0.779  1.00  0.00     0.174 C 
HETATM    9  H13 UNL     1       0.907   0.169  -1.329  1.00  0.00     0.066 HD
ENDROOT
BRANCH   1  10
HETATM   10  C3  UNL     1      -1.368  -1.588  -0.260  1.00  0.00     0.250 C 
HETATM   11  N1  UNL     1      -1.718  -0.223  -0.163  1.00  0.00    -0.349 N 
HETATM   12  H5  UNL     1      -1.017   0.432   0.249  1.00  0.00     0.163 HD
HETATM   13  O1  UNL     1      -2.240  -2.341  -0.762  1.00  0.00    -0.268 OA
BRANCH  11  14
HETATM   14  C2  UNL     1      -3.016   0.269  -0.622  1.00  0.00     0.114 C 
HETATM   15  C1  UNL     1      -2.864   1.345  -1.669  1.00  0.00     0.037 C 
BRANCH  14  16
HETATM   16  C14 UNL     1      -3.696   0.858   0.575  1.00  0.00    -0.034 A 
HETATM   17  C15 UNL     1      -3.709   0.211   1.798  1.00  0.00     0.009 A 
HETATM   18  C16 UNL     1      -4.329   0.744   2.896  1.00  0.00     0.002 A 
HETATM   19  C17 UNL     1      -4.964   1.952   2.818  1.00  0.00     0.024 A 
HETATM   20  C18 UNL     1      -4.976   2.639   1.610  1.00  0.00     0.034 A 
HETATM   21 CL1  UNL     1      -5.791   4.196   1.499  1.00  0.00    -0.084 Cl
HETATM   22  C19 UNL     1      -4.335   2.057   0.530  1.00  0.00     0.033 A 
ENDBRANCH  14  16
ENDBRANCH  11  14
ENDBRANCH   1  10
BRANCH   6  23
HETATM   23  C8  UNL     1       4.423   0.280  -0.942  1.00  0.00    -0.003 A 
HETATM   24  C9  UNL     1       5.631  -0.367  -1.146  1.00  0.00     0.033 A 
HETATM   25  C10 UNL     1       6.698   0.387  -1.648  1.00  0.00     0.117 A 
HETATM   26  N4  UNL     1       6.508   1.696  -1.910  1.00  0.00    -0.273 NA
HETATM   27  C11 UNL     1       5.318   2.285  -1.698  1.00  0.00     0.117 A 
HETATM   28  C12 UNL     1       4.206   1.604  -1.199  1.00  0.00     0.033 A 
ENDBRANCH   6  23
TORSDOF 4
