REMARK  6 active torsions:
REMARK  status: ('A' for Active; 'I' for Inactive)
REMARK    1  A    between atoms: C2_2  and  C3_3 
REMARK    2  A    between atoms: C4_4  and  C5_5 
REMARK    3  A    between atoms: C5_5  and  C6_7 
REMARK    4  A    between atoms: C6_7  and  N1_9 
REMARK    5  A    between atoms: N1_9  and  C8_10 
REMARK    6  A    between atoms: C20_24  and  N4_25 
ROOT
HETATM    1  C8  UNL     1       0.017  -0.596   0.147  1.00  0.00     0.059 C 
HETATM    2  C9  UNL     1       0.712  -1.709  -0.596  1.00  0.00     0.044 C 
HETATM    3  C10 UNL     1      -1.238  -0.350  -0.634  1.00  0.00    -0.005 C 
HETATM    4  C11 UNL     1      -2.083   0.352  -1.426  1.00  0.00     0.018 C 
HETATM    5  C12 UNL     1      -3.200   0.034  -0.661  1.00  0.00     0.086 C 
HETATM    6  C13 UNL     1      -2.955   0.741   0.637  1.00  0.00     0.065 C 
HETATM    7  C14 UNL     1      -3.001  -0.245   1.710  1.00  0.00     0.111 C 
HETATM    8  C15 UNL     1      -1.755  -0.853   2.125  1.00  0.00     0.038 C 
HETATM    9  C16 UNL     1      -0.619  -1.235   1.331  1.00  0.00     0.044 C 
HETATM   10  C17 UNL     1      -1.073  -2.429   0.553  1.00  0.00     0.010 C 
HETATM   11  C18 UNL     1      -1.877  -1.601  -0.160  1.00  0.00     0.034 C 
HETATM   12  N2  UNL     1      -3.173  -1.442  -0.771  1.00  0.00    -0.374 N 
HETATM   13  N3  UNL     1      -4.136  -1.045   1.311  1.00  0.00    -0.298 NA
HETATM   14  C19 UNL     1      -5.025  -0.533   0.461  1.00  0.00     0.121 C 
HETATM   15  C20 UNL     1      -4.653   0.275  -0.824  1.00  0.00     0.289 C 
HETATM   16  H23 UNL     1      -3.973  -2.038  -1.209  1.00  0.00     0.161 HD
ENDROOT
BRANCH   1  17
HETATM   17  N1  UNL     1       0.897   0.430   0.313  1.00  0.00    -0.403 N 
HETATM   18  H11 UNL     1       0.430   1.368   0.333  1.00  0.00     0.154 HD
BRANCH  17  19
HETATM   19  C6  UNL     1       2.072   0.419   1.043  1.00  0.00     0.095 C 
HETATM   20  C7  UNL     1       2.578   1.873   1.181  1.00  0.00     0.033 C 
BRANCH  19  21
HETATM   21  C5  UNL     1       3.258  -0.354   0.574  1.00  0.00     0.127 C 
HETATM   22 CL1  UNL     1       4.588  -0.099   1.773  1.00  0.00    -0.119 Cl
BRANCH  21  23
HETATM   23  C4  UNL     1       3.797   0.157  -0.743  1.00  0.00    -0.005 C 
HETATM   24  C3  UNL     1       5.102   0.204  -0.952  1.00  0.00    -0.007 C 
BRANCH  24  25
HETATM   25  C2  UNL     1       5.680   0.689  -2.206  1.00  0.00    -0.027 C 
HETATM   26  C1  UNL     1       6.975   0.755  -2.463  1.00  0.00     0.031 C 
ENDBRANCH  24  25
ENDBRANCH  21  23
ENDBRANCH  19  21
ENDBRANCH  17  19
ENDBRANCH   1  17
BRANCH  15  27
HETATM   27  N4  UNL     1      -5.234  -0.394  -1.951  1.00  0.00     0.090 N 
HETATM   28  H26 UNL     1      -5.560   0.289  -2.668  1.00  0.00     0.313 HD
HETATM   29  H27 UNL     1      -5.965  -1.105  -1.703  1.00  0.00     0.313 HD
ENDBRANCH  15  27
TORSDOF 6
