REMARK  5 active torsions:
REMARK  status: ('A' for Active; 'I' for Inactive)
REMARK    1  A    between atoms: B1_1  and  C1_2 
REMARK    2  A    between atoms: C5_8  and  C6_9 
REMARK    3  A    between atoms: C6_9  and  N3_11 
REMARK       I    between atoms: N3_11  and  C8_12 
REMARK    4  A    between atoms: C8_12  and  C9_14 
REMARK    5  A    between atoms: C12_17  and  N4_18 
ROOT
HETATM    1  N3  UNL     1      -1.763  -0.839   0.208  1.00  0.00    -0.348 N 
HETATM    2  C8  UNL     1      -0.645  -0.900  -0.663  1.00  0.00     0.253 C 
HETATM    3  O1  UNL     1      -0.986  -0.880  -1.874  1.00  0.00    -0.268 OA
HETATM    4  H13 UNL     1      -1.539  -0.863   1.219  1.00  0.00     0.163 HD
ENDROOT
BRANCH   2   5
HETATM    5  C9  UNL     1       0.773  -0.978  -0.366  1.00  0.00     0.049 C 
HETATM    6  C10 UNL     1       1.225  -1.004   0.873  1.00  0.00     0.021 C 
HETATM    7  C11 UNL     1       2.456  -1.073   1.670  1.00  0.00     0.031 C 
HETATM    8  C12 UNL     1       3.716  -0.770   1.314  1.00  0.00     0.039 C 
HETATM    9  C13 UNL     1       4.396  -0.287   0.113  1.00  0.00     0.036 A 
HETATM   10  C14 UNL     1       5.597   0.229   0.556  1.00  0.00     0.133 A 
HETATM   11  C18 UNL     1       3.977  -0.312  -1.201  1.00  0.00     0.072 A 
HETATM   12  N5  UNL     1       6.408   0.742  -0.392  1.00  0.00    -0.265 NA
HETATM   13  C15 UNL     1       6.050   0.746  -1.705  1.00  0.00     0.032 A 
HETATM   14  C16 UNL     1       7.024   1.338  -2.656  1.00  0.00     0.070 C 
HETATM   15  C17 UNL     1       4.831   0.221  -2.144  1.00  0.00     0.059 A 
HETATM   16  N6  UNL     1       2.824  -0.769  -1.919  1.00  0.00    -0.259 NA
HETATM   17  C19 UNL     1       1.596  -1.020  -1.579  1.00  0.00     0.134 C 
BRANCH   8  18
HETATM   18  N4  UNL     1       4.599  -0.983   2.401  1.00  0.00    -0.398 N 
HETATM   19  H16 UNL     1       5.245  -1.802   2.409  1.00  0.00     0.156 HD
HETATM   20  H17 UNL     1       4.331  -0.143   2.994  1.00  0.00     0.156 HD
ENDBRANCH   8  18
ENDBRANCH   2   5
BRANCH   1  21
HETATM   21  C6  UNL     1      -3.126  -0.765  -0.242  1.00  0.00     0.116 C 
HETATM   22  C7  UNL     1      -3.828  -2.022   0.311  1.00  0.00     0.037 C 
BRANCH  21  23
HETATM   23  C5  UNL     1      -3.920   0.368   0.191  1.00  0.00    -0.002 A 
HETATM   24  C1  UNL     1      -5.275   0.175  -0.339  1.00  0.00    -0.014 A 
HETATM   25  N1  UNL     1      -6.267   1.016  -0.143  1.00  0.00    -0.287 NA
HETATM   26  C2  UNL     1      -6.107   2.215   0.618  1.00  0.00     0.269 A 
HETATM   27  N2  UNL     1      -4.789   2.406   1.137  1.00  0.00    -0.375 N 
HETATM   28  C3  UNL     1      -3.755   1.466   0.894  1.00  0.00     0.011 A 
HETATM   29  H5  UNL     1      -4.549   3.226   1.699  1.00  0.00     0.161 HD
HETATM   30  C4  UNL     1      -2.370   1.628   1.404  1.00  0.00     0.068 C 
BRANCH  24  31
HETATM   31  B1  UNL     1      -5.937  -0.954  -1.213  1.00  0.00     0.199 B 
HETATM   32  H1  UNL     1      -5.358  -1.266  -2.211  1.00  0.00    -0.025 HD
HETATM   33  H2  UNL     1      -6.530  -1.853  -0.703  1.00  0.00    -0.025 HD
ENDBRANCH  24  31
ENDBRANCH  21  23
ENDBRANCH   1  21
TORSDOF 5
