REMARK  4 active torsions:
REMARK  status: ('A' for Active; 'I' for Inactive)
REMARK    1  A    between atoms: C4_4  and  C5_5 
REMARK    2  A    between atoms: C6_6  and  N1_7 
REMARK    3  A    between atoms: N5_22  and  C17_23 
REMARK    4  A    between atoms: C17_23  and  C19_25 
ROOT
HETATM    1  C1  UNL     1      -1.109  -2.248   0.130  1.00  0.00     0.064 C 
HETATM    2  C2  UNL     1      -1.199  -0.983  -0.313  1.00  0.00     0.026 C 
HETATM    3  C3  UNL     1       0.009  -0.196  -0.532  1.00  0.00     0.054 C 
HETATM    4  C4  UNL     1       1.194  -0.716  -0.303  1.00  0.00     0.020 C 
HETATM    5  C13 UNL     1      -0.276   1.149  -1.008  1.00  0.00     0.255 C 
HETATM    6  O1  UNL     1       0.687   1.924  -1.234  1.00  0.00    -0.268 OA
HETATM    7  N4  UNL     1      -1.593   1.596  -1.219  1.00  0.00    -0.331 N 
HETATM    8  C14 UNL     1      -2.620   0.600  -1.453  1.00  0.00     0.101 C 
HETATM    9  C15 UNL     1      -2.474   0.189  -2.905  1.00  0.00     0.063 C 
HETATM   10  C16 UNL     1      -3.937   1.347  -1.350  1.00  0.00     0.063 C 
HETATM   11  N5  UNL     1      -2.516  -0.507  -0.533  1.00  0.00    -0.349 N 
HETATM   12  H12 UNL     1      -1.731   2.629  -1.190  1.00  0.00     0.165 HD
ENDROOT
BRANCH   4  13
HETATM   13  C5  UNL     1       2.509  -0.147  -0.443  1.00  0.00     0.019 C 
HETATM   14  C6  UNL     1       3.628  -0.839  -0.157  1.00  0.00     0.115 C 
BRANCH  14  15
HETATM   15  N1  UNL     1       4.911  -0.207  -0.320  1.00  0.00    -0.158 N 
HETATM   16  C7  UNL     1       5.643   0.311  -1.469  1.00  0.00     0.700 C 
HETATM   17  N2  UNL     1       4.980   0.147  -2.606  1.00  0.00    -0.117 NA
HETATM   18  N3  UNL     1       6.915   0.881  -1.035  1.00  0.00    -0.211 N 
HETATM   19  H6  UNL     1       5.424   0.488  -3.492  1.00  0.00     0.206 HD
HETATM   20  C8  UNL     1       7.098  -0.011   0.050  1.00  0.00     0.173 A 
HETATM   21  H7  UNL     1       7.197   1.684  -1.649  1.00  0.00     0.179 HD
HETATM   22  C9  UNL     1       8.086   0.290   1.075  1.00  0.00     0.005 A 
HETATM   23  C12 UNL     1       5.795   0.082   0.789  1.00  0.00     0.060 A 
HETATM   24  C10 UNL     1       7.438   0.491   2.212  1.00  0.00     0.000 A 
HETATM   25  C11 UNL     1       5.973   0.359   2.059  1.00  0.00     0.028 A 
ENDBRANCH  14  15
ENDBRANCH   4  13
BRANCH  11  26
HETATM   26  C17 UNL     1      -3.641  -1.127   0.143  1.00  0.00     0.116 C 
HETATM   27  C18 UNL     1      -4.650  -1.700  -0.784  1.00  0.00     0.037 C 
BRANCH  26  28
HETATM   28  C19 UNL     1      -4.198  -0.238   1.203  1.00  0.00    -0.036 A 
HETATM   29  C20 UNL     1      -5.481   0.119   1.559  1.00  0.00     0.009 A 
HETATM   30  C21 UNL     1      -5.671   0.984   2.614  1.00  0.00     0.001 A 
HETATM   31  C22 UNL     1      -4.637   1.513   3.336  1.00  0.00     0.000 A 
HETATM   32  C23 UNL     1      -3.346   1.168   2.996  1.00  0.00     0.001 A 
HETATM   33  C24 UNL     1      -3.125   0.294   1.932  1.00  0.00     0.009 A 
ENDBRANCH  26  28
ENDBRANCH  11  26
TORSDOF 4
