REMARK  1 active torsions:
REMARK  status: ('A' for Active; 'I' for Inactive)
REMARK    1  A    between atoms: C17_20  and  N3_21 
ROOT
HETATM    1  C1  UNL     1      -1.936  -0.282  -1.688  1.00  0.00     0.071 C 
HETATM    2  C2  UNL     1      -2.245  -0.105  -0.297  1.00  0.00     0.207 C 
HETATM    3  C3  UNL     1      -3.342   0.596   0.331  1.00  0.00     0.071 C 
HETATM    4  N1  UNL     1      -2.220  -1.428   0.418  1.00  0.00     0.035 N 
HETATM    5  C4  UNL     1      -2.198  -2.705   1.111  1.00  0.00     0.343 C 
HETATM    6  O1  UNL     1      -3.134  -2.423   1.868  1.00  0.00    -0.261 OA
HETATM    7  C5  UNL     1      -1.298  -3.904   0.954  1.00  0.00     0.082 C 
HETATM    8  C6  UNL     1      -0.162  -4.099   0.304  1.00  0.00     0.006 C 
HETATM    9  C7  UNL     1       0.871  -3.498  -0.515  1.00  0.00     0.005 C 
HETATM   10  C8  UNL     1       0.893  -2.130  -0.720  1.00  0.00    -0.053 C 
HETATM   11  C9  UNL     1       0.171  -0.923  -0.288  1.00  0.00     0.167 C 
HETATM   12  C10 UNL     1      -0.738  -0.869   0.733  1.00  0.00     0.242 C 
HETATM   13  N2  UNL     1      -0.824   0.427   0.332  1.00  0.00    -0.324 N 
HETATM   14  C11 UNL     1      -0.962   1.719  -0.100  1.00  0.00     0.042 A 
HETATM   15  C12 UNL     1      -1.770   2.528  -0.764  1.00  0.00     0.030 A 
HETATM   16  C13 UNL     1      -1.453   3.830  -0.993  1.00  0.00     0.002 A 
HETATM   17  C14 UNL     1      -0.258   4.317  -0.524  1.00  0.00     0.001 A 
HETATM   18  C15 UNL     1       0.542   3.425   0.158  1.00  0.00     0.012 A 
HETATM   19  C16 UNL     1       0.298   2.065   0.443  1.00  0.00     0.007 A 
HETATM   20  C17 UNL     1       1.408   1.367   1.190  1.00  0.00     0.303 C 
HETATM   21  C18 UNL     1       2.238   0.472   0.383  1.00  0.00     0.063 C 
HETATM   22  C19 UNL     1       3.328   0.435   1.187  1.00  0.00     0.020 C 
HETATM   23  C20 UNL     1       4.265   1.245   0.705  1.00  0.00     0.132 C 
HETATM   24  N4  UNL     1       4.824   0.489  -0.377  1.00  0.00    -0.255 NA
HETATM   25  C21 UNL     1       4.039  -0.303  -1.073  1.00  0.00     0.209 C 
HETATM   26  N5  UNL     1       2.624  -0.385  -0.733  1.00  0.00    -0.338 N 
HETATM   27  C22 UNL     1       1.876  -1.350  -1.559  1.00  0.00     0.164 C 
HETATM   28  H7  UNL     1      -1.872  -2.080  -0.314  1.00  0.00     0.295 HD
ENDROOT
BRANCH  20  29
HETATM   29  N3  UNL     1       0.916   0.769   2.422  1.00  0.00     0.093 N 
HETATM   30  H18 UNL     1       1.021   1.446   3.242  1.00  0.00     0.314 HD
HETATM   31  H19 UNL     1       1.432  -0.087   2.700  1.00  0.00     0.314 HD
ENDBRANCH  20  29
TORSDOF 1
