REMARK  8 active torsions:
REMARK  status: ('A' for Active; 'I' for Inactive)
REMARK    1  A    between atoms: B1_2  and  O1_3 
REMARK    2  A    between atoms: O1_3  and  C2_4 
REMARK    3  A    between atoms: C3_5  and  C4_6 
REMARK    4  A    between atoms: C4_6  and  N1_7 
REMARK    5  A    between atoms: N1_7  and  C5_8 
REMARK    6  A    between atoms: C8_13  and  N4_14 
REMARK    7  A    between atoms: N4_14  and  C9_15 
REMARK    8  A    between atoms: C15_22  and  O2_23 
ROOT
HETATM    1  C5  UNL     1      -0.848  -1.568  -0.378  1.00  0.00     0.092 A 
HETATM    2  C6  UNL     1      -0.830  -2.866  -0.838  1.00  0.00     0.151 A 
HETATM    3  N2  UNL     1      -1.936  -3.422  -1.344  1.00  0.00    -0.252 NA
HETATM    4  C7  UNL     1      -3.106  -2.760  -1.431  1.00  0.00     0.235 A 
HETATM    5  N3  UNL     1      -3.105  -1.502  -0.980  1.00  0.00    -0.222 NA
HETATM    6  C8  UNL     1      -2.045  -0.873  -0.460  1.00  0.00     0.157 A 
ENDROOT
BRANCH   1   7
HETATM    7  N1  UNL     1       0.391  -1.047   0.153  1.00  0.00    -0.381 N 
HETATM    8  H5  UNL     1       0.513  -0.086   0.531  1.00  0.00     0.160 HD
BRANCH   7   9
HETATM    9  C4  UNL     1       1.574  -1.885   0.180  1.00  0.00     0.164 C 
BRANCH   9  10
HETATM   10  C3  UNL     1       2.713  -1.160   0.756  1.00  0.00     0.025 A 
HETATM   11  C2  UNL     1       3.073   0.001   1.273  1.00  0.00     0.063 A 
HETATM   12  C17 UNL     1       4.416  -0.536   1.453  1.00  0.00     0.073 A 
HETATM   13  C15 UNL     1       4.048  -1.705   0.931  1.00  0.00     0.081 A 
BRANCH  11  14
HETATM   14  O1  UNL     1       2.286   1.123   1.458  1.00  0.00    -0.418 OA
BRANCH  14  15
HETATM   15  B1  UNL     1       3.326   2.615   1.756  1.00  0.00     0.350 B 
HETATM   16  C1  UNL     1       3.453   4.327   1.006  1.00  0.00    -0.055 C 
ENDBRANCH  14  15
ENDBRANCH  11  14
BRANCH  13  17
HETATM   17  O2  UNL     1       4.846  -2.826   0.749  1.00  0.00    -0.355 OA
HETATM   18  C16 UNL     1       5.356  -3.117  -0.544  1.00  0.00     0.210 C 
ENDBRANCH  13  17
ENDBRANCH   9  10
ENDBRANCH   7   9
ENDBRANCH   1   7
BRANCH   6  19
HETATM   19  N4  UNL     1      -2.073   0.465   0.012  1.00  0.00    -0.339 N 
HETATM   20  H8  UNL     1      -1.204   0.883   0.402  1.00  0.00     0.167 HD
BRANCH  19  21
HETATM   21  C9  UNL     1      -3.121   1.425   0.065  1.00  0.00     0.035 A 
HETATM   22  C10 UNL     1      -2.990   2.725   0.569  1.00  0.00     0.029 A 
HETATM   23  C11 UNL     1      -4.042   3.594   0.588  1.00  0.00     0.004 A 
HETATM   24  C12 UNL     1      -5.288   3.249   0.118  1.00  0.00     0.019 A 
HETATM   25  C13 UNL     1      -5.460   1.980  -0.386  1.00  0.00     0.013 A 
HETATM   26 BR1  UNL     1      -7.207   1.565  -1.022  1.00  0.00    -0.051 Br
HETATM   27  C14 UNL     1      -4.383   1.121  -0.395  1.00  0.00     0.048 A 
ENDBRANCH  19  21
ENDBRANCH   6  19
TORSDOF 8
