REMARK  4 active torsions:
REMARK  status: ('A' for Active; 'I' for Inactive)
REMARK    1  A    between atoms: C2_2  and  C3_3 
REMARK    2  A    between atoms: C3_3  and  C4_4 
REMARK    3  A    between atoms: C3_3  and  N1_10 
REMARK    4  A    between atoms: C20_26  and  N5_27 
ROOT
HETATM    1  N1  UNL     1       1.275  -1.732  -0.029  1.00  0.00    -0.291 NA
HETATM    2  B1  UNL     1       1.260  -3.051  -0.833  1.00  0.00     0.365 B 
HETATM    3  N2  UNL     1       0.137  -3.084  -1.888  1.00  0.00    -0.394 N 
HETATM    4  C10 UNL     1      -0.947  -2.142  -1.732  1.00  0.00     0.240 C 
HETATM    5  O1  UNL     1      -1.883  -2.163  -2.605  1.00  0.00    -0.269 OA
HETATM    6  C11 UNL     1      -0.949  -1.194  -0.591  1.00  0.00     0.080 C 
HETATM    7  C12 UNL     1      -1.802  -0.308  -1.085  1.00  0.00     0.104 C 
HETATM    8  N3  UNL     1      -2.283   0.898  -0.507  1.00  0.00    -0.373 N 
HETATM    9  C13 UNL     1      -2.548   1.899  -1.557  1.00  0.00     0.151 C 
HETATM   10  C14 UNL     1      -2.584   1.407   0.798  1.00  0.00     0.178 C 
HETATM   11  C15 UNL     1      -3.697   0.561   1.416  1.00  0.00     0.055 C 
HETATM   12  N4  UNL     1      -1.467   1.501   1.697  1.00  0.00    -0.368 N 
HETATM   13  C16 UNL     1      -0.624   0.499   2.249  1.00  0.00     0.040 A 
HETATM   14  C17 UNL     1       0.019   0.216   3.370  1.00  0.00     0.030 A 
HETATM   15  C18 UNL     1       0.553  -1.037   2.823  1.00  0.00     0.016 A 
HETATM   16  C19 UNL     1      -0.105  -0.740   1.688  1.00  0.00     0.025 A 
HETATM   17  C20 UNL     1      -0.080  -1.597   0.507  1.00  0.00     0.265 C 
HETATM   18  H10 UNL     1       2.272  -3.620  -1.052  1.00  0.00     0.020 HD
HETATM   19  H11 UNL     1       0.146  -3.755  -2.689  1.00  0.00     0.142 HD
HETATM   20  H20 UNL     1      -1.145   2.446   2.069  1.00  0.00     0.161 HD
ENDROOT
BRANCH   1  21
HETATM   21  C3  UNL     1       1.648  -0.715  -0.958  1.00  0.00     0.104 C 
BRANCH  21  22
HETATM   22  C2  UNL     1       3.037  -0.968  -1.512  1.00  0.00    -0.014 C 
HETATM   23  C1  UNL     1       3.484  -1.401  -2.666  1.00  0.00     0.008 C 
ENDBRANCH  21  22
BRANCH  21  24
HETATM   24  C4  UNL     1       1.769   0.623  -0.301  1.00  0.00    -0.038 A 
HETATM   25  C5  UNL     1       1.154   1.711  -0.903  1.00  0.00     0.009 A 
HETATM   26  C6  UNL     1       1.193   2.985  -0.419  1.00  0.00     0.001 A 
HETATM   27  C7  UNL     1       1.876   3.234   0.738  1.00  0.00     0.000 A 
HETATM   28  C8  UNL     1       2.507   2.179   1.377  1.00  0.00     0.001 A 
HETATM   29  C9  UNL     1       2.444   0.920   0.859  1.00  0.00     0.009 A 
ENDBRANCH  21  24
ENDBRANCH   1  21
BRANCH  17  30
HETATM   30  N5  UNL     1      -0.451  -2.988   0.864  1.00  0.00     0.111 N 
HETATM   31  H23 UNL     1      -0.261  -3.137   1.897  1.00  0.00     0.316 HD
HETATM   32  H24 UNL     1      -1.463  -3.155   0.630  1.00  0.00     0.316 HD
ENDBRANCH  17  30
TORSDOF 4
