REMARK  1 active torsions:
REMARK  status: ('A' for Active; 'I' for Inactive)
REMARK    1  A    between atoms: C4_4  and  C5_5 
ROOT
HETATM    1  C5  UNL     1       1.106   1.564   0.120  1.00  0.00     0.096 C 
HETATM    2  N1  UNL     1       0.557   2.765   0.070  1.00  0.00    -0.177 NA
HETATM    3  N2  UNL     1      -0.802   2.674  -0.238  1.00  0.00    -0.295 N 
HETATM    4  C6  UNL     1      -1.036   1.488   0.517  1.00  0.00     0.228 C 
HETATM    5  C7  UNL     1      -2.341   0.814   0.326  1.00  0.00     0.247 C 
HETATM    6  O1  UNL     1      -2.520   0.112   1.344  1.00  0.00    -0.271 OA
HETATM    7  N3  UNL     1      -3.646   0.340  -0.154  1.00  0.00    -0.351 N 
HETATM    8  C8  UNL     1      -3.957  -1.170   0.013  1.00  0.00     0.115 C 
HETATM    9  C9  UNL     1      -3.778  -1.693   1.339  1.00  0.00     0.037 C 
HETATM   10  C10 UNL     1      -2.747  -1.634  -0.904  1.00  0.00    -0.010 A 
HETATM   11  C11 UNL     1      -3.110  -1.549  -2.228  1.00  0.00     0.030 A 
HETATM   12  C12 UNL     1      -2.097  -1.311  -3.188  1.00  0.00     0.118 A 
HETATM   13  N4  UNL     1      -0.840  -1.185  -2.637  1.00  0.00    -0.259 NA
HETATM   14  C13 UNL     1      -0.862  -1.333  -1.279  1.00  0.00     0.079 A 
HETATM   15  C14 UNL     1      -1.595  -1.568  -0.174  1.00  0.00     0.071 A 
HETATM   16 CL1  UNL     1      -0.446  -1.644   1.129  1.00  0.00    -0.081 Cl
HETATM   17  C15 UNL     1       0.386  -0.495  -1.007  1.00  0.00     0.045 C 
HETATM   18  C16 UNL     1       0.004   0.618  -0.237  1.00  0.00     0.009 C 
HETATM   19  H5  UNL     1      -1.241   3.399  -0.851  1.00  0.00     0.183 HD
HETATM   20  H7  UNL     1      -4.118   1.180  -0.536  1.00  0.00     0.163 HD
ENDROOT
BRANCH   1  21
HETATM   21  C4  UNL     1       2.567   1.452   0.441  1.00  0.00    -0.002 A 
HETATM   22  C3  UNL     1       3.186   0.248   0.582  1.00  0.00     0.040 A 
HETATM   23  C2  UNL     1       4.541   0.086   0.848  1.00  0.00     0.031 A 
HETATM   24  C1  UNL     1       5.140  -1.262   0.988  1.00  0.00     0.070 C 
HETATM   25  N5  UNL     1       5.275   1.214   0.970  1.00  0.00    -0.266 NA
HETATM   26  C18 UNL     1       4.657   2.418   0.828  1.00  0.00     0.118 A 
HETATM   27  C17 UNL     1       3.325   2.577   0.568  1.00  0.00     0.033 A 
ENDBRANCH   1  21
TORSDOF 1
