REMARK  2 active torsions:
REMARK  status: ('A' for Active; 'I' for Inactive)
REMARK    1  A    between atoms: O1_2  and  C2_3 
REMARK    2  A    between atoms: C9_12  and  C10_13 
ROOT
HETATM    1  C2  UNL     1      -2.951   0.684   0.232  1.00  0.00     0.081 C 
HETATM    2  C3  UNL     1      -3.686   0.321   1.267  1.00  0.00     0.039 C 
HETATM    3  C4  UNL     1      -3.486  -1.080   1.589  1.00  0.00     0.021 C 
HETATM    4  C5  UNL     1      -2.721  -1.987   1.074  1.00  0.00     0.005 C 
HETATM    5  S1  UNL     1      -2.122  -1.745  -0.331  1.00  0.00    -0.159 SA
HETATM    6  C6  UNL     1      -2.022  -0.152  -0.551  1.00  0.00     0.019 C 
HETATM    7  C7  UNL     1      -1.156   0.752  -1.417  1.00  0.00     0.167 C 
HETATM    8  N1  UNL     1       0.278   0.513  -1.147  1.00  0.00    -0.388 N 
HETATM    9  C8  UNL     1       0.754  -0.820  -1.124  1.00  0.00     0.020 C 
HETATM   10  C9  UNL     1       1.766  -1.281  -0.375  1.00  0.00    -0.005 C 
HETATM   11  C16 UNL     1       1.776  -2.718   0.079  1.00  0.00     0.191 C 
HETATM   12  N2  UNL     1       0.387  -3.180   0.020  1.00  0.00    -0.283 NA
HETATM   13  C17 UNL     1      -0.535  -2.478  -0.508  1.00  0.00     0.059 C 
HETATM   14  C18 UNL     1       0.142  -2.053  -1.828  1.00  0.00     0.122 C 
HETATM   15  H6  UNL     1      -2.901  -2.217  -1.346  1.00  0.00     0.097 HD
HETATM   16  H9  UNL     1       1.119   1.070  -0.930  1.00  0.00     0.159 HD
ENDROOT
BRANCH  10  17
HETATM   17  C10 UNL     1       2.743  -0.190  -0.143  1.00  0.00    -0.025 A 
HETATM   18  C11 UNL     1       3.361   0.621  -1.069  1.00  0.00     0.012 A 
HETATM   19  C12 UNL     1       4.233   1.596  -0.646  1.00  0.00     0.002 A 
HETATM   20  C13 UNL     1       4.529   1.812   0.683  1.00  0.00     0.019 A 
HETATM   21  C14 UNL     1       3.918   1.008   1.628  1.00  0.00     0.011 A 
HETATM   22 BR1  UNL     1       4.374   1.370   3.437  1.00  0.00    -0.051 Br
HETATM   23  C15 UNL     1       3.034   0.020   1.191  1.00  0.00     0.031 A 
ENDBRANCH  10  17
BRANCH   1  24
HETATM   24  O1  UNL     1      -3.079   1.993  -0.141  1.00  0.00    -0.355 OA
HETATM   25  C1  UNL     1      -4.065   2.885   0.337  1.00  0.00     0.210 C 
ENDBRANCH   1  24
TORSDOF 2
