REMARK  8 active torsions:
REMARK  status: ('A' for Active; 'I' for Inactive)
REMARK    1  A    between atoms: N2_13  and  C11_14 
REMARK    2  A    between atoms: C11_14  and  C12_15 
REMARK    3  A    between atoms: C12_15  and  C13_16 
REMARK    4  A    between atoms: C13_16  and  P1_17 
REMARK    5  A    between atoms: P1_17  and  C14_18 
REMARK    6  A    between atoms: C15_19  and  C16_20 
REMARK    7  A    between atoms: C16_20  and  N3_21 
REMARK    8  A    between atoms: C22_29  and  O2_30 
ROOT
HETATM    1  C13 UNL     1      -1.088  -1.191  -0.426  1.00  0.00     0.005 C 
ENDROOT
BRANCH   1   2
HETATM    2  C12 UNL     1      -1.742  -0.084  -0.660  1.00  0.00    -0.006 C 
BRANCH   2   3
HETATM    3  C11 UNL     1      -2.662   1.041  -0.794  1.00  0.00     0.153 C 
BRANCH   3   4
HETATM    4  N2  UNL     1      -3.961   0.871  -0.226  1.00  0.00    -0.350 N 
HETATM    5  C2  UNL     1      -4.688   2.127  -0.020  1.00  0.00     0.101 C 
HETATM    6  C1  UNL     1      -6.028   2.099  -0.694  1.00  0.00     0.063 C 
HETATM    7  C3  UNL     1      -3.947   3.343  -0.436  1.00  0.00     0.063 C 
HETATM    8  N1  UNL     1      -4.936   2.115   1.441  1.00  0.00    -0.331 N 
HETATM    9  C4  UNL     1      -5.630   0.940   1.912  1.00  0.00     0.255 C 
HETATM   10  H7  UNL     1      -4.719   2.781   2.234  1.00  0.00     0.165 HD
HETATM   11  O1  UNL     1      -6.419   0.875   2.903  1.00  0.00    -0.268 OA
HETATM   12  C5  UNL     1      -5.446  -0.349   1.215  1.00  0.00     0.058 A 
HETATM   13  C6  UNL     1      -6.045  -1.543   1.529  1.00  0.00     0.019 A 
HETATM   14  C10 UNL     1      -4.592  -0.350   0.127  1.00  0.00     0.048 A 
HETATM   15  C7  UNL     1      -5.763  -2.661   0.748  1.00  0.00     0.001 A 
HETATM   16  C8  UNL     1      -4.901  -2.629  -0.341  1.00  0.00     0.002 A 
HETATM   17  C9  UNL     1      -4.278  -1.429  -0.684  1.00  0.00     0.030 A 
ENDBRANCH   3   4
ENDBRANCH   2   3
ENDBRANCH   1   2
BRANCH   1  18
HETATM   18  P1  UNL     1       0.198  -2.447  -0.381  1.00  0.00    -0.083 P 
HETATM   19  H16 UNL     1       0.234  -3.251  -1.611  1.00  0.00     0.066 HD
BRANCH  18  20
HETATM   20  C14 UNL     1       1.833  -1.605  -0.149  1.00  0.00     0.005 C 
HETATM   21  C15 UNL     1       2.932  -2.368   0.075  1.00  0.00    -0.006 C 
BRANCH  21  22
HETATM   22  C16 UNL     1       4.361  -2.210   0.304  1.00  0.00     0.153 C 
BRANCH  22  23
HETATM   23  N3  UNL     1       4.875  -0.854   0.262  1.00  0.00    -0.345 N 
HETATM   24  C17 UNL     1       4.863  -0.343  -1.087  1.00  0.00     0.249 C 
HETATM   25  N4  UNL     1       5.576   0.920  -1.212  1.00  0.00    -0.368 N 
HETATM   26  C18 UNL     1       6.958   0.625  -0.964  1.00  0.00     0.203 C 
HETATM   27  H23 UNL     1       5.947   1.885  -1.333  1.00  0.00     0.161 HD
HETATM   28  N5  UNL     1       8.100   0.562  -0.398  1.00  0.00    -0.257 NA
HETATM   29  C19 UNL     1       8.409   1.096   0.859  1.00  0.00     0.114 C 
HETATM   30  C20 UNL     1       7.535   0.968   1.872  1.00  0.00     0.006 C 
HETATM   31  C21 UNL     1       6.455   0.239   1.255  1.00  0.00     0.100 C 
HETATM   32  C22 UNL     1       5.275  -0.264   1.532  1.00  0.00     0.124 C 
BRANCH  32  33
HETATM   33  O2  UNL     1       4.186  -0.538   2.402  1.00  0.00    -0.349 OA
HETATM   34  H28 UNL     1       3.550   0.270   2.483  1.00  0.00     0.219 HD
ENDBRANCH  32  33
ENDBRANCH  22  23
ENDBRANCH  21  22
ENDBRANCH  18  20
ENDBRANCH   1  18
TORSDOF 8
