REMARK  6 active torsions:
REMARK  status: ('A' for Active; 'I' for Inactive)
REMARK    1  A    between atoms: C2_2  and  C3_3 
REMARK       I    between atoms: C3_3  and  N1_5 
REMARK    2  A    between atoms: N1_5  and  C4_6 
REMARK    3  A    between atoms: C4_6  and  C6_8 
REMARK    4  A    between atoms: C7_9  and  C8_10 
REMARK    5  A    between atoms: C8_10  and  O2_11 
REMARK    6  A    between atoms: O2_11  and  C9_12 
ROOT
HETATM    1  C9  UNL     1      -1.277  -0.817   0.470  1.00  0.00     0.188 C 
HETATM    2  N2  UNL     1      -1.611  -1.631   1.414  1.00  0.00    -0.245 NA
HETATM    3  C10 UNL     1      -2.949  -2.067   1.748  1.00  0.00     0.272 C 
HETATM    4  N3  UNL     1      -3.788  -1.037   2.254  1.00  0.00    -0.381 N 
HETATM    5  C11 UNL     1      -5.227  -1.052   2.129  1.00  0.00     0.084 C 
HETATM    6  C12 UNL     1      -6.136  -0.703   1.197  1.00  0.00     0.018 C 
HETATM    7  C13 UNL     1      -6.234  -0.152  -0.129  1.00  0.00     0.018 C 
HETATM    8  C14 UNL     1      -5.612   0.315  -1.185  1.00  0.00     0.086 C 
HETATM    9  N4  UNL     1      -4.235   0.521  -1.550  1.00  0.00    -0.383 N 
HETATM   10  C15 UNL     1      -3.613   1.105  -2.645  1.00  0.00     0.144 C 
HETATM   11  C16 UNL     1      -2.176   1.475  -2.371  1.00  0.00     0.169 C 
HETATM   12  N5  UNL     1      -1.478   0.554  -1.498  1.00  0.00    -0.286 NA
HETATM   13  C17 UNL     1      -2.015  -0.071  -0.549  1.00  0.00     0.099 C 
HETATM   14  C18 UNL     1      -3.461  -0.022  -0.500  1.00  0.00     0.185 C 
HETATM   15  H15 UNL     1      -3.253  -0.272   2.722  1.00  0.00     0.160 HD
ENDROOT
BRANCH   1  16
HETATM   16  O2  UNL     1       0.102  -0.675   0.500  1.00  0.00    -0.329 OA
BRANCH  16  17
HETATM   17  C8  UNL     1       0.837  -0.630   1.707  1.00  0.00     0.204 C 
BRANCH  17  18
HETATM   18  C7  UNL     1       2.271  -0.680   1.308  1.00  0.00    -0.002 C 
HETATM   19  C6  UNL     1       3.440  -0.054   1.341  1.00  0.00    -0.004 C 
BRANCH  19  20
HETATM   20  C4  UNL     1       4.789  -0.391   0.809  1.00  0.00     0.103 C 
HETATM   21  C5  UNL     1       4.678  -1.749   0.147  1.00  0.00     0.036 C 
BRANCH  20  22
HETATM   22  N1  UNL     1       5.175   0.627  -0.152  1.00  0.00    -0.350 N 
HETATM   23  C3  UNL     1       6.348   1.427  -0.031  1.00  0.00     0.240 C 
HETATM   24  O1  UNL     1       7.170   1.342   0.912  1.00  0.00    -0.269 OA
HETATM   25  H4  UNL     1       4.513   0.729  -0.955  1.00  0.00     0.163 HD
BRANCH  23  26
HETATM   26  C2  UNL     1       6.659   2.427  -1.044  1.00  0.00     0.064 C 
HETATM   27  C1  UNL     1       7.741   2.726  -0.354  1.00  0.00     0.017 C 
ENDBRANCH  23  26
ENDBRANCH  20  22
ENDBRANCH  19  20
ENDBRANCH  17  18
ENDBRANCH  16  17
ENDBRANCH   1  16
TORSDOF 6
