REMARK  2 active torsions:
REMARK  status: ('A' for Active; 'I' for Inactive)
REMARK    1  A    between atoms: O1_2  and  C2_3 
REMARK    2  A    between atoms: C10_14  and  N3_15 
ROOT
HETATM    1  C2  UNL     1      -1.533  -0.432   0.361  1.00  0.00     0.066 C 
HETATM    2  C3  UNL     1      -0.880  -0.136  -0.764  1.00  0.00    -0.054 C 
HETATM    3  B1  UNL     1      -1.394  -0.635  -2.358  1.00  0.00     0.227 B 
HETATM    4  C4  UNL     1      -2.991  -0.261  -2.979  1.00  0.00    -0.087 C 
HETATM    5  C5  UNL     1      -3.682   0.667  -2.339  1.00  0.00     0.112 C 
HETATM    6  N1  UNL     1      -3.491   0.664  -0.947  1.00  0.00    -0.257 NA
HETATM    7  C6  UNL     1      -3.605   1.684  -0.166  1.00  0.00     0.203 C 
HETATM    8  N2  UNL     1      -3.285   0.963   1.027  1.00  0.00    -0.371 N 
HETATM    9  C7  UNL     1      -1.879   0.663   1.336  1.00  0.00     0.161 C 
HETATM   10  C8  UNL     1      -1.119   1.892   1.072  1.00  0.00     0.003 C 
HETATM   11  C9  UNL     1      -0.184   1.958   0.130  1.00  0.00     0.010 C 
HETATM   12  C10 UNL     1       0.327   0.671  -0.425  1.00  0.00     0.266 C 
HETATM   13  H6  UNL     1      -4.143   0.722   1.568  1.00  0.00     0.161 HD
ENDROOT
BRANCH  12  14
HETATM   14  N3  UNL     1       1.105   0.057   0.640  1.00  0.00     0.103 N 
HETATM   15  C11 UNL     1       2.277   0.827   0.979  1.00  0.00     0.303 C 
HETATM   16  C12 UNL     1       3.395  -0.070   1.503  1.00  0.00     0.302 C 
HETATM   17  N4  UNL     1       3.817  -0.934   0.427  1.00  0.00     0.087 N 
HETATM   18  C13 UNL     1       4.738  -0.258  -0.457  1.00  0.00     0.310 C 
HETATM   19  C14 UNL     1       2.721  -1.575  -0.235  1.00  0.00     0.302 C 
HETATM   20  C15 UNL     1       1.381  -1.329   0.406  1.00  0.00     0.303 C 
ENDBRANCH  12  14
BRANCH   1  21
HETATM   21  O1  UNL     1      -1.957  -1.677   0.771  1.00  0.00    -0.358 OA
HETATM   22  C1  UNL     1      -3.192  -2.280   0.521  1.00  0.00     0.209 C 
ENDBRANCH   1  21
TORSDOF 2
