REMARK  2 active torsions:
REMARK  status: ('A' for Active; 'I' for Inactive)
REMARK    1  A    between atoms: O1_2  and  C2_3 
REMARK    2  A    between atoms: C4_5  and  N1_6 
REMARK       I    between atoms: N2_10  and  C8_11 
ROOT
HETATM    1  C2  UNL     1      -0.449   1.465  -1.353  1.00  0.00     0.096 A 
HETATM    2  C3  UNL     1       0.576   0.950  -0.584  1.00  0.00     0.069 A 
HETATM    3  C4  UNL     1       0.379   0.219   0.566  1.00  0.00     0.039 A 
HETATM    4  C12 UNL     1      -0.869  -0.070   1.061  1.00  0.00    -0.026 A 
HETATM    5  C13 UNL     1      -1.685   0.548   0.130  1.00  0.00     0.041 A 
HETATM    6  C14 UNL     1      -1.802   1.283  -1.017  1.00  0.00     0.065 A 
HETATM    7  N3  UNL     1      -2.900   1.760  -1.748  1.00  0.00    -0.334 N 
HETATM    8  C15 UNL     1      -4.086   0.985  -1.396  1.00  0.00     0.380 A 
HETATM    9  N4  UNL     1      -4.591   0.629  -2.546  1.00  0.00    -0.043 NA
HETATM   10  C16 UNL     1      -6.049   0.592  -2.178  1.00  0.00     0.417 A 
HETATM   11  C17 UNL     1      -5.856  -0.171  -0.917  1.00  0.00     0.323 A 
HETATM   12  N5  UNL     1      -5.153   0.266  -1.973  1.00  0.00     0.100 N 
HETATM   13  N6  UNL     1      -4.852  -0.854  -0.234  1.00  0.00    -0.317 N 
HETATM   14  C18 UNL     1      -4.065  -1.942   0.107  1.00  0.00     0.243 C 
HETATM   15  O3  UNL     1      -4.872  -2.436  -0.706  1.00  0.00    -0.269 OA
HETATM   16  C19 UNL     1      -2.999  -2.605   0.785  1.00  0.00     0.070 C 
HETATM   17  C20 UNL     1      -2.052  -2.137   1.573  1.00  0.00    -0.017 C 
HETATM   18  C21 UNL     1      -1.682  -0.762   2.094  1.00  0.00     0.068 C 
HETATM   19  H19 UNL     1      -2.574   2.544  -2.351  1.00  0.00     0.164 HD
HETATM   20  H22 UNL     1      -4.762   0.032   0.344  1.00  0.00     0.165 HD
ENDROOT
BRANCH   3  21
HETATM   21  N1  UNL     1       1.298  -0.385   1.479  1.00  0.00    -0.379 N 
HETATM   22  C5  UNL     1       1.450  -1.835   1.695  1.00  0.00     0.124 C 
HETATM   23  C6  UNL     1       2.870  -2.273   1.406  1.00  0.00     0.040 C 
HETATM   24  C7  UNL     1       3.322  -1.505   0.191  1.00  0.00     0.127 C 
HETATM   25  N2  UNL     1       3.836  -0.227   0.648  1.00  0.00    -0.351 N 
HETATM   26  C8  UNL     1       4.674   0.317  -0.380  1.00  0.00     0.215 C 
HETATM   27  C10 UNL     1       3.573   0.438   1.928  1.00  0.00     0.145 C 
HETATM   28  C9  UNL     1       5.451   1.590  -0.449  1.00  0.00     0.117 C 
HETATM   29  O2  UNL     1       4.747  -0.417  -1.371  1.00  0.00    -0.274 OA
HETATM   30  C11 UNL     1       2.107   0.533   2.223  1.00  0.00     0.143 C 
ENDBRANCH   3  21
BRANCH   1  31
HETATM   31  O1  UNL     1      -0.164   2.191  -2.503  1.00  0.00    -0.354 OA
HETATM   32  C1  UNL     1       1.188   2.388  -2.862  1.00  0.00     0.210 C 
ENDBRANCH   1  31
TORSDOF 2
