REMARK  4 active torsions:
REMARK  status: ('A' for Active; 'I' for Inactive)
REMARK    1  A    between atoms: C2_2  and  C3_3 
REMARK       I    between atoms: C3_3  and  N1_5 
REMARK    2  A    between atoms: N1_5  and  C4_6 
REMARK    3  A    between atoms: C4_6  and  C6_8 
REMARK    4  A    between atoms: C11_16  and  S1_17 
ROOT
HETATM    1  C6  UNL     1      -0.070  -0.343   0.091  1.00  0.00     0.192 C 
HETATM    2  C7  UNL     1       0.096  -1.608   0.809  1.00  0.00     0.044 C 
HETATM    3  C8  UNL     1       0.362  -2.590  -0.054  1.00  0.00     0.087 C 
HETATM    4  N2  UNL     1      -0.726  -3.029  -0.543  1.00  0.00    -0.218 NA
HETATM    5  C9  UNL     1      -1.554  -2.074  -1.195  1.00  0.00     0.229 C 
HETATM    6  C10 UNL     1      -1.753  -1.970  -2.620  1.00  0.00     0.140 C 
HETATM    7  N3  UNL     1      -1.923  -1.872  -3.747  1.00  0.00    -0.188 NA
HETATM    8  N4  UNL     1      -1.954  -1.528  -0.168  1.00  0.00    -0.244 NA
HETATM    9  C11 UNL     1      -2.837  -0.450  -0.037  1.00  0.00     0.195 C 
HETATM   10  C13 UNL     1      -1.989   0.856  -0.186  1.00  0.00     0.207 C 
HETATM   11  O2  UNL     1      -0.939   0.577   0.726  1.00  0.00    -0.373 OA
ENDROOT
BRANCH   9  12
HETATM   12  S1  UNL     1      -3.776  -0.422   1.505  1.00  0.00    -0.144 SA
HETATM   13  C12 UNL     1      -4.862   1.049   1.485  1.00  0.00     0.092 C 
ENDBRANCH   9  12
BRANCH   1  14
HETATM   14  C4  UNL     1       1.254   0.301   0.168  1.00  0.00     0.023 C 
HETATM   15  C5  UNL     1       1.386   1.509   0.659  1.00  0.00     0.061 C 
BRANCH  14  16
HETATM   16  N1  UNL     1       2.444  -0.321  -0.284  1.00  0.00    -0.328 N 
HETATM   17  C3  UNL     1       3.679   0.350  -0.194  1.00  0.00     0.244 C 
HETATM   18  O1  UNL     1       3.839   1.492   0.266  1.00  0.00    -0.268 OA
HETATM   19  H4  UNL     1       2.365  -1.267  -0.672  1.00  0.00     0.168 HD
BRANCH  17  20
HETATM   20  C2  UNL     1       4.911  -0.293  -0.661  1.00  0.00     0.064 C 
HETATM   21  C1  UNL     1       5.550   0.808  -0.294  1.00  0.00     0.017 C 
ENDBRANCH  17  20
ENDBRANCH  14  16
ENDBRANCH   1  14
TORSDOF 4
