REMARK  1 active torsions:
REMARK  status: ('A' for Active; 'I' for Inactive)
REMARK    1  A    between atoms: O1_2  and  C2_3 
ROOT
HETATM    1  C2  UNL     1       1.070   0.808   0.007  1.00  0.00     0.062 C 
HETATM    2  C3  UNL     1       0.035   1.420   0.608  1.00  0.00     0.037 C 
HETATM    3  C4  UNL     1      -0.871   2.168  -0.296  1.00  0.00     0.302 C 
HETATM    4  N1  UNL     1      -2.206   1.594  -0.294  1.00  0.00     0.095 N 
HETATM    5  C5  UNL     1      -2.560   1.018  -1.551  1.00  0.00     0.292 C 
HETATM    6  C6  UNL     1      -2.398  -0.511  -1.512  1.00  0.00     0.156 C 
HETATM    7  N2  UNL     1      -1.506  -0.905  -0.446  1.00  0.00    -0.349 N 
HETATM    8  C7  UNL     1      -2.346  -0.662   0.754  1.00  0.00     0.156 C 
HETATM    9  C8  UNL     1      -2.561   0.827   0.838  1.00  0.00     0.292 C 
HETATM   10  C9  UNL     1      -0.246  -1.318  -0.955  1.00  0.00     0.223 C 
HETATM   11  O2  UNL     1      -0.064  -1.482   0.276  1.00  0.00    -0.273 OA
HETATM   12  C10 UNL     1       1.158  -1.824  -0.863  1.00  0.00     0.138 C 
HETATM   13  C11 UNL     1       1.738  -1.511   0.482  1.00  0.00    -0.051 A 
HETATM   14  C12 UNL     1       1.822  -2.413   1.423  1.00  0.00     0.005 A 
HETATM   15  C13 UNL     1       2.351  -2.252   2.760  1.00  0.00     0.007 A 
HETATM   16  C14 UNL     1       2.804  -1.052   3.083  1.00  0.00     0.046 A 
HETATM   17  S1  UNL     1       2.856   0.426   2.082  1.00  0.00    -0.125 SA
HETATM   18  C15 UNL     1       2.173  -0.037   0.486  1.00  0.00     0.137 A 
ENDROOT
BRANCH   1  19
HETATM   19  O1  UNL     1       1.012   1.071  -1.380  1.00  0.00    -0.359 OA
HETATM   20  C1  UNL     1       1.929   1.920  -2.031  1.00  0.00     0.209 C 
ENDBRANCH   1  19
TORSDOF 1
