REMARK  6 active torsions:
REMARK  status: ('A' for Active; 'I' for Inactive)
REMARK    1  A    between atoms: C2_2  and  C3_3 
REMARK    2  A    between atoms: C3_3  and  N1_5 
REMARK    3  A    between atoms: N1_5  and  C5_6 
REMARK    4  A    between atoms: C15_18  and  N3_19 
REMARK    5  A    between atoms: N3_19  and  C16_20 
REMARK       I    between atoms: N3_19  and  C18_22 
REMARK    6  A    between atoms: C18_22  and  C19_24 
ROOT
HETATM    1  C5  UNL     1      -3.494   0.840  -0.355  1.00  0.00     0.029 C 
HETATM    2  C6  UNL     1      -2.812   1.611  -1.218  1.00  0.00     0.026 C 
HETATM    3  C7  UNL     1      -2.095   2.775  -1.422  1.00  0.00     0.000 C 
HETATM    4  C8  UNL     1      -1.438   3.809  -1.666  1.00  0.00    -0.001 C 
HETATM    5  C9  UNL     1      -0.800   5.084  -1.433  1.00  0.00     0.198 C 
HETATM    6  O1  UNL     1      -1.022   5.491  -0.056  1.00  0.00    -0.341 OA
HETATM    7  C10 UNL     1      -0.327   4.727   0.869  1.00  0.00     0.403 A 
HETATM    8  N2  UNL     1      -1.447   4.305   1.803  1.00  0.00     0.367 N 
HETATM    9  C11 UNL     1      -0.044   3.913   1.976  1.00  0.00     0.376 A 
HETATM   10  C12 UNL     1       0.123   2.472   1.391  1.00  0.00     0.016 A 
HETATM   11  C13 UNL     1       1.378   2.108   2.025  1.00  0.00     0.014 A 
HETATM   12  C14 UNL     1       2.198   0.946   1.990  1.00  0.00     0.030 A 
HETATM   13  C15 UNL     1       1.589  -0.063   1.118  1.00  0.00     0.039 A 
HETATM   14  C23 UNL     1       0.318   0.164   0.411  1.00  0.00     0.067 A 
HETATM   15  C24 UNL     1       0.094   1.398   0.857  1.00  0.00     0.080 A 
HETATM   16  O3  UNL     1      -1.135   1.512   0.084  1.00  0.00    -0.345 OA
HETATM   17  C25 UNL     1      -2.271   0.850   0.535  1.00  0.00     0.232 C 
ENDROOT
BRANCH  13  18
HETATM   18  N3  UNL     1       2.583  -1.127   1.183  1.00  0.00    -0.318 N 
HETATM   19  C18 UNL     1       3.397  -1.047   0.014  1.00  0.00     0.232 C 
HETATM   20  O2  UNL     1       2.624  -0.158  -0.491  1.00  0.00    -0.272 OA
BRANCH  18  21
HETATM   21  C16 UNL     1       2.632  -1.996   2.324  1.00  0.00     0.128 C 
HETATM   22  C17 UNL     1       1.808  -3.273   2.112  1.00  0.00     0.027 C 
ENDBRANCH  18  21
BRANCH  19  23
HETATM   23  C19 UNL     1       4.535  -1.425  -0.810  1.00  0.00     0.030 C 
HETATM   24  C20 UNL     1       5.867  -1.105  -0.174  1.00  0.00     0.025 C 
HETATM   25  C21 UNL     1       4.529  -2.954  -0.995  1.00  0.00     0.025 C 
HETATM   26  C22 UNL     1       4.503  -0.805  -2.185  1.00  0.00     0.025 C 
ENDBRANCH  19  23
ENDBRANCH  13  18
BRANCH   1  27
HETATM   27  N1  UNL     1      -4.182   0.105   0.616  1.00  0.00    -0.387 N 
HETATM   28  H10 UNL     1      -4.359   0.274   1.627  1.00  0.00     0.159 HD
BRANCH  27  29
HETATM   29  C3  UNL     1      -4.724  -1.062  -0.024  1.00  0.00     0.077 C 
HETATM   30  C4  UNL     1      -5.809  -0.762  -1.002  1.00  0.00     0.032 C 
BRANCH  29  31
HETATM   31  C2  UNL     1      -3.720  -1.967  -0.692  1.00  0.00     0.020 C 
HETATM   32  C1  UNL     1      -4.488  -3.232  -1.106  1.00  0.00     0.007 C 
ENDBRANCH  29  31
ENDBRANCH  27  29
ENDBRANCH   1  27
TORSDOF 6
