REMARK  8 active torsions:
REMARK  status: ('A' for Active; 'I' for Inactive)
REMARK    1  A    between atoms: O1_2  and  C2_3 
REMARK    2  A    between atoms: C2_3  and  C3_4 
REMARK    3  A    between atoms: C3_4  and  C17_21 
REMARK    4  A    between atoms: C4_5  and  C5_6 
REMARK       I    between atoms: N2_13  and  C11_14 
REMARK    5  A    between atoms: C11_14  and  C12_16 
REMARK    6  A    between atoms: C17_21  and  N3_22 
REMARK    7  A    between atoms: N3_22  and  C18_23 
REMARK    8  A    between atoms: C23_29  and  N5_30 
ROOT
HETATM    1  C3  UNL     1      -2.490  -0.178  -1.442  1.00  0.00    -0.026 C 
HETATM    2  C4  UNL     1      -1.347  -0.512  -0.794  1.00  0.00     0.036 C 
ENDROOT
BRANCH   2   3
HETATM    3  C5  UNL     1       0.045  -0.182  -1.017  1.00  0.00     0.035 A 
HETATM    4  C6  UNL     1       0.709  -0.223  -2.254  1.00  0.00     0.031 A 
HETATM    5  C7  UNL     1       2.023   0.173  -2.124  1.00  0.00     0.029 A 
HETATM    6  C8  UNL     1       2.106   0.444  -0.786  1.00  0.00     0.030 A 
HETATM    7  N1  UNL     1       0.956   0.240  -0.124  1.00  0.00    -0.347 N 
HETATM    8  C16 UNL     1       3.257   0.925   0.062  1.00  0.00     0.183 C 
HETATM    9  C9  UNL     1       0.929   0.490   1.293  1.00  0.00     0.149 C 
HETATM   10  C10 UNL     1       2.114  -0.220   1.919  1.00  0.00     0.146 C 
HETATM   11  N2  UNL     1       3.330   0.001   1.177  1.00  0.00    -0.344 N 
HETATM   12  C11 UNL     1       4.465  -0.697   1.601  1.00  0.00     0.227 C 
HETATM   13  O2  UNL     1       3.926  -1.326   2.570  1.00  0.00    -0.273 OA
BRANCH  12  14
HETATM   14  C12 UNL     1       5.830  -0.668   1.052  1.00  0.00     0.030 C 
HETATM   15  C13 UNL     1       6.650  -1.646   1.903  1.00  0.00     0.025 C 
HETATM   16  C14 UNL     1       5.952  -1.076  -0.375  1.00  0.00     0.025 C 
HETATM   17  C15 UNL     1       6.384   0.745   1.233  1.00  0.00     0.025 C 
ENDBRANCH  12  14
ENDBRANCH   2   3
BRANCH   1  18
HETATM   18  C2  UNL     1      -2.368   0.701  -2.621  1.00  0.00     0.203 C 
BRANCH  18  19
HETATM   19  O1  UNL     1      -2.798   0.216  -3.803  1.00  0.00    -0.392 OA
HETATM   20  C1  UNL     1      -4.077  -0.115  -4.041  1.00  0.00     0.201 C 
ENDBRANCH  18  19
ENDBRANCH   1  18
BRANCH   1  21
HETATM   21  C17 UNL     1      -3.747  -0.698  -0.857  1.00  0.00     0.311 C 
BRANCH  21  22
HETATM   22  N3  UNL     1      -4.593   0.447  -0.558  1.00  0.00     0.141 N 
HETATM   23  H26 UNL     1      -4.142   1.069   0.147  1.00  0.00     0.321 HD
BRANCH  22  24
HETATM   24  C18 UNL     1      -5.893   0.095  -0.052  1.00  0.00     0.560 C 
HETATM   25  N4  UNL     1      -6.555   1.385   0.201  1.00  0.00    -0.226 NA
HETATM   26  C19 UNL     1      -6.175   2.079   1.191  1.00  0.00     0.082 C 
HETATM   27  C20 UNL     1      -6.216   1.512   2.369  1.00  0.00     0.051 C 
HETATM   28  C21 UNL     1      -6.501  -0.207   2.957  1.00  0.00     0.311 A 
HETATM   29  C22 UNL     1      -6.238  -0.434   2.304  1.00  0.00     0.199 A 
HETATM   30  N5  UNL     1      -5.778  -0.804   1.095  1.00  0.00     0.062 N 
HETATM   31  C23 UNL     1      -6.053  -0.587   1.825  1.00  0.00     0.199 A 
ENDBRANCH  22  24
ENDBRANCH  21  22
ENDBRANCH   1  21
TORSDOF 8
