REMARK  2 active torsions:
REMARK  status: ('A' for Active; 'I' for Inactive)
REMARK    1  A    between atoms: S1_2  and  C2_3 
REMARK    2  A    between atoms: C20_27  and  C21_28 
ROOT
HETATM    1  C2  UNL     1       2.136   1.167   3.132  1.00  0.00     0.072 A 
HETATM    2  C3  UNL     1       1.821   2.374   3.754  1.00  0.00     0.132 A 
HETATM    3  N1  UNL     1       1.017   3.332   2.997  1.00  0.00    -0.292 N 
HETATM    4  N2  UNL     1       0.583   3.014   1.694  1.00  0.00    -0.209 N 
HETATM    5  C4  UNL     1      -0.267   4.034   1.074  1.00  0.00     0.173 C 
HETATM    6  C5  UNL     1      -0.792   3.316  -0.259  1.00  0.00    -0.001 C 
HETATM    7  C6  UNL     1      -0.609   2.360  -1.017  1.00  0.00     0.030 C 
HETATM    8  C7  UNL     1       0.172   1.125  -1.434  1.00  0.00     0.020 A 
HETATM    9  C8  UNL     1       0.653  -0.023  -1.996  1.00  0.00    -0.094 A 
HETATM   10  C9  UNL     1       2.039  -0.535  -1.483  1.00  0.00     0.048 C 
HETATM   11  C10 UNL     1       1.745  -1.772  -0.685  1.00  0.00     0.026 A 
HETATM   12  C11 UNL     1       1.680  -2.673  -1.676  1.00  0.00     0.018 A 
HETATM   13  C12 UNL     1       0.757  -3.123  -0.811  1.00  0.00     0.051 A 
HETATM   14  C13 UNL     1      -0.010  -3.097   0.388  1.00  0.00     0.001 A 
HETATM   15  C14 UNL     1       0.306  -2.053   1.213  1.00  0.00     0.053 A 
HETATM   16  C15 UNL     1       1.299  -1.322   0.580  1.00  0.00     0.067 A 
HETATM   17  O1  UNL     1       1.876  -0.223   1.093  1.00  0.00    -0.293 OA
HETATM   18  C16 UNL     1       1.674   0.844   1.787  1.00  0.00     0.208 A 
HETATM   19  N3  UNL     1       1.041   1.812   1.420  1.00  0.00    -0.129 NA
HETATM   20  N4  UNL     1      -1.086  -4.152   0.293  1.00  0.00    -0.230 NA
HETATM   21  C17 UNL     1      -1.942  -3.396  -0.706  1.00  0.00     0.157 A 
HETATM   22  O2  UNL     1      -1.176  -2.376  -0.648  1.00  0.00    -0.286 OA
HETATM   23  C18 UNL     1      -2.821  -2.584  -1.750  1.00  0.00     0.053 C 
HETATM   24  C19 UNL     1      -2.745  -1.308  -2.244  1.00  0.00    -0.010 C 
HETATM   25  C20 UNL     1      -1.804  -0.304  -1.898  1.00  0.00     0.081 C 
HETATM   26  C23 UNL     1      -0.702   0.308  -2.610  1.00  0.00     0.050 A 
HETATM   27  H5  UNL     1       0.773   4.269   3.504  1.00  0.00     0.187 HD
HETATM   28  H16 UNL     1      -2.030  -4.356  -0.073  1.00  0.00     0.229 HD
ENDROOT
BRANCH  25  29
HETATM   29  C21 UNL     1      -2.838   0.994  -1.975  1.00  0.00     0.131 C 
HETATM   30  C22 UNL     1      -3.610   0.762  -0.691  1.00  0.00     0.091 C 
HETATM   31  O3  UNL     1      -3.528   1.991  -2.168  1.00  0.00    -0.298 OA
ENDBRANCH  25  29
BRANCH   1  32
HETATM   32  S1  UNL     1       3.250   0.050   4.000  1.00  0.00    -0.129 SA
HETATM   33  C1  UNL     1       3.834  -1.226   2.875  1.00  0.00     0.096 C 
ENDBRANCH   1  32
TORSDOF 2
