REMARK  5 active torsions:
REMARK  status: ('A' for Active; 'I' for Inactive)
REMARK    1  A    between atoms: N1_3  and  C3_4 
REMARK    2  A    between atoms: C3_4  and  N2_5 
REMARK    3  A    between atoms: N2_5  and  C4_6 
REMARK       I    between atoms: N4_13  and  C10_14 
REMARK    4  A    between atoms: C10_14  and  C11_16 
REMARK    5  A    between atoms: C17_22  and  O2_23 
ROOT
HETATM    1  C4  UNL     1       2.325  -0.470  -0.885  1.00  0.00     0.062 C 
HETATM    2  C5  UNL     1       2.599   0.760  -1.300  1.00  0.00     0.033 C 
HETATM    3  C6  UNL     1       1.751   1.974  -1.366  1.00  0.00     0.019 C 
HETATM    4  C7  UNL     1       0.562   2.285  -0.867  1.00  0.00     0.086 C 
HETATM    5  N3  UNL     1      -0.384   1.584  -0.067  1.00  0.00    -0.379 N 
HETATM    6  C8  UNL     1      -1.692   2.124  -0.419  1.00  0.00     0.143 C 
HETATM    7  C9  UNL     1      -2.761   1.072  -0.399  1.00  0.00     0.145 C 
HETATM    8  N4  UNL     1      -2.836   0.327   0.805  1.00  0.00    -0.348 N 
HETATM    9  C10 UNL     1      -3.947  -0.468   1.195  1.00  0.00     0.223 C 
HETATM   10  O1  UNL     1      -3.888  -1.089   2.293  1.00  0.00    -0.273 OA
HETATM   11  C14 UNL     1      -1.677   0.428   1.643  1.00  0.00     0.155 C 
HETATM   12  C15 UNL     1      -0.376   0.542   0.941  1.00  0.00     0.127 C 
HETATM   13  C16 UNL     1       0.099  -0.747   0.371  1.00  0.00     0.039 C 
HETATM   14  C17 UNL     1       1.138  -1.157  -0.336  1.00  0.00     0.092 C 
ENDROOT
BRANCH   1  15
HETATM   15  N2  UNL     1       3.428  -1.356  -0.985  1.00  0.00    -0.370 N 
HETATM   16  H7  UNL     1       3.175  -2.329  -1.316  1.00  0.00     0.161 HD
BRANCH  15  17
HETATM   17  C3  UNL     1       4.780  -0.976  -0.667  1.00  0.00     0.269 C 
BRANCH  17  18
HETATM   18  N1  UNL     1       4.868  -0.559   0.699  1.00  0.00    -0.287 NA
HETATM   19  C2  UNL     1       5.673   0.315   1.120  1.00  0.00     0.081 C 
HETATM   20  C1  UNL     1       6.751   1.245   0.702  1.00  0.00     0.057 C 
ENDBRANCH  17  18
ENDBRANCH  15  17
ENDBRANCH   1  15
BRANCH  14  21
HETATM   21  O2  UNL     1       1.132  -2.532  -0.641  1.00  0.00    -0.354 OA
HETATM   22  C18 UNL     1       1.017  -3.550   0.301  1.00  0.00     0.210 C 
ENDBRANCH  14  21
BRANCH   9  23
HETATM   23  C11 UNL     1      -5.166  -0.598   0.369  1.00  0.00     0.070 C 
HETATM   24  C12 UNL     1      -4.743  -1.158  -0.982  1.00  0.00     0.019 C 
HETATM   25  C13 UNL     1      -5.926   0.703   0.237  1.00  0.00     0.019 C 
ENDBRANCH   9  23
TORSDOF 5
