REMARK  9 active torsions:
REMARK  status: ('A' for Active; 'I' for Inactive)
REMARK    1  A    between atoms: C2_2  and  C3_3 
REMARK       I    between atoms: C3_3  and  N1_5 
REMARK    2  A    between atoms: N1_5  and  C4_6 
REMARK    3  A    between atoms: C10_12  and  S1_13 
REMARK    4  A    between atoms: C12_16  and  N3_17 
REMARK    5  A    between atoms: N3_17  and  C13_18 
REMARK    6  A    between atoms: C13_18  and  C14_19 
REMARK    7  A    between atoms: C14_19  and  O2_21 
REMARK    8  A    between atoms: O2_21  and  C15_22 
REMARK    9  A    between atoms: C15_22  and  C16_23 
ROOT
HETATM    1  C4  UNL     1      -3.250  -0.004   1.060  1.00  0.00     0.038 A 
HETATM    2  C5  UNL     1      -3.134  -1.115   1.841  1.00  0.00     0.066 A 
HETATM    3  C6  UNL     1      -1.874  -1.499   2.213  1.00  0.00     0.079 A 
HETATM    4  C7  UNL     1      -0.815  -0.694   1.753  1.00  0.00     0.047 A 
HETATM    5  C8  UNL     1      -0.957   0.413   0.961  1.00  0.00    -0.018 A 
HETATM    6  C9  UNL     1      -2.225   0.777   0.601  1.00  0.00     0.039 A 
HETATM    7  C10 UNL     1       0.448   0.783   0.645  1.00  0.00     0.221 C 
HETATM    8  N2  UNL     1       1.098  -0.343   0.037  1.00  0.00    -0.085 NA
HETATM    9  C12 UNL     1       1.079  -1.590   0.383  1.00  0.00     0.720 C 
HETATM   10  N4  UNL     1       0.776  -2.796   1.118  1.00  0.00    -0.051 NA
HETATM   11  C17 UNL     1      -0.086  -2.990   2.046  1.00  0.00     0.278 C 
HETATM   12  O3  UNL     1      -1.162  -2.497   2.940  1.00  0.00    -0.303 OA
ENDROOT
BRANCH   9  13
HETATM   13  N3  UNL     1       1.941  -2.154  -0.664  1.00  0.00    -0.218 N 
HETATM   14  H12 UNL     1       1.994  -3.170  -1.018  1.00  0.00     0.178 HD
BRANCH  13  15
HETATM   15  C13 UNL     1       2.943  -1.421  -1.471  1.00  0.00     0.204 C 
BRANCH  15  16
HETATM   16  C14 UNL     1       4.065  -1.013  -0.533  1.00  0.00     0.324 C 
HETATM   17  F1  UNL     1       4.569  -2.165   0.029  1.00  0.00    -0.218 F 
BRANCH  16  18
HETATM   18  O2  UNL     1       5.058  -0.305  -1.246  1.00  0.00    -0.353 OA
BRANCH  18  19
HETATM   19  C15 UNL     1       5.204   0.958  -0.662  1.00  0.00     0.202 C 
BRANCH  19  20
HETATM   20  C16 UNL     1       6.253   1.747  -1.389  1.00  0.00     0.248 C 
HETATM   21  F2  UNL     1       6.378   2.993  -0.796  1.00  0.00    -0.253 F 
ENDBRANCH  19  20
ENDBRANCH  18  19
ENDBRANCH  16  18
ENDBRANCH  15  16
ENDBRANCH  13  15
ENDBRANCH   9  13
BRANCH   7  22
HETATM   22  S1  UNL     1       0.536   2.139  -0.542  1.00  0.00    -0.141 SA
HETATM   23  C11 UNL     1      -0.102   1.644  -2.167  1.00  0.00     0.092 C 
ENDBRANCH   7  22
BRANCH   1  24
HETATM   24  N1  UNL     1      -4.565   0.370   0.692  1.00  0.00    -0.324 N 
HETATM   25  C3  UNL     1      -5.485   1.249   1.372  1.00  0.00     0.244 C 
HETATM   26  O1  UNL     1      -4.935   1.666   2.403  1.00  0.00    -0.268 OA
HETATM   27  H4  UNL     1      -4.680  -0.163  -0.201  1.00  0.00     0.169 HD
BRANCH  25  28
HETATM   28  C2  UNL     1      -6.765   1.402   0.688  1.00  0.00     0.064 C 
HETATM   29  C1  UNL     1      -7.230   0.880  -0.441  1.00  0.00     0.017 C 
ENDBRANCH  25  28
ENDBRANCH   1  24
TORSDOF 9
