REMARK  3 active torsions:
REMARK  status: ('A' for Active; 'I' for Inactive)
REMARK    1  A    between atoms: N1_2  and  C2_3 
REMARK       I    between atoms: N2_7  and  C6_8 
REMARK    2  A    between atoms: C6_8  and  C7_10 
REMARK    3  A    between atoms: C10_13  and  O2_14 
ROOT
HETATM    1  C2  UNL     1      -2.175  -1.432  -0.982  1.00  0.00     0.001 C 
HETATM    2  C3  UNL     1      -1.319  -0.464  -0.715  1.00  0.00    -0.020 C 
HETATM    3  C4  UNL     1       0.051  -1.078  -0.769  1.00  0.00     0.058 C 
HETATM    4  C5  UNL     1       0.551  -1.340   0.631  1.00  0.00     0.130 C 
HETATM    5  N2  UNL     1       1.339  -0.228   1.161  1.00  0.00    -0.348 N 
HETATM    6  C6  UNL     1       2.740  -0.270   0.916  1.00  0.00     0.219 C 
HETATM    7  O1  UNL     1       3.757   0.427   1.167  1.00  0.00    -0.273 OA
HETATM    8  C9  UNL     1       0.908   0.936   1.912  1.00  0.00     0.189 C 
HETATM    9  C10 UNL     1       0.135   1.823   0.968  1.00  0.00     0.375 C 
HETATM   10  N3  UNL     1      -1.221   1.313   0.933  1.00  0.00     0.130 N 
HETATM   11  C12 UNL     1      -1.641   0.950  -0.418  1.00  0.00     0.322 C 
HETATM   12  C13 UNL     1      -3.108   1.126  -0.505  1.00  0.00     0.130 C 
HETATM   13  N4  UNL     1      -3.593   2.333  -0.676  1.00  0.00    -0.286 NA
HETATM   14  N5  UNL     1      -3.989   0.017  -0.407  1.00  0.00    -0.371 N 
HETATM   15  C14 UNL     1      -3.626  -1.229  -1.027  1.00  0.00     0.171 C 
HETATM   16  H18 UNL     1      -1.898   1.925   1.413  1.00  0.00     0.320 HD
HETATM   17  H20 UNL     1      -2.937   3.141  -0.747  1.00  0.00     0.188 HD
HETATM   18  H21 UNL     1      -4.897   0.156   0.130  1.00  0.00     0.161 HD
ENDROOT
BRANCH   6  19
HETATM   19  C7  UNL     1       3.351  -1.371   0.170  1.00  0.00     0.098 C 
HETATM   20  C8  UNL     1       4.845  -1.103   0.092  1.00  0.00     0.014 C 
ENDBRANCH   6  19
BRANCH   9  21
HETATM   21  O2  UNL     1       0.208   3.152   1.272  1.00  0.00    -0.361 OA
HETATM   22  C11 UNL     1       0.767   3.931   0.268  1.00  0.00     0.204 C 
ENDBRANCH   9  21
BRANCH   1  23
HETATM   23  N1  UNL     1      -1.526  -2.668  -1.218  1.00  0.00    -0.311 NA
HETATM   24  C1  UNL     1      -2.133  -3.801  -1.271  1.00  0.00     0.260 C 
ENDBRANCH   1  23
TORSDOF 3
