REMARK  7 active torsions:
REMARK  status: ('A' for Active; 'I' for Inactive)
REMARK    1  A    between atoms: C2_2  and  C3_3 
REMARK       I    between atoms: C3_3  and  N1_5 
REMARK    2  A    between atoms: N1_5  and  C4_6 
REMARK    3  A    between atoms: C8_10  and  O2_11 
REMARK    4  A    between atoms: O2_11  and  C9_12 
REMARK    5  A    between atoms: C10_14  and  C11_15 
REMARK    6  A    between atoms: C12_16  and  N3_18 
REMARK       I    between atoms: N4_21  and  C16_22 
REMARK    7  A    between atoms: C21_29  and  C22_30 
ROOT
HETATM    1  C9  UNL     1       1.360  -0.747  -2.662  1.00  0.00     0.178 A 
HETATM    2  N2  UNL     1       0.709   0.242  -2.113  1.00  0.00    -0.225 NA
HETATM    3  C10 UNL     1      -0.456   0.049  -1.327  1.00  0.00     0.076 A 
HETATM    4  C20 UNL     1      -0.946  -1.152  -1.113  1.00  0.00     0.116 A 
HETATM    5  N5  UNL     1      -0.232  -2.224  -1.722  1.00  0.00    -0.378 N 
HETATM    6  C21 UNL     1       0.970  -2.197  -2.529  1.00  0.00     0.267 A 
HETATM    7  H24 UNL     1      -0.442  -3.269  -1.701  1.00  0.00     0.160 HD
ENDROOT
BRANCH   1   8
HETATM    8  O2  UNL     1       2.321   0.029  -3.258  1.00  0.00    -0.293 OA
BRANCH   8   9
HETATM    9  C8  UNL     1       3.479   0.471  -2.726  1.00  0.00     0.079 A 
HETATM   10  C7  UNL     1       4.185   1.248  -3.670  1.00  0.00     0.037 A 
HETATM   11  C6  UNL     1       5.414   1.810  -3.356  1.00  0.00     0.005 A 
HETATM   12  C5  UNL     1       5.973   1.621  -2.116  1.00  0.00     0.029 A 
HETATM   13  C4  UNL     1       5.331   0.875  -1.162  1.00  0.00     0.037 A 
HETATM   14  C23 UNL     1       4.119   0.343  -1.520  1.00  0.00     0.066 A 
BRANCH  13  15
HETATM   15  N1  UNL     1       5.931   0.640   0.092  1.00  0.00    -0.324 N 
HETATM   16  C3  UNL     1       5.484   0.017   1.277  1.00  0.00     0.241 C 
HETATM   17  O1  UNL     1       4.315  -0.416   1.273  1.00  0.00    -0.269 OA
HETATM   18  H4  UNL     1       6.930   0.989   0.207  1.00  0.00     0.169 HD
BRANCH  16  19
HETATM   19  C2  UNL     1       6.313  -0.138   2.460  1.00  0.00     0.048 C 
HETATM   20  C1  UNL     1       7.578   0.253   2.676  1.00  0.00     0.037 C 
ENDBRANCH  16  19
ENDBRANCH  13  15
ENDBRANCH   8   9
ENDBRANCH   1   8
BRANCH   6  21
HETATM   21  C22 UNL     1       2.052  -3.061  -1.926  1.00  0.00     0.415 C 
HETATM   22  F1  UNL     1       1.537  -4.365  -1.877  1.00  0.00    -0.168 F 
HETATM   23  F2  UNL     1       2.372  -2.628  -0.659  1.00  0.00    -0.168 F 
HETATM   24  F3  UNL     1       3.127  -3.086  -2.762  1.00  0.00    -0.168 F 
ENDBRANCH   6  21
BRANCH   3  25
HETATM   25  C11 UNL     1      -1.302   1.061  -0.666  1.00  0.00     0.057 C 
HETATM   26  C12 UNL     1      -2.389   0.913   0.044  1.00  0.00     0.005 C 
HETATM   27  C13 UNL     1      -3.019   2.172   0.588  1.00  0.00     0.068 C 
BRANCH  26  28
HETATM   28  N3  UNL     1      -3.294  -0.065   0.541  1.00  0.00    -0.381 N 
HETATM   29  C14 UNL     1      -4.414  -0.758  -0.069  1.00  0.00     0.142 C 
HETATM   30  C15 UNL     1      -5.721  -0.493   0.649  1.00  0.00     0.145 C 
HETATM   31  N4  UNL     1      -5.490  -0.166   2.024  1.00  0.00    -0.349 N 
HETATM   32  C16 UNL     1      -6.355   0.809   2.590  1.00  0.00     0.215 C 
HETATM   33  C18 UNL     1      -4.393  -0.921   2.588  1.00  0.00     0.145 C 
HETATM   34  C17 UNL     1      -6.564   1.481   3.876  1.00  0.00     0.117 C 
HETATM   35  O3  UNL     1      -7.143   1.153   1.672  1.00  0.00    -0.274 OA
HETATM   36  C19 UNL     1      -3.116  -0.486   1.937  1.00  0.00     0.142 C 
ENDBRANCH  26  28
ENDBRANCH   3  25
TORSDOF 7
