REMARK  6 active torsions:
REMARK  status: ('A' for Active; 'I' for Inactive)
REMARK    1  A    between atoms: C2_2  and  C3_3 
REMARK       I    between atoms: C3_3  and  N1_5 
REMARK    2  A    between atoms: N1_5  and  C4_6 
REMARK    3  A    between atoms: C5_7  and  C6_8 
REMARK    4  A    between atoms: C6_8  and  N2_9 
REMARK    5  A    between atoms: N2_9  and  C7_10 
REMARK    6  A    between atoms: C10_14  and  C11_15 
ROOT
HETATM    1  C7  UNL     1       1.107  -1.054  -0.426  1.00  0.00     0.101 C 
HETATM    2  N3  UNL     1       0.824  -0.427  -1.541  1.00  0.00    -0.248 NA
HETATM    3  C8  UNL     1      -0.393   0.196  -2.001  1.00  0.00     0.121 C 
HETATM    4  C9  UNL     1      -1.655   0.130  -1.550  1.00  0.00     0.051 C 
HETATM    5  C10 UNL     1      -2.321  -0.563  -0.455  1.00  0.00     0.065 C 
HETATM    6  N5  UNL     1      -1.900  -1.496   0.330  1.00  0.00    -0.288 NA
HETATM    7  C20 UNL     1      -0.751  -2.316   0.611  1.00  0.00     0.157 C 
HETATM    8  C21 UNL     1       0.461  -1.454   0.854  1.00  0.00     0.100 C 
ENDROOT
BRANCH   1   9
HETATM    9  N2  UNL     1       2.481  -1.443  -0.569  1.00  0.00    -0.375 N 
HETATM   10  H9  UNL     1       2.768  -2.353  -0.084  1.00  0.00     0.161 HD
BRANCH   9  11
HETATM   11  C6  UNL     1       3.374  -0.597  -1.336  1.00  0.00     0.149 C 
BRANCH  11  12
HETATM   12  C5  UNL     1       4.722  -1.190  -1.460  1.00  0.00     0.010 C 
HETATM   13  C4  UNL     1       5.998  -1.026  -1.200  1.00  0.00     0.089 C 
BRANCH  13  14
HETATM   14  N1  UNL     1       6.964  -0.170  -0.623  1.00  0.00    -0.334 N 
HETATM   15  C3  UNL     1       6.831   1.082   0.020  1.00  0.00     0.244 C 
HETATM   16  O1  UNL     1       5.683   1.576   0.134  1.00  0.00    -0.268 OA
HETATM   17  H4  UNL     1       7.992  -0.412  -0.617  1.00  0.00     0.168 HD
BRANCH  15  18
HETATM   18  C2  UNL     1       7.920   1.863   0.571  1.00  0.00     0.064 C 
HETATM   19  C1  UNL     1       9.150   1.441   0.502  1.00  0.00     0.017 C 
ENDBRANCH  15  18
ENDBRANCH  13  14
ENDBRANCH  11  12
ENDBRANCH   9  11
ENDBRANCH   1   9
BRANCH   5  20
HETATM   20  C11 UNL     1      -3.686  -0.195  -0.147  1.00  0.00     0.020 A 
HETATM   21  C12 UNL     1      -4.627  -1.185   0.162  1.00  0.00     0.105 A 
HETATM   22  N4  UNL     1      -5.828  -0.616   0.415  1.00  0.00    -0.360 N 
HETATM   23  C13 UNL     1      -7.033  -1.365   0.771  1.00  0.00     0.156 C 
HETATM   24  C14 UNL     1      -5.726   0.707   0.289  1.00  0.00     0.045 A 
HETATM   25  C15 UNL     1      -6.612   1.767   0.427  1.00  0.00     0.030 A 
HETATM   26  C19 UNL     1      -4.413   0.975  -0.056  1.00  0.00     0.005 A 
HETATM   27  C16 UNL     1      -6.140   3.050   0.213  1.00  0.00     0.002 A 
HETATM   28  C17 UNL     1      -4.808   3.294  -0.135  1.00  0.00     0.001 A 
HETATM   29  C18 UNL     1      -3.911   2.239  -0.276  1.00  0.00     0.014 A 
ENDBRANCH   5  20
TORSDOF 6
