REMARK  11 active torsions:
REMARK  status: ('A' for Active; 'I' for Inactive)
REMARK    1  A    between atoms: C2_2  and  C3_3 
REMARK       I    between atoms: C3_3  and  N1_5 
REMARK    2  A    between atoms: N1_5  and  C4_6 
REMARK    3  A    between atoms: C6_8  and  N2_9 
REMARK    4  A    between atoms: N2_9  and  C7_10 
REMARK    5  A    between atoms: C10_14  and  C11_15 
REMARK    6  A    between atoms: C11_15  and  C12_16 
REMARK    7  A    between atoms: C14_19  and  O2_20 
REMARK    8  A    between atoms: C17_23  and  N5_24 
REMARK    9  A    between atoms: N5_24  and  C19_26 
REMARK   10  A    between atoms: C19_26  and  C20_27 
REMARK   11  A    between atoms: C20_27  and  N6_28 
ROOT
HETATM    1  C4  UNL     1      -0.854  -0.407   0.636  1.00  0.00     0.064 A 
HETATM    2  C5  UNL     1       0.514  -0.521   0.568  1.00  0.00     0.065 A 
HETATM    3  C6  UNL     1       1.175  -0.904  -0.576  1.00  0.00     0.085 A 
HETATM    4  C14 UNL     1       0.420  -1.188  -1.700  1.00  0.00     0.097 A 
HETATM    5  C16 UNL     1      -0.947  -1.069  -1.612  1.00  0.00     0.070 A 
HETATM    6  C17 UNL     1      -1.646  -0.676  -0.460  1.00  0.00     0.059 A 
ENDROOT
BRANCH   3   7
HETATM    7  N2  UNL     1       2.597  -0.991  -0.586  1.00  0.00    -0.185 N 
HETATM    8  H6  UNL     1       3.028  -1.384  -1.474  1.00  0.00     0.184 HD
BRANCH   7   9
HETATM    9  C7  UNL     1       3.498  -0.611   0.456  1.00  0.00     0.727 A 
HETATM   10  N3  UNL     1       3.645  -0.958   1.753  1.00  0.00    -0.075 NA
HETATM   11  C8  UNL     1       4.628  -0.390   2.507  1.00  0.00     0.138 A 
HETATM   12  C9  UNL     1       5.492   0.547   1.979  1.00  0.00     0.047 A 
HETATM   13  C10 UNL     1       5.342   0.899   0.657  1.00  0.00     0.055 A 
HETATM   14  N4  UNL     1       4.368   0.315  -0.036  1.00  0.00    -0.067 NA
BRANCH  13  15
HETATM   15  C11 UNL     1       6.259   1.906   0.019  1.00  0.00     0.059 C 
BRANCH  15  16
HETATM   16  C12 UNL     1       7.474   1.226  -0.567  1.00  0.00     0.002 C 
HETATM   17  C13 UNL     1       8.266   0.511   0.534  1.00  0.00     0.005 C 
ENDBRANCH  15  16
ENDBRANCH  13  15
ENDBRANCH   7   9
ENDBRANCH   3   7
BRANCH   4  18
HETATM   18  O2  UNL     1       1.122  -1.574  -2.831  1.00  0.00    -0.354 OA
HETATM   19  C15 UNL     1       0.479  -1.899  -4.048  1.00  0.00     0.210 C 
ENDBRANCH   4  18
BRANCH   1  20
HETATM   20  N1  UNL     1      -1.619  -0.069   1.789  1.00  0.00    -0.322 N 
HETATM   21  C3  UNL     1      -2.069  -1.287   2.399  1.00  0.00     0.244 C 
HETATM   22  O1  UNL     1      -1.995  -2.532   2.242  1.00  0.00    -0.268 OA
HETATM   23  H4  UNL     1      -1.925   0.773   2.306  1.00  0.00     0.169 HD
BRANCH  21  24
HETATM   24  C2  UNL     1      -2.902  -1.290   3.603  1.00  0.00     0.064 C 
HETATM   25  C1  UNL     1      -2.990  -2.635   3.666  1.00  0.00     0.017 C 
ENDBRANCH  21  24
ENDBRANCH   1  20
BRANCH   6  26
HETATM   26  N5  UNL     1      -3.038  -0.581  -0.749  1.00  0.00    -0.382 N 
HETATM   27  C18 UNL     1      -3.697  -1.333  -1.811  1.00  0.00     0.150 C 
BRANCH  26  28
HETATM   28  C19 UNL     1      -4.046   0.297  -0.125  1.00  0.00     0.141 C 
BRANCH  28  29
HETATM   29  C20 UNL     1      -4.429   1.356  -1.139  1.00  0.00     0.135 C 
BRANCH  29  30
HETATM   30  N6  UNL     1      -5.370   2.315  -0.694  1.00  0.00    -0.419 N 
HETATM   31  C21 UNL     1      -4.851   3.205   0.323  1.00  0.00     0.142 C 
HETATM   32  C22 UNL     1      -6.696   1.867  -0.434  1.00  0.00     0.142 C 
ENDBRANCH  29  30
ENDBRANCH  28  29
ENDBRANCH  26  28
ENDBRANCH   6  26
TORSDOF 11
