REMARK  6 active torsions:
REMARK  status: ('A' for Active; 'I' for Inactive)
REMARK    1  A    between atoms: C2_2  and  C3_3 
REMARK    2  A    between atoms: C3_3  and  N1_4 
REMARK    3  A    between atoms: N1_4  and  C4_5 
REMARK    4  A    between atoms: C12_14  and  N3_15 
REMARK    5  A    between atoms: N3_15  and  C13_16 
REMARK    6  A    between atoms: C14_17  and  C15_18 
ROOT
HETATM    1  C4  UNL     1      -2.810   0.195  -0.172  1.00  0.00     0.028 A 
HETATM    2  C5  UNL     1      -2.869  -0.281   1.121  1.00  0.00     0.032 A 
HETATM    3  C6  UNL     1      -1.942  -1.177   1.616  1.00  0.00     0.040 A 
HETATM    4  C7  UNL     1      -0.910  -1.616   0.777  1.00  0.00     0.086 A 
HETATM    5  C8  UNL     1      -0.866  -1.127  -0.522  1.00  0.00    -0.004 A 
HETATM    6  C9  UNL     1      -1.798  -0.230  -1.009  1.00  0.00     0.040 A 
HETATM    7  C10 UNL     1       0.141  -1.459  -1.583  1.00  0.00     0.161 C 
HETATM    8  N2  UNL     1       1.495  -1.255  -1.098  1.00  0.00    -0.379 N 
HETATM    9  C11 UNL     1       2.093  -1.831   0.079  1.00  0.00     0.129 A 
HETATM   10  C12 UNL     1       3.469  -1.756   0.017  1.00  0.00     0.159 A 
HETATM   11  N4  UNL     1       4.132  -2.268   1.071  1.00  0.00    -0.222 NA
HETATM   12  C16 UNL     1       3.496  -2.817   2.118  1.00  0.00     0.238 A 
HETATM   13  N5  UNL     1       2.139  -2.885   2.168  1.00  0.00    -0.215 NA
HETATM   14  C17 UNL     1       1.402  -2.393   1.148  1.00  0.00     0.202 A 
HETATM   15  O1  UNL     1       0.009  -2.528   1.329  1.00  0.00    -0.289 OA
HETATM   16  H12 UNL     1       2.084  -0.619  -1.679  1.00  0.00     0.160 HD
ENDROOT
BRANCH  10  17
HETATM   17  N3  UNL     1       4.106  -1.161  -1.119  1.00  0.00    -0.349 N 
HETATM   18  H13 UNL     1       4.465  -1.516  -2.019  1.00  0.00     0.167 HD
BRANCH  17  19
HETATM   19  C13 UNL     1       4.249   0.246  -0.884  1.00  0.00     0.088 C 
HETATM   20  C14 UNL     1       5.164   1.154  -1.234  1.00  0.00     0.021 C 
BRANCH  20  21
HETATM   21  C15 UNL     1       5.424   2.627  -1.056  1.00  0.00     0.251 C 
HETATM   22  F1  UNL     1       5.484   3.268  -2.254  1.00  0.00    -0.251 F 
ENDBRANCH  20  21
ENDBRANCH  17  19
ENDBRANCH  10  17
BRANCH   1  23
HETATM   23  N1  UNL     1      -3.786   1.117  -0.630  1.00  0.00    -0.386 N 
HETATM   24  H6  UNL     1      -3.733   1.475  -1.619  1.00  0.00     0.160 HD
BRANCH  23  25
HETATM   25  C3  UNL     1      -4.846   1.583   0.206  1.00  0.00     0.146 C 
BRANCH  25  26
HETATM   26  C2  UNL     1      -5.726   2.546  -0.513  1.00  0.00    -0.018 C 
HETATM   27  C1  UNL     1      -7.013   2.542  -0.811  1.00  0.00     0.008 C 
ENDBRANCH  25  26
ENDBRANCH  23  25
ENDBRANCH   1  23
TORSDOF 6
