REMARK  4 active torsions:
REMARK  status: ('A' for Active; 'I' for Inactive)
REMARK    1  A    between atoms: C2_2  and  C3_3 
REMARK       I    between atoms: C3_3  and  N1_5 
REMARK    2  A    between atoms: N1_5  and  C4_6 
REMARK    3  A    between atoms: N2_11  and  C9_12 
REMARK    4  A    between atoms: C11_16  and  C12_17 
REMARK       I    between atoms: N4_22  and  C17_23 
ROOT
HETATM    1  C9  UNL     1       3.201  -1.808   1.079  1.00  0.00     0.727 A 
HETATM    2  N3  UNL     1       3.436  -2.165   2.283  1.00  0.00    -0.079 NA
HETATM    3  C10 UNL     1       2.470  -1.920   3.314  1.00  0.00     0.346 A 
HETATM    4  O2  UNL     1       1.354  -1.257   2.816  1.00  0.00    -0.311 OA
HETATM    5  C11 UNL     1       1.153  -0.898   1.504  1.00  0.00     0.195 A 
HETATM    6  N6  UNL     1       2.058  -1.158   0.604  1.00  0.00    -0.038 NA
ENDROOT
BRANCH   5   7
HETATM    7  C12 UNL     1      -0.080  -0.226   1.146  1.00  0.00     0.017 C 
HETATM    8  C13 UNL     1      -0.089   0.040  -0.179  1.00  0.00     0.018 C 
HETATM    9  C14 UNL     1      -1.081   0.874  -0.908  1.00  0.00     0.027 C 
HETATM   10  C15 UNL     1      -2.075   1.704  -0.518  1.00  0.00     0.023 C 
HETATM   11  C16 UNL     1      -3.027   1.419  -1.666  1.00  0.00     0.182 C 
HETATM   12  N5  UNL     1      -2.262   2.585   0.610  1.00  0.00    -0.384 N 
HETATM   13  N4  UNL     1      -4.275   0.897  -1.077  1.00  0.00    -0.347 N 
HETATM   14  C17 UNL     1      -5.296   0.926  -2.067  1.00  0.00     0.216 C 
HETATM   15  C19 UNL     1      -4.404   0.432   0.307  1.00  0.00     0.128 C 
HETATM   16  C18 UNL     1      -6.707   0.519  -1.987  1.00  0.00     0.117 C 
HETATM   17  O3  UNL     1      -4.828   1.385  -3.137  1.00  0.00    -0.274 OA
HETATM   18  C20 UNL     1      -4.274   1.513   1.317  1.00  0.00     0.049 C 
HETATM   19  C21 UNL     1      -2.860   1.869   1.713  1.00  0.00     0.106 C 
HETATM   20  C22 UNL     1      -2.084   0.772   2.276  1.00  0.00    -0.001 C 
HETATM   21  C23 UNL     1      -0.986  -0.006   2.265  1.00  0.00     0.014 C 
HETATM   22  H24 UNL     1      -2.072   3.617   0.820  1.00  0.00     0.160 HD
ENDBRANCH   5   7
BRANCH   1  23
HETATM   23  N2  UNL     1       4.187  -2.096   0.210  1.00  0.00    -0.176 N 
HETATM   24  C4  UNL     1       5.740  -1.340  -0.493  1.00  0.00     0.275 A 
HETATM   25  C5  UNL     1       5.501  -2.500  -0.967  1.00  0.00    -0.122 A 
HETATM   26  C6  UNL     1       5.306  -3.351  -1.300  1.00  0.00     0.063 A 
HETATM   27  C7  UNL     1       5.037  -4.433  -1.707  1.00  0.00     0.042 A 
HETATM   28  C8  UNL     1       4.141  -3.612  -0.600  1.00  0.00     0.133 A 
BRANCH  24  29
HETATM   29  N1  UNL     1       4.970  -0.220  -1.042  1.00  0.00    -0.326 N 
HETATM   30  C3  UNL     1       4.675   0.944  -0.275  1.00  0.00     0.242 C 
HETATM   31  O1  UNL     1       5.161   0.852   0.885  1.00  0.00    -0.269 OA
HETATM   32  H4  UNL     1       4.662  -0.350  -2.027  1.00  0.00     0.165 HD
BRANCH  30  33
HETATM   33  C2  UNL     1       3.907   2.035  -0.858  1.00  0.00     0.064 C 
HETATM   34  C1  UNL     1       3.442   2.026  -2.095  1.00  0.00     0.017 C 
ENDBRANCH  30  33
ENDBRANCH  24  29
ENDBRANCH   1  23
TORSDOF 4
