REMARK  0 active torsions:
REMARK  status: ('A' for Active; 'I' for Inactive)
REMARK       I    between atoms: C2_2  and  N1_4 
ROOT
HETATM    1  C1  UNL     1       5.565   1.116   0.047  1.00  0.00     0.117 C 
HETATM    2  C2  UNL     1       4.386   0.311  -0.393  1.00  0.00     0.216 C 
HETATM    3  O1  UNL     1       4.760  -0.700  -1.093  1.00  0.00    -0.274 OA
HETATM    4  N1  UNL     1       2.992   0.631  -0.072  1.00  0.00    -0.348 N 
HETATM    5  C3  UNL     1       2.920   1.840   0.751  1.00  0.00     0.130 C 
HETATM    6  C4  UNL     1       2.682   3.042  -0.123  1.00  0.00     0.047 C 
HETATM    7  C5  UNL     1       1.245   3.128  -0.541  1.00  0.00    -0.020 C 
HETATM    8  C6  UNL     1       0.069   2.583  -0.386  1.00  0.00     0.070 C 
HETATM    9  C7  UNL     1      -1.350   2.441  -0.620  1.00  0.00     0.241 C 
HETATM   10  O2  UNL     1      -2.016   3.152  -1.411  1.00  0.00    -0.269 OA
HETATM   11  N2  UNL     1      -2.009   1.419   0.119  1.00  0.00    -0.353 N 
HETATM   12  C8  UNL     1      -3.426   1.213  -0.092  1.00  0.00     0.086 C 
HETATM   13  C9  UNL     1      -4.167   2.201   0.890  1.00  0.00     0.032 C 
HETATM   14  C10 UNL     1      -3.940  -0.120   0.312  1.00  0.00     0.080 C 
HETATM   15  C11 UNL     1      -3.305  -1.294  -0.334  1.00  0.00     0.025 C 
HETATM   16  N3  UNL     1      -2.507  -1.334  -1.331  1.00  0.00    -0.276 NA
HETATM   17  C12 UNL     1      -1.691  -2.508  -1.466  1.00  0.00     0.291 C 
HETATM   18  N4  UNL     1      -1.320  -2.893  -0.123  1.00  0.00    -0.297 N 
HETATM   19  N5  UNL     1      -2.424  -3.363   0.607  1.00  0.00    -0.231 NA
HETATM   20  C13 UNL     1      -3.630  -2.649   0.251  1.00  0.00     0.164 C 
HETATM   21  C14 UNL     1      -0.000  -2.782   0.362  1.00  0.00     0.029 C 
HETATM   22  C15 UNL     1       0.566  -2.737   1.582  1.00  0.00     0.027 C 
HETATM   23  C16 UNL     1       1.751  -1.845   1.508  1.00  0.00     0.007 C 
HETATM   24  C17 UNL     1       1.794  -1.425   0.231  1.00  0.00    -0.056 C 
HETATM   25  C18 UNL     1       1.239  -2.648  -0.486  1.00  0.00     0.094 C 
HETATM   26  C19 UNL     1       2.115  -0.323  -0.682  1.00  0.00     0.160 C 
HETATM   27  H10 UNL     1      -1.544   0.796   0.814  1.00  0.00     0.163 HD
HETATM   28  H19 UNL     1      -2.251  -3.418   1.632  1.00  0.00     0.147 HD
ENDROOT
TORSDOF 0
