REMARK  7 active torsions:
REMARK  status: ('A' for Active; 'I' for Inactive)
REMARK    1  A    between atoms: C2_2  and  C3_3 
REMARK       I    between atoms: C3_3  and  N1_5 
REMARK    2  A    between atoms: N1_5  and  C4_6 
REMARK    3  A    between atoms: C9_11  and  N2_12 
REMARK    4  A    between atoms: N2_12  and  C11_14 
REMARK    5  A    between atoms: C11_14  and  C12_15 
REMARK    6  A    between atoms: C12_15  and  N3_16 
REMARK    7  A    between atoms: C17_23  and  C18_24 
ROOT
HETATM    1  C4  UNL     1      -0.805   1.283   0.964  1.00  0.00     0.064 A 
HETATM    2  C5  UNL     1       0.512   1.426   1.349  1.00  0.00     0.065 A 
HETATM    3  C6  UNL     1       1.449   0.432   0.983  1.00  0.00     0.085 A 
HETATM    4  C7  UNL     1       1.084  -0.687   0.256  1.00  0.00     0.100 A 
HETATM    5  C8  UNL     1      -0.259  -0.720  -0.073  1.00  0.00     0.071 A 
HETATM    6  C9  UNL     1      -1.221   0.216   0.249  1.00  0.00     0.059 A 
HETATM    7  O2  UNL     1       2.094  -1.461   0.049  1.00  0.00    -0.330 OA
HETATM    8  C15 UNL     1       2.842  -2.537   0.389  1.00  0.00     0.293 C 
HETATM    9  N4  UNL     1       3.954  -2.524  -0.569  1.00  0.00    -0.394 N 
HETATM   10  C16 UNL     1       5.305  -2.922  -0.619  1.00  0.00     0.154 C 
HETATM   11  C17 UNL     1       6.238  -1.862  -0.396  1.00  0.00     0.018 C 
HETATM   12  C20 UNL     1       5.464  -0.568  -0.303  1.00  0.00     0.061 A 
HETATM   13  C21 UNL     1       5.750   0.495  -1.173  1.00  0.00     0.048 A 
HETATM   14  C22 UNL     1       5.077   1.695  -1.204  1.00  0.00     0.138 A 
HETATM   15  N5  UNL     1       4.064   1.788  -0.294  1.00  0.00    -0.075 NA
HETATM   16  C23 UNL     1       3.798   0.766   0.529  1.00  0.00     0.727 A 
HETATM   17  N6  UNL     1       4.451  -0.404   0.576  1.00  0.00    -0.067 NA
HETATM   18  N7  UNL     1       2.706   0.891   1.408  1.00  0.00    -0.185 N 
HETATM   19  H22 UNL     1       4.063  -2.268  -1.540  1.00  0.00     0.155 HD
HETATM   20  H29 UNL     1       3.107   1.335   2.237  1.00  0.00     0.184 HD
ENDROOT
BRANCH   6  21
HETATM   21  N2  UNL     1      -2.461  -0.155  -0.343  1.00  0.00    -0.382 N 
HETATM   22  C10 UNL     1      -2.881   0.854  -1.324  1.00  0.00     0.150 C 
BRANCH  21  23
HETATM   23  C11 UNL     1      -3.433  -1.198  -0.361  1.00  0.00     0.152 C 
BRANCH  23  24
HETATM   24  C12 UNL     1      -4.817  -0.855   0.094  1.00  0.00     0.291 C 
BRANCH  24  25
HETATM   25  N3  UNL     1      -5.753  -1.979   0.006  1.00  0.00     0.081 N 
HETATM   26  C13 UNL     1      -6.002  -2.374  -1.393  1.00  0.00     0.309 C 
HETATM   27  C14 UNL     1      -7.046  -1.431   0.463  1.00  0.00     0.309 C 
ENDBRANCH  24  25
ENDBRANCH  23  24
ENDBRANCH  21  23
ENDBRANCH   6  21
BRANCH   1  28
HETATM   28  N1  UNL     1      -1.878   2.186   1.281  1.00  0.00    -0.322 N 
HETATM   29  C3  UNL     1      -1.800   3.363   0.434  1.00  0.00     0.244 C 
HETATM   30  O1  UNL     1      -0.841   3.453  -0.420  1.00  0.00    -0.268 OA
HETATM   31  H4  UNL     1      -2.617   2.037   2.008  1.00  0.00     0.169 HD
BRANCH  29  32
HETATM   32  C2  UNL     1      -2.843   4.413   0.591  1.00  0.00     0.064 C 
HETATM   33  C1  UNL     1      -3.921   4.555   1.334  1.00  0.00     0.017 C 
ENDBRANCH  29  32
ENDBRANCH   1  28
BRANCH  11  34
HETATM   34  C18 UNL     1       7.663  -1.322  -0.261  1.00  0.00    -0.016 C 
HETATM   35  C19 UNL     1       7.963   0.015   0.016  1.00  0.00     0.030 C 
ENDBRANCH  11  34
TORSDOF 7
