REMARK  4 active torsions:
REMARK  status: ('A' for Active; 'I' for Inactive)
REMARK    1  A    between atoms: O1_2  and  C2_3 
REMARK    2  A    between atoms: C4_5  and  N1_6 
REMARK       I    between atoms: N2_9  and  C7_10 
REMARK    3  A    between atoms: C13_17  and  N3_18 
REMARK    4  A    between atoms: N3_18  and  C14_19 
ROOT
HETATM    1  C2  UNL     1      -2.436   0.201   0.259  1.00  0.00     0.096 A 
HETATM    2  C3  UNL     1      -1.305  -0.491   0.471  1.00  0.00     0.068 A 
HETATM    3  C4  UNL     1      -0.193   0.300   0.386  1.00  0.00     0.033 A 
HETATM    4  C11 UNL     1      -0.326   1.665   0.105  1.00  0.00     0.031 A 
HETATM    5  C12 UNL     1      -1.691   2.106  -0.073  1.00  0.00     0.034 A 
HETATM    6  C13 UNL     1      -3.010   1.360  -0.011  1.00  0.00     0.062 A 
ENDROOT
BRANCH   3   7
HETATM    7  N1  UNL     1       0.944  -0.498   0.603  1.00  0.00    -0.378 N 
HETATM    8  C5  UNL     1       1.070  -1.888   0.301  1.00  0.00     0.143 C 
HETATM    9  C6  UNL     1       2.314  -2.196  -0.511  1.00  0.00     0.145 C 
HETATM   10  N2  UNL     1       3.297  -1.146  -0.480  1.00  0.00    -0.349 N 
HETATM   11  C7  UNL     1       4.081  -0.603  -1.529  1.00  0.00     0.215 C 
HETATM   12  C9  UNL     1       3.359  -0.695   0.893  1.00  0.00     0.145 C 
HETATM   13  C8  UNL     1       5.025   0.490  -1.137  1.00  0.00     0.117 C 
HETATM   14  O2  UNL     1       3.940  -1.062  -2.692  1.00  0.00    -0.274 OA
HETATM   15  C10 UNL     1       2.109   0.067   1.198  1.00  0.00     0.143 C 
ENDBRANCH   3   7
BRANCH   1  16
HETATM   16  O1  UNL     1      -3.786  -0.301   0.276  1.00  0.00    -0.354 OA
HETATM   17  C1  UNL     1      -3.964  -1.654   0.543  1.00  0.00     0.210 C 
ENDBRANCH   1  16
BRANCH   6  18
HETATM   18  N3  UNL     1      -3.613   2.578  -0.294  1.00  0.00    -0.378 N 
HETATM   19  H18 UNL     1      -3.584   3.568  -0.484  1.00  0.00     0.160 HD
BRANCH  18  20
HETATM   20  C14 UNL     1      -5.013   2.155  -0.319  1.00  0.00     0.205 C 
HETATM   21 BR1  UNL     1      -6.227   3.645  -0.654  1.00  0.00    -0.075 Br
ENDBRANCH  18  20
ENDBRANCH   6  18
TORSDOF 4
