REMARK  7 active torsions:
REMARK  status: ('A' for Active; 'I' for Inactive)
REMARK    1  A    between atoms: C2_2  and  C3_3 
REMARK       I    between atoms: C3_3  and  N1_5 
REMARK    2  A    between atoms: C6_8  and  O2_9 
REMARK    3  A    between atoms: O2_9  and  C7_10 
REMARK    4  A    between atoms: C8_12  and  N3_13 
REMARK    5  A    between atoms: N3_13  and  C9_14 
REMARK    6  A    between atoms: C10_16  and  C11_17 
REMARK       I    between atoms: C11_17  and  N4_18 
REMARK    7  A    between atoms: C12_21  and  C13_22 
ROOT
HETATM    1  C7  UNL     1      -1.063   0.216  -0.579  1.00  0.00     0.192 A 
HETATM    2  N2  UNL     1      -1.673  -0.497   0.383  1.00  0.00    -0.203 NA
HETATM    3  C8  UNL     1      -3.004  -0.692   0.399  1.00  0.00     0.163 A 
HETATM    4  C10 UNL     1      -3.693  -0.111  -0.637  1.00  0.00     0.170 A 
HETATM    5  N5  UNL     1      -3.107   0.606  -1.611  1.00  0.00    -0.240 NA
HETATM    6  C12 UNL     1      -1.775   0.801  -1.626  1.00  0.00     0.088 A 
ENDROOT
BRANCH   1   7
HETATM    7  O2  UNL     1       0.309   0.428  -0.614  1.00  0.00    -0.326 OA
BRANCH   7   8
HETATM    8  C6  UNL     1       1.145  -0.115   0.388  1.00  0.00     0.150 C 
HETATM    9  C5  UNL     1       1.913   0.992   1.032  1.00  0.00     0.054 C 
HETATM   10  C4  UNL     1       3.199   0.316   1.461  1.00  0.00     0.129 C 
HETATM   11  N1  UNL     1       3.428  -0.730   0.511  1.00  0.00    -0.346 N 
HETATM   12  C3  UNL     1       4.570  -1.476   0.119  1.00  0.00     0.239 C 
HETATM   13  C15 UNL     1       2.168  -1.052  -0.163  1.00  0.00     0.158 C 
HETATM   14  O1  UNL     1       4.649  -2.391  -0.750  1.00  0.00    -0.269 OA
BRANCH  12  15
HETATM   15  C2  UNL     1       5.855  -1.223   0.744  1.00  0.00     0.048 C 
HETATM   16  C1  UNL     1       5.957  -0.298   1.679  1.00  0.00     0.037 C 
ENDBRANCH  12  15
ENDBRANCH   7   8
ENDBRANCH   1   7
BRANCH   6  17
HETATM   17  C13 UNL     1      -1.106   1.584  -2.683  1.00  0.00     0.059 C 
HETATM   18  C14 UNL     1      -0.704   2.958  -2.210  1.00  0.00     0.011 C 
ENDBRANCH   6  17
BRANCH   3  19
HETATM   19  N3  UNL     1      -3.661  -1.434   1.397  1.00  0.00    -0.347 N 
HETATM   20  H9  UNL     1      -4.677  -1.566   1.385  1.00  0.00     0.163 HD
BRANCH  19  21
HETATM   21  C9  UNL     1      -2.839  -2.007   2.449  1.00  0.00     0.346 C 
HETATM   22  F1  UNL     1      -1.929  -2.869   1.847  1.00  0.00    -0.234 F 
ENDBRANCH  19  21
ENDBRANCH   3  19
BRANCH   4  23
HETATM   23  C11 UNL     1      -5.131  -0.219  -0.779  1.00  0.00     0.272 C 
HETATM   24  N4  UNL     1      -5.909   0.354  -1.817  1.00  0.00    -0.365 N 
HETATM   25  H12 UNL     1      -6.491   1.212  -1.875  1.00  0.00     0.159 HD
HETATM   26  H13 UNL     1      -5.922  -0.178  -2.737  1.00  0.00     0.159 HD
HETATM   27  O3  UNL     1      -6.127  -0.725  -0.218  1.00  0.00    -0.266 OA
ENDBRANCH   4  23
TORSDOF 7
