REMARK  6 active torsions:
REMARK  status: ('A' for Active; 'I' for Inactive)
REMARK    1  A    between atoms: C2_2  and  C3_3 
REMARK       I    between atoms: C3_3  and  N1_5 
REMARK    2  A    between atoms: N1_5  and  C4_6 
REMARK    3  A    between atoms: C8_10  and  N2_11 
REMARK    4  A    between atoms: N2_11  and  C9_12 
REMARK    5  A    between atoms: C10_14  and  N4_15 
REMARK    6  A    between atoms: C12_18  and  C13_19 
ROOT
HETATM    1  N2  UNL     1      -1.144  -0.074   0.770  1.00  0.00    -0.340 N 
HETATM    2  H8  UNL     1      -1.154  -0.010   1.807  1.00  0.00     0.167 HD
ENDROOT
BRANCH   1   3
HETATM    3  C8  UNL     1      -0.013  -0.381  -0.013  1.00  0.00     0.035 A 
HETATM    4  C7  UNL     1      -0.156  -0.425  -1.384  1.00  0.00     0.029 A 
HETATM    5  C6  UNL     1       0.974  -0.729  -2.132  1.00  0.00     0.004 A 
HETATM    6  C5  UNL     1       2.192  -0.977  -1.505  1.00  0.00     0.029 A 
HETATM    7  C4  UNL     1       2.270  -0.918  -0.128  1.00  0.00     0.037 A 
HETATM    8  C14 UNL     1       1.162  -0.615   0.672  1.00  0.00     0.059 A 
BRANCH   7   9
HETATM    9  N1  UNL     1       3.498  -1.164   0.566  1.00  0.00    -0.324 N 
HETATM   10  C3  UNL     1       4.246   0.029   0.748  1.00  0.00     0.244 C 
HETATM   11  O1  UNL     1       3.797   1.122   0.315  1.00  0.00    -0.268 OA
HETATM   12  H4  UNL     1       3.967  -2.006   0.966  1.00  0.00     0.169 HD
BRANCH  10  13
HETATM   13  C2  UNL     1       5.535   0.200   1.401  1.00  0.00     0.064 C 
HETATM   14  C1  UNL     1       5.827   1.485   1.325  1.00  0.00     0.017 C 
ENDBRANCH  10  13
ENDBRANCH   7   9
ENDBRANCH   1   3
BRANCH   1  15
HETATM   15  C9  UNL     1      -2.459   0.205   0.376  1.00  0.00     0.164 A 
HETATM   16  N3  UNL     1      -2.708   1.525   0.141  1.00  0.00    -0.044 NA
HETATM   17  C10 UNL     1      -3.931   1.922  -0.242  1.00  0.00     0.721 A 
HETATM   18  N5  UNL     1      -4.909   0.994  -0.390  1.00  0.00    -0.075 NA
HETATM   19  C11 UNL     1      -4.684  -0.308  -0.163  1.00  0.00     0.156 A 
HETATM   20  C12 UNL     1      -3.441  -0.754   0.232  1.00  0.00     0.112 A 
BRANCH  17  21
HETATM   21  N4  UNL     1      -4.352   3.243  -0.525  1.00  0.00    -0.231 N 
HETATM   22  H9  UNL     1      -5.209   3.709  -0.124  1.00  0.00     0.174 HD
HETATM   23  H10 UNL     1      -3.909   3.975  -1.157  1.00  0.00     0.174 HD
ENDBRANCH  17  21
BRANCH  20  24
HETATM   24  C13 UNL     1      -3.114  -2.178   0.502  1.00  0.00     0.422 C 
HETATM   25  F1  UNL     1      -2.697  -2.302   1.809  1.00  0.00    -0.166 F 
HETATM   26  F2  UNL     1      -4.321  -2.873   0.348  1.00  0.00    -0.166 F 
HETATM   27  F3  UNL     1      -2.232  -2.659  -0.421  1.00  0.00    -0.166 F 
ENDBRANCH  20  24
ENDBRANCH   1  15
TORSDOF 6
