REMARK  7 active torsions:
REMARK  status: ('A' for Active; 'I' for Inactive)
REMARK    1  A    between atoms: O1_2  and  C2_3 
REMARK    2  A    between atoms: C4_5  and  N1_6 
REMARK       I    between atoms: N2_9  and  C7_10 
REMARK    3  A    between atoms: C13_17  and  N3_18 
REMARK    4  A    between atoms: N3_18  and  C14_19 
REMARK    5  A    between atoms: C16_22  and  C17_23 
REMARK    6  A    between atoms: C18_27  and  P1_28 
REMARK    7  A    between atoms: P1_28  and  N5_29 
ROOT
HETATM    1  C2  UNL     1       0.465  -1.335  -0.952  1.00  0.00     0.097 A 
HETATM    2  C3  UNL     1      -0.900  -1.159  -0.986  1.00  0.00     0.068 A 
HETATM    3  C4  UNL     1      -1.510   0.006  -0.583  1.00  0.00     0.033 A 
HETATM    4  C11 UNL     1      -0.693   1.017  -0.133  1.00  0.00     0.032 A 
HETATM    5  C12 UNL     1       0.672   0.819  -0.108  1.00  0.00     0.035 A 
HETATM    6  C13 UNL     1       1.322  -0.329  -0.501  1.00  0.00     0.082 A 
ENDROOT
BRANCH   6   7
HETATM    7  N3  UNL     1       2.724  -0.531  -0.475  1.00  0.00    -0.185 N 
HETATM    8  H18 UNL     1       3.051  -1.480  -0.816  1.00  0.00     0.184 HD
BRANCH   7   9
HETATM    9  C14 UNL     1       3.727   0.374  -0.052  1.00  0.00     0.727 A 
HETATM   10  N4  UNL     1       3.561   1.606   0.411  1.00  0.00    -0.074 NA
HETATM   11  C15 UNL     1       4.521   2.434   0.801  1.00  0.00     0.155 A 
HETATM   12  C16 UNL     1       5.807   1.995   0.728  1.00  0.00     0.097 A 
HETATM   13  C18 UNL     1       6.058   0.727   0.257  1.00  0.00     0.108 A 
HETATM   14  N6  UNL     1       4.999  -0.002  -0.102  1.00  0.00    -0.060 NA
BRANCH  12  15
HETATM   15  C17 UNL     1       6.956   2.834   1.136  1.00  0.00     0.421 C 
HETATM   16  F1  UNL     1       7.617   2.178   2.155  1.00  0.00    -0.166 F 
HETATM   17  F2  UNL     1       7.801   2.887   0.021  1.00  0.00    -0.166 F 
HETATM   18  F3  UNL     1       6.550   4.099   1.514  1.00  0.00    -0.166 F 
ENDBRANCH  12  15
BRANCH  13  19
HETATM   19  P1  UNL     1       7.756   0.011   0.107  1.00  0.00    -0.003 P 
HETATM   20  H20 UNL     1       8.035   0.008  -1.338  1.00  0.00     0.080 HD
BRANCH  19  21
HETATM   21  N5  UNL     1       7.629  -1.737   0.553  1.00  0.00    -0.307 NA
HETATM   22  H21 UNL     1       6.881  -1.894   1.276  1.00  0.00     0.123 HD
HETATM   23  H22 UNL     1       7.357  -2.328  -0.270  1.00  0.00     0.123 HD
ENDBRANCH  19  21
ENDBRANCH  13  19
ENDBRANCH   7   9
ENDBRANCH   6   7
BRANCH   1  24
HETATM   24  O1  UNL     1       1.036  -2.531  -1.370  1.00  0.00    -0.354 OA
HETATM   25  C1  UNL     1       0.250  -3.611  -1.844  1.00  0.00     0.210 C 
ENDBRANCH   1  24
BRANCH   3  26
HETATM   26  N1  UNL     1      -2.914   0.146  -0.634  1.00  0.00    -0.378 N 
HETATM   27  C5  UNL     1      -3.868  -0.813  -1.092  1.00  0.00     0.143 C 
HETATM   28  C6  UNL     1      -4.683  -1.301   0.111  1.00  0.00     0.145 C 
HETATM   29  N2  UNL     1      -5.452  -0.152   0.551  1.00  0.00    -0.349 N 
HETATM   30  C7  UNL     1      -6.866  -0.287   0.495  1.00  0.00     0.215 C 
HETATM   31  C9  UNL     1      -4.550   0.907   0.960  1.00  0.00     0.145 C 
HETATM   32  C8  UNL     1      -7.798   0.784   0.904  1.00  0.00     0.117 C 
HETATM   33  O2  UNL     1      -7.137  -1.439   0.052  1.00  0.00    -0.274 OA
HETATM   34  C10 UNL     1      -3.698   1.273  -0.238  1.00  0.00     0.143 C 
ENDBRANCH   3  26
TORSDOF 7
