REMARK  8 active torsions:
REMARK  status: ('A' for Active; 'I' for Inactive)
REMARK    1  A    between atoms: N1_2  and  C2_3 
REMARK    2  A    between atoms: C2_3  and  C3_4 
REMARK    3  A    between atoms: C3_4  and  N2_5 
REMARK    4  A    between atoms: N2_5  and  C4_6 
REMARK    5  A    between atoms: C7_9  and  N3_10 
REMARK    6  A    between atoms: N3_10  and  C8_11 
REMARK    7  A    between atoms: C11_16  and  C12_17 
REMARK    8  A    between atoms: C13_21  and  O1_22 
ROOT
HETATM    1  C4  UNL     1       1.481   1.039   0.715  1.00  0.00     0.030 A 
HETATM    2  C5  UNL     1       1.122  -0.111   1.377  1.00  0.00     0.031 A 
HETATM    3  C6  UNL     1      -0.160  -0.578   1.558  1.00  0.00     0.035 A 
HETATM    4  C7  UNL     1      -1.201   0.161   1.035  1.00  0.00     0.067 A 
HETATM    5  C13 UNL     1      -0.902   1.326   0.360  1.00  0.00     0.097 A 
HETATM    6  C15 UNL     1       0.402   1.734   0.216  1.00  0.00     0.068 A 
ENDROOT
BRANCH   4   7
HETATM    7  N3  UNL     1      -2.560  -0.211   1.153  1.00  0.00    -0.338 N 
HETATM    8  H12 UNL     1      -2.745  -0.247   2.186  1.00  0.00     0.167 HD
BRANCH   7   9
HETATM    9  C8  UNL     1      -3.547  -0.497   0.174  1.00  0.00     0.146 A 
HETATM   10  N4  UNL     1      -4.289   0.558  -0.267  1.00  0.00    -0.224 NA
HETATM   11  C9  UNL     1      -5.249   0.397  -1.192  1.00  0.00     0.234 A 
HETATM   12  N5  UNL     1      -5.522  -0.804  -1.723  1.00  0.00    -0.253 NA
HETATM   13  C10 UNL     1      -4.829  -1.869  -1.330  1.00  0.00     0.138 A 
HETATM   14  C11 UNL     1      -3.831  -1.727  -0.374  1.00  0.00     0.111 A 
BRANCH  14  15
HETATM   15  C12 UNL     1      -3.035  -2.865   0.098  1.00  0.00     0.422 C 
HETATM   16  F1  UNL     1      -3.478  -4.009  -0.577  1.00  0.00    -0.166 F 
HETATM   17  F2  UNL     1      -3.255  -3.063   1.441  1.00  0.00    -0.166 F 
HETATM   18  F3  UNL     1      -1.697  -2.749  -0.219  1.00  0.00    -0.166 F 
ENDBRANCH  14  15
ENDBRANCH   7   9
ENDBRANCH   4   7
BRANCH   5  19
HETATM   19  O1  UNL     1      -1.936   2.083  -0.173  1.00  0.00    -0.354 OA
HETATM   20  C14 UNL     1      -1.643   3.280  -0.868  1.00  0.00     0.210 C 
ENDBRANCH   5  19
BRANCH   1  21
HETATM   21  N2  UNL     1       2.809   1.493   0.532  1.00  0.00    -0.388 N 
HETATM   22  H9  UNL     1       2.887   2.426   0.022  1.00  0.00     0.159 HD
BRANCH  21  23
HETATM   23  C3  UNL     1       4.021   0.832   0.955  1.00  0.00     0.150 C 
BRANCH  23  24
HETATM   24  C2  UNL     1       4.308  -0.439   0.223  1.00  0.00     0.288 C 
BRANCH  24  25
HETATM   25  N1  UNL     1       4.441  -0.111  -1.202  1.00  0.00     0.080 N 
HETATM   26  C1  UNL     1       4.720  -1.362  -1.900  1.00  0.00     0.306 C 
HETATM   27  H4  UNL     1       5.184   0.595  -1.369  1.00  0.00     0.315 HD
ENDBRANCH  24  25
ENDBRANCH  23  24
ENDBRANCH  21  23
ENDBRANCH   1  21
TORSDOF 8
