REMARK  1 active torsions:
REMARK  status: ('A' for Active; 'I' for Inactive)
REMARK    1  A    between atoms: O1_2  and  C2_3 
REMARK       I    between atoms: N3_17  and  C14_18 
ROOT
HETATM    1  C2  UNL     1      -2.651  -0.429  -0.099  1.00  0.00     0.097 A 
HETATM    2  C3  UNL     1      -1.595  -1.294  -0.142  1.00  0.00     0.068 A 
HETATM    3  C4  UNL     1      -0.530  -1.318  -1.054  1.00  0.00     0.032 A 
HETATM    4  C5  UNL     1      -0.609  -0.335  -2.003  1.00  0.00     0.031 A 
HETATM    5  C6  UNL     1      -1.639   0.559  -2.011  1.00  0.00     0.035 A 
HETATM    6  C7  UNL     1      -2.689   0.566  -1.082  1.00  0.00     0.067 A 
HETATM    7  N1  UNL     1      -3.620   1.670  -1.163  1.00  0.00    -0.349 N 
HETATM    8  C8  UNL     1      -2.675   2.227  -0.179  1.00  0.00     0.207 C 
HETATM    9  N2  UNL     1      -1.614   2.803  -0.623  1.00  0.00    -0.256 NA
HETATM   10  C9  UNL     1      -0.640   3.354   0.247  1.00  0.00     0.114 C 
HETATM   11  C10 UNL     1       0.587   2.933  -0.175  1.00  0.00    -0.007 C 
HETATM   12  C11 UNL     1       2.051   2.658  -0.365  1.00  0.00     0.030 C 
HETATM   13  C12 UNL     1       2.325   1.174  -0.487  1.00  0.00     0.024 C 
HETATM   14  C13 UNL     1       2.024   0.472   0.786  1.00  0.00     0.128 C 
HETATM   15  N3  UNL     1       1.978  -0.998   0.643  1.00  0.00    -0.336 N 
HETATM   16  C14 UNL     1       3.324  -1.526   0.613  1.00  0.00     0.217 C 
HETATM   17  C15 UNL     1       3.669  -2.968   0.476  1.00  0.00     0.117 C 
HETATM   18  O2  UNL     1       4.213  -0.662   0.713  1.00  0.00    -0.274 OA
HETATM   19  C16 UNL     1       0.948  -2.008   0.576  1.00  0.00     0.249 C 
HETATM   20  N4  UNL     1       0.411  -2.349  -0.691  1.00  0.00    -0.373 N 
HETATM   21  H7  UNL     1      -4.498   1.927  -1.661  1.00  0.00     0.167 HD
HETATM   22  H22 UNL     1       0.688  -3.215  -1.225  1.00  0.00     0.161 HD
ENDROOT
BRANCH   1  23
HETATM   23  O1  UNL     1      -3.718  -0.329   0.735  1.00  0.00    -0.354 OA
HETATM   24  C1  UNL     1      -4.042  -1.126   1.833  1.00  0.00     0.210 C 
ENDBRANCH   1  23
TORSDOF 1
