REMARK  3 active torsions:
REMARK  status: ('A' for Active; 'I' for Inactive)
REMARK    1  A    between atoms: C2_3  and  N1_4 
REMARK    2  A    between atoms: N1_4  and  C3_5 
REMARK    3  A    between atoms: C6_9  and  C7_10 
ROOT
HETATM    1  B1  UNL     1       6.320  -0.536   1.199  1.00  0.00     0.191 B 
HETATM    2  C1  UNL     1       5.623  -0.820  -0.384  1.00  0.00    -0.242 C 
HETATM    3  C2  UNL     1       5.056  -1.075  -1.700  1.00  0.00     0.201 C 
ENDROOT
BRANCH   3   4
HETATM    4  N1  UNL     1       3.638  -1.407  -1.499  1.00  0.00    -0.214 N 
HETATM    5  H3  UNL     1       3.193  -2.307  -1.777  1.00  0.00     0.178 HD
BRANCH   4   6
HETATM    6  C3  UNL     1       2.875  -0.381  -0.873  1.00  0.00     0.723 A 
HETATM    7  N2  UNL     1       3.456   0.778  -0.516  1.00  0.00    -0.075 NA
HETATM    8  C4  UNL     1       2.716   1.759   0.084  1.00  0.00     0.139 A 
HETATM    9  C5  UNL     1       1.393   1.439   0.268  1.00  0.00     0.053 A 
HETATM   10  C6  UNL     1       0.737   0.293  -0.066  1.00  0.00     0.089 A 
HETATM   11  N4  UNL     1       1.572  -0.580  -0.643  1.00  0.00    -0.062 NA
BRANCH  10  12
HETATM   12  C7  UNL     1      -0.627  -0.094   0.113  1.00  0.00     0.021 A 
HETATM   13  C8  UNL     1      -1.048  -1.393  -0.192  1.00  0.00     0.105 A 
HETATM   14  N3  UNL     1      -2.355  -1.533   0.042  1.00  0.00    -0.359 N 
HETATM   15  C9  UNL     1      -3.186  -2.710  -0.139  1.00  0.00     0.156 C 
HETATM   16  C10 UNL     1      -2.876  -0.407   0.493  1.00  0.00     0.045 A 
HETATM   17  C11 UNL     1      -4.124   0.030   0.885  1.00  0.00     0.030 A 
HETATM   18  C15 UNL     1      -1.807   0.459   0.530  1.00  0.00     0.005 A 
HETATM   19  C12 UNL     1      -4.355   1.310   1.316  1.00  0.00     0.002 A 
HETATM   20  C13 UNL     1      -3.260   2.180   1.348  1.00  0.00     0.001 A 
HETATM   21  C14 UNL     1      -2.017   1.744   0.958  1.00  0.00     0.014 A 
ENDBRANCH  10  12
ENDBRANCH   4   6
ENDBRANCH   3   4
TORSDOF 3
