REMARK  3 active torsions:
REMARK  status: ('A' for Active; 'I' for Inactive)
REMARK    1  A    between atoms: C3_3  and  N1_4 
REMARK    2  A    between atoms: N1_4  and  C4_5 
REMARK    3  A    between atoms: C7_9  and  C8_10 
ROOT
HETATM    1  C1  UNL     1       3.387   1.408   1.467  1.00  0.00     0.014 C 
HETATM    2  C2  UNL     1       3.725   1.128   0.340  1.00  0.00    -0.097 C 
HETATM    3  C3  UNL     1       4.155   0.791  -1.039  1.00  0.00     0.231 C 
ENDROOT
BRANCH   3   4
HETATM    4  N1  UNL     1       4.112  -0.667  -1.096  1.00  0.00    -0.212 N 
HETATM    5  H4  UNL     1       4.969  -1.250  -1.306  1.00  0.00     0.178 HD
BRANCH   4   6
HETATM    6  C4  UNL     1       2.894  -1.395  -0.867  1.00  0.00     0.723 A 
HETATM    7  N2  UNL     1       2.837  -2.738  -0.916  1.00  0.00    -0.075 NA
HETATM    8  C5  UNL     1       1.656  -3.391  -0.692  1.00  0.00     0.139 A 
HETATM    9  C6  UNL     1       0.600  -2.553  -0.427  1.00  0.00     0.053 A 
HETATM   10  C7  UNL     1       0.574  -1.193  -0.359  1.00  0.00     0.089 A 
HETATM   11  N4  UNL     1       1.792  -0.685  -0.598  1.00  0.00    -0.062 NA
BRANCH  10  12
HETATM   12  C8  UNL     1      -0.507  -0.285  -0.100  1.00  0.00     0.021 A 
HETATM   13  C9  UNL     1      -0.307   1.096  -0.230  1.00  0.00     0.105 A 
HETATM   14  N3  UNL     1      -1.444   1.744   0.067  1.00  0.00    -0.359 N 
HETATM   15  C10 UNL     1      -1.675   3.195   0.058  1.00  0.00     0.156 C 
HETATM   16  C11 UNL     1      -2.419   0.893   0.396  1.00  0.00     0.045 A 
HETATM   17  C12 UNL     1      -3.738   0.984   0.780  1.00  0.00     0.030 A 
HETATM   18  C16 UNL     1      -1.814  -0.323   0.283  1.00  0.00     0.005 A 
HETATM   19  C13 UNL     1      -4.506  -0.115   1.067  1.00  0.00     0.002 A 
HETATM   20  C14 UNL     1      -3.877  -1.336   0.948  1.00  0.00     0.001 A 
HETATM   21  C15 UNL     1      -2.561  -1.438   0.565  1.00  0.00     0.014 A 
ENDBRANCH  10  12
ENDBRANCH   4   6
ENDBRANCH   3   4
TORSDOF 3
