REMARK  1 active torsions:
REMARK  status: ('A' for Active; 'I' for Inactive)
REMARK       I    between atoms: C2_2  and  N1_4 
REMARK    1  A    between atoms: N2_7  and  C5_8 
ROOT
HETATM    1  C5  UNL     1      -0.162   0.330  -0.663  1.00  0.00     0.234 C 
HETATM    2  C6  UNL     1      -0.504  -0.787  -1.607  1.00  0.00     0.061 C 
HETATM    3  C7  UNL     1      -1.212   0.146  -2.488  1.00  0.00     0.091 C 
HETATM    4  N3  UNL     1      -2.737   0.015  -2.323  1.00  0.00    -0.370 N 
HETATM    5  C8  UNL     1      -2.959   0.760  -0.982  1.00  0.00     0.297 A 
HETATM    6  C9  UNL     1      -2.666   1.606   0.248  1.00  0.00     0.073 A 
HETATM    7  C10 UNL     1      -2.681   0.947  -0.826  1.00  0.00     0.248 A 
HETATM    8  N4  UNL     1      -3.985   0.570  -0.742  1.00  0.00     0.086 N 
HETATM    9  C11 UNL     1      -4.943   0.840   0.215  1.00  0.00     0.371 A 
HETATM   10  N5  UNL     1      -4.298   0.398  -0.856  1.00  0.00    -0.042 NA
HETATM   11  C12 UNL     1      -1.145   1.190  -1.242  1.00  0.00     0.090 C 
HETATM   12  H12 UNL     1      -3.436  -0.403  -2.883  1.00  0.00     0.157 HD
ENDROOT
BRANCH   1  13
HETATM   13  N2  UNL     1      -0.270  -0.101   0.729  1.00  0.00     0.096 N 
HETATM   14  C4  UNL     1       0.311   0.825   1.639  1.00  0.00     0.292 C 
HETATM   15  C3  UNL     1       1.792   1.091   1.399  1.00  0.00     0.156 C 
HETATM   16  N1  UNL     1       2.439  -0.196   1.254  1.00  0.00    -0.349 N 
HETATM   17  C2  UNL     1       3.754  -0.195   0.716  1.00  0.00     0.215 C 
HETATM   18  C14 UNL     1       1.626  -1.324   1.691  1.00  0.00     0.156 C 
HETATM   19  C1  UNL     1       4.566  -1.427   0.497  1.00  0.00     0.117 C 
HETATM   20  O1  UNL     1       4.012   1.038   0.496  1.00  0.00    -0.274 OA
HETATM   21  C13 UNL     1       0.335  -1.389   0.900  1.00  0.00     0.292 C 
ENDBRANCH   1  13
TORSDOF 1
