REMARK  3 active torsions:
REMARK  status: ('A' for Active; 'I' for Inactive)
REMARK       I    between atoms: C2_2  and  N1_4 
REMARK    1  A    between atoms: N2_7  and  C5_8 
REMARK    2  A    between atoms: C12_16  and  C13_17 
REMARK    3  A    between atoms: C18_25  and  N6_26 
ROOT
HETATM    1  C5  UNL     1       1.046   0.057   0.312  1.00  0.00     0.259 A 
HETATM    2  C6  UNL     1       1.040   1.158   1.385  1.00  0.00     0.078 A 
HETATM    3  C7  UNL     1      -0.216   0.565   0.806  1.00  0.00     0.100 A 
HETATM    4  N3  UNL     1      -1.125  -0.202   1.674  1.00  0.00    -0.399 N 
HETATM    5  C8  UNL     1      -2.147   0.625   2.252  1.00  0.00     0.157 C 
HETATM    6  C9  UNL     1      -3.195   1.158   1.538  1.00  0.00     0.029 C 
HETATM    7  C10 UNL     1      -4.066   1.445   0.335  1.00  0.00    -0.019 C 
HETATM    8  C11 UNL     1      -3.439   0.796  -0.620  1.00  0.00    -0.021 C 
HETATM    9  C12 UNL     1      -2.322  -0.084  -1.063  1.00  0.00     0.038 C 
HETATM   10  C15 UNL     1      -1.223   0.948  -1.495  1.00  0.00     0.070 C 
HETATM   11  C16 UNL     1      -0.987   1.533  -0.049  1.00  0.00     0.044 C 
HETATM   12  N4  UNL     1      -1.609   2.638   0.154  1.00  0.00    -0.248 NA
HETATM   13  C17 UNL     1      -1.659   3.186   1.485  1.00  0.00     0.229 C 
HETATM   14  N5  UNL     1      -2.310   3.122   2.640  1.00  0.00    -0.257 NA
HETATM   15  C18 UNL     1      -3.424   2.144   2.668  1.00  0.00     0.210 C 
HETATM   16  H11 UNL     1      -0.839  -1.209   1.705  1.00  0.00     0.154 HD
ENDROOT
BRANCH   1  17
HETATM   17  N2  UNL     1       1.672  -1.144   0.757  1.00  0.00     0.099 N 
HETATM   18  C4  UNL     1       1.678  -2.185  -0.260  1.00  0.00     0.293 C 
HETATM   19  C3  UNL     1       2.661  -1.930  -1.364  1.00  0.00     0.156 C 
HETATM   20  N1  UNL     1       3.959  -1.720  -0.783  1.00  0.00    -0.349 N 
HETATM   21  C2  UNL     1       5.144  -1.466  -1.553  1.00  0.00     0.215 C 
HETATM   22  C20 UNL     1       4.041  -1.777   0.662  1.00  0.00     0.156 C 
HETATM   23  C1  UNL     1       5.088  -1.413  -3.027  1.00  0.00     0.117 C 
HETATM   24  O1  UNL     1       6.254  -1.286  -0.950  1.00  0.00    -0.274 OA
HETATM   25  C19 UNL     1       2.995  -0.836   1.231  1.00  0.00     0.293 C 
ENDBRANCH   1  17
BRANCH   9  26
HETATM   26  C13 UNL     1      -2.715  -0.858  -2.269  1.00  0.00     0.011 C 
HETATM   27  C14 UNL     1      -3.745  -1.132  -3.036  1.00  0.00     0.185 C 
HETATM   28  F1  UNL     1      -5.037  -0.664  -2.891  1.00  0.00    -0.220 F 
ENDBRANCH   9  26
BRANCH  15  29
HETATM   29  N6  UNL     1      -3.604   1.583   3.950  1.00  0.00    -0.409 N 
HETATM   30  H22 UNL     1      -4.519   1.157   4.136  1.00  0.00     0.152 HD
HETATM   31  H23 UNL     1      -3.218   2.155   4.728  1.00  0.00     0.152 HD
ENDBRANCH  15  29
TORSDOF 3
