REMARK  5 active torsions:
REMARK  status: ('A' for Active; 'I' for Inactive)
REMARK    1  A    between atoms: C4_5  and  C5_6 
REMARK    2  A    between atoms: C11_14  and  N3_15 
REMARK    3  A    between atoms: C18_24  and  O1_25 
REMARK    4  A    between atoms: O1_25  and  C19_26 
REMARK    5  A    between atoms: C19_26  and  C20_27 
ROOT
HETATM    1  C5  UNL     1      -0.505   1.013  -0.313  1.00  0.00     0.006 C 
HETATM    2  B1  UNL     1       0.488   0.084  -1.065  1.00  0.00     0.223 B 
HETATM    3  C6  UNL     1      -0.520   0.238  -2.241  1.00  0.00    -0.020 C 
HETATM    4  C7  UNL     1      -1.649   0.551  -1.277  1.00  0.00     0.079 C 
HETATM    5  N2  UNL     1      -2.228  -0.650  -0.709  1.00  0.00    -0.337 N 
HETATM    6  C8  UNL     1      -2.195  -1.733  -1.485  1.00  0.00     0.105 A 
HETATM    7  C9  UNL     1      -2.627  -2.701  -0.566  1.00  0.00    -0.003 A 
HETATM    8  C10 UNL     1      -2.906  -2.179   0.674  1.00  0.00     0.067 A 
HETATM    9  C11 UNL     1      -3.354  -2.771   1.830  1.00  0.00     0.137 A 
HETATM   10  N4  UNL     1      -3.525  -1.938   2.887  1.00  0.00    -0.224 NA
HETATM   11  C12 UNL     1      -3.262  -0.612   2.775  1.00  0.00     0.237 A 
HETATM   12  N5  UNL     1      -2.817  -0.051   1.612  1.00  0.00    -0.223 NA
HETATM   13  C13 UNL     1      -2.635  -0.828   0.551  1.00  0.00     0.146 A 
HETATM   14  C14 UNL     1      -2.574  -4.077  -1.103  1.00  0.00     0.013 C 
HETATM   15  C15 UNL     1      -1.275  -4.319  -1.417  1.00  0.00    -0.003 C 
HETATM   16  C16 UNL     1      -0.019  -3.561  -1.335  1.00  0.00    -0.020 C 
HETATM   17  C17 UNL     1       0.735  -2.488  -1.033  1.00  0.00     0.037 C 
HETATM   18  C18 UNL     1       1.265  -1.169  -0.586  1.00  0.00     0.087 C 
ENDROOT
BRANCH  18  19
HETATM   19  O1  UNL     1       1.546  -1.170   0.739  1.00  0.00    -0.390 OA
BRANCH  19  20
HETATM   20  C19 UNL     1       2.876  -1.094   1.074  1.00  0.00     0.205 C 
BRANCH  20  21
HETATM   21  C20 UNL     1       3.582   0.122   0.620  1.00  0.00    -0.035 A 
HETATM   22  C21 UNL     1       3.453   1.238   1.457  1.00  0.00     0.009 A 
HETATM   23  C22 UNL     1       4.037   2.462   1.236  1.00  0.00     0.001 A 
HETATM   24  C23 UNL     1       4.812   2.629   0.114  1.00  0.00     0.000 A 
HETATM   25  C24 UNL     1       4.963   1.557  -0.732  1.00  0.00     0.001 A 
HETATM   26  C25 UNL     1       4.368   0.347  -0.485  1.00  0.00     0.009 A 
ENDBRANCH  20  21
ENDBRANCH  19  20
ENDBRANCH  18  19
BRANCH   1  27
HETATM   27  C4  UNL     1      -0.248   2.462  -0.543  1.00  0.00     0.223 C 
HETATM   28  C2  UNL     1      -1.182   3.420   0.165  1.00  0.00     0.042 C 
HETATM   29  C1  UNL     1      -1.573   3.071   1.563  1.00  0.00     0.014 C 
HETATM   30  C3  UNL     1       0.073   4.295   0.206  1.00  0.00     0.276 C 
HETATM   31  N1  UNL     1       0.832   3.044   0.217  1.00  0.00     0.088 N 
HETATM   32  H7  UNL     1       1.715   3.103  -0.375  1.00  0.00     0.316 HD
ENDBRANCH   1  27
BRANCH   9  33
HETATM   33  N3  UNL     1      -3.620  -4.179   1.902  1.00  0.00    -0.383 N 
HETATM   34  H14 UNL     1      -4.222  -4.453   1.090  1.00  0.00     0.157 HD
HETATM   35  H15 UNL     1      -3.202  -4.701   2.702  1.00  0.00     0.157 HD
ENDBRANCH   9  33
TORSDOF 5
