REMARK  6 active torsions:
REMARK  status: ('A' for Active; 'I' for Inactive)
REMARK    1  A    between atoms: N1_2  and  C3_4 
REMARK    2  A    between atoms: C3_4  and  N2_5 
REMARK    3  A    between atoms: N2_5  and  C4_6 
REMARK    4  A    between atoms: C5_7  and  O1_8 
REMARK    5  A    between atoms: C7_12  and  N5_13 
REMARK    6  A    between atoms: N5_13  and  C8_14 
ROOT
HETATM    1  C4  UNL     1      -0.406  -1.249   0.115  1.00  0.00     0.129 A 
HETATM    2  C5  UNL     1      -0.834  -2.517   0.374  1.00  0.00     0.194 A 
HETATM    3  N3  UNL     1       0.013  -3.522   0.612  1.00  0.00    -0.216 NA
HETATM    4  C6  UNL     1       1.337  -3.254   0.592  1.00  0.00     0.238 A 
HETATM    5  N4  UNL     1       1.743  -2.007   0.337  1.00  0.00    -0.222 NA
HETATM    6  C7  UNL     1       0.939  -0.966   0.092  1.00  0.00     0.160 A 
ENDROOT
BRANCH   6   7
HETATM    7  N5  UNL     1       1.440   0.331  -0.171  1.00  0.00    -0.339 N 
HETATM    8  H12 UNL     1       0.728   1.055  -0.343  1.00  0.00     0.167 HD
BRANCH   7   9
HETATM    9  C8  UNL     1       2.780   0.784  -0.232  1.00  0.00     0.035 A 
HETATM   10  C9  UNL     1       3.905   0.015  -0.047  1.00  0.00     0.032 A 
HETATM   11  C10 UNL     1       5.200   0.460  -0.107  1.00  0.00     0.046 A 
HETATM   12  C11 UNL     1       5.395   1.795  -0.376  1.00  0.00     0.138 A 
HETATM   13  F1  UNL     1       6.644   2.305  -0.451  1.00  0.00    -0.204 F 
HETATM   14  C12 UNL     1       4.318   2.628  -0.573  1.00  0.00     0.074 A 
HETATM   15 CL1  UNL     1       4.581   4.311  -0.912  1.00  0.00    -0.081 Cl
HETATM   16  C13 UNL     1       3.070   2.104  -0.496  1.00  0.00     0.056 A 
ENDBRANCH   7   9
ENDBRANCH   6   7
BRANCH   1  17
HETATM   17  N2  UNL     1      -1.391  -0.234  -0.128  1.00  0.00    -0.358 N 
HETATM   18  H9  UNL     1      -1.223   0.752  -0.335  1.00  0.00     0.161 HD
BRANCH  17  19
HETATM   19  C3  UNL     1      -2.787  -0.509  -0.106  1.00  0.00     0.394 C 
BRANCH  19  20
HETATM   20  N1  UNL     1      -3.654   0.616  -0.374  1.00  0.00     0.097 NA
HETATM   21  C1  UNL     1      -3.497   1.690   0.568  1.00  0.00     0.311 C 
HETATM   22  C2  UNL     1      -5.051   0.227  -0.365  1.00  0.00     0.311 C 
ENDBRANCH  19  20
ENDBRANCH  17  19
ENDBRANCH   1  17
BRANCH   2  23
HETATM   23  O1  UNL     1      -2.140  -2.928   0.426  1.00  0.00    -0.343 OA
HETATM   24  H10 UNL     1      -2.471  -3.686  -0.191  1.00  0.00     0.219 HD
ENDBRANCH   2  23
TORSDOF 6
