REMARK  5 active torsions:
REMARK  status: ('A' for Active; 'I' for Inactive)
REMARK       I    between atoms: C2_2  and  N1_4 
REMARK    1  A    between atoms: C7_10  and  N3_11 
REMARK    2  A    between atoms: C10_14  and  C11_15 
REMARK    3  A    between atoms: C15_19  and  O2_20 
REMARK    4  A    between atoms: O2_20  and  C16_21 
REMARK    5  A    between atoms: C16_21  and  C17_22 
ROOT
HETATM    1  N3  UNL     1      -1.854  -0.674   1.968  1.00  0.00    -0.267 NA
HETATM    2  C8  UNL     1      -0.922  -0.442   2.165  1.00  0.00     0.016 A 
HETATM    3  C9  UNL     1      -0.075  -0.242   2.330  1.00  0.00    -0.021 A 
HETATM    4  C10 UNL     1       0.904  -0.023   2.503  1.00  0.00     0.058 A 
HETATM    5  C22 UNL     1      -0.287  -0.672   1.601  1.00  0.00     0.134 A 
ENDROOT
BRANCH   4   6
HETATM    6  C11 UNL     1       2.111  -0.293   1.771  1.00  0.00     0.000 A 
HETATM    7  C12 UNL     1       2.756  -1.463   2.101  1.00  0.00     0.012 A 
HETATM    8  C13 UNL     1       3.912  -1.825   1.464  1.00  0.00     0.003 A 
HETATM    9  C14 UNL     1       4.379  -0.968   0.499  1.00  0.00     0.040 A 
HETATM   10  C15 UNL     1       3.830   0.215   0.088  1.00  0.00     0.107 A 
HETATM   11  C21 UNL     1       2.640   0.536   0.780  1.00  0.00     0.157 A 
HETATM   12  F1  UNL     1       1.852   1.646   0.604  1.00  0.00    -0.203 F 
BRANCH  10  13
HETATM   13  O2  UNL     1       4.073   1.194  -0.792  1.00  0.00    -0.345 OA
BRANCH  13  14
HETATM   14  C16 UNL     1       5.066   1.405  -1.686  1.00  0.00     0.207 C 
BRANCH  14  15
HETATM   15  C17 UNL     1       6.464   1.612  -1.210  1.00  0.00     0.145 C 
HETATM   16  C18 UNL     1       6.478   2.865  -0.354  1.00  0.00     0.036 C 
HETATM   17  C19 UNL     1       6.534   2.309   1.035  1.00  0.00     0.029 C 
HETATM   18  C20 UNL     1       7.218   0.952   0.823  1.00  0.00     0.168 C 
HETATM   19  O3  UNL     1       7.056   0.639  -0.492  1.00  0.00    -0.384 OA
ENDBRANCH  14  15
ENDBRANCH  13  14
ENDBRANCH  10  13
ENDBRANCH   4   6
BRANCH   1  20
HETATM   20  C7  UNL     1      -2.557  -1.406   0.971  1.00  0.00     0.067 C 
HETATM   21  C6  UNL     1      -3.714  -2.095   1.679  1.00  0.00     0.050 C 
HETATM   22  C5  UNL     1      -4.988  -1.345   1.532  1.00  0.00     0.274 C 
HETATM   23  N2  UNL     1      -5.690  -1.655   0.303  1.00  0.00     0.092 N 
HETATM   24  C4  UNL     1      -6.408  -0.474  -0.121  1.00  0.00     0.292 C 
HETATM   25  C25 UNL     1      -4.845  -2.094  -0.763  1.00  0.00     0.297 C 
HETATM   26  C3  UNL     1      -6.100  -0.029  -1.512  1.00  0.00     0.156 C 
HETATM   27  N1  UNL     1      -4.690   0.013  -1.813  1.00  0.00    -0.344 N 
HETATM   28  C2  UNL     1      -4.296   1.030  -2.687  1.00  0.00     0.216 C 
HETATM   29  C24 UNL     1      -3.869  -1.022  -1.158  1.00  0.00     0.117 C 
HETATM   30  C1  UNL     1      -3.033   1.477  -3.284  1.00  0.00     0.117 C 
HETATM   31  O1  UNL     1      -5.309   1.723  -3.035  1.00  0.00    -0.274 OA
HETATM   32  C23 UNL     1      -3.031  -0.467  -0.078  1.00  0.00     0.047 C 
ENDBRANCH   1  20
TORSDOF 5
