REMARK  5 active torsions:
REMARK  status: ('A' for Active; 'I' for Inactive)
REMARK    1  A    between atoms: N1_1  and  C1_2 
REMARK    2  A    between atoms: C5_8  and  C6_9 
REMARK    3  A    between atoms: N4_22  and  C18_23 
REMARK    4  A    between atoms: C20_25  and  C21_26 
REMARK    5  A    between atoms: C21_26  and  N5_27 
ROOT
HETATM    1  C1  UNL     1      -1.957  -2.970   0.733  1.00  0.00     0.117 A 
HETATM    2  N2  UNL     1      -1.629  -4.223   1.089  1.00  0.00    -0.229 NA
HETATM    3  C2  UNL     1      -0.350  -4.687   1.046  1.00  0.00     0.237 A 
HETATM    4  N3  UNL     1       0.621  -3.819   0.620  1.00  0.00    -0.223 NA
HETATM    5  C3  UNL     1       0.314  -2.572   0.262  1.00  0.00     0.145 A 
HETATM    6  C4  UNL     1      -0.962  -2.113   0.303  1.00  0.00     0.062 A 
HETATM    7  C5  UNL     1      -1.132  -0.806  -0.062  1.00  0.00     0.007 A 
HETATM    8  C17 UNL     1       0.204  -0.461  -0.343  1.00  0.00     0.106 A 
HETATM    9  N4  UNL     1       1.024  -1.506  -0.146  1.00  0.00    -0.335 N 
ENDROOT
BRANCH   7  10
HETATM   10  C6  UNL     1      -2.234   0.093  -0.357  1.00  0.00    -0.027 C 
HETATM   11  C7  UNL     1      -1.890   1.375  -0.109  1.00  0.00    -0.013 C 
HETATM   12  C8  UNL     1      -2.803   2.567  -0.318  1.00  0.00     0.005 C 
HETATM   13  C9  UNL     1      -4.000   3.110  -0.692  1.00  0.00     0.062 C 
HETATM   14  C10 UNL     1      -5.264   2.477  -1.208  1.00  0.00    -0.056 C 
HETATM   15  C11 UNL     1      -6.188   1.788  -0.488  1.00  0.00    -0.010 C 
HETATM   16  C14 UNL     1      -5.894   2.397  -2.558  1.00  0.00     0.004 C 
HETATM   17  C12 UNL     1      -6.775   0.771  -1.383  1.00  0.00     0.042 C 
HETATM   18  C13 UNL     1      -7.063   1.717  -2.546  1.00  0.00    -0.017 C 
HETATM   19  O1  UNL     1      -5.911  -0.268  -1.772  1.00  0.00     0.000 OA
HETATM   20  C15 UNL     1      -4.649  -0.469  -1.318  1.00  0.00     0.001 C 
HETATM   21  C16 UNL     1      -3.528  -0.258  -0.878  1.00  0.00     0.012 C 
ENDBRANCH   7  10
BRANCH   1  22
HETATM   22  N1  UNL     1      -3.334  -2.700   0.926  1.00  0.00    -0.286 NA
HETATM   23  H1  UNL     1      -3.966  -2.089   1.487  1.00  0.00     0.125 HD
HETATM   24  H2  UNL     1      -3.325  -1.941   1.669  1.00  0.00     0.125 HD
ENDBRANCH   1  22
BRANCH   9  25
HETATM   25  C18 UNL     1       2.486  -1.613  -0.296  1.00  0.00     0.092 C 
HETATM   26  C19 UNL     1       3.201  -1.496   1.029  1.00  0.00     0.032 C 
HETATM   27  C20 UNL     1       4.207  -0.588   0.343  1.00  0.00     0.018 C 
HETATM   28  C25 UNL     1       3.183  -0.381  -0.755  1.00  0.00     0.032 C 
BRANCH  27  29
HETATM   29  C21 UNL     1       4.521   0.660   1.143  1.00  0.00     0.277 C 
BRANCH  29  30
HETATM   30  N5  UNL     1       5.487   1.438   0.409  1.00  0.00     0.088 N 
HETATM   31  C22 UNL     1       6.812   0.862   0.282  1.00  0.00     0.274 C 
HETATM   32  C23 UNL     1       7.159   1.457   1.628  1.00  0.00     0.060 C 
HETATM   33  C24 UNL     1       6.086   2.457   1.291  1.00  0.00     0.274 C 
ENDBRANCH  29  30
ENDBRANCH  27  29
ENDBRANCH   9  25
TORSDOF 5
