REMARK  4 active torsions:
REMARK  status: ('A' for Active; 'I' for Inactive)
REMARK    1  A    between atoms: C3_3  and  C4_4 
REMARK    2  A    between atoms: C7_7  and  C8_8 
REMARK       I    between atoms: C8_8  and  N1_10 
REMARK    3  A    between atoms: N1_10  and  C9_11 
REMARK    4  A    between atoms: C13_15  and  C14_16 
ROOT
HETATM    1  C8  UNL     1       0.457   0.999   0.148  1.00  0.00     0.272 C 
HETATM    2  O1  UNL     1       1.517   1.687   0.330  1.00  0.00    -0.266 OA
HETATM    3  N1  UNL     1       0.729  -0.404   0.143  1.00  0.00    -0.322 N 
HETATM    4  H8  UNL     1      -0.065  -1.069   0.002  1.00  0.00     0.169 HD
ENDROOT
BRANCH   1   5
HETATM    5  C7  UNL     1      -0.888   1.559  -0.036  1.00  0.00     0.097 C 
HETATM    6  C6  UNL     1      -2.042   0.932  -0.230  1.00  0.00     0.043 C 
HETATM    7  C5  UNL     1      -3.069   1.963  -0.351  1.00  0.00    -0.038 C 
HETATM    8  C4  UNL     1      -4.375   1.796  -0.209  1.00  0.00     0.008 C 
HETATM    9  C17 UNL     1      -2.381   3.245  -0.664  1.00  0.00     0.158 C 
HETATM   10  N2  UNL     1      -1.088   2.969  -0.019  1.00  0.00    -0.381 N 
HETATM   11  H16 UNL     1      -0.509   3.778   0.348  1.00  0.00     0.160 HD
BRANCH   8  12
HETATM   12  C3  UNL     1      -4.902   0.470   0.100  1.00  0.00    -0.004 C 
HETATM   13  C2  UNL     1      -6.207   0.285   0.245  1.00  0.00    -0.031 C 
HETATM   14  C1  UNL     1      -6.836  -1.028   0.559  1.00  0.00     0.036 C 
ENDBRANCH   8  12
ENDBRANCH   1   5
BRANCH   3  15
HETATM   15  C9  UNL     1       2.145  -0.589   0.350  1.00  0.00     0.035 A 
HETATM   16  C10 UNL     1       2.499  -0.701   1.679  1.00  0.00     0.029 A 
HETATM   17  C11 UNL     1       3.838  -0.883   2.011  1.00  0.00     0.003 A 
HETATM   18  C12 UNL     1       4.756  -0.943   0.982  1.00  0.00     0.015 A 
HETATM   19  C13 UNL     1       4.397  -0.831  -0.342  1.00  0.00     0.011 A 
HETATM   20  C16 UNL     1       3.069  -0.650  -0.675  1.00  0.00     0.044 A 
BRANCH  19  21
HETATM   21  C14 UNL     1       5.361  -0.893  -1.444  1.00  0.00     0.155 C 
HETATM   22  C15 UNL     1       6.808  -1.081  -1.259  1.00  0.00     0.096 C 
HETATM   23  O2  UNL     1       5.004  -0.786  -2.665  1.00  0.00    -0.293 OA
ENDBRANCH  19  21
ENDBRANCH   3  15
TORSDOF 4
