REMARK  5 active torsions:
REMARK  status: ('A' for Active; 'I' for Inactive)
REMARK    1  A    between atoms: C6_6  and  C7_7 
REMARK    2  A    between atoms: C7_7  and  O1_9 
REMARK    3  A    between atoms: C7_7  and  C9_12 
REMARK    4  A    between atoms: O1_9  and  O2_10 
REMARK    5  A    between atoms: O2_10  and  N1_11 
ROOT
HETATM    1  C7  UNL     1       0.048   0.934  -0.339  1.00  0.00     0.149 C 
HETATM    2  C8  UNL     1      -0.232   1.875  -1.508  1.00  0.00     0.060 C 
ENDROOT
BRANCH   1   3
HETATM    3  C6  UNL     1      -1.060  -0.040  -0.310  1.00  0.00    -0.016 A 
HETATM    4  C5  UNL     1      -1.134  -1.027  -1.260  1.00  0.00     0.011 A 
HETATM    5  C4  UNL     1      -2.209  -1.915  -1.175  1.00  0.00     0.001 A 
HETATM    6  C3  UNL     1      -3.168  -1.806  -0.164  1.00  0.00     0.007 A 
HETATM    7  C2  UNL     1      -3.094  -0.826   0.780  1.00  0.00    -0.061 A 
HETATM    8  C1  UNL     1      -4.075  -0.654   1.875  1.00  0.00     0.048 C 
HETATM    9  C17 UNL     1      -2.026   0.037   0.673  1.00  0.00     0.017 A 
ENDBRANCH   1   3
BRANCH   1  10
HETATM   10  O1  UNL     1       0.024   1.745   0.799  1.00  0.00    -0.202 OA
BRANCH  10  11
HETATM   11  O2  UNL     1       1.008   2.586   0.740  1.00  0.00    -0.143 OA
BRANCH  11  12
HETATM   12  N1  UNL     1       0.619   3.873   0.588  1.00  0.00    -0.182 NA
HETATM   13  H10 UNL     1      -0.386   3.986   0.384  1.00  0.00     0.153 HD
HETATM   14  H11 UNL     1       1.257   4.366  -0.051  1.00  0.00     0.153 HD
ENDBRANCH  11  12
ENDBRANCH  10  11
ENDBRANCH   1  10
BRANCH   1  15
HETATM   15  C9  UNL     1       1.379   0.342  -0.569  1.00  0.00    -0.005 A 
HETATM   16  C10 UNL     1       2.259   0.564  -1.559  1.00  0.00     0.012 A 
HETATM   17  C11 UNL     1       3.461  -0.245  -1.390  1.00  0.00     0.013 A 
HETATM   18  C12 UNL     1       3.338  -0.971  -0.301  1.00  0.00    -0.025 A 
HETATM   19  C13 UNL     1       3.925  -1.971   0.609  1.00  0.00     0.012 A 
HETATM   20  C16 UNL     1       2.033  -0.653   0.282  1.00  0.00    -0.016 A 
HETATM   21  C14 UNL     1       3.073  -2.198   1.583  1.00  0.00     0.002 A 
HETATM   22  C15 UNL     1       1.881  -1.369   1.380  1.00  0.00     0.013 A 
ENDBRANCH   1  15
TORSDOF 5
