REMARK  2 active torsions:
REMARK  status: ('A' for Active; 'I' for Inactive)
REMARK    1  A    between atoms: C2_2  and  S1_4 
REMARK    2  A    between atoms: N1_14  and  C11_15 
ROOT
HETATM    1  S1  UNL     1       0.504   0.991  -0.856  1.00  0.00    -0.029 SA
HETATM    2  C3  UNL     1       2.136   1.243  -0.650  1.00  0.00     0.072 C 
HETATM    3  C4  UNL     1       3.102   0.193  -0.227  1.00  0.00    -0.036 A 
HETATM    4  C5  UNL     1       4.243   0.423   0.459  1.00  0.00     0.008 A 
HETATM    5  C6  UNL     1       4.829  -0.908   0.631  1.00  0.00    -0.002 A 
HETATM    6  C7  UNL     1       4.066  -1.859   0.071  1.00  0.00    -0.010 A 
HETATM    7  C8  UNL     1       2.892  -1.255  -0.538  1.00  0.00     0.113 A 
HETATM    8  C9  UNL     1       1.581  -1.771  -0.216  1.00  0.00     0.157 C 
HETATM    9  O2  UNL     1       1.816  -2.958   0.073  1.00  0.00    -0.295 OA
HETATM   10  C10 UNL     1       0.112  -1.733  -0.021  1.00  0.00     0.216 C 
HETATM   11  N1  UNL     1      -0.447  -0.378  -0.174  1.00  0.00    -0.314 N 
ENDROOT
BRANCH  11  12
HETATM   12  C11 UNL     1      -1.788  -0.189   0.232  1.00  0.00     0.041 A 
HETATM   13  C12 UNL     1      -2.464   0.966   0.516  1.00  0.00     0.030 A 
HETATM   14  C13 UNL     1      -3.779   1.044   0.889  1.00  0.00     0.002 A 
HETATM   15  C14 UNL     1      -4.518  -0.100   1.003  1.00  0.00     0.000 A 
HETATM   16  C15 UNL     1      -3.872  -1.306   0.724  1.00  0.00     0.002 A 
HETATM   17  C16 UNL     1      -2.547  -1.337   0.351  1.00  0.00     0.030 A 
ENDBRANCH  11  12
BRANCH   1  18
HETATM   18  C2  UNL     1      -0.400   2.424  -1.365  1.00  0.00     0.195 C 
HETATM   19  C1  UNL     1      -1.423   2.363  -2.432  1.00  0.00     0.105 C 
HETATM   20  O1  UNL     1      -0.340   3.596  -0.962  1.00  0.00    -0.285 OA
ENDBRANCH   1  18
TORSDOF 2
