REMARK  6 active torsions:
REMARK  status: ('A' for Active; 'I' for Inactive)
REMARK    1  A    between atoms: C2_2  and  N1_3 
REMARK    2  A    between atoms: C2_2  and  C9_11 
REMARK    3  A    between atoms: N1_3  and  C3_4 
REMARK    4  A    between atoms: C3_4  and  C4_5 
REMARK       I    between atoms: C9_11  and  N2_13 
REMARK    5  A    between atoms: N2_13  and  C10_14 
REMARK    6  A    between atoms: C14_18  and  C15_19 
ROOT
HETATM    1  C9  UNL     1      -0.295  -0.628  -0.124  1.00  0.00     0.271 C 
HETATM    2  O1  UNL     1      -0.807   0.273   0.581  1.00  0.00    -0.266 OA
HETATM    3  N2  UNL     1       1.101  -0.668  -0.280  1.00  0.00    -0.322 N 
HETATM    4  H9  UNL     1       1.450  -1.447  -0.880  1.00  0.00     0.169 HD
ENDROOT
BRANCH   1   5
HETATM    5  C2  UNL     1      -1.114  -1.606  -0.765  1.00  0.00     0.088 C 
HETATM    6  C1  UNL     1      -0.583  -2.570  -1.516  1.00  0.00     0.048 C 
BRANCH   5   7
HETATM    7  N1  UNL     1      -2.543  -1.719  -0.733  1.00  0.00    -0.375 N 
HETATM    8  H3  UNL     1      -2.443  -2.155   0.233  1.00  0.00     0.160 HD
BRANCH   7   9
HETATM    9  C3  UNL     1      -3.782  -1.463  -1.476  1.00  0.00     0.149 C 
BRANCH   9  10
HETATM   10  C4  UNL     1      -4.404  -0.712  -0.570  1.00  0.00     0.007 A 
HETATM   11  C5  UNL     1      -5.698  -0.382  -1.213  1.00  0.00     0.017 A 
HETATM   12  C6  UNL     1      -6.650   0.347  -0.661  1.00  0.00     0.002 A 
HETATM   13  C7  UNL     1      -6.542   0.917   0.653  1.00  0.00     0.007 A 
HETATM   14  C8  UNL     1      -5.547   0.842   1.523  1.00  0.00     0.050 A 
HETATM   15  S1  UNL     1      -4.064  -0.102   1.060  1.00  0.00    -0.104 SA
ENDBRANCH   9  10
ENDBRANCH   7   9
ENDBRANCH   5   7
ENDBRANCH   1   5
BRANCH   3  16
HETATM   16  C10 UNL     1       2.072   0.199   0.264  1.00  0.00     0.035 A 
HETATM   17  C11 UNL     1       1.870   1.293   1.068  1.00  0.00     0.029 A 
HETATM   18  C12 UNL     1       2.840   2.117   1.588  1.00  0.00     0.003 A 
HETATM   19  C13 UNL     1       4.149   1.823   1.276  1.00  0.00     0.015 A 
HETATM   20  C14 UNL     1       4.431   0.748   0.479  1.00  0.00     0.011 A 
HETATM   21  C17 UNL     1       3.402  -0.029  -0.002  1.00  0.00     0.044 A 
BRANCH  20  22
HETATM   22  C15 UNL     1       5.807   0.397   0.123  1.00  0.00     0.155 C 
HETATM   23  C16 UNL     1       6.967   1.181   0.609  1.00  0.00     0.096 C 
HETATM   24  O2  UNL     1       6.054  -0.597  -0.619  1.00  0.00    -0.293 OA
ENDBRANCH  20  22
ENDBRANCH   3  16
TORSDOF 6
