REMARK  3 active torsions:
REMARK  status: ('A' for Active; 'I' for Inactive)
REMARK    1  A    between atoms: C2_2  and  C3_3 
REMARK       I    between atoms: C3_3  and  N1_5 
REMARK    2  A    between atoms: N1_5  and  C4_6 
REMARK    3  A    between atoms: C4_6  and  C5_7 
ROOT
HETATM    1  C5  UNL     1       0.436  -0.330  -0.176  1.00  0.00     0.050 C 
HETATM    2  C6  UNL     1       0.932   1.035   0.058  1.00  0.00     0.001 C 
HETATM    3  C7  UNL     1       2.139   1.556  -0.256  1.00  0.00     0.014 C 
HETATM    4  C8  UNL     1       0.008   2.025   0.667  1.00  0.00     0.187 C 
HETATM    5  O2  UNL     1      -1.178   2.226  -0.052  1.00  0.00    -0.344 OA
HETATM    6  C9  UNL     1      -2.154   3.123   0.438  1.00  0.00     0.252 C 
HETATM    7  N2  UNL     1      -2.988   2.546   1.214  1.00  0.00    -0.231 NA
HETATM    8  C10 UNL     1      -2.992   1.178   1.581  1.00  0.00     0.230 C 
HETATM    9  N3  UNL     1      -3.555   0.902   0.472  1.00  0.00    -0.263 NA
HETATM   10  C11 UNL     1      -3.899  -0.423   0.112  1.00  0.00     0.272 C 
HETATM   11  N4  UNL     1      -2.796  -1.262  -0.303  1.00  0.00    -0.371 N 
HETATM   12  C12 UNL     1      -1.883  -0.878  -1.327  1.00  0.00     0.037 A 
HETATM   13  C13 UNL     1      -2.478  -0.923  -2.569  1.00  0.00     0.056 A 
HETATM   14  C14 UNL     1      -1.887  -0.593  -3.796  1.00  0.00     0.074 A 
HETATM   15 CL1  UNL     1      -2.756  -0.692  -5.308  1.00  0.00    -0.081 Cl
HETATM   16  C15 UNL     1      -0.578  -0.190  -3.712  1.00  0.00     0.138 A 
HETATM   17  F1  UNL     1      -0.007   0.128  -4.893  1.00  0.00    -0.204 F 
HETATM   18  C16 UNL     1       0.043  -0.141  -2.457  1.00  0.00     0.054 A 
HETATM   19  C17 UNL     1      -0.558  -0.470  -1.263  1.00  0.00    -0.022 A 
HETATM   20  H16 UNL     1      -2.254  -2.136  -0.244  1.00  0.00     0.161 HD
ENDROOT
BRANCH   1  21
HETATM   21  C4  UNL     1       1.532  -1.360  -0.285  1.00  0.00     0.133 C 
BRANCH  21  22
HETATM   22  N1  UNL     1       2.340  -1.548   0.870  1.00  0.00    -0.357 N 
HETATM   23  C3  UNL     1       3.234  -1.220   1.897  1.00  0.00     0.240 C 
HETATM   24  O1  UNL     1       3.656  -0.045   1.897  1.00  0.00    -0.269 OA
HETATM   25  H4  UNL     1       2.197  -2.580   1.176  1.00  0.00     0.162 HD
BRANCH  23  26
HETATM   26  C2  UNL     1       3.819  -1.933   3.011  1.00  0.00     0.064 C 
HETATM   27  C1  UNL     1       4.520  -0.898   3.444  1.00  0.00     0.017 C 
ENDBRANCH  23  26
ENDBRANCH  21  22
ENDBRANCH   1  21
TORSDOF 3
