REMARK  6 active torsions:
REMARK  status: ('A' for Active; 'I' for Inactive)
REMARK    1  A    between atoms: C2_2  and  C3_3 
REMARK    2  A    between atoms: C3_3  and  C4_4 
REMARK    3  A    between atoms: C4_4  and  C5_5 
REMARK    4  A    between atoms: C8_8  and  C9_9 
REMARK       I    between atoms: C9_9  and  N1_11 
REMARK    5  A    between atoms: N1_11  and  C10_12 
REMARK    6  A    between atoms: C13_15  and  C14_16 
ROOT
HETATM    1  C9  UNL     1      -0.242  -1.044  -0.672  1.00  0.00     0.272 C 
HETATM    2  O1  UNL     1      -0.190  -1.884  -1.600  1.00  0.00    -0.266 OA
HETATM    3  N1  UNL     1       0.910  -0.659   0.050  1.00  0.00    -0.321 N 
HETATM    4  H8  UNL     1       0.776   0.040   0.799  1.00  0.00     0.169 HD
ENDROOT
BRANCH   1   5
HETATM    5  C8  UNL     1      -1.551  -0.452  -0.338  1.00  0.00     0.097 A 
HETATM    6  C7  UNL     1      -2.697  -0.731  -0.938  1.00  0.00     0.014 A 
HETATM    7  C6  UNL     1      -3.837   0.045  -0.356  1.00  0.00     0.086 A 
HETATM    8  C5  UNL     1      -3.165   0.835   0.697  1.00  0.00     0.013 A 
HETATM    9  N2  UNL     1      -1.779   0.518   0.691  1.00  0.00    -0.355 N 
HETATM   10  H14 UNL     1      -1.077   0.949   1.350  1.00  0.00     0.166 HD
BRANCH   8  11
HETATM   11  C4  UNL     1      -3.818   1.696   1.495  1.00  0.00     0.033 C 
BRANCH  11  12
HETATM   12  C3  UNL     1      -5.230   1.868   1.332  1.00  0.00     0.052 C 
BRANCH  12  13
HETATM   13  C2  UNL     1      -5.950   2.337   2.339  1.00  0.00    -0.155 C 
HETATM   14  C1  UNL     1      -6.456   2.897   3.428  1.00  0.00     0.096 C 
ENDBRANCH  12  13
ENDBRANCH  11  12
ENDBRANCH   8  11
ENDBRANCH   1   5
BRANCH   3  15
HETATM   15  C10 UNL     1       2.197  -1.197  -0.229  1.00  0.00     0.047 C 
HETATM   16  C11 UNL     1       2.355  -2.077  -1.176  1.00  0.00     0.016 C 
HETATM   17  C12 UNL     1       3.496  -2.329  -1.700  1.00  0.00     0.003 C 
HETATM   18  C13 UNL     1       4.503  -1.591  -1.325  1.00  0.00     0.021 C 
HETATM   19  C16 UNL     1       4.532  -0.961  -0.019  1.00  0.00     0.018 C 
HETATM   20  C17 UNL     1       3.342  -0.752   0.558  1.00  0.00     0.031 C 
BRANCH  18  21
HETATM   21  C14 UNL     1       5.608  -1.412  -2.253  1.00  0.00     0.156 C 
HETATM   22  C15 UNL     1       6.777  -0.578  -1.864  1.00  0.00     0.097 C 
HETATM   23  O2  UNL     1       5.624  -1.944  -3.403  1.00  0.00    -0.293 OA
ENDBRANCH  18  21
ENDBRANCH   3  15
TORSDOF 6
