REMARK  1 active torsions:
REMARK  status: ('A' for Active; 'I' for Inactive)
REMARK    1  A    between atoms: C2_2  and  C3_4 
ROOT
HETATM    1  C3  UNL     1       2.381   0.177  -0.306  1.00  0.00     0.018 A 
HETATM    2  C4  UNL     1       3.324  -0.747  -0.660  1.00  0.00     0.016 A 
HETATM    3  C5  UNL     1       3.122  -2.102  -0.646  1.00  0.00     0.003 A 
HETATM    4  C6  UNL     1       1.917  -2.585  -0.260  1.00  0.00     0.030 A 
HETATM    5  C7  UNL     1       0.917  -1.715   0.111  1.00  0.00     0.042 A 
HETATM    6  C8  UNL     1       1.174  -0.360   0.078  1.00  0.00    -0.015 A 
HETATM    7  C9  UNL     1       0.334   0.786   0.404  1.00  0.00     0.081 C 
HETATM    8  C10 UNL     1      -1.069   0.454   0.801  1.00  0.00     0.250 C 
HETATM    9  C11 UNL     1      -1.812   1.678   1.208  1.00  0.00     0.005 C 
HETATM   10  C12 UNL     1      -3.044   2.122   0.912  1.00  0.00    -0.027 C 
HETATM   11  C13 UNL     1      -3.798   1.189  -0.008  1.00  0.00     0.057 C 
HETATM   12  C14 UNL     1      -2.733   0.618  -0.921  1.00  0.00     0.277 C 
HETATM   13  N1  UNL     1      -1.825  -0.221  -0.203  1.00  0.00     0.105 N 
HETATM   14  C15 UNL     1      -2.548  -1.371   0.301  1.00  0.00     0.375 C 
HETATM   15  C16 UNL     1      -1.534  -2.405   0.631  1.00  0.00     0.250 C 
HETATM   16  O2  UNL     1      -2.078  -3.370   1.272  1.00  0.00    -0.271 OA
HETATM   17  N2  UNL     1      -0.140  -2.613   0.432  1.00  0.00    -0.325 N 
HETATM   18  H18 UNL     1       0.167  -3.624   0.543  1.00  0.00     0.169 HD
ENDROOT
BRANCH   1  19
HETATM   19  C2  UNL     1       2.715   1.592  -0.359  1.00  0.00     0.156 C 
HETATM   20  C1  UNL     1       4.084   1.949  -0.804  1.00  0.00     0.097 C 
HETATM   21  O1  UNL     1       2.092   2.646  -0.104  1.00  0.00    -0.293 OA
ENDBRANCH   1  19
TORSDOF 1
