REMARK  4 active torsions:
REMARK  status: ('A' for Active; 'I' for Inactive)
REMARK    1  A    between atoms: C2_2  and  C3_3 
REMARK       I    between atoms: C3_3  and  N1_5 
REMARK    2  A    between atoms: N1_5  and  C4_6 
REMARK    3  A    between atoms: C12_15  and  N3_16 
REMARK    4  A    between atoms: N3_16  and  C13_17 
ROOT
HETATM    1  C4  UNL     1       3.785  -0.540  -0.172  1.00  0.00     0.035 A 
HETATM    2  C5  UNL     1       3.651  -1.768   0.433  1.00  0.00     0.032 A 
HETATM    3  C6  UNL     1       2.450  -2.332   0.807  1.00  0.00     0.040 A 
HETATM    4  C7  UNL     1       1.283  -1.654   0.576  1.00  0.00     0.086 A 
HETATM    5  C8  UNL     1       1.368  -0.417  -0.030  1.00  0.00    -0.004 A 
HETATM    6  C9  UNL     1       2.595   0.106  -0.385  1.00  0.00     0.041 A 
HETATM    7  C10 UNL     1       0.317   0.541  -0.403  1.00  0.00     0.161 C 
HETATM    8  N2  UNL     1      -1.003   0.015  -0.503  1.00  0.00    -0.379 N 
HETATM    9  C11 UNL     1      -1.721  -0.921   0.302  1.00  0.00     0.128 A 
HETATM   10  C12 UNL     1      -3.060  -0.625   0.322  1.00  0.00     0.156 A 
HETATM   11  N4  UNL     1      -3.831  -1.450   1.046  1.00  0.00    -0.222 NA
HETATM   12  C18 UNL     1      -3.281  -2.488   1.694  1.00  0.00     0.238 A 
HETATM   13  N5  UNL     1      -1.973  -2.799   1.690  1.00  0.00    -0.215 NA
HETATM   14  C19 UNL     1      -1.152  -2.005   0.979  1.00  0.00     0.202 A 
HETATM   15  O2  UNL     1       0.200  -2.396   1.026  1.00  0.00    -0.289 OA
HETATM   16  H10 UNL     1      -1.615   0.343  -1.308  1.00  0.00     0.160 HD
ENDROOT
BRANCH  10  17
HETATM   17  N3  UNL     1      -3.642   0.484  -0.355  1.00  0.00    -0.362 N 
HETATM   18  H11 UNL     1      -3.264   1.249  -0.941  1.00  0.00     0.162 HD
BRANCH  17  19
HETATM   19  C13 UNL     1      -5.081   0.636  -0.230  1.00  0.00     0.131 A 
HETATM   20  C14 UNL     1      -5.461   0.799   1.217  1.00  0.00     0.004 A 
HETATM   21  C15 UNL     1      -6.095   1.953   1.374  1.00  0.00     0.022 A 
HETATM   22  C16 UNL     1      -6.202   2.656   0.102  1.00  0.00     0.032 A 
HETATM   23 CL1  UNL     1      -6.942   4.205  -0.232  1.00  0.00    -0.085 Cl
HETATM   24  C17 UNL     1      -5.607   1.873  -0.811  1.00  0.00     0.026 A 
ENDBRANCH  17  19
ENDBRANCH  10  17
BRANCH   1  25
HETATM   25  N1  UNL     1       4.997   0.073  -0.567  1.00  0.00    -0.324 N 
HETATM   26  C3  UNL     1       6.310  -0.391  -0.439  1.00  0.00     0.244 C 
HETATM   27  O1  UNL     1       6.525  -1.492   0.084  1.00  0.00    -0.268 OA
HETATM   28  H4  UNL     1       4.950   1.012  -1.025  1.00  0.00     0.169 HD
BRANCH  26  29
HETATM   29  C2  UNL     1       7.474   0.355  -0.894  1.00  0.00     0.064 C 
HETATM   30  C1  UNL     1       7.343   1.539  -1.467  1.00  0.00     0.017 C 
ENDBRANCH  26  29
ENDBRANCH   1  25
TORSDOF 4
