REMARK  6 active torsions:
REMARK  status: ('A' for Active; 'I' for Inactive)
REMARK    1  A    between atoms: N1_2  and  C2_3 
REMARK    2  A    between atoms: C8_9  and  O1_10 
REMARK    3  A    between atoms: C8_9  and  N2_11 
REMARK    4  A    between atoms: N2_11  and  C9_12 
REMARK    5  A    between atoms: C13_16  and  C14_17 
REMARK    6  A    between atoms: C14_17  and  C15_19 
ROOT
HETATM    1  C9  UNL     1      -0.341   1.411  -0.809  1.00  0.00     0.035 A 
HETATM    2  C10 UNL     1      -0.050   2.429   0.046  1.00  0.00     0.029 A 
HETATM    3  C11 UNL     1       1.242   2.748   0.401  1.00  0.00     0.003 A 
HETATM    4  C12 UNL     1       2.264   1.988  -0.147  1.00  0.00     0.015 A 
HETATM    5  C13 UNL     1       1.992   0.955  -1.013  1.00  0.00     0.017 A 
HETATM    6  C21 UNL     1       0.694   0.644  -1.362  1.00  0.00     0.045 A 
ENDROOT
BRANCH   1   7
HETATM    7  N2  UNL     1      -1.623   0.939  -1.259  1.00  0.00    -0.337 N 
HETATM    8  H11 UNL     1      -1.742   1.666  -2.028  1.00  0.00     0.168 HD
BRANCH   7   9
HETATM    9  C8  UNL     1      -2.551  -0.084  -0.942  1.00  0.00     0.149 C 
HETATM   10  C7  UNL     1      -3.031  -0.356   0.241  1.00  0.00     0.022 A 
HETATM   11  C2  UNL     1      -3.980  -1.400   0.570  1.00  0.00     0.038 A 
HETATM   12  C6  UNL     1      -2.533   0.526   1.356  1.00  0.00     0.072 A 
HETATM   13  C3  UNL     1      -4.513  -1.632   1.751  1.00  0.00     0.029 A 
HETATM   14  C4  UNL     1      -4.116  -0.793   2.899  1.00  0.00    -0.001 A 
HETATM   15  C5  UNL     1      -3.239   0.121   2.597  1.00  0.00    -0.022 A 
BRANCH  11  16
HETATM   16  N1  UNL     1      -4.325  -2.182  -0.573  1.00  0.00    -0.394 N 
HETATM   17  C1  UNL     1      -5.528  -1.737  -1.260  1.00  0.00     0.146 C 
HETATM   18  H4  UNL     1      -3.637  -2.939  -0.701  1.00  0.00     0.159 HD
ENDBRANCH  11  16
BRANCH   9  19
HETATM   19  O1  UNL     1      -2.885  -0.778  -2.124  1.00  0.00    -0.346 OA
HETATM   20  H10 UNL     1      -2.115  -1.236  -2.590  1.00  0.00     0.219 HD
ENDBRANCH   9  19
ENDBRANCH   7   9
ENDBRANCH   1   7
BRANCH   5  21
HETATM   21  C14 UNL     1       3.093   0.183  -1.515  1.00  0.00     0.192 C 
HETATM   22  O2  UNL     1       2.950  -0.404  -2.643  1.00  0.00    -0.287 OA
BRANCH  21  23
HETATM   23  C15 UNL     1       4.392  -0.062  -0.943  1.00  0.00     0.015 A 
HETATM   24  C16 UNL     1       4.487   0.052   0.438  1.00  0.00     0.015 A 
HETATM   25  C17 UNL     1       5.691  -0.149   1.103  1.00  0.00     0.001 A 
HETATM   26  C18 UNL     1       6.853  -0.474   0.424  1.00  0.00     0.000 A 
HETATM   27  C19 UNL     1       6.732  -0.584  -0.967  1.00  0.00     0.001 A 
HETATM   28  C20 UNL     1       5.536  -0.385  -1.639  1.00  0.00     0.015 A 
ENDBRANCH  21  23
ENDBRANCH   5  21
TORSDOF 6
