REMARK  4 active torsions:
REMARK  status: ('A' for Active; 'I' for Inactive)
REMARK       I    between atoms: C1_2  and  N1_3 
REMARK    1  A    between atoms: C1_2  and  C15_18 
REMARK    2  A    between atoms: N1_3  and  C2_4 
REMARK    3  A    between atoms: C6_8  and  C7_9 
REMARK    4  A    between atoms: C7_9  and  C8_11 
ROOT
HETATM    1  C2  UNL     1       0.902   0.415  -1.249  1.00  0.00     0.035 A 
HETATM    2  C3  UNL     1       1.163   0.462  -2.612  1.00  0.00     0.029 A 
HETATM    3  C4  UNL     1       0.200   0.527  -3.600  1.00  0.00     0.003 A 
HETATM    4  C5  UNL     1      -1.123   0.546  -3.170  1.00  0.00     0.015 A 
HETATM    5  C6  UNL     1      -1.420   0.501  -1.825  1.00  0.00     0.017 A 
HETATM    6  C14 UNL     1      -0.425   0.437  -0.870  1.00  0.00     0.045 A 
ENDROOT
BRANCH   1   7
HETATM    7  N1  UNL     1       2.017   0.350  -0.366  1.00  0.00    -0.322 N 
HETATM    8  C1  UNL     1       2.718  -0.786   0.169  1.00  0.00     0.274 C 
HETATM    9  O1  UNL     1       2.319  -1.937  -0.168  1.00  0.00    -0.266 OA
HETATM   10  H1  UNL     1       2.333   1.312  -0.098  1.00  0.00     0.169 HD
BRANCH   8  11
HETATM   11  C15 UNL     1       3.840  -0.533   1.065  1.00  0.00     0.120 C 
HETATM   12  C16 UNL     1       4.408   0.577   1.536  1.00  0.00     0.038 C 
HETATM   13  C17 UNL     1       5.548   0.243   2.434  1.00  0.00     0.231 C 
HETATM   14  O3  UNL     1       5.440  -1.117   2.579  1.00  0.00    -0.276 OA
HETATM   15  N2  UNL     1       4.592  -1.585   1.643  1.00  0.00    -0.261 N 
HETATM   16  H14 UNL     1       4.538  -2.598   1.416  1.00  0.00     0.194 HD
ENDBRANCH   8  11
ENDBRANCH   1   7
BRANCH   5  17
HETATM   17  C7  UNL     1      -2.828   0.528  -1.450  1.00  0.00     0.192 C 
HETATM   18  O2  UNL     1      -3.611   1.096  -2.287  1.00  0.00    -0.287 OA
BRANCH  17  19
HETATM   19  C8  UNL     1      -3.476  -0.001  -0.251  1.00  0.00     0.015 A 
HETATM   20  C9  UNL     1      -4.647   0.577   0.160  1.00  0.00     0.015 A 
HETATM   21  C10 UNL     1      -5.300   0.115   1.283  1.00  0.00     0.001 A 
HETATM   22  C11 UNL     1      -4.821  -0.930   2.036  1.00  0.00     0.000 A 
HETATM   23  C12 UNL     1      -3.657  -1.456   1.571  1.00  0.00     0.001 A 
HETATM   24  C13 UNL     1      -2.927  -1.067   0.462  1.00  0.00     0.015 A 
ENDBRANCH  17  19
ENDBRANCH   5  17
TORSDOF 4
