REMARK  4 active torsions:
REMARK  status: ('A' for Active; 'I' for Inactive)
REMARK       I    between atoms: C1_2  and  N1_3 
REMARK    1  A    between atoms: C1_2  and  C15_18 
REMARK    2  A    between atoms: N1_3  and  C2_4 
REMARK    3  A    between atoms: C6_8  and  C7_9 
REMARK    4  A    between atoms: C7_9  and  C8_11 
ROOT
HETATM    1  C2  UNL     1       0.001   0.069   1.607  1.00  0.00     0.035 A 
HETATM    2  C3  UNL     1       0.420  -1.020   2.353  1.00  0.00     0.029 A 
HETATM    3  C4  UNL     1       1.785  -1.319   2.281  1.00  0.00     0.003 A 
HETATM    4  C5  UNL     1       2.638  -0.560   1.507  1.00  0.00     0.015 A 
HETATM    5  C6  UNL     1       2.199   0.511   0.778  1.00  0.00     0.017 A 
HETATM    6  C14 UNL     1       0.873   0.811   0.842  1.00  0.00     0.045 A 
ENDROOT
BRANCH   1   7
HETATM    7  N1  UNL     1      -1.374   0.511   1.562  1.00  0.00    -0.322 N 
HETATM    8  C1  UNL     1      -1.951  -0.183   0.478  1.00  0.00     0.272 C 
HETATM    9  O1  UNL     1      -1.205  -0.966  -0.153  1.00  0.00    -0.266 OA
HETATM   10  H1  UNL     1      -2.008   1.171   2.093  1.00  0.00     0.169 HD
BRANCH   8  11
HETATM   11  C15 UNL     1      -3.368  -0.057   0.030  1.00  0.00     0.098 C 
HETATM   12  C16 UNL     1      -3.747  -0.800  -1.034  1.00  0.00     0.044 C 
HETATM   13  C17 UNL     1      -5.183  -0.497  -1.285  1.00  0.00    -0.030 A 
HETATM   14  C18 UNL     1      -6.340  -0.308  -1.878  1.00  0.00     0.009 A 
HETATM   15  C21 UNL     1      -5.467  -0.249   0.192  1.00  0.00     0.138 A 
HETATM   16  C19 UNL     1      -7.450   0.080  -1.017  1.00  0.00    -0.001 A 
HETATM   17  C20 UNL     1      -6.884   0.106   0.169  1.00  0.00     0.003 A 
HETATM   18  N2  UNL     1      -4.496   0.723   0.519  1.00  0.00    -0.373 N 
HETATM   19  H16 UNL     1      -4.259   1.656   0.915  1.00  0.00     0.161 HD
ENDBRANCH   8  11
ENDBRANCH   1   7
BRANCH   5  20
HETATM   20  C7  UNL     1       3.160   1.245  -0.028  1.00  0.00     0.192 C 
HETATM   21  O2  UNL     1       2.783   2.448  -0.248  1.00  0.00    -0.287 OA
BRANCH  20  22
HETATM   22  C8  UNL     1       4.430   0.808  -0.590  1.00  0.00     0.015 A 
HETATM   23  C9  UNL     1       4.788  -0.491  -0.861  1.00  0.00     0.015 A 
HETATM   24  C10 UNL     1       6.017  -0.845  -1.377  1.00  0.00     0.001 A 
HETATM   25  C11 UNL     1       6.876   0.183  -1.608  1.00  0.00     0.000 A 
HETATM   26  C12 UNL     1       6.618   1.498  -1.374  1.00  0.00     0.001 A 
HETATM   27  C13 UNL     1       5.375   1.802  -0.858  1.00  0.00     0.015 A 
ENDBRANCH  20  22
ENDBRANCH   5  20
TORSDOF 4
