REMARK  0 active torsions:
REMARK  status: ('A' for Active; 'I' for Inactive)
ROOT
HETATM    1  O1  UNL     1      -1.866  -0.168  -0.996  1.00  0.00    -0.268 OA
HETATM    2  C1  UNL     1      -1.665   0.105   0.164  1.00  0.00     0.252 C 
HETATM    3  N1  UNL     1      -0.631  -0.480   1.077  1.00  0.00    -0.324 N 
HETATM    4  C2  UNL     1      -1.190  -1.786   1.470  1.00  0.00     0.049 C 
HETATM    5  C3  UNL     1      -1.725  -1.545   2.629  1.00  0.00     0.001 C 
HETATM    6  C4  UNL     1      -2.646  -0.601   2.841  1.00  0.00     0.015 C 
HETATM    7  C5  UNL     1      -2.904   0.785   2.307  1.00  0.00     0.014 C 
HETATM    8  C6  UNL     1      -2.295   1.056   1.137  1.00  0.00     0.013 C 
HETATM    9  C7  UNL     1      -2.062   2.316   0.414  1.00  0.00     0.071 C 
HETATM   10  C8  UNL     1      -0.873   2.319  -0.506  1.00  0.00    -0.021 C 
HETATM   11  C9  UNL     1       0.234   1.703  -0.949  1.00  0.00     0.010 C 
HETATM   12  C10 UNL     1       1.204   0.655  -0.991  1.00  0.00    -0.009 A 
HETATM   13  C11 UNL     1       2.472   1.068  -1.369  1.00  0.00     0.014 A 
HETATM   14  C12 UNL     1       3.599   0.289  -1.453  1.00  0.00     0.002 A 
HETATM   15  C13 UNL     1       3.606  -1.054  -1.159  1.00  0.00     0.013 A 
HETATM   16  C14 UNL     1       2.331  -1.495  -0.772  1.00  0.00    -0.010 A 
HETATM   17  C15 UNL     1       1.951  -2.784  -0.357  1.00  0.00     0.023 A 
HETATM   18  C16 UNL     1       0.592  -2.869   0.003  1.00  0.00     0.110 A 
HETATM   19  N2  UNL     1       0.456  -1.539  -0.296  1.00  0.00    -0.348 N 
HETATM   20  C17 UNL     1       1.274  -0.640  -0.721  1.00  0.00     0.052 A 
HETATM   21  C18 UNL     1      -0.692  -2.364   0.202  1.00  0.00     0.172 A 
HETATM   22  H1  UNL     1       0.260  -0.270   1.479  1.00  0.00     0.169 HD
ENDROOT
TORSDOF 0
