REMARK  7 active torsions:
REMARK  status: ('A' for Active; 'I' for Inactive)
REMARK    1  A    between atoms: N1_1  and  C1_2 
REMARK    2  A    between atoms: C4_5  and  C5_6 
REMARK    3  A    between atoms: C5_6  and  C6_7 
REMARK    4  A    between atoms: C10_11  and  N2_12 
REMARK    5  A    between atoms: N2_12  and  O1_13 
REMARK    6  A    between atoms: N2_12  and  C11_14 
REMARK    7  A    between atoms: C17_20  and  O2_21 
ROOT
HETATM    1  C6  UNL     1      -0.064   1.443   1.320  1.00  0.00    -0.019 A 
HETATM    2  C7  UNL     1      -0.209   1.707   2.686  1.00  0.00     0.010 A 
HETATM    3  C8  UNL     1      -1.083   1.091   3.550  1.00  0.00     0.003 A 
HETATM    4  C9  UNL     1      -1.895   0.116   3.009  1.00  0.00     0.035 A 
HETATM    5  C10 UNL     1      -1.790  -0.179   1.677  1.00  0.00     0.096 A 
HETATM    6  C17 UNL     1      -0.899   0.463   0.843  1.00  0.00     0.101 A 
ENDROOT
BRANCH   1   7
HETATM    7  C5  UNL     1       0.957   2.225   0.549  1.00  0.00     0.076 C 
BRANCH   7   8
HETATM    8  C4  UNL     1       2.175   1.411   0.304  1.00  0.00    -0.066 A 
HETATM    9  C3  UNL     1       3.397   1.671   0.721  1.00  0.00     0.013 A 
HETATM   10  C2  UNL     1       3.968   0.491   0.102  1.00  0.00    -0.028 A 
HETATM   11  C1  UNL     1       4.731  -0.532  -0.304  1.00  0.00     0.012 C 
HETATM   12  C18 UNL     1       2.569   0.149  -0.310  1.00  0.00     0.053 A 
HETATM   13  C21 UNL     1       4.418  -1.429  -1.439  1.00  0.00     0.020 C 
HETATM   14  C20 UNL     1       3.319  -1.264  -2.174  1.00  0.00    -0.024 C 
HETATM   15  C19 UNL     1       2.458  -0.104  -1.754  1.00  0.00     0.041 C 
BRANCH  11  16
HETATM   16  N1  UNL     1       6.060  -0.753   0.196  1.00  0.00    -0.302 NA
HETATM   17  H1  UNL     1       7.033  -0.559   0.511  1.00  0.00     0.124 HD
HETATM   18  H2  UNL     1       6.687   0.051   0.301  1.00  0.00     0.124 HD
ENDBRANCH  11  16
ENDBRANCH   7   8
ENDBRANCH   1   7
BRANCH   6  19
HETATM   19  O2  UNL     1      -0.779   0.178  -0.510  1.00  0.00    -0.358 OA
HETATM   20  H15 UNL     1      -1.030  -0.757  -0.846  1.00  0.00     0.217 HD
ENDBRANCH   6  19
BRANCH   5  21
HETATM   21  N2  UNL     1      -2.594  -1.182   1.040  1.00  0.00    -0.222 N 
BRANCH  21  22
HETATM   22  O1  UNL     1      -2.513  -2.463   1.462  1.00  0.00    -0.282 OA
HETATM   23  H9  UNL     1      -1.873  -2.521   2.221  1.00  0.00     0.245 HD
ENDBRANCH  21  22
BRANCH  21  24
HETATM   24  C11 UNL     1      -3.500  -0.929  -0.034  1.00  0.00     0.063 A 
HETATM   25  C12 UNL     1      -4.190  -1.939  -0.702  1.00  0.00     0.032 A 
HETATM   26  C13 UNL     1      -5.057  -1.607  -1.735  1.00  0.00     0.002 A 
HETATM   27  C14 UNL     1      -5.270  -0.306  -2.137  1.00  0.00     0.000 A 
HETATM   28  C15 UNL     1      -4.599   0.706  -1.492  1.00  0.00     0.002 A 
HETATM   29  C16 UNL     1      -3.742   0.376  -0.470  1.00  0.00     0.032 A 
ENDBRANCH  21  24
ENDBRANCH   5  21
TORSDOF 7
