REMARK  1 active torsions:
REMARK  status: ('A' for Active; 'I' for Inactive)
REMARK    1  A    between atoms: O1_1  and  C1_2 
ROOT
HETATM    1  C1  UNL     1       1.320   1.688  -0.489  1.00  0.00     0.062 C 
HETATM    2  C2  UNL     1       0.041   1.878  -0.218  1.00  0.00    -0.045 C 
HETATM    3  B1  UNL     1      -1.218   1.411   0.543  1.00  0.00     0.198 B 
HETATM    4  C3  UNL     1      -2.492   0.789  -0.143  1.00  0.00    -0.001 C 
HETATM    5  C4  UNL     1      -3.672   1.379   0.546  1.00  0.00    -0.031 C 
HETATM    6  C5  UNL     1      -4.834   0.740   0.606  1.00  0.00    -0.030 C 
HETATM    7  C6  UNL     1      -5.044  -0.617  -0.014  1.00  0.00     0.031 C 
HETATM    8  C7  UNL     1      -3.814  -1.419   0.362  1.00  0.00     0.039 C 
HETATM    9  C8  UNL     1      -2.573  -0.683   0.016  1.00  0.00    -0.066 C 
HETATM   10  C9  UNL     1      -1.505  -1.448  -0.150  1.00  0.00     0.085 C 
HETATM   11  N1  UNL     1      -0.189  -1.025  -0.485  1.00  0.00    -0.394 N 
HETATM   12  C10 UNL     1       0.764  -1.237   0.563  1.00  0.00     0.158 C 
HETATM   13  C11 UNL     1       2.099  -0.736   0.149  1.00  0.00    -0.028 C 
HETATM   14  C12 UNL     1       2.963  -1.730   0.018  1.00  0.00     0.009 C 
HETATM   15  C13 UNL     1       4.366  -1.629  -0.372  1.00  0.00    -0.003 C 
HETATM   16  C14 UNL     1       5.152  -0.570  -0.111  1.00  0.00    -0.023 C 
HETATM   17  C15 UNL     1       4.812   0.683   0.594  1.00  0.00     0.055 C 
HETATM   18  C16 UNL     1       3.513   1.246   0.157  1.00  0.00    -0.008 C 
HETATM   19  C17 UNL     1       2.301   0.699  -0.058  1.00  0.00     0.000 C 
HETATM   20  H3  UNL     1      -1.246   1.671   1.701  1.00  0.00    -0.021 HD
HETATM   21  H12 UNL     1      -0.412  -0.691  -1.442  1.00  0.00     0.159 HD
ENDROOT
BRANCH   1  22
HETATM   22  O1  UNL     1       1.951   2.591  -1.378  1.00  0.00    -0.361 OA
HETATM   23  H1  UNL     1       1.592   2.618  -2.340  1.00  0.00     0.217 HD
ENDBRANCH   1  22
TORSDOF 1
