REMARK  4 active torsions:
REMARK  status: ('A' for Active; 'I' for Inactive)
REMARK    1  A    between atoms: C11_15  and  N4_16 
REMARK       I    between atoms: N4_16  and  C12_17 
REMARK    2  A    between atoms: C12_17  and  C13_19 
REMARK    3  A    between atoms: C14_20  and  N5_21 
REMARK    4  A    between atoms: N5_21  and  C15_22 
ROOT
HETATM    1  C1  UNL     1      -5.360   2.106  -1.732  1.00  0.00     0.039 C 
HETATM    2  C2  UNL     1      -4.167   1.285  -1.648  1.00  0.00     0.007 C 
HETATM    3  C3  UNL     1      -4.436   0.663  -0.497  1.00  0.00     0.081 C 
HETATM    4  O1  UNL     1      -5.215   0.267   0.794  1.00  0.00    -0.290 OA
HETATM    5  C4  UNL     1      -4.405   0.754   1.982  1.00  0.00     0.200 A 
HETATM    6  N1  UNL     1      -4.121   1.335   3.230  1.00  0.00    -0.215 NA
HETATM    7  C5  UNL     1      -2.752   1.415   3.597  1.00  0.00     0.236 A 
HETATM    8  N2  UNL     1      -1.440   1.078   3.096  1.00  0.00    -0.241 NA
HETATM    9  C6  UNL     1      -1.547   0.471   1.824  1.00  0.00     0.093 A 
HETATM   10  C7  UNL     1      -2.953   0.536   1.760  1.00  0.00     0.109 A 
HETATM   11  N3  UNL     1      -3.039  -1.262   1.469  1.00  0.00    -0.380 N 
HETATM   12  C8  UNL     1      -3.196  -1.612  -0.006  1.00  0.00     0.161 C 
HETATM   13  C9  UNL     1      -3.115  -0.135  -0.497  1.00  0.00    -0.008 C 
HETATM   14  C10 UNL     1      -1.899   0.505  -0.663  1.00  0.00     0.016 C 
HETATM   15  C11 UNL     1      -0.815   0.178   0.476  1.00  0.00     0.163 C 
HETATM   16  H6  UNL     1      -3.057  -2.406   1.722  1.00  0.00     0.160 HD
ENDROOT
BRANCH  15  17
HETATM   17  N4  UNL     1      -0.322  -1.095   0.383  1.00  0.00    -0.344 N 
HETATM   18  C12 UNL     1       0.973  -1.078  -0.254  1.00  0.00     0.243 C 
HETATM   19  O2  UNL     1       1.530   0.011  -0.654  1.00  0.00    -0.269 OA
HETATM   20  H11 UNL     1      -0.441  -2.104   0.581  1.00  0.00     0.163 HD
BRANCH  18  21
HETATM   21  C13 UNL     1       1.861  -2.228  -0.555  1.00  0.00     0.091 C 
HETATM   22  C14 UNL     1       3.041  -2.141  -1.143  1.00  0.00     0.094 C 
BRANCH  22  23
HETATM   23  N5  UNL     1       3.528  -0.862  -1.531  1.00  0.00    -0.366 N 
HETATM   24  H14 UNL     1       3.158  -0.263  -2.308  1.00  0.00     0.165 HD
BRANCH  23  25
HETATM   25  C15 UNL     1       4.641  -0.316  -0.795  1.00  0.00     0.033 A 
HETATM   26  C16 UNL     1       5.192   0.915  -1.086  1.00  0.00     0.032 A 
HETATM   27  C17 UNL     1       6.266   1.404  -0.350  1.00  0.00     0.046 A 
HETATM   28  C18 UNL     1       6.810   0.660   0.698  1.00  0.00     0.138 A 
HETATM   29  F1  UNL     1       7.857   1.187   1.381  1.00  0.00    -0.204 F 
HETATM   30  C19 UNL     1       6.279  -0.565   1.003  1.00  0.00     0.074 A 
HETATM   31 CL1  UNL     1       6.962  -1.497   2.319  1.00  0.00    -0.081 Cl
HETATM   32  C20 UNL     1       5.218  -1.007   0.249  1.00  0.00     0.056 A 
ENDBRANCH  23  25
ENDBRANCH  22  23
ENDBRANCH  18  21
ENDBRANCH  15  17
TORSDOF 4
