REMARK  4 active torsions:
REMARK  status: ('A' for Active; 'I' for Inactive)
REMARK       I    between atoms: C1_2  and  N1_3 
REMARK    1  A    between atoms: C1_2  and  C15_18 
REMARK    2  A    between atoms: N1_3  and  C2_4 
REMARK    3  A    between atoms: C5_7  and  C6_8 
REMARK    4  A    between atoms: C6_8  and  C7_10 
ROOT
HETATM    1  C2  UNL     1      -0.016   0.672   0.176  1.00  0.00     0.034 A 
HETATM    2  C3  UNL     1       0.714  -0.495   0.085  1.00  0.00     0.030 A 
HETATM    3  C4  UNL     1       2.021  -0.661   0.486  1.00  0.00     0.018 A 
HETATM    4  C5  UNL     1       2.680   0.409   1.026  1.00  0.00     0.015 A 
HETATM    5  C13 UNL     1       1.976   1.571   1.126  1.00  0.00     0.018 A 
HETATM    6  C14 UNL     1       0.679   1.772   0.738  1.00  0.00     0.030 A 
ENDROOT
BRANCH   1   7
HETATM    7  N1  UNL     1      -1.354   0.653  -0.295  1.00  0.00    -0.327 N 
HETATM    8  C1  UNL     1      -2.569   0.355   0.430  1.00  0.00     0.230 C 
HETATM    9  O1  UNL     1      -2.038   0.146   1.524  1.00  0.00    -0.272 OA
HETATM   10  H1  UNL     1      -1.250   0.917  -1.326  1.00  0.00     0.169 HD
BRANCH   8  11
HETATM   11  C15 UNL     1      -3.733   0.469  -0.515  1.00  0.00     0.050 C 
HETATM   12  C16 UNL     1      -4.188   0.707  -1.725  1.00  0.00     0.066 A 
HETATM   13  C17 UNL     1      -4.026   1.040  -3.105  1.00  0.00     0.001 A 
HETATM   14  C18 UNL     1      -5.321   0.900  -3.047  1.00  0.00     0.001 A 
HETATM   15  C19 UNL     1      -6.490   0.596  -2.278  1.00  0.00     0.000 C 
HETATM   16  C20 UNL     1      -6.103   0.299  -1.083  1.00  0.00     0.005 C 
HETATM   17  C21 UNL     1      -6.587  -0.112   0.207  1.00  0.00     0.032 C 
HETATM   18  C22 UNL     1      -5.688   0.607   0.877  1.00  0.00    -0.049 C 
HETATM   19  C23 UNL     1      -4.466   0.173   0.665  1.00  0.00    -0.004 C 
ENDBRANCH   8  11
ENDBRANCH   1   7
BRANCH   4  20
HETATM   20  C6  UNL     1       4.063   0.383   1.482  1.00  0.00     0.192 C 
HETATM   21  O2  UNL     1       4.464   1.271   2.305  1.00  0.00    -0.287 OA
BRANCH  20  22
HETATM   22  C7  UNL     1       5.122  -0.539   1.136  1.00  0.00     0.015 A 
HETATM   23  C8  UNL     1       6.131  -0.815   2.034  1.00  0.00     0.015 A 
HETATM   24  C9  UNL     1       7.130  -1.711   1.638  1.00  0.00     0.001 A 
HETATM   25  C10 UNL     1       7.156  -2.327   0.409  1.00  0.00     0.000 A 
HETATM   26  C11 UNL     1       6.158  -2.045  -0.463  1.00  0.00     0.001 A 
HETATM   27  C12 UNL     1       5.157  -1.166  -0.108  1.00  0.00     0.015 A 
ENDBRANCH  20  22
ENDBRANCH   4  20
TORSDOF 4
