REMARK  5 active torsions:
REMARK  status: ('A' for Active; 'I' for Inactive)
REMARK    1  A    between atoms: C2_2  and  O1_3 
REMARK    2  A    between atoms: C2_2  and  C3_4 
REMARK    3  A    between atoms: C7_8  and  C8_9 
REMARK    4  A    between atoms: C8_9  and  N1_10 
REMARK    5  A    between atoms: C8_9  and  N2_11 
ROOT
HETATM    1  C8  UNL     1       0.552  -0.248   0.907  1.00  0.00     0.374 C 
ENDROOT
BRANCH   1   2
HETATM    2  C7  UNL     1      -0.626  -0.263   0.010  1.00  0.00    -0.004 A 
HETATM    3  C6  UNL     1      -0.632  -0.077  -1.356  1.00  0.00     0.011 A 
HETATM    4  C5  UNL     1      -1.806  -0.115  -2.080  1.00  0.00     0.001 A 
HETATM    5  C4  UNL     1      -3.017  -0.342  -1.453  1.00  0.00     0.010 A 
HETATM    6  C3  UNL     1      -3.061  -0.536  -0.073  1.00  0.00    -0.029 A 
HETATM    7  C16 UNL     1      -1.863  -0.489   0.606  1.00  0.00     0.021 A 
BRANCH   6   8
HETATM    8  C2  UNL     1      -4.329  -0.783   0.653  1.00  0.00     0.147 C 
HETATM    9  C1  UNL     1      -5.532  -0.414  -0.163  1.00  0.00     0.044 C 
BRANCH   8  10
HETATM   10  O1  UNL     1      -4.313   0.025   1.799  1.00  0.00    -0.391 OA
HETATM   11  H5  UNL     1      -3.792   0.833   1.647  1.00  0.00     0.210 HD
ENDBRANCH   8  10
ENDBRANCH   6   8
ENDBRANCH   1   2
BRANCH   1  12
HETATM   12  N1  UNL     1       0.148   0.566   2.063  1.00  0.00     0.107 N 
HETATM   13  H10 UNL     1       0.959   1.137   2.385  1.00  0.00     0.316 HD
HETATM   14  H11 UNL     1      -0.122  -0.053   2.865  1.00  0.00     0.316 HD
ENDBRANCH   1  12
BRANCH   1  15
HETATM   15  N2  UNL     1       1.669   0.389   0.235  1.00  0.00    -0.231 N 
HETATM   16  N3  UNL     1       1.599   1.546  -0.403  1.00  0.00    -0.181 NA
HETATM   17  C9  UNL     1       2.790   1.888  -0.926  1.00  0.00     0.152 A 
HETATM   18  C10 UNL     1       3.680   0.868  -0.592  1.00  0.00     0.011 A 
HETATM   19  C11 UNL     1       5.026   0.716  -0.877  1.00  0.00     0.015 A 
HETATM   20  C15 UNL     1       2.941  -0.045   0.131  1.00  0.00     0.067 A 
HETATM   21  C12 UNL     1       5.659  -0.435  -0.397  1.00  0.00     0.001 A 
HETATM   22  C13 UNL     1       4.926  -1.362   0.332  1.00  0.00     0.002 A 
HETATM   23  C14 UNL     1       3.585  -1.164   0.590  1.00  0.00     0.032 A 
ENDBRANCH   1  15
TORSDOF 5
