REMARK  7 active torsions:
REMARK  status: ('A' for Active; 'I' for Inactive)
REMARK    1  A    between atoms: N1_1  and  C1_2 
REMARK    2  A    between atoms: C8_9  and  N2_10 
REMARK    3  A    between atoms: C11_13  and  C12_14 
REMARK    4  A    between atoms: C12_14  and  C13_16 
REMARK    5  A    between atoms: C14_17  and  C15_18 
REMARK    6  A    between atoms: C15_18  and  C16_19 
REMARK    7  A    between atoms: C17_20  and  O2_21 
ROOT
HETATM    1  N2  UNL     1      -1.633   0.833  -0.342  1.00  0.00    -0.380 N 
HETATM    2  C9  UNL     1      -0.824   0.173  -1.283  1.00  0.00     0.087 A 
HETATM    3  C10 UNL     1       0.455  -0.061  -1.038  1.00  0.00     0.032 A 
HETATM    4  C11 UNL     1       1.150   0.323   0.185  1.00  0.00     0.013 A 
HETATM    5  C18 UNL     1       0.366   0.943   1.053  1.00  0.00     0.008 A 
HETATM    6  C19 UNL     1      -1.055   1.271   0.923  1.00  0.00     0.151 A 
ENDROOT
BRANCH   1   7
HETATM    7  C8  UNL     1      -2.970   1.110  -0.541  1.00  0.00     0.110 A 
HETATM    8  C2  UNL     1      -3.925  -0.032  -0.831  1.00  0.00     0.038 A 
HETATM    9  C1  UNL     1      -4.958  -0.623  -1.417  1.00  0.00     0.014 C 
HETATM   10  C3  UNL     1      -3.112  -0.463   0.431  1.00  0.00     0.021 A 
HETATM   11  C4  UNL     1      -3.930   0.655   0.622  1.00  0.00     0.005 A 
HETATM   12  C7  UNL     1      -6.141  -0.747  -0.420  1.00  0.00     0.021 C 
HETATM   13  C6  UNL     1      -6.245  -0.066   0.795  1.00  0.00    -0.024 C 
HETATM   14  C5  UNL     1      -5.142   0.818   1.488  1.00  0.00     0.040 C 
BRANCH   9  15
HETATM   15  N1  UNL     1      -4.860  -0.983  -2.741  1.00  0.00    -0.402 N 
HETATM   16  H1  UNL     1      -4.313  -1.814  -3.077  1.00  0.00     0.156 HD
HETATM   17  H2  UNL     1      -5.466  -0.167  -2.997  1.00  0.00     0.156 HD
ENDBRANCH   9  15
ENDBRANCH   1   7
BRANCH   4  18
HETATM   18  C12 UNL     1       2.550   0.060   0.439  1.00  0.00     0.181 C 
HETATM   19  O1  UNL     1       3.007   0.458   1.557  1.00  0.00    -0.288 OA
BRANCH  18  20
HETATM   20  C13 UNL     1       3.369  -0.618  -0.531  1.00  0.00     0.052 C 
HETATM   21  C14 UNL     1       4.650  -0.877  -0.338  1.00  0.00    -0.019 C 
BRANCH  21  22
HETATM   22  C15 UNL     1       5.644  -0.655   0.715  1.00  0.00     0.056 C 
BRANCH  22  23
HETATM   23  C16 UNL     1       6.776   0.182   0.178  1.00  0.00     0.001 C 
HETATM   24  C17 UNL     1       8.054  -0.214   0.134  1.00  0.00     0.127 C 
BRANCH  24  25
HETATM   25  O2  UNL     1       8.158  -1.484   0.649  1.00  0.00    -0.373 OA
HETATM   26  H17 UNL     1       8.375  -1.620   1.642  1.00  0.00     0.216 HD
ENDBRANCH  24  25
ENDBRANCH  22  23
ENDBRANCH  21  22
ENDBRANCH  18  20
ENDBRANCH   4  18
TORSDOF 7
