REMARK  0 active torsions:
REMARK  status: ('A' for Active; 'I' for Inactive)
ROOT
HETATM    1  O1  UNL     1      -1.091  -2.161  -0.131  1.00  0.00    -0.299 OA
HETATM    2  C1  UNL     1      -0.775  -3.348  -0.354  1.00  0.00     0.138 A 
HETATM    3  C2  UNL     1       0.716  -3.499  -0.179  1.00  0.00     0.204 C 
HETATM    4  N1  UNL     1       1.230  -2.212   0.198  1.00  0.00    -0.382 N 
HETATM    5  C3  UNL     1       2.482  -1.595   0.467  1.00  0.00     0.035 A 
HETATM    6  C4  UNL     1       3.291  -2.285   1.341  1.00  0.00     0.029 A 
HETATM    7  C5  UNL     1       4.542  -1.842   1.718  1.00  0.00     0.002 A 
HETATM    8  C6  UNL     1       5.002  -0.651   1.194  1.00  0.00     0.001 A 
HETATM    9  C7  UNL     1       4.172   0.025   0.318  1.00  0.00     0.010 A 
HETATM   10  C8  UNL     1       2.917  -0.385  -0.083  1.00  0.00    -0.028 A 
HETATM   11  C9  UNL     1       2.105   0.409  -1.023  1.00  0.00     0.068 C 
HETATM   12  C10 UNL     1       2.135   1.854  -0.819  1.00  0.00    -0.022 C 
HETATM   13  C11 UNL     1       1.258   2.800  -0.555  1.00  0.00    -0.004 C 
HETATM   14  C12 UNL     1      -0.166   2.935  -0.328  1.00  0.00    -0.004 C 
HETATM   15  C13 UNL     1      -0.912   4.008  -0.066  1.00  0.00    -0.021 C 
HETATM   16  C14 UNL     1      -2.320   3.886   0.123  1.00  0.00     0.022 A 
HETATM   17  C15 UNL     1      -3.541   3.493   0.246  1.00  0.00     0.015 A 
HETATM   18  C16 UNL     1      -4.034   2.109   0.125  1.00  0.00     0.018 A 
HETATM   19  O2  UNL     1      -2.824   2.400  -0.009  1.00  0.00     0.000 OA
HETATM   20  C17 UNL     1      -3.584   0.722  -0.134  1.00  0.00    -0.047 A 
HETATM   21  C18 UNL     1      -3.256   0.169  -1.382  1.00  0.00     0.009 A 
HETATM   22  C19 UNL     1      -2.823  -1.130  -1.440  1.00  0.00     0.039 A 
HETATM   23  C20 UNL     1      -2.707  -1.892  -0.301  1.00  0.00     0.181 A 
HETATM   24  C21 UNL     1      -3.026  -1.375   0.936  1.00  0.00     0.039 A 
HETATM   25  C22 UNL     1      -3.459  -0.071   0.990  1.00  0.00     0.009 A 
HETATM   26  N2  UNL     1      -2.193  -3.227  -0.525  1.00  0.00    -0.334 N 
HETATM   27  H3  UNL     1       0.572  -1.391   0.364  1.00  0.00     0.160 HD
HETATM   28  H20 UNL     1      -2.646  -4.135  -0.797  1.00  0.00     0.165 HD
ENDROOT
TORSDOF 0
