REMARK  1 active torsions:
REMARK  status: ('A' for Active; 'I' for Inactive)
REMARK    1  A    between atoms: C14_16  and  C15_17 
ROOT
HETATM    1  C1  UNL     1      -2.981   1.199  -1.416  1.00  0.00     0.070 C 
HETATM    2  C2  UNL     1      -2.938   0.185  -0.320  1.00  0.00     0.027 C 
HETATM    3  N1  UNL     1      -3.092   0.927   0.758  1.00  0.00    -0.275 NA
HETATM    4  C3  UNL     1      -3.119   0.414   2.094  1.00  0.00     0.270 C 
HETATM    5  N2  UNL     1      -2.805  -0.984   1.996  1.00  0.00    -0.374 N 
HETATM    6  C4  UNL     1      -1.569  -1.279   1.379  1.00  0.00     0.017 A 
HETATM    7  C5  UNL     1      -1.042  -2.560   1.257  1.00  0.00     0.022 A 
HETATM    8  C6  UNL     1       0.107  -2.193   0.563  1.00  0.00    -0.013 A 
HETATM    9  C7  UNL     1       0.327  -0.818   0.265  1.00  0.00     0.006 A 
HETATM   10  C8  UNL     1       0.105   0.590   0.209  1.00  0.00     0.023 A 
HETATM   11  C9  UNL     1      -0.704  -0.328   0.776  1.00  0.00     0.032 A 
HETATM   12  C10 UNL     1      -0.603  -0.875  -0.893  1.00  0.00     0.015 A 
HETATM   13  C11 UNL     1      -1.661  -1.315  -1.580  1.00  0.00    -0.038 C 
HETATM   14  C12 UNL     1      -2.765  -1.193  -0.856  1.00  0.00     0.035 C 
HETATM   15  C13 UNL     1       0.753  -0.952  -1.830  1.00  0.00     0.027 A 
HETATM   16  C14 UNL     1       1.705  -0.896  -0.508  1.00  0.00     0.033 A 
HETATM   17  H6  UNL     1      -3.342  -1.793   2.305  1.00  0.00     0.161 HD
ENDROOT
BRANCH  16  18
HETATM   18  C15 UNL     1       2.531   0.246  -0.458  1.00  0.00    -0.053 A 
HETATM   19  C16 UNL     1       3.455   0.134   0.583  1.00  0.00     0.007 A 
HETATM   20  C17 UNL     1       4.393   1.146   0.835  1.00  0.00     0.001 A 
HETATM   21  C18 UNL     1       4.445   2.280   0.076  1.00  0.00     0.000 A 
HETATM   22  C19 UNL     1       3.543   2.451  -0.986  1.00  0.00     0.001 A 
HETATM   23  C20 UNL     1       2.656   1.396  -1.155  1.00  0.00     0.007 A 
ENDBRANCH  16  18
TORSDOF 1
