REMARK  7 active torsions:
REMARK  status: ('A' for Active; 'I' for Inactive)
REMARK    1  A    between atoms: N1_1  and  C1_2 
REMARK    2  A    between atoms: C6_7  and  C7_8 
REMARK    3  A    between atoms: C8_9  and  C9_10 
REMARK       I    between atoms: C9_10  and  N2_12 
REMARK    4  A    between atoms: N2_12  and  C10_13 
REMARK    5  A    between atoms: C14_17  and  C15_18 
REMARK    6  A    between atoms: C15_18  and  C16_19 
REMARK    7  A    between atoms: C16_19  and  O2_20 
ROOT
HETATM    1  C9  UNL     1       0.053  -0.503  -0.443  1.00  0.00     0.245 C 
HETATM    2  O1  UNL     1      -0.063  -1.169   0.638  1.00  0.00    -0.268 OA
HETATM    3  N2  UNL     1      -0.890  -0.130  -1.408  1.00  0.00    -0.324 N 
HETATM    4  H11 UNL     1      -0.572   0.420  -2.223  1.00  0.00     0.169 HD
ENDROOT
BRANCH   1   5
HETATM    5  C8  UNL     1       1.438  -0.139  -0.563  1.00  0.00     0.075 C 
HETATM    6  C7  UNL     1       2.551  -0.303   0.110  1.00  0.00     0.015 C 
BRANCH   6   7
HETATM    7  C6  UNL     1       3.944   0.115  -0.098  1.00  0.00    -0.025 A 
HETATM    8  C1  UNL     1       4.750  -0.382   1.028  1.00  0.00     0.254 A 
HETATM    9  C2  UNL     1       6.182   0.021   0.859  1.00  0.00     0.067 A 
HETATM   10  C3  UNL     1       6.337   0.793  -0.388  1.00  0.00    -0.024 A 
HETATM   11  C4  UNL     1       5.562   1.213  -1.372  1.00  0.00    -0.003 A 
HETATM   12  C5  UNL     1       4.177   0.811  -1.189  1.00  0.00     0.009 A 
BRANCH   8  13
HETATM   13  N1  UNL     1       4.212   0.047   2.312  1.00  0.00     0.087 N 
HETATM   14  H1  UNL     1       3.525  -0.687   2.648  1.00  0.00     0.313 HD
HETATM   15  H2  UNL     1       4.951   0.137   3.044  1.00  0.00     0.313 HD
ENDBRANCH   8  13
ENDBRANCH   6   7
ENDBRANCH   1   5
BRANCH   3  16
HETATM   16  C10 UNL     1      -2.214  -0.602  -1.085  1.00  0.00     0.035 A 
HETATM   17  C11 UNL     1      -2.665  -1.846  -1.520  1.00  0.00     0.029 A 
HETATM   18  C12 UNL     1      -3.924  -2.320  -1.225  1.00  0.00     0.003 A 
HETATM   19  C13 UNL     1      -4.740  -1.505  -0.470  1.00  0.00     0.007 A 
HETATM   20  C14 UNL     1      -4.356  -0.278  -0.015  1.00  0.00    -0.054 A 
HETATM   21  C17 UNL     1      -3.079   0.175  -0.327  1.00  0.00     0.036 A 
BRANCH  20  22
HETATM   22  C15 UNL     1      -5.298   0.557   0.805  1.00  0.00     0.064 C 
BRANCH  22  23
HETATM   23  C16 UNL     1      -6.124   1.442  -0.113  1.00  0.00     0.168 C 
BRANCH  23  24
HETATM   24  O2  UNL     1      -6.990   2.206   0.688  1.00  0.00    -0.401 OA
HETATM   25  H19 UNL     1      -7.779   2.527   0.155  1.00  0.00     0.209 HD
ENDBRANCH  23  24
ENDBRANCH  22  23
ENDBRANCH  20  22
ENDBRANCH   3  16
TORSDOF 7
