REMARK  6 active torsions:
REMARK  status: ('A' for Active; 'I' for Inactive)
REMARK    1  A    between atoms: C2_2  and  N1_3 
REMARK    2  A    between atoms: C2_2  and  C11_14 
REMARK    3  A    between atoms: N1_3  and  C3_4 
REMARK    4  A    between atoms: C6_7  and  C7_8 
REMARK    5  A    between atoms: C7_8  and  O1_9 
REMARK    6  A    between atoms: O1_9  and  C8_10 
ROOT
HETATM    1  N1  UNL     1      -0.114  -0.544   0.531  1.00  0.00    -0.361 N 
HETATM    2  H3  UNL     1      -0.550  -1.513   0.457  1.00  0.00     0.165 HD
ENDROOT
BRANCH   1   3
HETATM    3  C2  UNL     1      -1.120   0.330   1.099  1.00  0.00     0.015 C 
HETATM    4  C1  UNL     1      -1.238   0.798   2.326  1.00  0.00     0.061 C 
BRANCH   3   5
HETATM    5  C11 UNL     1      -2.125   0.715   0.113  1.00  0.00     0.163 A 
HETATM    6  N2  UNL     1      -3.107   1.699   0.477  1.00  0.00    -0.376 N 
HETATM    7  C12 UNL     1      -4.210   0.801   0.419  1.00  0.00     0.037 A 
HETATM    8  H12 UNL     1      -2.834   2.690   0.670  1.00  0.00     0.160 HD
HETATM    9  C13 UNL     1      -5.575   0.638   0.555  1.00  0.00     0.030 A 
HETATM   10  C17 UNL     1      -3.321  -0.201   0.110  1.00  0.00    -0.004 A 
HETATM   11  C14 UNL     1      -6.085  -0.633   0.363  1.00  0.00     0.002 A 
HETATM   12  C15 UNL     1      -5.190  -1.629   0.055  1.00  0.00     0.001 A 
HETATM   13  C16 UNL     1      -3.817  -1.499  -0.087  1.00  0.00     0.012 A 
ENDBRANCH   3   5
ENDBRANCH   1   3
BRANCH   1  14
HETATM   14  C3  UNL     1       1.242  -0.496   0.072  1.00  0.00     0.032 A 
HETATM   15  C4  UNL     1       2.365  -1.053   0.622  1.00  0.00     0.030 A 
HETATM   16  C5  UNL     1       3.584  -0.878   0.011  1.00  0.00     0.011 A 
HETATM   17  C6  UNL     1       3.733  -0.155  -1.154  1.00  0.00    -0.034 A 
HETATM   18  C9  UNL     1       2.604   0.402  -1.702  1.00  0.00     0.011 A 
HETATM   19  C10 UNL     1       1.354   0.247  -1.112  1.00  0.00     0.030 A 
BRANCH  17  20
HETATM   20  C7  UNL     1       4.986   0.102  -1.910  1.00  0.00     0.216 C 
BRANCH  20  21
HETATM   21  O1  UNL     1       5.554   1.321  -1.491  1.00  0.00    -0.324 OA
BRANCH  21  22
HETATM   22  C8  UNL     1       5.981   1.632  -0.231  1.00  0.00     0.398 C 
HETATM   23  O2  UNL     1       5.942   0.910   0.767  1.00  0.00    -0.276 OA
ENDBRANCH  21  22
ENDBRANCH  20  21
ENDBRANCH  17  20
ENDBRANCH   1  14
TORSDOF 6
