REMARK  7 active torsions:
REMARK  status: ('A' for Active; 'I' for Inactive)
REMARK    1  A    between atoms: C2_2  and  C3_3 
REMARK    2  A    between atoms: C3_3  and  C4_4 
REMARK    3  A    between atoms: C8_8  and  C9_9 
REMARK    4  A    between atoms: C9_9  and  N1_10 
REMARK    5  A    between atoms: N1_10  and  C10_11 
REMARK    6  A    between atoms: C13_14  and  C14_15 
REMARK    7  A    between atoms: C14_15  and  O1_17 
ROOT
HETATM    1  N1  UNL     1       0.266  -0.991  -0.187  1.00  0.00    -0.365 N 
HETATM    2  H10 UNL     1       0.345  -1.988  -0.519  1.00  0.00     0.162 HD
ENDROOT
BRANCH   1   3
HETATM    3  C9  UNL     1      -0.968  -0.230  -0.040  1.00  0.00     0.178 C 
BRANCH   3   4
HETATM    4  C8  UNL     1      -2.151  -1.026  -0.420  1.00  0.00     0.023 A 
HETATM    5  C7  UNL     1      -2.260  -2.272  -0.856  1.00  0.00     0.006 A 
HETATM    6  C6  UNL     1      -3.661  -2.691  -1.127  1.00  0.00     0.086 A 
HETATM    7  C5  UNL     1      -4.386  -1.423  -0.761  1.00  0.00     0.013 A 
HETATM    8  C4  UNL     1      -5.699  -1.262  -0.827  1.00  0.00     0.033 C 
HETATM    9  N2  UNL     1      -3.459  -0.430  -0.337  1.00  0.00    -0.361 N 
HETATM   10  H20 UNL     1      -3.750   0.536  -0.034  1.00  0.00     0.165 HD
BRANCH   8  11
HETATM   11  C3  UNL     1      -6.524  -0.107  -0.508  1.00  0.00     0.052 C 
BRANCH  11  12
HETATM   12  C2  UNL     1      -6.650   0.283   0.752  1.00  0.00    -0.155 C 
HETATM   13  C1  UNL     1      -6.599   0.455   2.064  1.00  0.00     0.096 C 
ENDBRANCH  11  12
ENDBRANCH   8  11
ENDBRANCH   3   4
ENDBRANCH   1   3
BRANCH   1  14
HETATM   14  C10 UNL     1       1.535  -0.427   0.123  1.00  0.00     0.143 C 
HETATM   15  C11 UNL     1       1.848   0.725  -0.455  1.00  0.00     0.057 C 
HETATM   16  C12 UNL     1       3.057   1.560  -0.353  1.00  0.00     0.014 C 
HETATM   17  C13 UNL     1       4.201   1.144   0.173  1.00  0.00    -0.028 C 
HETATM   18  C16 UNL     1       4.570  -0.150   0.756  1.00  0.00     0.034 C 
HETATM   19  C17 UNL     1       3.754  -1.140   1.122  1.00  0.00     0.145 C 
HETATM   20  O2  UNL     1       2.359  -1.132   1.017  1.00  0.00    -0.306 OA
BRANCH  17  21
HETATM   21  C14 UNL     1       5.304   2.143   0.183  1.00  0.00     0.147 C 
HETATM   22  C15 UNL     1       6.505   1.683  -0.589  1.00  0.00     0.044 C 
BRANCH  21  23
HETATM   23  O1  UNL     1       4.900   3.357  -0.325  1.00  0.00    -0.391 OA
HETATM   24  H17 UNL     1       4.982   4.040   0.382  1.00  0.00     0.210 HD
ENDBRANCH  21  23
ENDBRANCH  17  21
ENDBRANCH   1  14
TORSDOF 7
