REMARK  5 active torsions:
REMARK  status: ('A' for Active; 'I' for Inactive)
REMARK    1  A    between atoms: O1_2  and  C2_3 
REMARK    2  A    between atoms: C2_3  and  C3_4 
REMARK    3  A    between atoms: C4_5  and  C5_6 
REMARK    4  A    between atoms: C9_10  and  N1_11 
REMARK    5  A    between atoms: N1_11  and  C10_12 
ROOT
HETATM    1  C5  UNL     1       2.642  -0.187  -0.243  1.00  0.00     0.024 C 
HETATM    2  C6  UNL     1       1.338   0.040  -0.303  1.00  0.00     0.008 C 
HETATM    3  C7  UNL     1       0.599   0.897   0.635  1.00  0.00     0.086 C 
HETATM    4  C8  UNL     1      -0.807   0.375   0.755  1.00  0.00     0.006 C 
HETATM    5  C9  UNL     1      -1.491  -0.042  -0.318  1.00  0.00     0.024 C 
HETATM    6  C16 UNL     1      -0.738   0.059  -1.617  1.00  0.00     0.176 C 
HETATM    7  N2  UNL     1       0.560  -0.565  -1.329  1.00  0.00    -0.387 N 
HETATM    8  H20 UNL     1       0.881  -1.406  -1.855  1.00  0.00     0.159 HD
ENDROOT
BRANCH   5   9
HETATM    9  N1  UNL     1      -2.807  -0.560  -0.408  1.00  0.00    -0.358 N 
HETATM   10  H12 UNL     1      -2.827  -1.514  -0.828  1.00  0.00     0.166 HD
BRANCH   9  11
HETATM   11  C10 UNL     1      -4.117  -0.139  -0.083  1.00  0.00     0.045 C 
HETATM   12  C11 UNL     1      -4.413   1.068  -0.499  1.00  0.00     0.001 C 
HETATM   13  C12 UNL     1      -5.458   1.637   0.035  1.00  0.00     0.014 C 
HETATM   14  C13 UNL     1      -6.893   1.296   0.218  1.00  0.00     0.202 C 
HETATM   15  O2  UNL     1      -7.086  -0.055   0.543  1.00  0.00    -0.359 OA
HETATM   16  C14 UNL     1      -6.234  -1.056   0.927  1.00  0.00     0.137 C 
HETATM   17  C15 UNL     1      -4.932  -1.107   0.661  1.00  0.00     0.054 C 
ENDBRANCH   9  11
ENDBRANCH   5   9
BRANCH   1  18
HETATM   18  C4  UNL     1       3.428  -1.010  -1.123  1.00  0.00     0.000 C 
HETATM   19  C3  UNL     1       4.709  -1.190  -1.006  1.00  0.00    -0.001 C 
BRANCH  19  20
HETATM   20  C2  UNL     1       5.659  -0.658  -0.030  1.00  0.00     0.194 C 
BRANCH  20  21
HETATM   21  O1  UNL     1       6.673   0.103  -0.624  1.00  0.00    -0.392 OA
HETATM   22  C1  UNL     1       7.521   0.565   0.362  1.00  0.00     0.201 C 
ENDBRANCH  20  21
ENDBRANCH  19  20
ENDBRANCH   1  18
TORSDOF 5
