REMARK  4 active torsions:
REMARK  status: ('A' for Active; 'I' for Inactive)
REMARK    1  A    between atoms: C2_2  and  O1_3 
REMARK    2  A    between atoms: C2_2  and  C3_4 
REMARK    3  A    between atoms: C7_8  and  N1_9 
REMARK       I    between atoms: N1_9  and  C8_10 
REMARK    4  A    between atoms: C8_10  and  C9_12 
ROOT
HETATM    1  N1  UNL     1       0.768  -1.258  -0.469  1.00  0.00    -0.324 N 
HETATM    2  C8  UNL     1      -0.301  -0.339  -0.142  1.00  0.00     0.247 C 
HETATM    3  O2  UNL     1       0.198   0.825  -0.353  1.00  0.00    -0.268 OA
HETATM    4  H9  UNL     1       0.529  -2.275  -0.350  1.00  0.00     0.169 HD
ENDROOT
BRANCH   2   5
HETATM    5  C9  UNL     1      -1.659  -0.707   0.329  1.00  0.00     0.104 C 
HETATM    6  C10 UNL     1      -2.704   0.050   0.660  1.00  0.00     0.038 C 
HETATM    7  C11 UNL     1      -2.478   1.480   0.541  1.00  0.00     0.042 C 
HETATM    8  N2  UNL     1      -3.839  -0.674   1.081  1.00  0.00    -0.366 N 
HETATM    9  C12 UNL     1      -3.433   2.109   1.215  1.00  0.00    -0.024 C 
HETATM   10  P1  UNL     1      -4.809   2.119   0.273  1.00  0.00    -0.093 P 
HETATM   11  C13 UNL     1      -5.360   0.434  -0.167  1.00  0.00     0.125 C 
HETATM   12  C14 UNL     1      -6.159  -0.397  -0.815  1.00  0.00    -0.014 C 
HETATM   13  C15 UNL     1      -5.702  -1.727  -0.434  1.00  0.00     0.014 C 
HETATM   14  C16 UNL     1      -4.701  -1.504   0.382  1.00  0.00     0.088 C 
HETATM   15  H16 UNL     1      -3.740  -0.350   2.032  1.00  0.00     0.165 HD
ENDBRANCH   2   5
BRANCH   1  16
HETATM   16  C7  UNL     1       1.891  -0.448  -0.877  1.00  0.00     0.035 A 
HETATM   17  C6  UNL     1       2.063  -0.092  -2.216  1.00  0.00     0.029 A 
HETATM   18  C5  UNL     1       3.178   0.684  -2.468  1.00  0.00     0.003 A 
HETATM   19  C4  UNL     1       4.060   1.083  -1.483  1.00  0.00     0.010 A 
HETATM   20  C3  UNL     1       3.859   0.713  -0.172  1.00  0.00    -0.028 A 
HETATM   21  C17 UNL     1       2.761  -0.062   0.131  1.00  0.00     0.039 A 
BRANCH  20  22
HETATM   22  C2  UNL     1       4.779   1.120   0.906  1.00  0.00     0.147 C 
HETATM   23  C1  UNL     1       4.561   0.317   2.170  1.00  0.00     0.044 C 
BRANCH  22  24
HETATM   24  O1  UNL     1       6.120   0.943   0.534  1.00  0.00    -0.391 OA
HETATM   25  H5  UNL     1       6.118   0.533  -0.357  1.00  0.00     0.210 HD
ENDBRANCH  22  24
ENDBRANCH  20  22
ENDBRANCH   1  16
TORSDOF 4
