REMARK  4 active torsions:
REMARK  status: ('A' for Active; 'I' for Inactive)
REMARK    1  A    between atoms: O1_1  and  C1_2 
REMARK    2  A    between atoms: C11_13  and  C12_14 
REMARK    3  A    between atoms: C12_14  and  O2_15 
REMARK    4  A    between atoms: C12_14  and  C13_16 
ROOT
HETATM    1  C1  UNL     1      -3.432   1.435   0.647  1.00  0.00     0.171 C 
HETATM    2  C2  UNL     1      -3.204   0.856   2.014  1.00  0.00     0.006 C 
HETATM    3  C3  UNL     1      -2.767  -0.387   2.221  1.00  0.00    -0.018 C 
HETATM    4  C4  UNL     1      -2.343  -1.494   1.307  1.00  0.00     0.046 C 
HETATM    5  C5  UNL     1      -3.496  -1.930   0.457  1.00  0.00     0.041 C 
HETATM    6  C6  UNL     1      -4.207  -0.818  -0.232  1.00  0.00    -0.018 C 
HETATM    7  C7  UNL     1      -3.548   0.346  -0.404  1.00  0.00    -0.034 C 
HETATM    8  C8  UNL     1      -2.724   1.146  -1.377  1.00  0.00     0.156 C 
HETATM    9  N1  UNL     1      -1.311   0.875  -1.052  1.00  0.00    -0.385 N 
HETATM   10  C9  UNL     1      -0.654  -0.228  -0.391  1.00  0.00     0.035 A 
HETATM   11  C10 UNL     1       0.625  -0.207  -0.899  1.00  0.00     0.039 A 
HETATM   12  C11 UNL     1       1.526  -1.155  -0.461  1.00  0.00    -0.023 A 
HETATM   13  C19 UNL     1       1.164  -2.108   0.467  1.00  0.00     0.011 A 
HETATM   14  C20 UNL     1      -0.139  -2.051   0.920  1.00  0.00     0.011 A 
HETATM   15  C21 UNL     1      -1.121  -1.138   0.542  1.00  0.00    -0.024 A 
HETATM   16  H11 UNL     1      -0.664   1.609  -1.352  1.00  0.00     0.160 HD
ENDROOT
BRANCH  12  17
HETATM   17  C12 UNL     1       2.914  -1.156  -0.993  1.00  0.00     0.184 C 
BRANCH  17  18
HETATM   18  O2  UNL     1       2.815  -0.985  -2.390  1.00  0.00    -0.386 OA
HETATM   19  H14 UNL     1       2.933  -0.055  -2.663  1.00  0.00     0.210 HD
ENDBRANCH  17  18
BRANCH  17  20
HETATM   20  C13 UNL     1       3.712  -0.015  -0.465  1.00  0.00    -0.025 A 
HETATM   21  C14 UNL     1       3.331   0.685   0.669  1.00  0.00     0.010 A 
HETATM   22  C15 UNL     1       4.137   1.732   1.085  1.00  0.00     0.001 A 
HETATM   23  C16 UNL     1       5.287   2.087   0.410  1.00  0.00     0.000 A 
HETATM   24  C17 UNL     1       5.622   1.348  -0.725  1.00  0.00     0.001 A 
HETATM   25  C18 UNL     1       4.859   0.300  -1.181  1.00  0.00     0.010 A 
ENDBRANCH  17  20
ENDBRANCH  12  17
BRANCH   1  26
HETATM   26  O1  UNL     1      -4.510   2.315   0.609  1.00  0.00    -0.387 OA
HETATM   27  H1  UNL     1      -5.159   1.905  -0.037  1.00  0.00     0.210 HD
ENDBRANCH   1  26
TORSDOF 4
