REMARK  2 active torsions:
REMARK  status: ('A' for Active; 'I' for Inactive)
REMARK    1  A    between atoms: C2_2  and  O1_3 
REMARK    2  A    between atoms: C2_2  and  C3_4 
ROOT
HETATM    1  C3  UNL     1      -2.666  -1.269   0.015  1.00  0.00    -0.042 C 
HETATM    2  C4  UNL     1      -1.362  -1.463  -0.320  1.00  0.00     0.053 C 
HETATM    3  C5  UNL     1      -0.411  -2.343  -1.081  1.00  0.00     0.000 C 
HETATM    4  C6  UNL     1       0.535  -1.591  -0.661  1.00  0.00     0.085 C 
HETATM    5  N1  UNL     1       1.659  -0.886  -0.297  1.00  0.00    -0.366 N 
HETATM    6  C7  UNL     1       2.753  -0.045  -0.210  1.00  0.00     0.038 A 
HETATM    7  C8  UNL     1       3.847  -0.495  -0.779  1.00  0.00     0.030 A 
HETATM    8  C9  UNL     1       5.141   0.224  -0.812  1.00  0.00    -0.001 A 
HETATM    9  C10 UNL     1       5.025   1.354  -0.188  1.00  0.00    -0.022 A 
HETATM   10  C11 UNL     1       3.928   2.010   0.499  1.00  0.00     0.068 A 
HETATM   11  C12 UNL     1       2.682   1.234   0.461  1.00  0.00    -0.023 A 
HETATM   12  C13 UNL     1       1.743   1.926   1.027  1.00  0.00     0.084 C 
HETATM   13  C14 UNL     1       0.405   2.207   1.466  1.00  0.00     0.245 C 
HETATM   14  O2  UNL     1       0.281   1.097   0.832  1.00  0.00    -0.268 OA
HETATM   15  N2  UNL     1      -0.949   1.842   1.512  1.00  0.00    -0.334 N 
HETATM   16  C15 UNL     1      -2.200   1.126   1.331  1.00  0.00     0.091 C 
HETATM   17  C16 UNL     1      -2.344  -0.010   0.692  1.00  0.00     0.023 C 
HETATM   18  H9  UNL     1       1.920  -1.263   0.683  1.00  0.00     0.165 HD
HETATM   19  H16 UNL     1      -0.876   2.741   2.031  1.00  0.00     0.168 HD
ENDROOT
BRANCH   1  20
HETATM   20  C2  UNL     1      -4.147  -1.713  -0.062  1.00  0.00     0.143 C 
HETATM   21  C1  UNL     1      -4.922  -0.651  -0.796  1.00  0.00     0.044 C 
BRANCH  20  22
HETATM   22  O1  UNL     1      -4.623  -2.001   1.195  1.00  0.00    -0.392 OA
HETATM   23  H5  UNL     1      -4.147  -1.441   1.853  1.00  0.00     0.210 HD
ENDBRANCH  20  22
ENDBRANCH   1  20
TORSDOF 2
