REMARK  8 active torsions:
REMARK  status: ('A' for Active; 'I' for Inactive)
REMARK    1  A    between atoms: P1_2  and  N1_3 
REMARK    2  A    between atoms: N1_3  and  C2_4 
REMARK    3  A    between atoms: C7_9  and  C8_10 
REMARK    4  A    between atoms: C9_11  and  C10_12 
REMARK    5  A    between atoms: C10_12  and  P2_13 
REMARK    6  A    between atoms: P2_13  and  C11_14 
REMARK    7  A    between atoms: C14_17  and  C15_18 
REMARK    8  A    between atoms: C15_18  and  O1_20 
ROOT
HETATM    1  C8  UNL     1      -1.719  -0.862  -0.630  1.00  0.00     0.010 C 
HETATM    2  C9  UNL     1      -0.838  -0.643   0.320  1.00  0.00    -0.021 C 
ENDROOT
BRANCH   2   3
HETATM    3  C10 UNL     1       0.482  -1.243   0.628  1.00  0.00     0.063 C 
BRANCH   3   4
HETATM    4  P2  UNL     1       1.870  -0.024   0.614  1.00  0.00    -0.091 P 
HETATM    5  H12 UNL     1       1.619   1.078  -0.296  1.00  0.00     0.062 HD
BRANCH   4   6
HETATM    6  C11 UNL     1       3.420  -0.879   0.085  1.00  0.00    -0.025 A 
HETATM    7  C12 UNL     1       3.747  -2.161  -0.151  1.00  0.00     0.013 A 
HETATM    8  C13 UNL     1       5.120  -1.810  -0.493  1.00  0.00     0.011 A 
HETATM    9  C14 UNL     1       4.796  -0.549  -0.261  1.00  0.00    -0.019 A 
BRANCH   9  10
HETATM   10  C15 UNL     1       5.550   0.714  -0.328  1.00  0.00     0.148 C 
HETATM   11  C16 UNL     1       5.597   1.426   0.999  1.00  0.00     0.044 C 
BRANCH  10  12
HETATM   12  O1  UNL     1       4.922   1.535  -1.255  1.00  0.00    -0.391 OA
HETATM   13  H19 UNL     1       3.952   1.500  -1.152  1.00  0.00     0.210 HD
ENDBRANCH  10  12
ENDBRANCH   9  10
ENDBRANCH   4   6
ENDBRANCH   3   4
ENDBRANCH   2   3
BRANCH   1  14
HETATM   14  C7  UNL     1      -3.014  -0.319  -0.985  1.00  0.00    -0.010 A 
HETATM   15  C2  UNL     1      -3.587   0.662  -0.209  1.00  0.00     0.042 A 
HETATM   16  C3  UNL     1      -4.810   1.184  -0.567  1.00  0.00     0.030 A 
HETATM   17  C4  UNL     1      -5.403   0.687  -1.699  1.00  0.00     0.002 A 
HETATM   18  C5  UNL     1      -4.834  -0.296  -2.479  1.00  0.00     0.001 A 
HETATM   19  C6  UNL     1      -3.612  -0.807  -2.110  1.00  0.00     0.013 A 
BRANCH  15  20
HETATM   20  N1  UNL     1      -2.999   1.190   0.963  1.00  0.00    -0.356 N 
HETATM   21  H3  UNL     1      -2.308   1.954   1.131  1.00  0.00     0.165 HD
BRANCH  20  22
HETATM   22  P1  UNL     1      -3.749   0.188   2.252  1.00  0.00     0.049 P 
HETATM   23  C1  UNL     1      -5.020   0.737   3.175  1.00  0.00     0.049 C 
ENDBRANCH  20  22
ENDBRANCH  15  20
ENDBRANCH   1  14
TORSDOF 8
