REMARK  7 active torsions:
REMARK  status: ('A' for Active; 'I' for Inactive)
REMARK    1  A    between atoms: N1_1  and  C1_2 
REMARK    2  A    between atoms: C1_2  and  C2_3 
REMARK    3  A    between atoms: C5_9  and  C6_10 
REMARK    4  A    between atoms: C6_10  and  C7_11 
REMARK    5  A    between atoms: C8_12  and  C9_14 
REMARK    6  A    between atoms: C14_21  and  N5_22 
REMARK    7  A    between atoms: N5_22  and  C15_23 
ROOT
HETATM    1  C2  UNL     1      -2.342   0.553   0.363  1.00  0.00     0.184 C 
HETATM    2  O1  UNL     1      -1.208   0.589   1.208  1.00  0.00    -0.323 OA
HETATM    3  C3  UNL     1      -0.021   1.216   0.922  1.00  0.00     0.195 A 
HETATM    4  N2  UNL     1      -0.091   2.514   0.580  1.00  0.00    -0.216 NA
HETATM    5  C4  UNL     1       1.027   3.198   0.285  1.00  0.00     0.236 A 
HETATM    6  N3  UNL     1       2.214   2.590   0.331  1.00  0.00    -0.244 NA
HETATM    7  C5  UNL     1       2.353   1.278   0.669  1.00  0.00     0.070 A 
HETATM    8  C10 UNL     1       1.190   0.564   0.977  1.00  0.00     0.107 A 
HETATM    9  N4  UNL     1       1.267  -0.810   1.334  1.00  0.00    -0.381 N 
HETATM   10  C11 UNL     1       0.141  -1.714   1.196  1.00  0.00     0.147 C 
HETATM   11  C12 UNL     1      -0.246  -1.704  -0.226  1.00  0.00    -0.009 C 
HETATM   12  C13 UNL     1      -1.407  -1.361  -0.775  1.00  0.00    -0.002 C 
HETATM   13  C14 UNL     1      -2.578  -0.903   0.025  1.00  0.00     0.138 C 
HETATM   14  H12 UNL     1       2.195  -1.114   1.703  1.00  0.00     0.160 HD
ENDROOT
BRANCH   7  15
HETATM   15  C6  UNL     1       3.705   0.616   0.714  1.00  0.00     0.090 C 
BRANCH  15  16
HETATM   16  C7  UNL     1       3.869  -0.240  -0.471  1.00  0.00     0.001 C 
HETATM   17  C8  UNL     1       4.860  -0.011  -1.324  1.00  0.00     0.036 C 
HETATM   18 CL1  UNL     1       5.922   1.334  -0.953  1.00  0.00    -0.087 Cl
BRANCH  17  19
HETATM   19  C9  UNL     1       5.278  -0.679  -2.576  1.00  0.00     0.273 C 
HETATM   20  F1  UNL     1       4.470  -1.746  -2.910  1.00  0.00    -0.250 F 
ENDBRANCH  17  19
ENDBRANCH  15  16
ENDBRANCH   7  15
BRANCH   1  21
HETATM   21  C1  UNL     1      -3.559   1.173   1.023  1.00  0.00     0.301 C 
BRANCH  21  22
HETATM   22  N1  UNL     1      -4.722   1.144   0.170  1.00  0.00     0.080 N 
HETATM   23  H1  UNL     1      -4.745   1.920  -0.521  1.00  0.00     0.312 HD
HETATM   24  H2  UNL     1      -5.622   1.005   0.673  1.00  0.00     0.312 HD
ENDBRANCH  21  22
ENDBRANCH   1  21
BRANCH  13  25
HETATM   25  N5  UNL     1      -3.732  -1.075  -0.840  1.00  0.00    -0.358 N 
HETATM   26  H18 UNL     1      -3.724  -0.616  -1.772  1.00  0.00     0.162 HD
BRANCH  25  27
HETATM   27  C15 UNL     1      -4.869  -1.845  -0.463  1.00  0.00     0.349 C 
HETATM   28  O2  UNL     1      -4.935  -2.428   0.661  1.00  0.00    -0.284 OA
ENDBRANCH  25  27
ENDBRANCH  13  25
TORSDOF 7
