REMARK  6 active torsions:
REMARK  status: ('A' for Active; 'I' for Inactive)
REMARK    1  A    between atoms: O1_1  and  C1_2 
REMARK    2  A    between atoms: C2_3  and  N1_4 
REMARK    3  A    between atoms: N1_4  and  C3_5 
REMARK    4  A    between atoms: C6_8  and  C7_9 
REMARK    5  A    between atoms: C7_9  and  O2_10 
REMARK    6  A    between atoms: C7_9  and  C8_11 
ROOT
HETATM    1  C3  UNL     1       0.032  -1.390   0.505  1.00  0.00     0.128 A 
HETATM    2  C4  UNL     1      -0.291  -1.333  -0.954  1.00  0.00     0.003 A 
HETATM    3  C5  UNL     1      -1.603  -1.363  -1.100  1.00  0.00     0.008 A 
HETATM    4  C6  UNL     1      -2.316  -1.442   0.161  1.00  0.00    -0.027 A 
HETATM    5  C14 UNL     1      -1.337  -1.455   1.078  1.00  0.00     0.012 A 
ENDROOT
BRANCH   1   6
HETATM    6  N1  UNL     1       0.699  -0.143   0.809  1.00  0.00    -0.379 N 
HETATM    7  H2  UNL     1       0.458   0.640   1.479  1.00  0.00     0.160 HD
BRANCH   6   8
HETATM    8  C2  UNL     1       1.874  -0.010   0.040  1.00  0.00     0.066 C 
HETATM    9  C1  UNL     1       2.894  -0.842  -0.118  1.00  0.00     0.104 C 
HETATM   10  C20 UNL     1       3.927  -0.294  -1.025  1.00  0.00     0.304 C 
HETATM   11  N2  UNL     1       3.574   1.060  -1.179  1.00  0.00     0.108 N 
HETATM   12  C19 UNL     1       5.293  -0.615  -0.644  1.00  0.00     0.011 C 
HETATM   13  C15 UNL     1       2.183   1.187  -0.787  1.00  0.00     0.332 C 
HETATM   14  C16 UNL     1       4.358   2.050  -0.544  1.00  0.00     0.278 C 
HETATM   15  C17 UNL     1       5.483   1.599   0.312  1.00  0.00     0.057 C 
HETATM   16  C18 UNL     1       6.031   0.265  -0.018  1.00  0.00    -0.026 C 
BRANCH   9  17
HETATM   17  O1  UNL     1       3.095  -2.091   0.434  1.00  0.00    -0.360 OA
HETATM   18  H1  UNL     1       3.067  -2.256   1.425  1.00  0.00     0.217 HD
ENDBRANCH   9  17
ENDBRANCH   6   8
ENDBRANCH   1   6
BRANCH   4  19
HETATM   19  C7  UNL     1      -3.731  -1.498   0.522  1.00  0.00     0.184 C 
BRANCH  19  20
HETATM   20  O2  UNL     1      -3.942  -1.741   1.873  1.00  0.00    -0.386 OA
HETATM   21  H7  UNL     1      -3.289  -2.409   2.170  1.00  0.00     0.210 HD
ENDBRANCH  19  20
BRANCH  19  22
HETATM   22  C8  UNL     1      -4.414  -0.273   0.042  1.00  0.00    -0.025 A 
HETATM   23  C9  UNL     1      -4.002   0.781  -0.745  1.00  0.00     0.010 A 
HETATM   24  C10 UNL     1      -4.878   1.800  -1.033  1.00  0.00     0.001 A 
HETATM   25  C11 UNL     1      -6.171   1.829  -0.571  1.00  0.00     0.000 A 
HETATM   26  C12 UNL     1      -6.599   0.784   0.216  1.00  0.00     0.001 A 
HETATM   27  C13 UNL     1      -5.726  -0.267   0.524  1.00  0.00     0.010 A 
ENDBRANCH  19  22
ENDBRANCH   4  19
TORSDOF 6
