REMARK  8 active torsions:
REMARK  status: ('A' for Active; 'I' for Inactive)
REMARK    1  A    between atoms: C3_3  and  C4_4 
REMARK    2  A    between atoms: S1_5  and  C7_8 
REMARK    3  A    between atoms: C7_8  and  C8_9 
REMARK    4  A    between atoms: C7_8  and  N2_26 
REMARK       I    between atoms: C8_9  and  N1_11 
REMARK    5  A    between atoms: N1_11  and  C9_12 
REMARK    6  A    between atoms: C13_16  and  C14_17 
REMARK    7  A    between atoms: C14_17  and  O2_18 
REMARK    8  A    between atoms: C14_17  and  C15_19 
ROOT
HETATM    1  C9  UNL     1      -1.499  -1.943   0.447  1.00  0.00     0.035 A 
HETATM    2  C10 UNL     1      -1.675  -3.111   1.201  1.00  0.00     0.029 A 
HETATM    3  C11 UNL     1      -2.871  -3.450   1.790  1.00  0.00     0.003 A 
HETATM    4  C12 UNL     1      -3.887  -2.552   1.582  1.00  0.00     0.010 A 
HETATM    5  C13 UNL     1      -3.792  -1.385   0.855  1.00  0.00    -0.023 A 
HETATM    6  C21 UNL     1      -2.571  -1.092   0.285  1.00  0.00     0.039 A 
ENDROOT
BRANCH   1   7
HETATM    7  N1  UNL     1      -0.237  -1.704  -0.107  1.00  0.00    -0.324 N 
HETATM    8  C8  UNL     1       0.590  -0.907   0.878  1.00  0.00     0.269 C 
HETATM    9  O1  UNL     1      -0.541  -1.070   1.489  1.00  0.00    -0.269 OA
HETATM   10  H10 UNL     1       0.350  -1.899  -0.998  1.00  0.00     0.169 HD
BRANCH   8  11
HETATM   11  C7  UNL     1       2.097  -0.289   0.913  1.00  0.00     0.265 A 
HETATM   12  C6  UNL     1       1.651   0.111   2.177  1.00  0.00     0.104 A 
HETATM   13  C5  UNL     1       2.470   0.044   1.318  1.00  0.00     0.240 A 
HETATM   14  S1  UNL     1       3.424  -0.053   0.294  1.00  0.00    -0.064 SA
HETATM   15  N2  UNL     1       3.521  -0.063   0.186  1.00  0.00     0.006 N 
HETATM   16  C4  UNL     1       4.576  -0.147  -0.880  1.00  0.00     0.080 A 
HETATM   17  H8  UNL     1       5.185  -0.262  -1.682  1.00  0.00     0.116 HD
HETATM   18  C22 UNL     1       2.697  -0.781  -1.005  1.00  0.00     0.336 A 
BRANCH  16  19
HETATM   19  C3  UNL     1       5.968   0.333  -0.229  1.00  0.00    -0.025 C 
HETATM   20  C2  UNL     1       6.672   1.362  -0.661  1.00  0.00    -0.034 C 
HETATM   21  C1  UNL     1       6.400   2.290  -1.778  1.00  0.00     0.036 C 
ENDBRANCH  16  19
ENDBRANCH   8  11
ENDBRANCH   1   7
BRANCH   5  22
HETATM   22  C14 UNL     1      -5.010  -0.517   0.730  1.00  0.00     0.184 C 
BRANCH  22  23
HETATM   23  O2  UNL     1      -5.585  -0.419   1.981  1.00  0.00    -0.386 OA
HETATM   24  H15 UNL     1      -4.863  -0.324   2.649  1.00  0.00     0.210 HD
ENDBRANCH  22  23
BRANCH  22  25
HETATM   25  C15 UNL     1      -4.704   0.762   0.084  1.00  0.00    -0.025 A 
HETATM   26  C16 UNL     1      -4.097   1.818   0.743  1.00  0.00     0.010 A 
HETATM   27  C17 UNL     1      -3.835   2.994   0.088  1.00  0.00     0.001 A 
HETATM   28  C18 UNL     1      -4.168   3.153  -1.242  1.00  0.00     0.000 A 
HETATM   29  C19 UNL     1      -4.774   2.143  -1.960  1.00  0.00     0.001 A 
HETATM   30  C20 UNL     1      -5.021   0.971  -1.259  1.00  0.00     0.010 A 
ENDBRANCH  22  25
ENDBRANCH   5  22
TORSDOF 8
