REMARK  5 active torsions:
REMARK  status: ('A' for Active; 'I' for Inactive)
REMARK    1  A    between atoms: C2_2  and  O1_3 
REMARK    2  A    between atoms: C2_2  and  C3_4 
REMARK    3  A    between atoms: C6_7  and  N1_8 
REMARK    4  A    between atoms: N1_8  and  C7_9 
REMARK    5  A    between atoms: C8_10  and  O2_11 
ROOT
HETATM    1  N1  UNL     1      -0.049  -0.040  -1.652  1.00  0.00    -0.356 N 
HETATM    2  H8  UNL     1      -0.120  -0.084  -2.695  1.00  0.00     0.166 HD
ENDROOT
BRANCH   1   3
HETATM    3  C6  UNL     1       1.198   0.074  -0.975  1.00  0.00     0.032 A 
HETATM    4  C5  UNL     1       2.345   0.128  -1.744  1.00  0.00     0.030 A 
HETATM    5  C4  UNL     1       3.526   0.239  -1.039  1.00  0.00     0.012 A 
HETATM    6  C3  UNL     1       3.562   0.292   0.323  1.00  0.00    -0.030 A 
HETATM    7  C16 UNL     1       2.399   0.236   1.065  1.00  0.00     0.012 A 
HETATM    8  C15 UNL     1       1.186   0.124   0.401  1.00  0.00     0.030 A 
BRANCH   6   9
HETATM    9  C2  UNL     1       4.840   0.412   1.076  1.00  0.00     0.147 C 
HETATM   10  C1  UNL     1       6.043   0.163   0.196  1.00  0.00     0.044 C 
BRANCH   9  11
HETATM   11  O1  UNL     1       4.822  -0.486   2.142  1.00  0.00    -0.391 OA
HETATM   12  H5  UNL     1       5.473  -0.219   2.850  1.00  0.00     0.210 HD
ENDBRANCH   9  11
ENDBRANCH   6   9
ENDBRANCH   1   3
BRANCH   1  13
HETATM   13  C7  UNL     1      -1.391  -0.120  -1.187  1.00  0.00     0.064 A 
HETATM   14  C8  UNL     1      -2.085   0.852  -0.602  1.00  0.00     0.116 A 
HETATM   15  C9  UNL     1      -3.435   0.406  -0.258  1.00  0.00     0.066 A 
HETATM   16  C10 UNL     1      -4.464   1.004   0.322  1.00  0.00     0.010 A 
HETATM   17  N2  UNL     1      -3.492  -0.946  -0.698  1.00  0.00    -0.349 N 
HETATM   18  C11 UNL     1      -5.747   0.287   0.548  1.00  0.00     0.058 A 
HETATM   19  C12 UNL     1      -5.692  -1.113   0.052  1.00  0.00    -0.006 A 
HETATM   20  C13 UNL     1      -4.677  -1.733  -0.531  1.00  0.00     0.088 A 
HETATM   21  C14 UNL     1      -2.235  -1.350  -1.296  1.00  0.00     0.188 A 
BRANCH  14  22
HETATM   22  O2  UNL     1      -1.628   2.149  -0.327  1.00  0.00    -0.357 OA
HETATM   23  H9  UNL     1      -1.130   2.375   0.520  1.00  0.00     0.218 HD
ENDBRANCH  14  22
ENDBRANCH   1  13
TORSDOF 5
