REMARK  2 active torsions:
REMARK  status: ('A' for Active; 'I' for Inactive)
REMARK    1  A    between atoms: C2_2  and  C3_3 
REMARK       I    between atoms: C3_3  and  N1_5 
REMARK    2  A    between atoms: N1_5  and  C4_6 
ROOT
HETATM    1  C4  UNL     1       1.241  -0.450   0.663  1.00  0.00     0.035 A 
HETATM    2  C5  UNL     1       0.790   0.085   1.853  1.00  0.00     0.032 A 
HETATM    3  C6  UNL     1      -0.477   0.617   1.974  1.00  0.00     0.040 A 
HETATM    4  C7  UNL     1      -1.235   0.568   0.823  1.00  0.00     0.086 A 
HETATM    5  C8  UNL     1      -0.890   0.053  -0.438  1.00  0.00    -0.004 A 
HETATM    6  C9  UNL     1       0.419  -0.459  -0.439  1.00  0.00     0.041 A 
HETATM    7  C10 UNL     1      -1.401  -0.146  -1.775  1.00  0.00     0.167 C 
HETATM    8  N2  UNL     1      -2.842  -0.280  -1.939  1.00  0.00    -0.335 N 
HETATM    9  C11 UNL     1      -4.333  -0.332  -1.927  1.00  0.00     0.229 A 
HETATM   10  N3  UNL     1      -5.565  -0.137  -1.399  1.00  0.00    -0.239 NA
HETATM   11  C12 UNL     1      -5.865   0.410  -0.206  1.00  0.00     0.233 A 
HETATM   12  N4  UNL     1      -4.990   0.895   0.746  1.00  0.00    -0.216 NA
HETATM   13  C13 UNL     1      -3.705   0.789   0.403  1.00  0.00     0.198 A 
HETATM   14  C14 UNL     1      -3.597   0.212  -0.837  1.00  0.00     0.120 A 
HETATM   15  O2  UNL     1      -2.517   1.127   1.014  1.00  0.00    -0.290 OA
ENDROOT
BRANCH   1  16
HETATM   16  N1  UNL     1       2.562  -0.977   0.631  1.00  0.00    -0.324 N 
HETATM   17  C3  UNL     1       3.667  -0.158   0.286  1.00  0.00     0.244 C 
HETATM   18  O1  UNL     1       3.727   1.059  -0.028  1.00  0.00    -0.268 OA
HETATM   19  H4  UNL     1       2.780  -1.986   0.857  1.00  0.00     0.169 HD
BRANCH  17  20
HETATM   20  C2  UNL     1       5.015  -0.718   0.258  1.00  0.00     0.064 C 
HETATM   21  C1  UNL     1       5.928   0.199  -0.087  1.00  0.00     0.017 C 
ENDBRANCH  17  20
ENDBRANCH   1  16
TORSDOF 2
