REMARK  2 active torsions:
REMARK  status: ('A' for Active; 'I' for Inactive)
REMARK    1  A    between atoms: C11_12  and  O2_13 
REMARK    2  A    between atoms: C12_15  and  C13_16 
ROOT
HETATM    1  O1  UNL     1      -0.804  -1.078  -1.333  1.00  0.00    -0.296 OA
HETATM    2  C1  UNL     1       0.114  -1.457  -0.659  1.00  0.00     0.151 C 
HETATM    3  C2  UNL     1       0.376  -2.707   0.150  1.00  0.00     0.081 C 
HETATM    4  C3  UNL     1      -0.462  -2.318   1.425  1.00  0.00    -0.011 C 
HETATM    5  C4  UNL     1      -1.384  -1.399   1.872  1.00  0.00     0.056 C 
HETATM    6  C5  UNL     1      -2.003  -0.258   1.116  1.00  0.00    -0.042 A 
HETATM    7  C6  UNL     1      -3.394  -0.519   1.266  1.00  0.00     0.008 A 
HETATM    8  C7  UNL     1      -4.511   0.180   0.785  1.00  0.00     0.001 A 
HETATM    9  C8  UNL     1      -4.155   1.282   0.060  1.00  0.00     0.001 A 
HETATM   10  C9  UNL     1      -2.826   1.571  -0.109  1.00  0.00     0.012 A 
HETATM   11  C10 UNL     1      -1.724   0.898   0.355  1.00  0.00    -0.004 A 
HETATM   12  C11 UNL     1      -0.435   1.499  -0.010  1.00  0.00     0.249 C 
HETATM   13  N1  UNL     1       0.310   0.934  -1.082  1.00  0.00    -0.380 N 
HETATM   14  C12 UNL     1       0.982  -0.307  -0.819  1.00  0.00     0.176 C 
HETATM   15  H11 UNL     1      -0.122   0.987  -2.005  1.00  0.00     0.157 HD
ENDROOT
BRANCH  14  16
HETATM   16  C13 UNL     1       2.100  -0.194   0.155  1.00  0.00     0.147 A 
HETATM   17  N2  UNL     1       3.105  -1.228   0.016  1.00  0.00    -0.378 N 
HETATM   18  C14 UNL     1       4.122  -0.249  -0.326  1.00  0.00     0.037 A 
HETATM   19  H14 UNL     1       3.500  -2.227   0.022  1.00  0.00     0.160 HD
HETATM   20  C15 UNL     1       4.961   0.768  -0.630  1.00  0.00     0.030 A 
HETATM   21  C17 UNL     1       3.122   0.792  -0.191  1.00  0.00    -0.007 A 
HETATM   22  C16 UNL     1       3.955   1.787  -0.492  1.00  0.00     0.014 A 
ENDBRANCH  14  16
BRANCH  12  23
HETATM   23  O2  UNL     1      -0.611   2.865  -0.341  1.00  0.00    -0.373 OA
HETATM   24  H10 UNL     1      -0.595   3.450   0.448  1.00  0.00     0.212 HD
ENDBRANCH  12  23
TORSDOF 2
