REMARK  5 active torsions:
REMARK  status: ('A' for Active; 'I' for Inactive)
REMARK       I    between atoms: C1_2  and  N1_3 
REMARK    1  A    between atoms: C1_2  and  C15_18 
REMARK    2  A    between atoms: N1_3  and  C2_4 
REMARK    3  A    between atoms: C5_7  and  C6_8 
REMARK    4  A    between atoms: C6_8  and  O2_9 
REMARK    5  A    between atoms: C6_8  and  C7_10 
ROOT
HETATM    1  C2  UNL     1       0.443  -0.461  -0.673  1.00  0.00     0.035 A 
HETATM    2  C3  UNL     1       0.021  -1.783  -0.815  1.00  0.00     0.030 A 
HETATM    3  C4  UNL     1      -1.339  -2.055  -0.750  1.00  0.00     0.012 A 
HETATM    4  C5  UNL     1      -2.266  -1.047  -0.548  1.00  0.00    -0.025 A 
HETATM    5  C13 UNL     1      -1.833   0.240  -0.412  1.00  0.00     0.012 A 
HETATM    6  C14 UNL     1      -0.489   0.528  -0.474  1.00  0.00     0.030 A 
ENDROOT
BRANCH   1   7
HETATM    7  N1  UNL     1       1.811  -0.081  -0.725  1.00  0.00    -0.322 N 
HETATM    8  C1  UNL     1       2.618  -0.038   0.442  1.00  0.00     0.272 C 
HETATM    9  O1  UNL     1       2.047  -0.356   1.516  1.00  0.00    -0.266 OA
HETATM   10  H1  UNL     1       2.258   0.176  -1.621  1.00  0.00     0.169 HD
BRANCH   8  11
HETATM   11  C15 UNL     1       4.024   0.336   0.505  1.00  0.00     0.100 C 
HETATM   12  C16 UNL     1       4.519   0.285   1.731  1.00  0.00     0.035 C 
HETATM   13  C17 UNL     1       5.895   0.593   2.174  1.00  0.00     0.002 C 
HETATM   14  C18 UNL     1       6.976   0.724   1.388  1.00  0.00     0.001 C 
HETATM   15  C19 UNL     1       7.080   0.602  -0.072  1.00  0.00     0.017 C 
HETATM   16  C20 UNL     1       6.088   0.593  -0.976  1.00  0.00     0.088 C 
HETATM   17  N2  UNL     1       4.699   0.703  -0.691  1.00  0.00    -0.361 N 
HETATM   18  H18 UNL     1       4.057   1.093  -1.415  1.00  0.00     0.165 HD
ENDBRANCH   8  11
ENDBRANCH   1   7
BRANCH   4  19
HETATM   19  C6  UNL     1      -3.688  -1.527  -0.505  1.00  0.00     0.184 C 
BRANCH  19  20
HETATM   20  O2  UNL     1      -3.836  -2.659   0.270  1.00  0.00    -0.386 OA
HETATM   21  H5  UNL     1      -2.995  -2.801   0.794  1.00  0.00     0.210 HD
ENDBRANCH  19  20
BRANCH  19  22
HETATM   22  C7  UNL     1      -4.552  -0.405  -0.053  1.00  0.00    -0.025 A 
HETATM   23  C8  UNL     1      -4.677  -0.056   1.272  1.00  0.00     0.010 A 
HETATM   24  C9  UNL     1      -5.492   0.993   1.642  1.00  0.00     0.001 A 
HETATM   25  C10 UNL     1      -6.196   1.719   0.726  1.00  0.00     0.000 A 
HETATM   26  C11 UNL     1      -6.098   1.402  -0.609  1.00  0.00     0.001 A 
HETATM   27  C12 UNL     1      -5.282   0.351  -0.975  1.00  0.00     0.010 A 
ENDBRANCH  19  22
ENDBRANCH   4  19
TORSDOF 5
