REMARK  6 active torsions:
REMARK  status: ('A' for Active; 'I' for Inactive)
REMARK    1  A    between atoms: N1_1  and  C1_2 
REMARK    2  A    between atoms: C1_2  and  C2_3 
REMARK    3  A    between atoms: C2_3  and  C3_4 
REMARK    4  A    between atoms: C3_4  and  C4_5 
REMARK    5  A    between atoms: C4_5  and  C5_6 
REMARK    6  A    between atoms: C5_6  and  C6_7 
ROOT
HETATM    1  C6  UNL     1       2.137  -0.686   0.663  1.00  0.00     0.240 A 
HETATM    2  N2  UNL     1       1.711   0.294   1.445  1.00  0.00     0.011 N 
HETATM    3  C7  UNL     1       0.882   0.000   0.061  1.00  0.00     0.237 A 
HETATM    4  C8  UNL     1      -0.009   0.931  -0.148  1.00  0.00     0.031 C 
HETATM    5  C9  UNL     1      -1.099   1.549  -0.985  1.00  0.00     0.001 C 
HETATM    6  C10 UNL     1      -1.976   1.977  -1.747  1.00  0.00    -0.005 C 
HETATM    7  C11 UNL     1      -2.821   2.105  -2.893  1.00  0.00     0.006 C 
HETATM    8  C12 UNL     1      -4.248   1.862  -2.146  1.00  0.00     0.006 C 
HETATM    9  C13 UNL     1      -3.655   2.118  -0.677  1.00  0.00     0.018 C 
HETATM   10  C14 UNL     1      -4.295   2.593   0.500  1.00  0.00    -0.019 C 
HETATM   11  C15 UNL     1      -3.973   2.941   2.013  1.00  0.00    -0.005 C 
HETATM   12  C16 UNL     1      -2.617   2.996   2.663  1.00  0.00    -0.002 C 
HETATM   13  C17 UNL     1      -1.317   2.814   2.016  1.00  0.00     0.034 C 
HETATM   14  C18 UNL     1      -0.180   1.971   1.920  1.00  0.00     0.012 C 
HETATM   15  C19 UNL     1       0.694   1.160   1.659  1.00  0.00     0.174 A 
HETATM   16  C20 UNL     1       1.813   1.344   2.681  1.00  0.00     0.636 A 
HETATM   17  O1  UNL     1       2.120   2.211   3.583  1.00  0.00    -0.404 OA
ENDROOT
BRANCH   1  18
HETATM   18  C5  UNL     1       2.553  -1.661  -0.039  1.00  0.00     0.052 C 
BRANCH  18  19
HETATM   19  C4  UNL     1       2.962  -2.542  -1.028  1.00  0.00    -0.019 C 
BRANCH  19  20
HETATM   20  C3  UNL     1       3.358  -3.693  -0.770  1.00  0.00    -0.002 C 
BRANCH  20  21
HETATM   21  C2  UNL     1       3.786  -5.011  -0.171  1.00  0.00     0.016 C 
BRANCH  21  22
HETATM   22  C1  UNL     1       4.339  -6.175  -0.970  1.00  0.00     0.080 C 
BRANCH  22  23
HETATM   23  N1  UNL     1       4.712  -7.386  -0.254  1.00  0.00    -0.408 N 
HETATM   24  H1  UNL     1       3.935  -8.086  -0.131  1.00  0.00     0.155 HD
HETATM   25  H2  UNL     1       5.682  -6.818  -0.277  1.00  0.00     0.155 HD
ENDBRANCH  22  23
ENDBRANCH  21  22
ENDBRANCH  20  21
ENDBRANCH  19  20
ENDBRANCH  18  19
ENDBRANCH   1  18
TORSDOF 6
