REMARK  5 active torsions:
REMARK  status: ('A' for Active; 'I' for Inactive)
REMARK       I    between atoms: C1_2  and  N1_3 
REMARK    1  A    between atoms: C1_2  and  C15_18 
REMARK    2  A    between atoms: N1_3  and  C2_4 
REMARK    3  A    between atoms: C6_8  and  C7_9 
REMARK    4  A    between atoms: C7_9  and  O2_10 
REMARK    5  A    between atoms: C7_9  and  C8_11 
ROOT
HETATM    1  C2  UNL     1       0.163  -0.580  -1.030  1.00  0.00     0.035 A 
HETATM    2  C3  UNL     1      -0.022  -1.490  -2.050  1.00  0.00     0.029 A 
HETATM    3  C4  UNL     1      -1.211  -1.499  -2.743  1.00  0.00     0.003 A 
HETATM    4  C5  UNL     1      -2.213  -0.600  -2.419  1.00  0.00     0.010 A 
HETATM    5  C6  UNL     1      -2.021   0.317  -1.388  1.00  0.00    -0.023 A 
HETATM    6  C14 UNL     1      -0.845   0.327  -0.700  1.00  0.00     0.039 A 
ENDROOT
BRANCH   1   7
HETATM    7  N1  UNL     1       1.405  -0.615  -0.349  1.00  0.00    -0.322 N 
HETATM    8  C1  UNL     1       1.880  -1.308   0.788  1.00  0.00     0.273 C 
HETATM    9  O1  UNL     1       1.174  -2.096   1.444  1.00  0.00    -0.266 OA
HETATM   10  H1  UNL     1       2.010   0.058  -0.908  1.00  0.00     0.169 HD
BRANCH   8  11
HETATM   11  C15 UNL     1       3.264  -1.071   1.190  1.00  0.00     0.108 A 
HETATM   12  C16 UNL     1       4.005  -1.545   2.182  1.00  0.00     0.086 A 
HETATM   13  C17 UNL     1       5.184  -0.775   1.791  1.00  0.00     0.132 A 
HETATM   14  N2  UNL     1       6.432  -0.475   2.043  1.00  0.00    -0.243 NA
HETATM   15  N3  UNL     1       4.373  -0.294   0.755  1.00  0.00    -0.323 N 
HETATM   16  C18 UNL     1       7.048   0.453   1.159  1.00  0.00     0.116 A 
HETATM   17  C19 UNL     1       6.331   0.946   0.157  1.00  0.00     0.013 A 
HETATM   18  C20 UNL     1       4.928   0.660  -0.192  1.00  0.00     0.160 A 
ENDBRANCH   8  11
ENDBRANCH   1   7
BRANCH   5  19
HETATM   19  C7  UNL     1      -3.034   1.297  -0.989  1.00  0.00     0.184 C 
BRANCH  19  20
HETATM   20  O2  UNL     1      -2.524   2.576  -0.790  1.00  0.00    -0.386 OA
HETATM   21  H6  UNL     1      -2.104   2.708   0.099  1.00  0.00     0.210 HD
ENDBRANCH  19  20
BRANCH  19  22
HETATM   22  C8  UNL     1      -3.895   0.845   0.134  1.00  0.00    -0.025 A 
HETATM   23  C9  UNL     1      -3.555   1.005   1.476  1.00  0.00     0.010 A 
HETATM   24  C10 UNL     1      -4.389   0.567   2.484  1.00  0.00     0.001 A 
HETATM   25  C11 UNL     1      -5.598  -0.048   2.187  1.00  0.00     0.000 A 
HETATM   26  C12 UNL     1      -5.980  -0.229   0.879  1.00  0.00     0.001 A 
HETATM   27  C13 UNL     1      -5.110   0.226  -0.090  1.00  0.00     0.010 A 
ENDBRANCH  19  22
ENDBRANCH   5  19
TORSDOF 5
