REMARK  3 active torsions:
REMARK  status: ('A' for Active; 'I' for Inactive)
REMARK    1  A    between atoms: C7_7  and  C8_8 
REMARK    2  A    between atoms: C11_11  and  N1_12 
REMARK       I    between atoms: N1_12  and  C12_13 
REMARK    3  A    between atoms: C12_13  and  C13_15 
ROOT
HETATM    1  C8  UNL     1      -1.641   0.148  -0.293  1.00  0.00    -0.029 A 
HETATM    2  C9  UNL     1      -1.170  -0.110   0.966  1.00  0.00     0.012 A 
HETATM    3  C10 UNL     1       0.166   0.057   1.279  1.00  0.00     0.030 A 
HETATM    4  C11 UNL     1       1.030   0.493   0.289  1.00  0.00     0.035 A 
HETATM    5  C19 UNL     1       0.555   0.755  -0.987  1.00  0.00     0.030 A 
HETATM    6  C20 UNL     1      -0.769   0.587  -1.287  1.00  0.00     0.012 A 
ENDROOT
BRANCH   4   7
HETATM    7  N1  UNL     1       2.430   0.718   0.439  1.00  0.00    -0.322 N 
HETATM    8  C12 UNL     1       3.247  -0.372   0.176  1.00  0.00     0.267 C 
HETATM    9  O1  UNL     1       2.652  -1.423  -0.161  1.00  0.00    -0.266 OA
HETATM   10  H14 UNL     1       3.058   1.539   0.713  1.00  0.00     0.169 HD
BRANCH   8  11
HETATM   11  C13 UNL     1       4.688  -0.554   0.213  1.00  0.00     0.077 C 
HETATM   12  C14 UNL     1       5.436  -1.739  -0.080  1.00  0.00     0.019 C 
HETATM   13  C15 UNL     1       6.731  -1.104   0.409  1.00  0.00     0.022 C 
HETATM   14  C16 UNL     1       7.782  -0.358   0.701  1.00  0.00    -0.023 C 
HETATM   15  C18 UNL     1       6.508   0.090  -0.522  1.00  0.00     0.116 A 
HETATM   16  C17 UNL     1       6.950   1.072   0.807  1.00  0.00     0.118 A 
HETATM   17  N2  UNL     1       5.698   0.411   0.698  1.00  0.00    -0.275 NA
ENDBRANCH   8  11
ENDBRANCH   4   7
BRANCH   1  18
HETATM   18  C7  UNL     1      -3.090  -0.076  -0.480  1.00  0.00     0.158 C 
HETATM   19  C6  UNL     1      -3.458   0.580  -1.818  1.00  0.00     0.063 C 
HETATM   20  C5  UNL     1      -4.956   0.741  -1.884  1.00  0.00    -0.028 C 
HETATM   21  C4  UNL     1      -5.868   0.058  -1.166  1.00  0.00    -0.028 C 
HETATM   22  C3  UNL     1      -5.691  -1.014  -0.135  1.00  0.00     0.058 C 
HETATM   23  C2  UNL     1      -4.840  -0.461   0.978  1.00  0.00     0.121 C 
HETATM   24  C1  UNL     1      -5.764   0.260   1.937  1.00  0.00     0.040 C 
HETATM   25  O2  UNL     1      -3.876   0.441   0.545  1.00  0.00    -0.376 OA
ENDBRANCH   1  18
TORSDOF 3
