REMARK  8 active torsions:
REMARK  status: ('A' for Active; 'I' for Inactive)
REMARK    1  A    between atoms: C2_2  and  C3_3 
REMARK    2  A    between atoms: C3_3  and  C4_4 
REMARK    3  A    between atoms: C4_4  and  C5_5 
REMARK    4  A    between atoms: C5_5  and  C6_6 
REMARK    5  A    between atoms: C7_7  and  C8_8 
REMARK    6  A    between atoms: C8_8  and  C9_9 
REMARK    7  A    between atoms: C12_12  and  N1_13 
REMARK       I    between atoms: N1_13  and  C13_14 
REMARK    8  A    between atoms: C13_14  and  C14_16 
ROOT
HETATM    1  C9  UNL     1       0.201   0.961   0.285  1.00  0.00    -0.055 A 
HETATM    2  C10 UNL     1      -0.572   0.511   1.333  1.00  0.00     0.009 A 
HETATM    3  C11 UNL     1      -1.838   0.048   1.053  1.00  0.00     0.030 A 
HETATM    4  C12 UNL     1      -2.376   0.011  -0.233  1.00  0.00     0.035 A 
HETATM    5  C19 UNL     1      -1.569   0.473  -1.272  1.00  0.00     0.030 A 
HETATM    6  C20 UNL     1      -0.299   0.939  -1.005  1.00  0.00     0.009 A 
ENDROOT
BRANCH   4   7
HETATM    7  N1  UNL     1      -3.702  -0.496  -0.363  1.00  0.00    -0.322 N 
HETATM    8  C13 UNL     1      -4.811   0.388  -0.272  1.00  0.00     0.273 C 
HETATM    9  O1  UNL     1      -4.569   1.595  -0.079  1.00  0.00    -0.266 OA
HETATM   10  H14 UNL     1      -3.792  -1.513  -0.522  1.00  0.00     0.169 HD
BRANCH   8  11
HETATM   11  C14 UNL     1      -6.159  -0.104  -0.401  1.00  0.00     0.112 C 
HETATM   12  C15 UNL     1      -7.166   0.724  -0.314  1.00  0.00     0.009 C 
HETATM   13  C16 UNL     1      -8.237   0.287   0.302  1.00  0.00     0.016 C 
HETATM   14  C17 UNL     1      -8.677  -1.106   0.127  1.00  0.00     0.018 C 
HETATM   15  C18 UNL     1      -7.742  -1.933  -0.333  1.00  0.00     0.088 C 
HETATM   16  N2  UNL     1      -6.433  -1.479  -0.621  1.00  0.00    -0.361 N 
HETATM   17  H18 UNL     1      -5.685  -2.119  -0.984  1.00  0.00     0.165 HD
ENDBRANCH   8  11
ENDBRANCH   4   7
BRANCH   1  18
HETATM   18  C8  UNL     1       1.570   1.474   0.498  1.00  0.00     0.065 C 
BRANCH  18  19
HETATM   19  C7  UNL     1       2.609   0.391   0.406  1.00  0.00    -0.022 C 
HETATM   20  C6  UNL     1       3.633   0.318  -0.450  1.00  0.00     0.004 C 
BRANCH  20  21
HETATM   21  C5  UNL     1       4.620  -0.740  -0.515  1.00  0.00     0.051 C 
BRANCH  21  22
HETATM   22  C4  UNL     1       5.855  -0.388  -0.845  1.00  0.00    -0.150 C 
BRANCH  22  23
HETATM   23  C3  UNL     1       7.049   0.164  -1.005  1.00  0.00     0.071 C 
BRANCH  23  24
HETATM   24  C2  UNL     1       7.752   0.597   0.224  1.00  0.00     0.013 C 
HETATM   25  C1  UNL     1       8.385  -0.564   0.925  1.00  0.00     0.006 C 
ENDBRANCH  23  24
ENDBRANCH  22  23
ENDBRANCH  21  22
ENDBRANCH  20  21
ENDBRANCH  18  19
ENDBRANCH   1  18
TORSDOF 8
