REMARK  4 active torsions:
REMARK  status: ('A' for Active; 'I' for Inactive)
REMARK    1  A    between atoms: C2_4  and  C3_5 
REMARK       I    between atoms: C3_5  and  N2_7 
REMARK    2  A    between atoms: N2_7  and  P1_8 
REMARK    3  A    between atoms: C8_15  and  N5_16 
REMARK    4  A    between atoms: N5_16  and  C9_17 
ROOT
HETATM    1  P1  UNL     1       1.793  -1.174   1.985  1.00  0.00     0.029 P 
HETATM    2  C4  UNL     1       0.448  -0.685   1.233  1.00  0.00     0.045 A 
HETATM    3  C5  UNL     1      -0.761  -1.491   1.035  1.00  0.00     0.025 A 
HETATM    4  C6  UNL     1      -0.712  -2.759   1.545  1.00  0.00     0.001 A 
HETATM    5  N3  UNL     1      -1.815  -3.526   1.378  1.00  0.00    -0.258 NA
HETATM    6  C7  UNL     1      -2.909  -3.080   0.746  1.00  0.00     0.234 A 
HETATM    7  N4  UNL     1      -2.909  -1.833   0.266  1.00  0.00    -0.224 NA
HETATM    8  C8  UNL     1      -1.868  -0.998   0.380  1.00  0.00     0.140 A 
HETATM    9  B1  UNL     1       0.414  -3.476   2.295  1.00  0.00     0.226 B 
HETATM   10  C15 UNL     1       1.842  -2.853   2.649  1.00  0.00     0.016 A 
HETATM   11  H9  UNL     1       0.223  -4.548   2.823  1.00  0.00    -0.019 HD
ENDROOT
BRANCH   1  12
HETATM   12  N2  UNL     1       3.157  -0.615   1.403  1.00  0.00    -0.222 NA
HETATM   13  C3  UNL     1       3.191   0.703   0.863  1.00  0.00     0.267 C 
HETATM   14  O2  UNL     1       2.735   1.542   1.713  1.00  0.00    -0.269 OA
BRANCH  13  15
HETATM   15  C2  UNL     1       3.727   0.827  -0.521  1.00  0.00     0.205 C 
HETATM   16  N1  UNL     1       3.714   2.220  -0.962  1.00  0.00    -0.321 N 
HETATM   17  C1  UNL     1       4.953   2.396  -1.651  1.00  0.00     0.361 C 
HETATM   18  H1  UNL     1       2.917   2.871  -0.764  1.00  0.00     0.165 HD
HETATM   19  O1  UNL     1       5.179   3.522  -2.182  1.00  0.00    -0.238 OA
HETATM   20  O3  UNL     1       5.704   1.231  -1.597  1.00  0.00    -0.301 OA
HETATM   21  C16 UNL     1       5.176   0.403  -0.576  1.00  0.00     0.215 C 
ENDBRANCH  13  15
ENDBRANCH   1  12
BRANCH   8  22
HETATM   22  N5  UNL     1      -1.883   0.314  -0.150  1.00  0.00    -0.340 N 
HETATM   23  H5  UNL     1      -1.068   0.925  -0.102  1.00  0.00     0.167 HD
BRANCH  22  24
HETATM   24  C9  UNL     1      -2.972   0.950  -0.794  1.00  0.00     0.035 A 
HETATM   25  C10 UNL     1      -4.282   0.527  -0.730  1.00  0.00     0.032 A 
HETATM   26  C11 UNL     1      -5.336   1.136  -1.369  1.00  0.00     0.046 A 
HETATM   27  C12 UNL     1      -5.108   2.251  -2.137  1.00  0.00     0.138 A 
HETATM   28  F1  UNL     1      -6.108   2.890  -2.787  1.00  0.00    -0.204 F 
HETATM   29  C13 UNL     1      -3.819   2.726  -2.241  1.00  0.00     0.074 A 
HETATM   30 CL1  UNL     1      -3.516   4.146  -3.218  1.00  0.00    -0.081 Cl
HETATM   31  C14 UNL     1      -2.831   2.068  -1.580  1.00  0.00     0.056 A 
ENDBRANCH  22  24
ENDBRANCH   8  22
TORSDOF 4
