REMARK  6 active torsions:
REMARK  status: ('A' for Active; 'I' for Inactive)
REMARK       I    between atoms: N1_2  and  C2_3 
REMARK    1  A    between atoms: C2_3  and  O2_5 
REMARK    2  A    between atoms: O2_5  and  C3_6 
REMARK    3  A    between atoms: C6_10  and  O3_11 
REMARK    4  A    between atoms: C11_16  and  N3_17 
REMARK    5  A    between atoms: N3_17  and  C12_18 
REMARK    6  A    between atoms: C15_21  and  N4_22 
ROOT
HETATM    1  C3  UNL     1       2.833   1.773  -0.668  1.00  0.00     0.246 C 
HETATM    2  C4  UNL     1       2.511   3.056  -0.030  1.00  0.00     0.168 C 
HETATM    3  N2  UNL     1       1.294   3.117   0.802  1.00  0.00    -0.403 N 
HETATM    4  C5  UNL     1       0.801   1.975   1.576  1.00  0.00     0.099 A 
HETATM    5  C6  UNL     1       1.484   1.052   2.329  1.00  0.00     0.155 A 
HETATM    6  C8  UNL     1       0.960   0.295   1.225  1.00  0.00     0.112 A 
HETATM    7  C9  UNL     1       0.442  -0.286   0.189  1.00  0.00     0.018 C 
HETATM    8  C10 UNL     1      -0.930   0.298   0.865  1.00  0.00    -0.041 C 
HETATM    9  C11 UNL     1      -2.159  -0.226   0.920  1.00  0.00     0.095 C 
HETATM   10  C18 UNL     1      -0.721   1.709   1.507  1.00  0.00     0.076 C 
HETATM   11  N5  UNL     1       1.923   0.604  -0.166  1.00  0.00    -0.378 N 
HETATM   12  H8  UNL     1       0.634   3.941   0.945  1.00  0.00     0.154 HD
HETATM   13  H22 UNL     1       2.148  -0.056  -1.041  1.00  0.00     0.157 HD
ENDROOT
BRANCH   9  14
HETATM   14  N3  UNL     1      -2.469  -1.481   0.343  1.00  0.00    -0.365 N 
HETATM   15  H14 UNL     1      -1.860  -2.311   0.356  1.00  0.00     0.165 HD
BRANCH  14  16
HETATM   16  C12 UNL     1      -3.742  -1.600  -0.313  1.00  0.00     0.035 A 
HETATM   17  C13 UNL     1      -4.621  -0.528  -0.379  1.00  0.00     0.032 A 
HETATM   18  C14 UNL     1      -5.858  -0.576  -0.992  1.00  0.00     0.034 A 
HETATM   19  C15 UNL     1      -6.245  -1.773  -1.580  1.00  0.00     0.065 A 
HETATM   20  C16 UNL     1      -5.381  -2.855  -1.526  1.00  0.00     0.144 A 
HETATM   21  F1  UNL     1      -5.793  -4.009  -2.112  1.00  0.00    -0.204 F 
HETATM   22  C17 UNL     1      -4.143  -2.779  -0.902  1.00  0.00     0.074 A 
BRANCH  19  23
HETATM   23  N4  UNL     1      -7.519  -1.832  -2.216  1.00  0.00    -0.397 N 
HETATM   24  H17 UNL     1      -8.307  -1.247  -1.853  1.00  0.00     0.156 HD
HETATM   25  H18 UNL     1      -7.595  -2.484  -3.041  1.00  0.00     0.156 HD
ENDBRANCH  19  23
ENDBRANCH  14  16
ENDBRANCH   9  14
BRANCH   5  26
HETATM   26  O3  UNL     1       2.271   0.503   3.389  1.00  0.00    -0.376 OA
HETATM   27  C7  UNL     1       1.628  -0.020   4.529  1.00  0.00     0.203 C 
ENDBRANCH   5  26
BRANCH   1  28
HETATM   28  O2  UNL     1       4.100   1.245  -0.482  1.00  0.00    -0.277 OA
BRANCH  28  29
HETATM   29  C2  UNL     1       4.950   0.863  -1.519  1.00  0.00     0.362 C 
HETATM   30  N1  UNL     1       6.236   0.326  -1.336  1.00  0.00    -0.341 N 
HETATM   31  C1  UNL     1       7.066  -0.049  -2.459  1.00  0.00     0.151 C 
HETATM   32  H4  UNL     1       6.608   0.193  -0.372  1.00  0.00     0.164 HD
HETATM   33  O1  UNL     1       4.427   1.055  -2.647  1.00  0.00    -0.238 OA
ENDBRANCH  28  29
ENDBRANCH   1  28
TORSDOF 6
