REMARK  4 active torsions:
REMARK  status: ('A' for Active; 'I' for Inactive)
REMARK    1  A    between atoms: C3_5  and  C4_7 
REMARK    2  A    between atoms: C5_8  and  C6_9 
REMARK    3  A    between atoms: C7_10  and  N2_11 
REMARK    4  A    between atoms: N2_11  and  C8_12 
ROOT
HETATM    1  C6  UNL     1      -0.071  -0.994  -1.045  1.00  0.00     0.017 C 
HETATM    2  C7  UNL     1       1.180  -1.314  -0.770  1.00  0.00     0.088 C 
ENDROOT
BRANCH   1   3
HETATM    3  C5  UNL     1      -0.625  -0.729  -2.365  1.00  0.00     0.004 C 
HETATM    4  C4  UNL     1      -1.892  -0.454  -2.134  1.00  0.00     0.037 C 
BRANCH   4   5
HETATM    5  C3  UNL     1      -2.350  -0.486  -0.760  1.00  0.00     0.096 A 
HETATM    6  C2  UNL     1      -3.772  -0.184  -0.463  1.00  0.00     0.264 A 
HETATM    7  N1  UNL     1      -4.028  -0.255   0.958  1.00  0.00    -0.306 N 
HETATM    8  C14 UNL     1      -4.055   1.261  -0.783  1.00  0.00     0.237 C 
HETATM    9  O2  UNL     1      -2.523  -0.568   0.456  1.00  0.00    -0.322 OA
HETATM   10  C1  UNL     1      -4.772   0.887   1.369  1.00  0.00     0.362 C 
HETATM   11  H1  UNL     1      -3.844  -0.883   1.798  1.00  0.00     0.167 HD
HETATM   12  O1  UNL     1      -5.256   1.413   2.407  1.00  0.00    -0.238 OA
HETATM   13  O3  UNL     1      -5.011   1.621   0.191  1.00  0.00    -0.299 OA
ENDBRANCH   4   5
ENDBRANCH   1   3
BRANCH   2  14
HETATM   14  N2  UNL     1       2.202  -1.648   0.151  1.00  0.00    -0.366 N 
HETATM   15  H7  UNL     1       2.324  -2.613   0.515  1.00  0.00     0.165 HD
BRANCH  14  16
HETATM   16  C8  UNL     1       3.074  -0.618   0.574  1.00  0.00     0.033 A 
HETATM   17  C9  UNL     1       2.947   0.674   0.091  1.00  0.00     0.032 A 
HETATM   18  C10 UNL     1       3.813   1.689   0.517  1.00  0.00     0.046 A 
HETATM   19  C11 UNL     1       4.795   1.329   1.438  1.00  0.00     0.138 A 
HETATM   20  F1  UNL     1       5.618   2.333   1.831  1.00  0.00    -0.204 F 
HETATM   21  C12 UNL     1       4.974   0.069   1.954  1.00  0.00     0.074 A 
HETATM   22 CL1  UNL     1       6.225  -0.322   3.109  1.00  0.00    -0.081 Cl
HETATM   23  C13 UNL     1       4.070  -0.854   1.471  1.00  0.00     0.056 A 
ENDBRANCH  14  16
ENDBRANCH   2  14
TORSDOF 4
