REMARK  2 active torsions:
REMARK  status: ('A' for Active; 'I' for Inactive)
REMARK    1  A    between atoms: N1_1  and  C1_2 
REMARK    2  A    between atoms: C15_19  and  C16_20 
ROOT
HETATM    1  C1  UNL     1       1.913  -0.020   2.012  1.00  0.00     0.274 C 
HETATM    2  C2  UNL     1       0.601   0.625   2.334  1.00  0.00     0.015 C 
HETATM    3  C3  UNL     1      -0.385   0.593   1.451  1.00  0.00    -0.061 C 
HETATM    4  C4  UNL     1      -1.212   1.782   1.263  1.00  0.00     0.157 C 
HETATM    5  N2  UNL     1      -2.623   1.691   1.298  1.00  0.00    -0.354 N 
HETATM    6  C5  UNL     1      -4.063   1.598   1.333  1.00  0.00     0.241 C 
HETATM    7  O1  UNL     1      -4.068   1.400   2.557  1.00  0.00    -0.269 OA
HETATM    8  C6  UNL     1      -5.174   1.666   0.350  1.00  0.00     0.070 C 
HETATM    9  C7  UNL     1      -5.306   1.654  -0.961  1.00  0.00    -0.017 C 
HETATM   10  C8  UNL     1      -4.529   1.541  -2.268  1.00  0.00     0.054 C 
HETATM   11  C9  UNL     1      -3.167   0.992  -1.913  1.00  0.00    -0.023 C 
HETATM   12  C10 UNL     1      -2.592  -0.108  -2.381  1.00  0.00    -0.004 C 
HETATM   13  C11 UNL     1      -1.483  -1.082  -2.444  1.00  0.00    -0.002 C 
HETATM   14  C12 UNL     1      -0.366  -1.122  -1.741  1.00  0.00     0.005 C 
HETATM   15  C13 UNL     1       0.186  -0.267  -0.666  1.00  0.00     0.149 C 
HETATM   16  C14 UNL     1      -0.752  -0.513   0.525  1.00  0.00     0.071 C 
HETATM   17  O2  UNL     1       1.484  -0.419  -0.360  1.00  0.00    -0.369 OA
HETATM   18  C15 UNL     1       1.864  -0.967   0.841  1.00  0.00     0.192 C 
HETATM   19  H7  UNL     1      -2.933   2.119   0.429  1.00  0.00     0.163 HD
ENDROOT
BRANCH  18  20
HETATM   20  C16 UNL     1       3.302  -1.393   0.631  1.00  0.00    -0.027 A 
HETATM   21  C17 UNL     1       4.348  -1.255   1.513  1.00  0.00     0.010 A 
HETATM   22  C18 UNL     1       5.608  -1.690   1.166  1.00  0.00     0.001 A 
HETATM   23  C19 UNL     1       5.889  -2.274  -0.052  1.00  0.00     0.000 A 
HETATM   24  C20 UNL     1       4.848  -2.417  -0.945  1.00  0.00     0.001 A 
HETATM   25  C21 UNL     1       3.592  -1.976  -0.582  1.00  0.00     0.010 A 
ENDBRANCH  18  20
BRANCH   1  26
HETATM   26  N1  UNL     1       2.899   1.006   1.657  1.00  0.00     0.089 N 
HETATM   27  H1  UNL     1       3.036   1.053   0.625  1.00  0.00     0.313 HD
HETATM   28  H2  UNL     1       2.585   1.897   2.089  1.00  0.00     0.313 HD
ENDBRANCH   1  26
TORSDOF 2
