REMARK  5 active torsions:
REMARK  status: ('A' for Active; 'I' for Inactive)
REMARK    1  A    between atoms: C7_12  and  C8_13 
REMARK    2  A    between atoms: C8_13  and  C9_14 
REMARK    3  A    between atoms: C10_15  and  C12_17 
REMARK    4  A    between atoms: C12_17  and  O2_18 
REMARK    5  A    between atoms: C12_17  and  C13_19 
ROOT
HETATM    1  C1  UNL     1       4.582  -2.955  -1.869  1.00  0.00     0.044 C 
HETATM    2  C2  UNL     1       4.123  -1.854  -0.899  1.00  0.00    -0.077 C 
HETATM    3  C3  UNL     1       5.059  -1.132  -0.219  1.00  0.00    -0.001 C 
HETATM    4  C4  UNL     1       5.885  -0.233   0.616  1.00  0.00     0.201 C 
HETATM    5  N1  UNL     1       5.226   0.672   1.402  1.00  0.00    -0.193 NA
HETATM    6  N2  UNL     1       5.496   1.516   2.247  1.00  0.00    -0.178 NA
HETATM    7  C5  UNL     1       4.400   2.307   2.870  1.00  0.00     0.299 C 
HETATM    8  N3  UNL     1       3.212   1.762   2.326  1.00  0.00    -0.323 N 
HETATM    9  C6  UNL     1       2.051   1.246   1.810  1.00  0.00     0.322 C 
HETATM   10  O1  UNL     1       1.060   1.745   2.194  1.00  0.00    -0.247 OA
HETATM   11  N4  UNL     1       1.442   0.343   0.981  1.00  0.00    -0.309 N 
HETATM   12  C7  UNL     1       0.820  -0.576   0.138  1.00  0.00     0.033 C 
HETATM   13  C19 UNL     1       1.401  -1.597  -0.765  1.00  0.00     0.013 C 
HETATM   14  C20 UNL     1       2.744  -1.476  -0.607  1.00  0.00     0.050 C 
HETATM   15  H9  UNL     1       3.598   1.040   1.732  1.00  0.00     0.166 HD
HETATM   16  H10 UNL     1       2.323  -0.052   0.686  1.00  0.00     0.170 HD
ENDROOT
BRANCH  12  17
HETATM   17  C8  UNL     1      -0.439  -0.385   0.261  1.00  0.00     0.029 C 
BRANCH  17  18
HETATM   18  C9  UNL     1      -1.651   0.158   0.700  1.00  0.00     0.007 C 
HETATM   19  C10 UNL     1      -2.945   0.201   0.690  1.00  0.00    -0.051 C 
HETATM   20  C11 UNL     1      -3.682   1.170   1.527  1.00  0.00     0.046 C 
BRANCH  19  21
HETATM   21  C12 UNL     1      -3.711  -0.734  -0.166  1.00  0.00     0.180 C 
BRANCH  21  22
HETATM   22  O2  UNL     1      -4.543  -1.535   0.589  1.00  0.00    -0.387 OA
HETATM   23  H17 UNL     1      -4.262  -2.474   0.467  1.00  0.00     0.210 HD
ENDBRANCH  21  22
BRANCH  21  24
HETATM   24  C13 UNL     1      -4.536   0.077  -1.119  1.00  0.00    -0.025 A 
HETATM   25  C14 UNL     1      -4.194   0.259  -2.462  1.00  0.00     0.010 A 
HETATM   26  C15 UNL     1      -5.013   1.024  -3.287  1.00  0.00     0.001 A 
HETATM   27  C16 UNL     1      -6.167   1.619  -2.821  1.00  0.00     0.000 A 
HETATM   28  C17 UNL     1      -6.512   1.440  -1.480  1.00  0.00     0.001 A 
HETATM   29  C18 UNL     1      -5.689   0.681  -0.683  1.00  0.00     0.010 A 
ENDBRANCH  21  24
ENDBRANCH  19  21
ENDBRANCH  17  18
ENDBRANCH  12  17
TORSDOF 5
