REMARK  0 active torsions:
REMARK  status: ('A' for Active; 'I' for Inactive)
ROOT
HETATM    1  O1  UNL     1       4.320   1.913  -0.960  1.00  0.00    -0.292 OA
HETATM    2  C1  UNL     1       3.168   1.365  -0.767  1.00  0.00     0.163 C 
HETATM    3  C2  UNL     1       3.538   0.016  -0.388  1.00  0.00     0.034 C 
HETATM    4  C3  UNL     1       3.302  -1.223  -0.033  1.00  0.00     0.045 C 
HETATM    5  C4  UNL     1       2.597  -2.449   0.322  1.00  0.00    -0.019 C 
HETATM    6  C5  UNL     1       1.500  -3.154   0.527  1.00  0.00    -0.004 C 
HETATM    7  C6  UNL     1       0.156  -2.537   0.347  1.00  0.00     0.197 C 
HETATM    8  O2  UNL     1       0.228  -1.237  -0.034  1.00  0.00    -0.363 OA
HETATM    9  C7  UNL     1      -1.015  -0.676  -0.209  1.00  0.00     0.127 C 
HETATM   10  C8  UNL     1      -1.260  -0.517  -1.674  1.00  0.00     0.032 C 
HETATM   11  C9  UNL     1      -2.405  -0.552  -2.333  1.00  0.00    -0.026 C 
HETATM   12  C10 UNL     1      -3.356  -1.244  -1.783  1.00  0.00     0.012 C 
HETATM   13  C11 UNL     1      -3.221  -1.770  -0.416  1.00  0.00     0.000 C 
HETATM   14  C12 UNL     1      -2.118  -1.491   0.300  1.00  0.00     0.020 C 
HETATM   15  C13 UNL     1      -0.987   0.678   0.452  1.00  0.00     0.010 A 
HETATM   16  C14 UNL     1      -1.866   0.836   1.501  1.00  0.00     0.013 A 
HETATM   17  C15 UNL     1      -2.057   1.966   2.260  1.00  0.00     0.001 A 
HETATM   18  C16 UNL     1      -1.296   3.073   1.954  1.00  0.00     0.002 A 
HETATM   19  C17 UNL     1      -0.409   2.901   0.889  1.00  0.00     0.030 A 
HETATM   20  C18 UNL     1      -0.228   1.734   0.124  1.00  0.00     0.038 A 
HETATM   21  N1  UNL     1       0.781   2.076  -0.802  1.00  0.00    -0.382 N 
HETATM   22  C19 UNL     1       2.168   2.367  -1.028  1.00  0.00     0.202 C 
HETATM   23  H15 UNL     1       0.038   2.109  -1.522  1.00  0.00     0.160 HD
ENDROOT
TORSDOF 0
