REMARK  5 active torsions:
REMARK  status: ('A' for Active; 'I' for Inactive)
REMARK    1  A    between atoms: O1_2  and  C2_3 
REMARK    2  A    between atoms: C6_9  and  N3_10 
REMARK    3  A    between atoms: N3_10  and  C7_11 
REMARK    4  A    between atoms: C15_21  and  N4_22 
REMARK       I    between atoms: N4_22  and  C16_23 
REMARK    5  A    between atoms: C16_23  and  C17_25 
ROOT
HETATM    1  C2  UNL     1       1.132  -1.714  -0.502  1.00  0.00     0.097 A 
HETATM    2  C3  UNL     1       0.254  -2.353  -1.380  1.00  0.00     0.071 A 
HETATM    3  C4  UNL     1      -0.945  -1.713  -1.666  1.00  0.00     0.075 A 
HETATM    4  N1  UNL     1      -1.825  -2.269  -2.503  1.00  0.00    -0.241 NA
HETATM    5  C5  UNL     1      -3.001  -1.699  -2.828  1.00  0.00     0.236 A 
HETATM    6  N2  UNL     1      -3.276  -0.500  -2.259  1.00  0.00    -0.224 NA
HETATM    7  C6  UNL     1      -2.425   0.104  -1.409  1.00  0.00     0.142 A 
HETATM    8  C13 UNL     1      -1.231  -0.495  -1.091  1.00  0.00     0.041 A 
HETATM    9  C14 UNL     1      -0.396   0.165  -0.227  1.00  0.00     0.050 A 
HETATM   10  C15 UNL     1       0.786  -0.473   0.051  1.00  0.00     0.069 A 
ENDROOT
BRANCH  10  11
HETATM   11  N4  UNL     1       1.788   0.036   0.915  1.00  0.00    -0.323 N 
HETATM   12  C16 UNL     1       2.641   0.920   0.205  1.00  0.00     0.258 C 
HETATM   13  O2  UNL     1       2.506   1.215  -1.037  1.00  0.00    -0.271 OA
HETATM   14  H11 UNL     1       2.157   0.012   1.902  1.00  0.00     0.169 HD
BRANCH  12  15
HETATM   15  C17 UNL     1       3.853   1.747   0.537  1.00  0.00     0.342 C 
HETATM   16  C18 UNL     1       5.022   1.342  -0.283  1.00  0.00     0.219 C 
HETATM   17  O3  UNL     1       6.061   1.200   0.619  1.00  0.00    -0.331 OA
HETATM   18  C19 UNL     1       5.477   0.772   1.813  1.00  0.00     0.546 C 
HETATM   19  F2  UNL     1       5.356  -0.601   1.856  1.00  0.00    -0.185 F 
HETATM   20  N5  UNL     1       4.200   1.431   1.886  1.00  0.00     0.158 N 
HETATM   21  H16 UNL     1       4.169   2.283   2.467  1.00  0.00     0.323 HD
ENDBRANCH  12  15
ENDBRANCH  10  11
BRANCH   1  22
HETATM   22  O1  UNL     1       2.330  -2.328  -0.198  1.00  0.00    -0.354 OA
HETATM   23  C1  UNL     1       2.758  -3.574  -0.710  1.00  0.00     0.210 C 
ENDBRANCH   1  22
BRANCH   7  24
HETATM   24  N3  UNL     1      -2.866   1.378  -0.908  1.00  0.00    -0.340 N 
HETATM   25  H6  UNL     1      -2.422   2.268  -1.226  1.00  0.00     0.167 HD
BRANCH  24  26
HETATM   26  C7  UNL     1      -3.925   1.343   0.042  1.00  0.00     0.035 A 
HETATM   27  C8  UNL     1      -4.460   0.183   0.503  1.00  0.00     0.032 A 
HETATM   28  C9  UNL     1      -5.517   0.238   1.415  1.00  0.00     0.046 A 
HETATM   29  C10 UNL     1      -5.975   1.474   1.814  1.00  0.00     0.138 A 
HETATM   30  F1  UNL     1      -7.017   1.593   2.703  1.00  0.00    -0.204 F 
HETATM   31  C11 UNL     1      -5.459   2.692   1.372  1.00  0.00     0.074 A 
HETATM   32 CL1  UNL     1      -6.071   4.240   1.902  1.00  0.00    -0.081 Cl
HETATM   33  C12 UNL     1      -4.414   2.563   0.469  1.00  0.00     0.056 A 
ENDBRANCH  24  26
ENDBRANCH   7  24
TORSDOF 5
