REMARK  7 active torsions:
REMARK  status: ('A' for Active; 'I' for Inactive)
REMARK    1  A    between atoms: O1_2  and  C2_3 
REMARK    2  A    between atoms: C6_9  and  N3_10 
REMARK    3  A    between atoms: N3_10  and  C7_11 
REMARK    4  A    between atoms: C8_12  and  C9_13 
REMARK    5  A    between atoms: C11_16  and  C12_17 
REMARK    6  A    between atoms: C15_20  and  N4_21 
REMARK       I    between atoms: N4_21  and  C16_22 
REMARK    7  A    between atoms: C16_22  and  C17_24 
ROOT
HETATM    1  C2  UNL     1       0.977   2.002  -0.722  1.00  0.00     0.097 A 
HETATM    2  C3  UNL     1      -0.180   2.750  -0.762  1.00  0.00     0.071 A 
HETATM    3  C4  UNL     1      -1.386   2.216  -0.370  1.00  0.00     0.075 A 
HETATM    4  N1  UNL     1      -2.500   2.970  -0.408  1.00  0.00    -0.241 NA
HETATM    5  C5  UNL     1      -3.690   2.435  -0.007  1.00  0.00     0.235 A 
HETATM    6  N2  UNL     1      -3.763   1.168   0.424  1.00  0.00    -0.224 NA
HETATM    7  C6  UNL     1      -2.706   0.329   0.501  1.00  0.00     0.138 A 
HETATM    8  C13 UNL     1      -1.503   0.899   0.086  1.00  0.00     0.041 A 
HETATM    9  C14 UNL     1      -0.333   0.183   0.113  1.00  0.00     0.050 A 
HETATM   10  C15 UNL     1       0.901   0.678  -0.272  1.00  0.00     0.069 A 
ENDROOT
BRANCH  10  11
HETATM   11  N4  UNL     1       2.045  -0.155  -0.188  1.00  0.00    -0.323 N 
HETATM   12  C16 UNL     1       2.938  -0.209   0.911  1.00  0.00     0.247 C 
HETATM   13  O2  UNL     1       2.896   0.450   1.986  1.00  0.00    -0.271 OA
HETATM   14  H10 UNL     1       2.179  -0.742  -1.034  1.00  0.00     0.169 HD
BRANCH  12  15
HETATM   15  C17 UNL     1       4.111  -1.101   0.952  1.00  0.00     0.203 C 
HETATM   16  C18 UNL     1       5.406  -0.300   0.796  1.00  0.00     0.215 C 
HETATM   17  O3  UNL     1       6.281  -1.218   0.171  1.00  0.00    -0.301 OA
HETATM   18  C19 UNL     1       5.537  -2.277  -0.392  1.00  0.00     0.361 C 
HETATM   19  O4  UNL     1       5.982  -3.315  -0.964  1.00  0.00    -0.238 OA
HETATM   20  N5  UNL     1       4.137  -1.985  -0.212  1.00  0.00    -0.321 N 
HETATM   21  H14 UNL     1       3.376  -2.367  -0.818  1.00  0.00     0.165 HD
ENDBRANCH  12  15
ENDBRANCH  10  11
BRANCH   1  22
HETATM   22  O1  UNL     1       2.232   2.458  -1.097  1.00  0.00    -0.354 OA
HETATM   23  C1  UNL     1       2.365   3.790  -1.551  1.00  0.00     0.210 C 
ENDBRANCH   1  22
BRANCH   7  24
HETATM   24  N3  UNL     1      -2.633  -1.034   0.953  1.00  0.00    -0.357 N 
HETATM   25  H6  UNL     1      -2.146  -1.402   1.807  1.00  0.00     0.162 HD
BRANCH  24  26
HETATM   26  C7  UNL     1      -3.386  -1.547  -0.100  1.00  0.00     0.094 A 
HETATM   27  C8  UNL     1      -4.328  -2.100  -0.489  1.00  0.00    -0.034 A 
HETATM   28  C12 UNL     1      -4.527  -2.122   0.860  1.00  0.00     0.065 A 
BRANCH  27  29
HETATM   29  C9  UNL     1      -5.197  -2.609  -0.826  1.00  0.00    -0.022 A 
HETATM   30  C10 UNL     1      -6.146  -3.164  -1.167  1.00  0.00     0.176 A 
HETATM   31  F1  UNL     1      -7.275  -3.779  -0.862  1.00  0.00    -0.233 F 
HETATM   32  C11 UNL     1      -5.836  -2.888   0.374  1.00  0.00     0.077 A 
ENDBRANCH  27  29
ENDBRANCH  24  26
ENDBRANCH   7  24
TORSDOF 7
