REMARK  0 active torsions:
REMARK  status: ('A' for Active; 'I' for Inactive)
ROOT
HETATM    1  C1  UNL     1       3.949  -1.605  -0.546  1.00  0.00     0.000 C 
HETATM    2  O1  UNL     1       2.773  -0.861  -0.286  1.00  0.00     0.000 OA
HETATM    3  C2  UNL     1       1.709  -1.331   0.436  1.00  0.00    -0.053 A 
HETATM    4  C3  UNL     1       1.632   0.019   0.452  1.00  0.00     0.029 A 
HETATM    5  C4  UNL     1       1.825   1.446   0.278  1.00  0.00     0.045 C 
HETATM    6  C5  UNL     1       0.592   2.275  -0.049  1.00  0.00    -0.068 C 
HETATM    7  C6  UNL     1       0.488   3.387   0.729  1.00  0.00     0.087 C 
HETATM    8 CL1  UNL     1       1.672   3.749   1.938  1.00  0.00    -0.097 Cl
HETATM    9  C7  UNL     1      -0.667   2.159  -1.005  1.00  0.00     0.038 C 
HETATM   10  C8  UNL     1      -1.111   0.912  -0.545  1.00  0.00     0.048 C 
HETATM   11  C9  UNL     1      -1.978  -0.245  -0.481  1.00  0.00     0.138 C 
HETATM   12  C10 UNL     1      -2.356  -0.982  -1.687  1.00  0.00     0.221 C 
HETATM   13  O2  UNL     1      -3.754  -0.705  -1.832  1.00  0.00    -0.301 OA
HETATM   14  C11 UNL     1      -4.300  -0.294  -0.627  1.00  0.00     0.361 C 
HETATM   15  O3  UNL     1      -5.501  -0.154  -0.294  1.00  0.00    -0.238 OA
HETATM   16  N1  UNL     1      -3.196  -0.039   0.237  1.00  0.00    -0.317 N 
HETATM   17  C12 UNL     1      -0.994  -1.107   0.404  1.00  0.00     0.248 C 
HETATM   18  O4  UNL     1      -0.239  -1.501  -0.519  1.00  0.00    -0.271 OA
HETATM   19  N2  UNL     1      -0.378  -1.737   1.570  1.00  0.00    -0.355 N 
HETATM   20  C13 UNL     1       0.828  -2.411   1.035  1.00  0.00     0.157 C 
HETATM   21  H14 UNL     1      -3.156   0.257   1.254  1.00  0.00     0.166 HD
HETATM   22  H15 UNL     1      -1.229  -1.256   1.922  1.00  0.00     0.162 HD
ENDROOT
TORSDOF 0
