REMARK  5 active torsions:
REMARK  status: ('A' for Active; 'I' for Inactive)
REMARK    1  A    between atoms: C2_2  and  C3_3 
REMARK    2  A    between atoms: C4_4  and  C5_6 
REMARK    3  A    between atoms: C5_6  and  C6_7 
REMARK    4  A    between atoms: C9_12  and  C10_13 
REMARK    5  A    between atoms: C10_13  and  C11_14 
ROOT
HETATM    1  C6  UNL     1       0.668   1.308  -0.846  1.00  0.00     0.075 C 
HETATM    2  N1  UNL     1      -0.555   1.375  -0.316  1.00  0.00    -0.179 NA
HETATM    3  C7  UNL     1      -1.524   1.718  -1.306  1.00  0.00     0.205 A 
HETATM    4  N2  UNL     1      -1.884   0.705  -0.781  1.00  0.00    -0.216 NA
HETATM    5  C8  UNL     1      -1.849  -0.343   0.066  1.00  0.00     0.145 C 
HETATM    6  C9  UNL     1      -1.003  -0.360   1.294  1.00  0.00    -0.064 C 
HETATM    7  C14 UNL     1       0.359  -0.445   1.846  1.00  0.00     0.055 C 
HETATM    8  C15 UNL     1       1.206   0.735   1.567  1.00  0.00     0.124 C 
HETATM    9  N3  UNL     1       1.548   0.941   0.183  1.00  0.00    -0.383 N 
HETATM   10  H19 UNL     1       2.557   0.787  -0.112  1.00  0.00     0.160 HD
ENDROOT
BRANCH   1  11
HETATM   11  C5  UNL     1       1.077   1.543  -2.244  1.00  0.00     0.117 C 
BRANCH  11  12
HETATM   12  C4  UNL     1       1.762   0.402  -2.901  1.00  0.00    -0.005 C 
HETATM   13  C3  UNL     1       2.931   0.383  -3.578  1.00  0.00     0.011 C 
HETATM   14 BR1  UNL     1       0.772  -1.218  -2.718  1.00  0.00    -0.055 Br
BRANCH  13  15
HETATM   15  C2  UNL     1       2.883  -1.050  -3.894  1.00  0.00    -0.008 C 
HETATM   16  C1  UNL     1       3.414  -2.140  -4.464  1.00  0.00     0.013 C 
ENDBRANCH  13  15
ENDBRANCH  11  12
ENDBRANCH   1  11
BRANCH   6  17
HETATM   17  C10 UNL     1      -1.943  -0.388   2.337  1.00  0.00     0.005 C 
BRANCH  17  18
HETATM   18  C11 UNL     1      -3.183  -0.413   3.194  1.00  0.00     0.014 C 
HETATM   19  C12 UNL     1      -3.599  -0.443   4.512  1.00  0.00    -0.015 C 
HETATM   20  C13 UNL     1      -2.311  -0.446   5.223  1.00  0.00     0.056 C 
HETATM   21 BR2  UNL     1      -5.472  -0.464   4.203  1.00  0.00    -0.056 Br
ENDBRANCH  17  18
ENDBRANCH   6  17
TORSDOF 5
