REMARK  5 active torsions:
REMARK  status: ('A' for Active; 'I' for Inactive)
REMARK    1  A    between atoms: N1_2  and  C2_3 
REMARK    2  A    between atoms: C2_3  and  N2_4 
REMARK    3  A    between atoms: N2_4  and  C3_5 
REMARK    4  A    between atoms: C8_11  and  O1_12 
REMARK    5  A    between atoms: C14_19  and  N4_20 
ROOT
HETATM    1  C2  UNL     1       0.758  -0.192   0.654  1.00  0.00     0.154 C 
HETATM    2  C9  UNL     1       0.215  -0.794  -0.386  1.00  0.00     0.107 A 
HETATM    3  N3  UNL     1       0.838  -1.983  -0.858  1.00  0.00    -0.259 NA
HETATM    4  C10 UNL     1       0.371  -2.635  -1.869  1.00  0.00     0.117 A 
HETATM    5  C11 UNL     1      -0.816  -2.218  -2.603  1.00  0.00     0.024 A 
HETATM    6  C12 UNL     1      -1.395  -1.115  -2.166  1.00  0.00    -0.053 A 
HETATM    7  C13 UNL     1      -2.603  -0.603  -2.835  1.00  0.00     0.046 C 
HETATM    8  C14 UNL     1      -1.003  -0.234  -1.024  1.00  0.00     0.179 A 
ENDROOT
BRANCH   1   9
HETATM    9  N1  UNL     1       0.343   0.984   1.310  1.00  0.00    -0.252 NA
HETATM   10  C1  UNL     1      -0.224   0.937   2.471  1.00  0.00     0.151 C 
ENDBRANCH   1   9
BRANCH   1  11
HETATM   11  N2  UNL     1       1.920  -0.686   1.300  1.00  0.00    -0.337 N 
HETATM   12  H3  UNL     1       1.897  -1.351   2.122  1.00  0.00     0.167 HD
BRANCH  11  13
HETATM   13  C3  UNL     1       3.180  -0.270   0.826  1.00  0.00     0.068 A 
HETATM   14  C4  UNL     1       3.293   0.597  -0.241  1.00  0.00     0.051 A 
HETATM   15  C5  UNL     1       4.495   1.043  -0.755  1.00  0.00     0.013 A 
HETATM   16 BR1  UNL     1       4.602   2.244  -2.234  1.00  0.00    -0.051 Br
HETATM   17  C6  UNL     1       5.641   0.594  -0.165  1.00  0.00     0.022 A 
HETATM   18  C7  UNL     1       5.602  -0.285   0.919  1.00  0.00     0.040 A 
HETATM   19  C8  UNL     1       4.366  -0.709   1.405  1.00  0.00     0.092 A 
BRANCH  19  20
HETATM   20  O1  UNL     1       4.258  -1.581   2.478  1.00  0.00    -0.358 OA
HETATM   21  H7  UNL     1       5.014  -1.831   3.093  1.00  0.00     0.217 HD
ENDBRANCH  19  20
ENDBRANCH  11  13
ENDBRANCH   1  11
BRANCH   8  22
HETATM   22  N4  UNL     1      -2.087  -0.006  -0.121  1.00  0.00    -0.283 N 
HETATM   23  C15 UNL     1      -2.617   1.294   0.082  1.00  0.00     0.010 C 
HETATM   24  C16 UNL     1      -2.075   2.377  -0.445  1.00  0.00     0.038 C 
HETATM   25  C17 UNL     1      -3.811   1.673   0.879  1.00  0.00     0.083 C 
HETATM   26  C18 UNL     1      -4.489   0.524   1.518  1.00  0.00     0.186 C 
HETATM   27  O2  UNL     1      -3.785  -0.690   1.499  1.00  0.00    -0.303 OA
HETATM   28  C19 UNL     1      -2.739  -1.010   0.649  1.00  0.00     0.368 C 
HETATM   29  O3  UNL     1      -2.306  -2.204   0.509  1.00  0.00    -0.238 OA
ENDBRANCH   8  22
TORSDOF 5
