REMARK  8 active torsions:
REMARK  status: ('A' for Active; 'I' for Inactive)
REMARK       I    between atoms: C2_3  and  N2_5 
REMARK    1  A    between atoms: N2_5  and  P1_6 
REMARK    2  A    between atoms: P1_6  and  C3_7 
REMARK    3  A    between atoms: C3_7  and  C4_8 
REMARK    4  A    between atoms: C5_9  and  N3_10 
REMARK    5  A    between atoms: N3_10  and  C6_11 
REMARK    6  A    between atoms: C9_14  and  O2_15 
REMARK    7  A    between atoms: O2_15  and  C10_16 
REMARK    8  A    between atoms: C10_16  and  C11_17 
ROOT
HETATM    1  N1  UNL     1     -10.343   0.217  -1.340  1.00  0.00    -0.186 NA
HETATM    2  C1  UNL     1      -9.239   0.410  -0.977  1.00  0.00     0.162 C 
HETATM    3  C2  UNL     1      -7.894   0.664  -0.519  1.00  0.00     0.326 C 
HETATM    4  O1  UNL     1      -7.546   1.835  -0.207  1.00  0.00    -0.256 OA
HETATM    5  N2  UNL     1      -6.955  -0.401  -0.417  1.00  0.00    -0.315 N 
HETATM    6  H1  UNL     1      -7.306  -1.339  -0.689  1.00  0.00     0.169 HD
ENDROOT
BRANCH   5   7
HETATM    7  P1  UNL     1      -5.343   0.132   0.173  1.00  0.00     0.063 P 
BRANCH   7   8
HETATM    8  C3  UNL     1      -5.299   1.047   1.559  1.00  0.00     0.036 C 
BRANCH   8   9
HETATM    9  C4  UNL     1      -3.886   1.369   1.854  1.00  0.00     0.020 C 
HETATM   10  C5  UNL     1      -2.901   0.964   1.101  1.00  0.00     0.088 C 
BRANCH  10  11
HETATM   11  N3  UNL     1      -1.529   1.272   1.381  1.00  0.00    -0.366 N 
HETATM   12  H5  UNL     1      -1.398   2.167   1.891  1.00  0.00     0.165 HD
BRANCH  11  13
HETATM   13  C6  UNL     1      -0.428   0.455   1.012  1.00  0.00     0.033 A 
HETATM   14  C7  UNL     1       0.832   0.875   1.345  1.00  0.00     0.032 A 
HETATM   15  C8  UNL     1       1.880   0.083   0.985  1.00  0.00     0.041 A 
HETATM   16  C9  UNL     1       1.822  -1.099   0.320  1.00  0.00     0.091 A 
HETATM   17  C17 UNL     1       0.515  -1.505  -0.008  1.00  0.00     0.069 A 
HETATM   18 CL1  UNL     1       0.045  -2.966  -0.860  1.00  0.00    -0.081 Cl
HETATM   19  C18 UNL     1      -0.603  -0.743   0.330  1.00  0.00     0.056 A 
BRANCH  16  20
HETATM   20  O2  UNL     1       2.668  -2.038  -0.137  1.00  0.00    -0.345 OA
BRANCH  20  21
HETATM   21  C10 UNL     1       4.046  -2.103  -0.072  1.00  0.00     0.214 C 
BRANCH  21  22
HETATM   22  C11 UNL     1       4.744  -0.994  -0.763  1.00  0.00    -0.031 A 
HETATM   23  C12 UNL     1       4.893  -1.217  -2.140  1.00  0.00     0.009 A 
HETATM   24  C13 UNL     1       5.519  -0.355  -3.015  1.00  0.00     0.004 A 
HETATM   25  C14 UNL     1       6.048   0.822  -2.530  1.00  0.00     0.042 A 
HETATM   26  C15 UNL     1       5.913   1.059  -1.179  1.00  0.00     0.117 A 
HETATM   27  F1  UNL     1       6.389   2.179  -0.567  1.00  0.00    -0.206 F 
HETATM   28  C16 UNL     1       5.286   0.190  -0.317  1.00  0.00     0.051 A 
ENDBRANCH  21  22
ENDBRANCH  20  21
ENDBRANCH  16  20
ENDBRANCH  11  13
ENDBRANCH  10  11
ENDBRANCH   8   9
ENDBRANCH   7   8
ENDBRANCH   5   7
TORSDOF 8
