REMARK  6 active torsions:
REMARK  status: ('A' for Active; 'I' for Inactive)
REMARK    1  A    between atoms: N1_1  and  C1_2 
REMARK    2  A    between atoms: C1_2  and  N2_3 
REMARK    3  A    between atoms: C4_7  and  N4_8 
REMARK    4  A    between atoms: C9_14  and  N5_15 
REMARK    5  A    between atoms: C11_17  and  N6_18 
REMARK    6  A    between atoms: C15_22  and  N7_23 
ROOT
HETATM    1  N2  UNL     1      -1.245   3.156  -0.810  1.00  0.00    -0.239 NA
HETATM    2  C2  UNL     1      -0.328   2.256  -0.698  1.00  0.00     0.172 A 
HETATM    3  N3  UNL     1       1.062   2.625  -0.658  1.00  0.00    -0.241 NA
HETATM    4  C3  UNL     1       1.920   1.666  -0.544  1.00  0.00     0.132 A 
HETATM    5  C4  UNL     1       1.624   0.238  -0.451  1.00  0.00     0.291 A 
HETATM    6  C10 UNL     1       0.195  -0.082  -0.497  1.00  0.00     0.047 A 
HETATM    7  C11 UNL     1      -0.767   0.849  -0.614  1.00  0.00     0.077 A 
ENDROOT
BRANCH   7   8
HETATM    8  N6  UNL     1      -2.163   0.561  -0.660  1.00  0.00    -0.373 N 
HETATM    9  C12 UNL     1      -2.566  -0.255  -1.790  1.00  0.00     0.150 C 
HETATM   10  C13 UNL     1      -2.255  -1.699  -1.615  1.00  0.00    -0.005 C 
HETATM   11  C14 UNL     1      -2.581  -2.672  -0.744  1.00  0.00     0.034 C 
HETATM   12  C15 UNL     1      -3.464  -2.522   0.436  1.00  0.00     0.063 C 
HETATM   13  S1  UNL     1      -4.123  -1.276   1.307  1.00  0.00    -0.105 SA
HETATM   14  C16 UNL     1      -3.879   0.348   1.083  1.00  0.00     0.087 C 
HETATM   15  C17 UNL     1      -2.785   1.198   0.484  1.00  0.00     0.140 C 
BRANCH  12  16
HETATM   16  N7  UNL     1      -3.841  -3.817   0.951  1.00  0.00    -0.394 N 
HETATM   17  H20 UNL     1      -3.209  -3.743   1.775  1.00  0.00     0.156 HD
HETATM   18  H21 UNL     1      -4.512  -4.560   0.611  1.00  0.00     0.156 HD
ENDBRANCH  12  16
ENDBRANCH   7   8
BRANCH   1  19
HETATM   19  C1  UNL     1      -0.868   4.559  -0.897  1.00  0.00     0.417 C 
BRANCH  19  20
HETATM   20  N1  UNL     1      -2.041   5.310  -1.294  1.00  0.00     0.097 N 
HETATM   21  H1  UNL     1      -2.544   4.906  -2.105  1.00  0.00     0.315 HD
HETATM   22  H2  UNL     1      -1.855   6.316  -1.318  1.00  0.00     0.315 HD
ENDBRANCH  19  20
ENDBRANCH   1  19
BRANCH   5  23
HETATM   23  N4  UNL     1       2.271  -0.453   0.638  1.00  0.00     0.138 N 
HETATM   24  C5  UNL     1       1.848  -1.843   0.624  1.00  0.00     0.305 C 
HETATM   25  C6  UNL     1       2.723  -2.742   1.401  1.00  0.00     0.022 C 
HETATM   26  C7  UNL     1       4.050  -2.665   1.252  1.00  0.00     0.013 C 
HETATM   27 CL1  UNL     1       5.112  -3.727   2.168  1.00  0.00    -0.089 Cl
HETATM   28  C8  UNL     1       4.423  -1.613   0.261  1.00  0.00     0.119 C 
HETATM   29  C9  UNL     1       3.711  -0.333   0.632  1.00  0.00     0.458 C 
BRANCH  29  30
HETATM   30  N5  UNL     1       4.196   0.117   1.911  1.00  0.00     0.112 N 
HETATM   31  H13 UNL     1       5.067   0.685   1.822  1.00  0.00     0.315 HD
HETATM   32  H14 UNL     1       3.452   0.717   2.339  1.00  0.00     0.315 HD
ENDBRANCH  29  30
ENDBRANCH   5  23
TORSDOF 6
