REMARK  7 active torsions:
REMARK  status: ('A' for Active; 'I' for Inactive)
REMARK    1  A    between atoms: C2_2  and  C14_18 
REMARK    2  A    between atoms: C3_3  and  C4_4 
REMARK    3  A    between atoms: C14_18  and  O1_19 
REMARK    4  A    between atoms: O1_19  and  C15_20 
REMARK    5  A    between atoms: C15_20  and  N4_21 
REMARK    6  A    between atoms: N4_21  and  O2_22 
REMARK    7  A    between atoms: N4_21  and  C16_23 
ROOT
HETATM    1  C1  UNL     1       0.122  -1.398  -0.152  1.00  0.00     0.046 C 
HETATM    2  C2  UNL     1       0.450  -0.256  -1.016  1.00  0.00    -0.058 C 
HETATM    3  C3  UNL     1      -0.528   0.140  -1.859  1.00  0.00     0.037 C 
ENDROOT
BRANCH   2   4
HETATM    4  C14 UNL     1       1.678   0.552  -1.161  1.00  0.00     0.203 C 
BRANCH   4   5
HETATM    5  O1  UNL     1       2.124   1.238  -0.091  1.00  0.00    -0.371 OA
BRANCH   5   6
HETATM    6  C15 UNL     1       2.534   0.633   1.039  1.00  0.00     0.290 C 
BRANCH   6   7
HETATM    7  N4  UNL     1       3.665  -0.268   0.917  1.00  0.00    -0.151 NA
BRANCH   7   8
HETATM    8  O2  UNL     1       3.490  -1.299   0.106  1.00  0.00    -0.309 OA
HETATM    9  H16 UNL     1       4.307  -1.519  -0.409  1.00  0.00     0.237 HD
ENDBRANCH   7   8
BRANCH   7  10
HETATM   10  C16 UNL     1       4.921   0.398   0.711  1.00  0.00     0.214 C 
HETATM   11  C17 UNL     1       6.049  -0.603   0.592  1.00  0.00     0.223 C 
HETATM   12  O3  UNL     1       7.139  -0.069   1.329  1.00  0.00    -0.301 OA
HETATM   13  C18 UNL     1       6.666   0.875   2.233  1.00  0.00     0.362 C 
HETATM   14  O4  UNL     1       7.482   1.282   3.087  1.00  0.00    -0.238 OA
HETATM   15  N5  UNL     1       5.285   1.129   1.909  1.00  0.00    -0.316 N 
HETATM   16  H20 UNL     1       4.844   1.789   2.611  1.00  0.00     0.166 HD
ENDBRANCH   7  10
ENDBRANCH   6   7
ENDBRANCH   5   6
ENDBRANCH   4   5
ENDBRANCH   2   4
BRANCH   3  17
HETATM   17  C4  UNL     1      -1.867  -0.321  -2.107  1.00  0.00     0.072 A 
HETATM   18  N1  UNL     1      -2.420  -0.770  -3.248  1.00  0.00    -0.241 NA
HETATM   19  C5  UNL     1      -3.736  -1.150  -3.336  1.00  0.00     0.236 A 
HETATM   20  N2  UNL     1      -4.641  -1.122  -2.286  1.00  0.00    -0.224 NA
HETATM   21  C6  UNL     1      -4.104  -0.683  -1.174  1.00  0.00     0.140 A 
HETATM   22  C7  UNL     1      -2.741  -0.278  -1.055  1.00  0.00     0.039 A 
HETATM   23  N3  UNL     1      -4.827  -0.509  -0.021  1.00  0.00    -0.357 N 
HETATM   24  C8  UNL     1      -2.295   0.386   0.243  1.00  0.00     0.027 C 
HETATM   25  C9  UNL     1      -3.369   0.435   1.029  1.00  0.00    -0.022 C 
HETATM   26  C10 UNL     1      -4.123  -0.930   1.264  1.00  0.00     0.164 C 
HETATM   27  C13 UNL     1      -4.112   1.633   1.523  1.00  0.00     0.016 C 
HETATM   28  C12 UNL     1      -5.457   1.375   1.256  1.00  0.00     0.012 C 
HETATM   29 BR1  UNL     1      -2.780   2.810   2.145  1.00  0.00    -0.051 Br
HETATM   30  C11 UNL     1      -6.004   0.206   0.313  1.00  0.00     0.153 C 
ENDBRANCH   3  17
TORSDOF 7
