REMARK  5 active torsions:
REMARK  status: ('A' for Active; 'I' for Inactive)
REMARK    1  A    between atoms: O1_2  and  C2_3 
REMARK    2  A    between atoms: C6_9  and  N3_10 
REMARK    3  A    between atoms: N3_10  and  C7_11 
REMARK    4  A    between atoms: C15_20  and  N4_21 
REMARK       I    between atoms: N4_21  and  C16_22 
REMARK    5  A    between atoms: C16_22  and  C17_24 
ROOT
HETATM    1  C2  UNL     1      -1.458  -2.289   0.240  1.00  0.00     0.093 C 
HETATM    2  C3  UNL     1      -0.625  -3.266  -0.027  1.00  0.00     0.044 C 
HETATM    3  C4  UNL     1       0.614  -2.912  -0.718  1.00  0.00     0.171 A 
HETATM    4  N1  UNL     1       1.703  -3.807  -0.756  1.00  0.00    -0.271 NA
HETATM    5  C5  UNL     1       2.917  -3.352  -0.878  1.00  0.00     0.203 A 
HETATM    6  N2  UNL     1       3.229  -1.954  -0.967  1.00  0.00    -0.337 N 
HETATM    7  C6  UNL     1       2.145  -1.005  -0.908  1.00  0.00     0.115 A 
HETATM    8  C13 UNL     1       0.895  -1.486  -0.777  1.00  0.00     0.017 A 
HETATM    9  C14 UNL     1      -0.110  -0.473  -0.532  1.00  0.00     0.046 C 
HETATM   10  C15 UNL     1      -1.256  -0.870  -0.016  1.00  0.00     0.069 C 
HETATM   11  H7  UNL     1       4.225  -1.660  -1.072  1.00  0.00     0.168 HD
ENDROOT
BRANCH  10  12
HETATM   12  N4  UNL     1      -2.342  -0.033   0.325  1.00  0.00    -0.323 N 
HETATM   13  C16 UNL     1      -2.463   1.366   0.206  1.00  0.00     0.247 C 
HETATM   14  O2  UNL     1      -1.495   2.002  -0.263  1.00  0.00    -0.271 OA
HETATM   15  H14 UNL     1      -3.227  -0.404   0.729  1.00  0.00     0.169 HD
BRANCH  13  16
HETATM   16  C17 UNL     1      -3.613   2.197   0.574  1.00  0.00     0.203 C 
HETATM   17  C18 UNL     1      -4.763   1.898  -0.354  1.00  0.00     0.215 C 
HETATM   18  O3  UNL     1      -4.532   2.776  -1.455  1.00  0.00    -0.301 OA
HETATM   19  C19 UNL     1      -4.031   3.943  -0.896  1.00  0.00     0.361 C 
HETATM   20  O4  UNL     1      -4.153   5.112  -1.384  1.00  0.00    -0.238 OA
HETATM   21  N5  UNL     1      -3.367   3.598   0.306  1.00  0.00    -0.321 N 
HETATM   22  H18 UNL     1      -2.810   4.302   0.852  1.00  0.00     0.165 HD
ENDBRANCH  13  16
ENDBRANCH  10  12
BRANCH   1  23
HETATM   23  O1  UNL     1      -2.612  -2.747   0.862  1.00  0.00    -0.354 OA
HETATM   24  C1  UNL     1      -3.405  -3.814   0.417  1.00  0.00     0.210 C 
ENDBRANCH   1  23
BRANCH   7  25
HETATM   25  N3  UNL     1       2.502   0.346  -0.992  1.00  0.00    -0.342 N 
HETATM   26  H8  UNL     1       2.094   0.873  -1.794  1.00  0.00     0.167 HD
BRANCH  25  27
HETATM   27  C7  UNL     1       3.355   1.006  -0.080  1.00  0.00     0.034 A 
HETATM   28  C8  UNL     1       3.909   0.334   0.989  1.00  0.00     0.029 A 
HETATM   29  C9  UNL     1       4.744   0.915   1.910  1.00  0.00     0.004 A 
HETATM   30  C10 UNL     1       5.043   2.266   1.744  1.00  0.00     0.019 A 
HETATM   31  C11 UNL     1       4.493   2.961   0.671  1.00  0.00     0.013 A 
HETATM   32 BR1  UNL     1       4.915   4.828   0.454  1.00  0.00    -0.051 Br
HETATM   33  C12 UNL     1       3.659   2.327  -0.226  1.00  0.00     0.048 A 
ENDBRANCH  25  27
ENDBRANCH   7  25
TORSDOF 5
