REMARK  5 active torsions:
REMARK  status: ('A' for Active; 'I' for Inactive)
REMARK    1  A    between atoms: N1_1  and  C1_2 
REMARK    2  A    between atoms: C1_2  and  C2_3 
REMARK    3  A    between atoms: C6_9  and  N4_10 
REMARK    4  A    between atoms: N4_10  and  C7_11 
REMARK    5  A    between atoms: C15_20  and  C16_21 
ROOT
HETATM    1  C2  UNL     1       2.019  -1.881  -0.514  1.00  0.00    -0.015 A 
HETATM    2  C3  UNL     1       1.042  -2.735  -0.968  1.00  0.00     0.042 A 
HETATM    3  C4  UNL     1      -0.268  -2.322  -0.938  1.00  0.00     0.072 A 
HETATM    4  N2  UNL     1      -1.141  -3.233  -1.406  1.00  0.00    -0.241 NA
HETATM    5  C5  UNL     1      -2.466  -3.000  -1.453  1.00  0.00     0.236 A 
HETATM    6  N3  UNL     1      -2.829  -1.812  -1.006  1.00  0.00    -0.224 NA
HETATM    7  C6  UNL     1      -2.068  -0.834  -0.524  1.00  0.00     0.142 A 
HETATM    8  C13 UNL     1      -0.715  -1.105  -0.488  1.00  0.00     0.040 A 
HETATM    9  C14 UNL     1       0.263  -0.252  -0.035  1.00  0.00     0.032 A 
HETATM   10  C15 UNL     1       1.583  -0.653  -0.058  1.00  0.00     0.007 A 
ENDROOT
BRANCH   7  11
HETATM   11  N4  UNL     1      -2.515   0.422  -0.060  1.00  0.00    -0.340 N 
HETATM   12  H7  UNL     1      -1.879   1.128   0.331  1.00  0.00     0.167 HD
BRANCH  11  13
HETATM   13  C7  UNL     1      -3.845   0.911  -0.048  1.00  0.00     0.035 A 
HETATM   14  C8  UNL     1      -4.892   0.280  -0.679  1.00  0.00     0.029 A 
HETATM   15  C9  UNL     1      -6.197   0.725  -0.679  1.00  0.00     0.004 A 
HETATM   16  C10 UNL     1      -6.510   1.885  -0.007  1.00  0.00     0.019 A 
HETATM   17  C11 UNL     1      -5.514   2.570   0.648  1.00  0.00     0.013 A 
HETATM   18 BR1  UNL     1      -5.884   4.170   1.591  1.00  0.00    -0.051 Br
HETATM   19  C12 UNL     1      -4.242   2.059   0.598  1.00  0.00     0.048 A 
ENDBRANCH  11  13
ENDBRANCH   7  11
BRANCH  10  20
HETATM   20  C16 UNL     1       2.520   0.306   0.432  1.00  0.00     0.106 A 
HETATM   21  O1  UNL     1       2.241   1.448   0.874  1.00  0.00    -0.321 OA
HETATM   22  C17 UNL     1       3.763   0.934   0.816  1.00  0.00     0.265 A 
HETATM   23  C18 UNL     1       4.671   1.266  -0.346  1.00  0.00     0.237 C 
HETATM   24  N5  UNL     1       3.532   2.273   1.379  1.00  0.00    -0.306 N 
HETATM   25  O2  UNL     1       5.402   2.403   0.074  1.00  0.00    -0.299 OA
HETATM   26  C19 UNL     1       4.627   3.124   1.005  1.00  0.00     0.362 C 
HETATM   27  O3  UNL     1       5.089   4.271   1.243  1.00  0.00    -0.238 OA
HETATM   28  H16 UNL     1       2.873   2.874   1.961  1.00  0.00     0.167 HD
ENDBRANCH  10  20
BRANCH   1  29
HETATM   29  C1  UNL     1       3.445  -2.291  -0.529  1.00  0.00     0.306 C 
BRANCH  29  30
HETATM   30  N1  UNL     1       3.912  -2.641   0.806  1.00  0.00     0.082 N 
HETATM   31  H1  UNL     1       3.356  -2.021   1.467  1.00  0.00     0.313 HD
HETATM   32  H2  UNL     1       3.637  -3.621   1.006  1.00  0.00     0.313 HD
ENDBRANCH  29  30
ENDBRANCH   1  29
TORSDOF 5
