REMARK  5 active torsions:
REMARK  status: ('A' for Active; 'I' for Inactive)
REMARK    1  A    between atoms: C2_4  and  C3_5 
REMARK       I    between atoms: C3_5  and  N2_7 
REMARK    2  A    between atoms: N2_7  and  C4_8 
REMARK    3  A    between atoms: C9_15  and  N5_16 
REMARK    4  A    between atoms: N5_16  and  C10_17 
REMARK    5  A    between atoms: C21_28  and  O3_29 
ROOT
HETATM    1  C4  UNL     1      -1.855  -1.216  -0.315  1.00  0.00     0.042 C 
HETATM    2  C5  UNL     1      -0.526  -1.156  -0.509  1.00  0.00     0.045 C 
HETATM    3  C6  UNL     1       0.572  -1.974  -0.007  1.00  0.00     0.040 A 
HETATM    4  C7  UNL     1       0.606  -3.309   0.416  1.00  0.00     0.072 A 
HETATM    5  N3  UNL     1       1.797  -3.768   0.812  1.00  0.00    -0.241 NA
HETATM    6  C8  UNL     1       2.887  -2.986   0.798  1.00  0.00     0.235 A 
HETATM    7  N4  UNL     1       2.784  -1.730   0.385  1.00  0.00    -0.224 NA
HETATM    8  C9  UNL     1       1.655  -1.142  -0.037  1.00  0.00     0.138 A 
HETATM    9  C18 UNL     1      -0.371  -4.401   0.554  1.00  0.00     0.028 C 
HETATM   10  C19 UNL     1      -1.697  -4.373   0.334  1.00  0.00    -0.021 C 
HETATM   11  C20 UNL     1      -2.807  -3.500  -0.078  1.00  0.00     0.065 C 
HETATM   12  C21 UNL     1      -2.760  -2.109   0.464  1.00  0.00     0.171 C 
ENDROOT
BRANCH   1  13
HETATM   13  N2  UNL     1      -2.460  -0.154  -1.057  1.00  0.00    -0.326 N 
HETATM   14  C3  UNL     1      -3.165   0.710  -0.174  1.00  0.00     0.247 C 
HETATM   15  O2  UNL     1      -3.479   0.924   1.026  1.00  0.00    -0.271 OA
HETATM   16  H3  UNL     1      -2.522   0.151  -2.052  1.00  0.00     0.168 HD
BRANCH  14  17
HETATM   17  C2  UNL     1      -3.924   1.926  -0.556  1.00  0.00     0.203 C 
HETATM   18  N1  UNL     1      -4.467   2.475   0.675  1.00  0.00    -0.321 N 
HETATM   19  C1  UNL     1      -5.796   2.942   0.417  1.00  0.00     0.361 C 
HETATM   20  H1  UNL     1      -4.148   2.615   1.677  1.00  0.00     0.165 HD
HETATM   21  O1  UNL     1      -6.581   3.726   1.036  1.00  0.00    -0.238 OA
HETATM   22  O4  UNL     1      -6.227   2.363  -0.773  1.00  0.00    -0.301 OA
HETATM   23  C22 UNL     1      -5.156   1.616  -1.360  1.00  0.00     0.215 C 
ENDBRANCH  14  17
ENDBRANCH   1  13
BRANCH  12  24
HETATM   24  O3  UNL     1      -4.053  -1.567   0.328  1.00  0.00    -0.389 OA
HETATM   25  H21 UNL     1      -4.729  -2.265   0.135  1.00  0.00     0.210 HD
ENDBRANCH  12  24
BRANCH   8  26
HETATM   26  N5  UNL     1       1.643   0.220  -0.440  1.00  0.00    -0.366 N 
HETATM   27  H6  UNL     1       0.999   0.952  -0.760  1.00  0.00     0.161 HD
BRANCH  26  28
HETATM   28  C10 UNL     1       2.935   0.876  -0.397  1.00  0.00     0.109 C 
HETATM   29  C11 UNL     1       3.455   0.884   1.010  1.00  0.00    -0.002 C 
HETATM   30  C12 UNL     1       4.480   1.409   1.628  1.00  0.00    -0.002 C 
HETATM   31  C13 UNL     1       5.606   2.243   1.224  1.00  0.00    -0.000 C 
HETATM   32  C14 UNL     1       6.058   2.788   0.082  1.00  0.00    -0.000 C 
HETATM   33  C15 UNL     1       5.494   2.704  -1.277  1.00  0.00    -0.004 C 
HETATM   34  C16 UNL     1       4.256   2.476  -1.743  1.00  0.00    -0.024 C 
HETATM   35  C17 UNL     1       2.967   2.218  -1.049  1.00  0.00     0.056 C 
ENDBRANCH  26  28
ENDBRANCH   8  26
TORSDOF 5
