REMARK  2 active torsions:
REMARK  status: ('A' for Active; 'I' for Inactive)
REMARK    1  A    between atoms: C1_2  and  C2_3 
REMARK    2  A    between atoms: C2_3  and  C3_4 
ROOT
HETATM    1  C3  UNL     1      -2.290  -1.298   0.767  1.00  0.00    -0.038 C 
HETATM    2  C4  UNL     1      -1.048  -1.627   0.191  1.00  0.00    -0.003 C 
HETATM    3  C5  UNL     1      -1.096  -3.009  -0.197  1.00  0.00     0.130 C 
HETATM    4  N1  UNL     1      -0.106  -3.843  -0.076  1.00  0.00    -0.253 NA
HETATM    5  C6  UNL     1       1.184  -3.550   0.452  1.00  0.00     0.233 C 
HETATM    6  N2  UNL     1       1.833  -2.409   0.560  1.00  0.00    -0.241 NA
HETATM    7  C7  UNL     1       1.363  -1.107   0.142  1.00  0.00     0.077 C 
HETATM    8  C8  UNL     1       2.400  -0.122   0.001  1.00  0.00    -0.005 A 
HETATM    9  C9  UNL     1       3.363  -0.202  -1.008  1.00  0.00     0.014 A 
HETATM   10  C10 UNL     1       4.431   0.649  -1.173  1.00  0.00     0.002 A 
HETATM   11  C11 UNL     1       4.571   1.670  -0.273  1.00  0.00     0.019 A 
HETATM   12  C12 UNL     1       3.678   1.858   0.778  1.00  0.00     0.011 A 
HETATM   13 BR1  UNL     1       3.836   3.264   2.050  1.00  0.00    -0.051 Br
HETATM   14  C13 UNL     1       2.640   0.957   0.865  1.00  0.00     0.032 A 
HETATM   15  C14 UNL     1       0.139  -0.714  -0.040  1.00  0.00     0.007 C 
HETATM   16  C15 UNL     1      -0.199   0.596  -0.581  1.00  0.00     0.212 C 
HETATM   17  O2  UNL     1       0.508   1.738  -0.426  1.00  0.00    -0.358 OA
HETATM   18  C16 UNL     1      -0.126   2.998  -0.674  1.00  0.00     0.442 A 
HETATM   19  N3  UNL     1      -1.005   3.311   0.558  1.00  0.00     0.152 N 
HETATM   20  C17 UNL     1      -1.859   2.348   1.359  1.00  0.00     0.393 A 
HETATM   21  O3  UNL     1      -1.090   2.589   0.438  1.00  0.00     0.000 OA
HETATM   22  O4  UNL     1      -2.528   1.173   1.862  1.00  0.00    -0.340 OA
HETATM   23  C18 UNL     1      -2.399  -0.015   1.274  1.00  0.00     0.207 C 
HETATM   24  H14 UNL     1      -1.119   4.315   1.029  1.00  0.00     0.323 HD
ENDROOT
BRANCH   1  25
HETATM   25  C2  UNL     1      -3.384  -2.231   0.910  1.00  0.00     0.106 C 
BRANCH  25  26
HETATM   26  C1  UNL     1      -4.615  -1.868   0.116  1.00  0.00     0.235 C 
HETATM   27  O1  UNL     1      -4.762  -0.925  -0.604  1.00  0.00    -0.307 OA
ENDBRANCH  25  26
ENDBRANCH   1  25
TORSDOF 2
