REMARK  5 active torsions:
REMARK  status: ('A' for Active; 'I' for Inactive)
REMARK    1  A    between atoms: O1_2  and  C2_3 
REMARK    2  A    between atoms: C7_10  and  N3_11 
REMARK    3  A    between atoms: N3_11  and  C8_12 
REMARK    4  A    between atoms: C15_20  and  C16_21 
REMARK       I    between atoms: C16_21  and  N4_23 
REMARK       I    between atoms: N4_23  and  C17_24 
REMARK    5  A    between atoms: C17_24  and  O4_26 
ROOT
HETATM    1  C2  UNL     1      -1.645   2.494  -0.063  1.00  0.00     0.161 C 
HETATM    2  C3  UNL     1      -2.353   2.508  -1.357  1.00  0.00     0.008 C 
HETATM    3  C4  UNL     1      -2.089   1.894  -2.498  1.00  0.00     0.031 C 
HETATM    4  C5  UNL     1      -0.890   1.071  -2.425  1.00  0.00     0.069 A 
HETATM    5  N1  UNL     1      -0.562   0.481  -3.603  1.00  0.00    -0.241 NA
HETATM    6  C6  UNL     1       0.559  -0.255  -3.671  1.00  0.00     0.235 A 
HETATM    7  N2  UNL     1       1.290  -0.367  -2.579  1.00  0.00    -0.224 NA
HETATM    8  C7  UNL     1       1.007   0.194  -1.401  1.00  0.00     0.139 A 
HETATM    9  C14 UNL     1      -0.146   0.972  -1.260  1.00  0.00     0.033 A 
HETATM   10  C15 UNL     1      -0.502   1.559   0.050  1.00  0.00     0.150 C 
ENDROOT
BRANCH   8  11
HETATM   11  N3  UNL     1       1.894  -0.004  -0.321  1.00  0.00    -0.340 N 
HETATM   12  H8  UNL     1       1.628   0.505   0.545  1.00  0.00     0.167 HD
BRANCH  11  13
HETATM   13  C8  UNL     1       3.079  -0.766  -0.241  1.00  0.00     0.035 A 
HETATM   14  C9  UNL     1       3.708  -1.438  -1.261  1.00  0.00     0.029 A 
HETATM   15  C10 UNL     1       4.863  -2.175  -1.134  1.00  0.00     0.004 A 
HETATM   16  C11 UNL     1       5.432  -2.247   0.098  1.00  0.00     0.019 A 
HETATM   17  C12 UNL     1       4.873  -1.608   1.176  1.00  0.00     0.013 A 
HETATM   18 BR1  UNL     1       5.694  -1.733   2.872  1.00  0.00    -0.051 Br
HETATM   19  C13 UNL     1       3.728  -0.895   0.976  1.00  0.00     0.048 A 
ENDBRANCH  11  13
ENDBRANCH   8  11
BRANCH  10  20
HETATM   20  C16 UNL     1      -0.810   0.415   0.972  1.00  0.00     0.237 C 
HETATM   21  O2  UNL     1      -0.476  -0.126   2.084  1.00  0.00    -0.272 OA
HETATM   22  N4  UNL     1      -1.876  -0.344   0.364  1.00  0.00    -0.272 N 
HETATM   23  C17 UNL     1      -2.467  -1.522   0.928  1.00  0.00     0.366 C 
HETATM   24  H14 UNL     1      -2.388  -0.196  -0.535  1.00  0.00     0.174 HD
HETATM   25  O3  UNL     1      -2.023  -1.921   2.031  1.00  0.00    -0.238 OA
BRANCH  23  26
HETATM   26  O4  UNL     1      -3.471  -2.310   0.445  1.00  0.00    -0.309 OA
HETATM   27  C18 UNL     1      -3.904  -3.453   1.190  1.00  0.00     0.215 C 
ENDBRANCH  23  26
ENDBRANCH  10  20
BRANCH   1  28
HETATM   28  O1  UNL     1      -2.528   2.381   1.017  1.00  0.00    -0.386 OA
HETATM   29  C1  UNL     1      -2.521   3.594   1.737  1.00  0.00     0.202 C 
ENDBRANCH   1  28
TORSDOF 5
