REMARK  5 active torsions:
REMARK  status: ('A' for Active; 'I' for Inactive)
REMARK    1  A    between atoms: N1_2  and  C2_3 
REMARK    2  A    between atoms: C2_3  and  N5_19 
REMARK    3  A    between atoms: C7_9  and  N3_10 
REMARK       I    between atoms: N3_10  and  C8_11 
REMARK    4  A    between atoms: C8_11  and  C9_13 
REMARK    5  A    between atoms: C16_25  and  O4_26 
ROOT
HETATM    1  C2  UNL     1      -0.465   0.228   1.830  1.00  0.00     0.162 C 
HETATM    2  C3  UNL     1      -0.305  -1.047   1.712  1.00  0.00     0.217 A 
HETATM    3  N2  UNL     1      -0.044  -2.269   2.200  1.00  0.00     0.023 N 
HETATM    4  C4  UNL     1       0.227  -2.850   3.280  1.00  0.00     0.211 A 
HETATM    5  C5  UNL     1       0.211  -3.946   2.283  1.00  0.00     0.037 A 
HETATM    6  C6  UNL     1      -0.072  -3.424   1.075  1.00  0.00     0.282 A 
HETATM    7  C7  UNL     1      -0.347  -2.013   0.622  1.00  0.00     0.350 A 
ENDROOT
BRANCH   1   8
HETATM    8  N1  UNL     1      -0.355   0.981   3.026  1.00  0.00    -0.252 NA
HETATM    9  C1  UNL     1       0.566   1.866   3.211  1.00  0.00     0.151 C 
ENDBRANCH   1   8
BRANCH   1  10
HETATM   10  N5  UNL     1      -0.786   1.143   0.802  1.00  0.00    -0.334 N 
HETATM   11  C12 UNL     1       0.091   2.119   0.178  1.00  0.00     0.155 C 
HETATM   12  C13 UNL     1      -0.563   3.452   0.086  1.00  0.00     0.008 C 
HETATM   13  C14 UNL     1      -1.860   3.664   0.331  1.00  0.00    -0.009 C 
HETATM   14 BR1  UNL     1      -2.690   5.401   0.207  1.00  0.00    -0.056 Br
HETATM   15  C15 UNL     1      -2.748   2.535   0.720  1.00  0.00     0.100 C 
HETATM   16  C16 UNL     1      -2.071   1.260   0.198  1.00  0.00     0.228 C 
BRANCH  16  17
HETATM   17  O4  UNL     1      -2.082   1.375  -1.173  1.00  0.00    -0.371 OA
HETATM   18  C17 UNL     1      -2.889   0.436  -1.795  1.00  0.00     0.204 C 
ENDBRANCH  16  17
ENDBRANCH   1  10
BRANCH   7  19
HETATM   19  N3  UNL     1       0.680  -1.774  -0.387  1.00  0.00    -0.327 N 
HETATM   20  C8  UNL     1       0.785  -1.657  -1.776  1.00  0.00     0.244 C 
HETATM   21  O1  UNL     1      -0.334  -1.795  -2.330  1.00  0.00    -0.271 OA
HETATM   22  H7  UNL     1       1.566  -1.675   0.198  1.00  0.00     0.165 HD
BRANCH  20  23
HETATM   23  C9  UNL     1       2.092  -1.403  -2.407  1.00  0.00     0.203 C 
HETATM   24  C10 UNL     1       2.142  -0.103  -3.183  1.00  0.00     0.215 C 
HETATM   25  O2  UNL     1       3.462   0.388  -2.998  1.00  0.00    -0.301 OA
HETATM   26  C11 UNL     1       4.143  -0.461  -2.126  1.00  0.00     0.361 C 
HETATM   27  O3  UNL     1       5.412  -0.426  -1.995  1.00  0.00    -0.238 OA
HETATM   28  N4  UNL     1       3.172  -1.302  -1.471  1.00  0.00    -0.322 N 
HETATM   29  H11 UNL     1       3.459  -1.629  -0.522  1.00  0.00     0.165 HD
ENDBRANCH  20  23
ENDBRANCH   7  19
TORSDOF 5
