REMARK  5 active torsions:
REMARK  status: ('A' for Active; 'I' for Inactive)
REMARK    1  A    between atoms: O1_2  and  C2_3 
REMARK    2  A    between atoms: C6_9  and  N3_10 
REMARK    3  A    between atoms: N3_10  and  C7_11 
REMARK    4  A    between atoms: C15_20  and  N4_21 
REMARK       I    between atoms: N4_21  and  C16_22 
REMARK    5  A    between atoms: C16_22  and  C17_24 
ROOT
HETATM    1  C2  UNL     1       1.500  -1.919  -0.892  1.00  0.00     0.097 A 
HETATM    2  C3  UNL     1       0.408  -2.698  -1.214  1.00  0.00     0.071 A 
HETATM    3  C4  UNL     1      -0.860  -2.276  -0.879  1.00  0.00     0.075 A 
HETATM    4  N1  UNL     1      -1.853  -3.094  -1.230  1.00  0.00    -0.241 NA
HETATM    5  C5  UNL     1      -3.122  -2.765  -0.944  1.00  0.00     0.236 A 
HETATM    6  N2  UNL     1      -3.329  -1.609  -0.307  1.00  0.00    -0.224 NA
HETATM    7  C6  UNL     1      -2.416  -0.742   0.078  1.00  0.00     0.142 A 
HETATM    8  C13 UNL     1      -1.125  -1.092  -0.222  1.00  0.00     0.041 A 
HETATM    9  C14 UNL     1      -0.008  -0.361   0.073  1.00  0.00     0.050 A 
HETATM   10  C15 UNL     1       1.283  -0.725  -0.234  1.00  0.00     0.069 A 
ENDROOT
BRANCH  10  11
HETATM   11  N4  UNL     1       2.394   0.095   0.109  1.00  0.00    -0.323 N 
HETATM   12  C16 UNL     1       2.952   1.105  -0.695  1.00  0.00     0.247 C 
HETATM   13  O2  UNL     1       2.413   1.290  -1.811  1.00  0.00    -0.271 OA
HETATM   14  H12 UNL     1       2.678  -0.227   1.062  1.00  0.00     0.169 HD
BRANCH  12  15
HETATM   15  C17 UNL     1       4.112   1.790  -0.058  1.00  0.00     0.203 C 
HETATM   16  C18 UNL     1       5.294   0.857   0.117  1.00  0.00     0.215 C 
HETATM   17  O3  UNL     1       5.882   0.914  -1.164  1.00  0.00    -0.301 OA
HETATM   18  C19 UNL     1       5.778   2.246  -1.609  1.00  0.00     0.361 C 
HETATM   19  O4  UNL     1       6.451   2.925  -2.426  1.00  0.00    -0.238 OA
HETATM   20  N5  UNL     1       4.651   2.821  -0.922  1.00  0.00    -0.321 N 
HETATM   21  H16 UNL     1       4.206   3.785  -0.952  1.00  0.00     0.165 HD
ENDBRANCH  12  15
ENDBRANCH  10  11
BRANCH   1  22
HETATM   22  O1  UNL     1       2.789  -2.319  -1.218  1.00  0.00    -0.354 OA
HETATM   23  C1  UNL     1       3.086  -3.520  -1.886  1.00  0.00     0.210 C 
ENDBRANCH   1  22
BRANCH   7  24
HETATM   24  N3  UNL     1      -2.647   0.481   0.752  1.00  0.00    -0.340 N 
HETATM   25  H6  UNL     1      -1.873   1.121   1.017  1.00  0.00     0.167 HD
BRANCH  24  26
HETATM   26  C7  UNL     1      -3.869   1.050   1.175  1.00  0.00     0.035 A 
HETATM   27  C8  UNL     1      -4.012   2.303   1.778  1.00  0.00     0.029 A 
HETATM   28  C9  UNL     1      -5.214   2.822   2.178  1.00  0.00     0.004 A 
HETATM   29  C10 UNL     1      -6.375   2.120   2.004  1.00  0.00     0.019 A 
HETATM   30  C11 UNL     1      -6.286   0.881   1.414  1.00  0.00     0.013 A 
HETATM   31 BR1  UNL     1      -7.935  -0.054   1.196  1.00  0.00    -0.051 Br
HETATM   32  C12 UNL     1      -5.060   0.396   1.027  1.00  0.00     0.048 A 
ENDBRANCH  24  26
ENDBRANCH   7  24
TORSDOF 5
