REMARK  5 active torsions:
REMARK  status: ('A' for Active; 'I' for Inactive)
REMARK    1  A    between atoms: O1_2  and  C2_3 
REMARK    2  A    between atoms: N2_10  and  C8_11 
REMARK    3  A    between atoms: C15_19  and  N3_20 
REMARK       I    between atoms: N3_20  and  C16_21 
REMARK    4  A    between atoms: C16_21  and  C17_23 
REMARK    5  A    between atoms: C17_23  and  C18_24 
ROOT
HETATM    1  C2  UNL     1      -1.050   0.698   2.095  1.00  0.00     0.094 A 
HETATM    2  C3  UNL     1      -1.961   1.614   1.805  1.00  0.00     0.053 A 
HETATM    3  C4  UNL     1      -1.736   2.123   0.448  1.00  0.00     0.112 A 
HETATM    4  C5  UNL     1      -1.324   3.555   0.425  1.00  0.00     0.129 A 
HETATM    5  N1  UNL     1      -1.878   4.500  -0.261  1.00  0.00    -0.273 NA
HETATM    6  C6  UNL     1      -2.996   4.213  -1.097  1.00  0.00     0.133 A 
HETATM    7  C7  UNL     1      -3.508   2.993  -1.210  1.00  0.00     0.112 A 
HETATM    8  N2  UNL     1      -2.864   1.983  -0.434  1.00  0.00    -0.334 N 
HETATM    9  C14 UNL     1      -0.546   1.335   0.034  1.00  0.00     0.047 A 
HETATM   10  C15 UNL     1      -0.139   0.505   0.979  1.00  0.00     0.067 A 
ENDROOT
BRANCH   8  11
HETATM   11  C8  UNL     1      -3.389   0.641  -0.527  1.00  0.00     0.037 A 
HETATM   12  C9  UNL     1      -4.377   0.377   0.408  1.00  0.00     0.030 A 
HETATM   13  C10 UNL     1      -4.972  -0.852   0.445  1.00  0.00     0.004 A 
HETATM   14  C11 UNL     1      -4.590  -1.830  -0.448  1.00  0.00     0.019 A 
HETATM   15  C12 UNL     1      -3.594  -1.544  -1.383  1.00  0.00     0.013 A 
HETATM   16 BR1  UNL     1      -3.051  -2.890  -2.632  1.00  0.00    -0.051 Br
HETATM   17  C13 UNL     1      -2.992  -0.305  -1.422  1.00  0.00     0.048 A 
ENDBRANCH   8  11
BRANCH   1  18
HETATM   18  O1  UNL     1      -1.094   0.094   3.337  1.00  0.00    -0.354 OA
HETATM   19  C1  UNL     1      -1.433  -1.245   3.571  1.00  0.00     0.210 C 
ENDBRANCH   1  18
BRANCH  10  20
HETATM   20  N3  UNL     1       0.950  -0.405   0.966  1.00  0.00    -0.325 N 
HETATM   21  C16 UNL     1       1.832  -0.587  -0.123  1.00  0.00     0.226 C 
HETATM   22  O2  UNL     1       1.689   0.077  -1.180  1.00  0.00    -0.273 OA
HETATM   23  H13 UNL     1       1.153  -1.003   1.795  1.00  0.00     0.169 HD
BRANCH  21  24
HETATM   24  C17 UNL     1       2.964  -1.577  -0.052  1.00  0.00     0.152 C 
BRANCH  24  25
HETATM   25  C18 UNL     1       3.753  -1.589  -1.320  1.00  0.00     0.230 C 
HETATM   26  N4  UNL     1       4.317  -0.299  -1.587  1.00  0.00    -0.173 NA
HETATM   27  O3  UNL     1       5.543  -0.573  -2.107  1.00  0.00    -0.271 OA
HETATM   28  H17 UNL     1       4.426   0.292  -0.729  1.00  0.00     0.157 HD
HETATM   29  C19 UNL     1       5.963  -1.712  -1.467  1.00  0.00     0.279 C 
HETATM   30  C20 UNL     1       6.722  -1.392  -0.194  1.00  0.00     0.072 C 
HETATM   31  O4  UNL     1       4.826  -2.445  -1.161  1.00  0.00    -0.338 OA
ENDBRANCH  24  25
ENDBRANCH  21  24
ENDBRANCH  10  20
TORSDOF 5
