REMARK  2 active torsions:
REMARK  status: ('A' for Active; 'I' for Inactive)
REMARK    1  A    between atoms: C5_6  and  N1_7 
REMARK    2  A    between atoms: N1_7  and  C6_8 
ROOT
HETATM    1  C6  UNL     1       1.002   0.631  -0.109  1.00  0.00     0.160 A 
HETATM    2  N2  UNL     1       1.510   1.856  -0.135  1.00  0.00    -0.222 NA
HETATM    3  C7  UNL     1       0.780   2.972  -0.181  1.00  0.00     0.238 A 
HETATM    4  N3  UNL     1      -0.581   2.918  -0.205  1.00  0.00    -0.215 NA
HETATM    5  C8  UNL     1      -1.187   1.703  -0.180  1.00  0.00     0.202 A 
HETATM    6  C9  UNL     1      -0.372   0.561  -0.131  1.00  0.00     0.129 A 
HETATM    7  N4  UNL     1      -0.875  -0.772  -0.087  1.00  0.00    -0.379 N 
HETATM    8  C10 UNL     1      -2.077  -1.328  -0.704  1.00  0.00     0.161 C 
HETATM    9  C11 UNL     1      -3.266  -0.532  -0.290  1.00  0.00    -0.005 A 
HETATM   10  C12 UNL     1      -4.353  -1.358  -0.087  1.00  0.00     0.030 A 
HETATM   11  C13 UNL     1      -5.586  -0.876   0.303  1.00  0.00     0.011 A 
HETATM   12 BR2  UNL     1      -7.101  -2.005   0.588  1.00  0.00    -0.051 Br
HETATM   13  C14 UNL     1      -5.793   0.471   0.512  1.00  0.00     0.022 A 
HETATM   14  C15 UNL     1      -4.717   1.314   0.314  1.00  0.00     0.039 A 
HETATM   15  C16 UNL     1      -3.498   0.803  -0.076  1.00  0.00     0.086 A 
HETATM   16  O1  UNL     1      -2.576   1.844  -0.209  1.00  0.00    -0.289 OA
HETATM   17  H6  UNL     1      -0.214  -1.363   0.505  1.00  0.00     0.160 HD
ENDROOT
BRANCH   1  18
HETATM   18  N1  UNL     1       1.796  -0.540  -0.065  1.00  0.00    -0.339 N 
HETATM   19  H4  UNL     1       1.562  -1.538  -0.055  1.00  0.00     0.167 HD
BRANCH  18  20
HETATM   20  C5  UNL     1       3.211  -0.546  -0.045  1.00  0.00     0.035 A 
HETATM   21  C4  UNL     1       3.895   0.496  -0.628  1.00  0.00     0.029 A 
HETATM   22  C3  UNL     1       5.271   0.569  -0.626  1.00  0.00     0.004 A 
HETATM   23  C2  UNL     1       6.048  -0.404  -0.038  1.00  0.00     0.019 A 
HETATM   24  C1  UNL     1       5.417  -1.471   0.560  1.00  0.00     0.013 A 
HETATM   25 BR1  UNL     1       6.338  -2.908   1.421  1.00  0.00    -0.051 Br
HETATM   26  C17 UNL     1       4.042  -1.494   0.530  1.00  0.00     0.048 A 
ENDBRANCH  18  20
ENDBRANCH   1  18
TORSDOF 2
