REMARK  4 active torsions:
REMARK  status: ('A' for Active; 'I' for Inactive)
REMARK    1  A    between atoms: C2_2  and  C3_3 
REMARK    2  A    between atoms: C7_9  and  N3_10 
REMARK    3  A    between atoms: C17_20  and  N4_21 
REMARK       I    between atoms: N4_21  and  C18_22 
REMARK    4  A    between atoms: C18_22  and  C19_24 
ROOT
HETATM    1  C3  UNL     1       1.004  -0.315   1.252  1.00  0.00    -0.023 A 
HETATM    2  C4  UNL     1      -0.159   0.306   1.202  1.00  0.00    -0.020 A 
HETATM    3  C5  UNL     1      -1.424   0.477   1.904  1.00  0.00     0.126 C 
HETATM    4  N1  UNL     1      -1.938   1.644   2.106  1.00  0.00    -0.254 NA
HETATM    5  C6  UNL     1      -3.170   1.763   2.792  1.00  0.00     0.228 C 
HETATM    6  N2  UNL     1      -4.278   1.496   2.239  1.00  0.00    -0.247 NA
HETATM    7  C7  UNL     1      -4.545   1.050   0.915  1.00  0.00     0.347 C 
HETATM    8  C8  UNL     1      -3.562   1.478  -0.132  1.00  0.00     0.066 C 
HETATM    9  C9  UNL     1      -2.492   0.450  -0.344  1.00  0.00    -0.014 C 
HETATM   10  C10 UNL     1      -1.325   0.858  -0.896  1.00  0.00    -0.068 C 
HETATM   11  C11 UNL     1      -1.128   1.071  -2.356  1.00  0.00     0.061 C 
HETATM   12  C12 UNL     1      -2.405   0.979  -3.109  1.00  0.00    -0.026 C 
HETATM   13  C13 UNL     1      -3.655   1.036  -2.603  1.00  0.00    -0.029 C 
HETATM   14  C14 UNL     1      -4.186   1.780  -1.452  1.00  0.00     0.039 C 
HETATM   15  C15 UNL     1      -0.145   1.125  -0.039  1.00  0.00     0.074 A 
HETATM   16  C16 UNL     1       1.155   0.879  -0.657  1.00  0.00     0.017 A 
HETATM   17  C17 UNL     1       1.858   0.018   0.103  1.00  0.00     0.038 A 
ENDROOT
BRANCH  17  18
HETATM   18  N4  UNL     1       3.169  -0.450  -0.188  1.00  0.00    -0.325 N 
HETATM   19  C18 UNL     1       3.669  -1.739  -0.407  1.00  0.00     0.247 C 
HETATM   20  O1  UNL     1       3.052  -2.816  -0.398  1.00  0.00    -0.271 OA
HETATM   21  H21 UNL     1       3.881   0.332  -0.244  1.00  0.00     0.169 HD
BRANCH  19  22
HETATM   22  C19 UNL     1       5.097  -1.983  -0.698  1.00  0.00     0.203 C 
HETATM   23  C20 UNL     1       5.344  -2.573  -2.060  1.00  0.00     0.215 C 
HETATM   24  O2  UNL     1       6.209  -1.655  -2.704  1.00  0.00    -0.301 OA
HETATM   25  C21 UNL     1       6.192  -0.419  -2.054  1.00  0.00     0.361 C 
HETATM   26  O3  UNL     1       6.427   0.786  -2.339  1.00  0.00    -0.238 OA
HETATM   27  N5  UNL     1       5.784  -0.705  -0.703  1.00  0.00    -0.321 N 
HETATM   28  H25 UNL     1       5.909  -0.160   0.195  1.00  0.00     0.165 HD
ENDBRANCH  19  22
ENDBRANCH  17  18
BRANCH   1  29
HETATM   29  C2  UNL     1       1.407  -1.226   2.314  1.00  0.00     0.037 C 
HETATM   30  C1  UNL     1       0.445  -1.435   3.424  1.00  0.00     0.010 C 
ENDBRANCH   1  29
BRANCH   7  31
HETATM   31  N3  UNL     1      -4.689  -0.413   0.951  1.00  0.00     0.103 N 
HETATM   32  H9  UNL     1      -5.667  -0.696   1.185  1.00  0.00     0.315 HD
HETATM   33  H10 UNL     1      -3.980  -0.846   1.551  1.00  0.00     0.315 HD
ENDBRANCH   7  31
TORSDOF 4
