REMARK  3 active torsions:
REMARK  status: ('A' for Active; 'I' for Inactive)
REMARK    1  A    between atoms: C2_2  and  O1_3 
REMARK    2  A    between atoms: O1_3  and  C3_4 
REMARK    3  A    between atoms: C5_7  and  C6_8 
ROOT
HETATM    1  C3  UNL     1       1.223  -1.022  -0.822  1.00  0.00     0.244 C 
HETATM    2  C4  UNL     1       1.038  -1.993   0.327  1.00  0.00     0.225 C 
HETATM    3  O2  UNL     1       0.265  -1.524   1.312  1.00  0.00    -0.345 OA
HETATM    4  C5  UNL     1      -1.060  -1.279   1.152  1.00  0.00     0.216 A 
HETATM    5  O3  UNL     1      -1.679  -1.948   2.239  1.00  0.00    -0.320 OA
HETATM    6  C9  UNL     1      -2.549  -1.344   3.077  1.00  0.00     0.139 A 
HETATM    7  C10 UNL     1      -2.901  -0.072   3.053  1.00  0.00     0.026 A 
HETATM    8  C11 UNL     1      -2.247   0.706   1.975  1.00  0.00     0.032 A 
HETATM    9  C12 UNL     1      -1.376   0.164   1.082  1.00  0.00     0.074 A 
HETATM   10  N1  UNL     1      -1.097   1.414   0.395  1.00  0.00    -0.339 N 
HETATM   11  C13 UNL     1      -0.044   2.277   0.808  1.00  0.00     0.141 A 
HETATM   12  N2  UNL     1      -0.671   2.751   1.890  1.00  0.00    -0.224 NA
HETATM   13  C14 UNL     1      -0.259   3.691   2.759  1.00  0.00     0.234 A 
HETATM   14  N3  UNL     1       0.942   4.266   2.556  1.00  0.00    -0.253 NA
HETATM   15  C15 UNL     1       1.605   3.813   1.475  1.00  0.00     0.133 A 
HETATM   16  C16 UNL     1       1.223   2.866   0.578  1.00  0.00     0.029 A 
HETATM   17  C17 UNL     1       2.168   2.602  -0.500  1.00  0.00     0.041 C 
HETATM   18  C18 UNL     1       2.468   1.358  -0.914  1.00  0.00     0.004 C 
HETATM   19  C19 UNL     1       3.431   1.229  -2.001  1.00  0.00     0.068 C 
HETATM   20  N4  UNL     1       1.946   0.158  -0.413  1.00  0.00    -0.366 N 
HETATM   21  H17 UNL     1      -1.760   1.601  -0.370  1.00  0.00     0.167 HD
HETATM   22  H24 UNL     1       2.278   0.387   0.562  1.00  0.00     0.162 HD
ENDROOT
BRANCH   1  23
HETATM   23  O1  UNL     1       1.671  -1.580  -1.959  1.00  0.00    -0.365 OA
BRANCH  23  24
HETATM   24  C2  UNL     1       0.862  -1.574  -3.056  1.00  0.00     0.166 C 
HETATM   25  C1  UNL     1       0.533  -0.170  -3.454  1.00  0.00     0.033 C 
ENDBRANCH  23  24
ENDBRANCH   1  23
BRANCH   4  26
HETATM   26  C6  UNL     1      -1.707  -1.942  -0.072  1.00  0.00     0.055 A 
HETATM   27  C7  UNL     1      -1.730  -3.407  -0.217  1.00  0.00     0.011 A 
HETATM   28  C8  UNL     1      -2.990  -2.781   0.246  1.00  0.00     0.011 A 
ENDBRANCH   4  26
TORSDOF 3
