REMARK  6 active torsions:
REMARK  status: ('A' for Active; 'I' for Inactive)
REMARK    1  A    between atoms: C2_2  and  O1_3 
REMARK    2  A    between atoms: O1_3  and  C3_4 
REMARK    3  A    between atoms: C7_10  and  N3_11 
REMARK    4  A    between atoms: N3_11  and  C8_12 
REMARK    5  A    between atoms: C19_23  and  N4_24 
REMARK       I    between atoms: N4_24  and  C20_25 
REMARK    6  A    between atoms: C20_25  and  C21_27 
ROOT
HETATM    1  C3  UNL     1      -2.565   1.979   0.502  1.00  0.00     0.097 A 
HETATM    2  C4  UNL     1      -1.636   2.945   0.891  1.00  0.00     0.071 A 
HETATM    3  C5  UNL     1      -0.334   2.662   1.185  1.00  0.00     0.075 A 
HETATM    4  N1  UNL     1       0.517   3.613   1.559  1.00  0.00    -0.241 NA
HETATM    5  C6  UNL     1       1.807   3.275   1.847  1.00  0.00     0.236 A 
HETATM    6  N2  UNL     1       2.221   2.001   1.755  1.00  0.00    -0.224 NA
HETATM    7  C7  UNL     1       1.395   1.030   1.384  1.00  0.00     0.142 A 
HETATM    8  C17 UNL     1       0.090   1.351   1.092  1.00  0.00     0.041 A 
HETATM    9  C18 UNL     1      -0.846   0.419   0.707  1.00  0.00     0.050 A 
HETATM   10  C19 UNL     1      -2.165   0.663   0.404  1.00  0.00     0.069 A 
ENDROOT
BRANCH   7  11
HETATM   11  N3  UNL     1       1.740  -0.324   1.225  1.00  0.00    -0.340 N 
HETATM   12  H8  UNL     1       1.213  -1.116   1.650  1.00  0.00     0.167 HD
BRANCH  11  13
HETATM   13  C8  UNL     1       2.877  -0.666   0.439  1.00  0.00     0.033 C 
HETATM   14  C9  UNL     1       3.134  -1.997   0.383  1.00  0.00     0.030 C 
HETATM   15  C10 UNL     1       4.214  -2.737  -0.323  1.00  0.00     0.005 C 
HETATM   16  C11 UNL     1       5.491  -2.330  -0.459  1.00  0.00    -0.074 A 
HETATM   17  C12 UNL     1       6.930  -2.375  -0.888  1.00  0.00     0.044 A 
HETATM   18  C13 UNL     1       6.388  -1.265  -0.021  1.00  0.00     0.022 A 
HETATM   19  C14 UNL     1       6.196   0.063  -0.581  1.00  0.00     0.036 C 
HETATM   20  C15 UNL     1       4.836   0.634  -0.509  1.00  0.00    -0.024 C 
HETATM   21  C16 UNL     1       3.551   0.508  -0.176  1.00  0.00     0.025 C 
ENDBRANCH  11  13
ENDBRANCH   7  11
BRANCH  10  22
HETATM   22  N4  UNL     1      -3.133  -0.290   0.026  1.00  0.00    -0.323 N 
HETATM   23  C20 UNL     1      -3.054  -1.693  -0.112  1.00  0.00     0.247 C 
HETATM   24  O2  UNL     1      -1.956  -2.251   0.127  1.00  0.00    -0.271 OA
HETATM   25  H19 UNL     1      -4.105   0.033  -0.206  1.00  0.00     0.169 HD
BRANCH  23  26
HETATM   26  C21 UNL     1      -4.154  -2.590  -0.516  1.00  0.00     0.203 C 
HETATM   27  C22 UNL     1      -4.598  -2.425  -1.933  1.00  0.00     0.215 C 
HETATM   28  O3  UNL     1      -3.927  -3.439  -2.620  1.00  0.00    -0.301 OA
HETATM   29  C23 UNL     1      -3.906  -4.551  -1.791  1.00  0.00     0.361 C 
HETATM   30  O4  UNL     1      -4.036  -5.815  -1.825  1.00  0.00    -0.238 OA
HETATM   31  N5  UNL     1      -3.645  -3.960  -0.502  1.00  0.00    -0.321 N 
HETATM   32  H23 UNL     1      -3.177  -4.394   0.332  1.00  0.00     0.165 HD
ENDBRANCH  23  26
ENDBRANCH  10  22
BRANCH   1  33
HETATM   33  O1  UNL     1      -3.868   2.383   0.226  1.00  0.00    -0.349 OA
BRANCH  33  34
HETATM   34  C2  UNL     1      -4.195   3.759   0.343  1.00  0.00     0.171 C 
HETATM   35  C1  UNL     1      -5.643   4.048   0.032  1.00  0.00     0.034 C 
ENDBRANCH  33  34
ENDBRANCH   1  33
TORSDOF 6
