REMARK  6 active torsions:
REMARK  status: ('A' for Active; 'I' for Inactive)
REMARK    1  A    between atoms: C2_2  and  O1_3 
REMARK    2  A    between atoms: O1_3  and  C3_4 
REMARK    3  A    between atoms: C7_10  and  N3_11 
REMARK    4  A    between atoms: N3_11  and  C8_12 
REMARK    5  A    between atoms: C18_22  and  N4_23 
REMARK       I    between atoms: N4_23  and  C19_24 
REMARK    6  A    between atoms: C19_24  and  C20_26 
ROOT
HETATM    1  C3  UNL     1      -2.132   1.578   0.553  1.00  0.00     0.097 A 
HETATM    2  C4  UNL     1      -1.116   2.491   0.351  1.00  0.00     0.071 A 
HETATM    3  C5  UNL     1       0.190   2.090   0.079  1.00  0.00     0.075 A 
HETATM    4  N1  UNL     1       1.173   3.008  -0.116  1.00  0.00    -0.241 NA
HETATM    5  C6  UNL     1       2.428   2.543  -0.379  1.00  0.00     0.235 A 
HETATM    6  N2  UNL     1       2.717   1.209  -0.450  1.00  0.00    -0.224 NA
HETATM    7  C7  UNL     1       1.774   0.269  -0.264  1.00  0.00     0.138 A 
HETATM    8  C16 UNL     1       0.519   0.774  -0.001  1.00  0.00     0.041 A 
HETATM    9  C17 UNL     1      -0.506  -0.118   0.203  1.00  0.00     0.050 A 
HETATM   10  C18 UNL     1      -1.811   0.234   0.475  1.00  0.00     0.069 A 
ENDROOT
BRANCH  10  11
HETATM   11  N4  UNL     1      -2.851  -0.715   0.681  1.00  0.00    -0.323 N 
HETATM   12  C19 UNL     1      -3.558  -1.111  -0.501  1.00  0.00     0.247 C 
HETATM   13  O2  UNL     1      -3.221  -0.608  -1.601  1.00  0.00    -0.271 OA
HETATM   14  H19 UNL     1      -3.193  -1.178   1.545  1.00  0.00     0.169 HD
BRANCH  12  15
HETATM   15  C20 UNL     1      -4.685  -2.078  -0.602  1.00  0.00     0.203 C 
HETATM   16  C21 UNL     1      -4.169  -3.311  -1.307  1.00  0.00     0.215 C 
HETATM   17  O3  UNL     1      -5.031  -4.329  -0.825  1.00  0.00    -0.301 OA
HETATM   18  C22 UNL     1      -5.504  -3.957   0.437  1.00  0.00     0.361 C 
HETATM   19  O4  UNL     1      -6.218  -4.678   1.196  1.00  0.00    -0.238 OA
HETATM   20  N5  UNL     1      -5.029  -2.625   0.695  1.00  0.00    -0.321 N 
HETATM   21  H23 UNL     1      -4.978  -2.218   1.656  1.00  0.00     0.165 HD
ENDBRANCH  12  15
ENDBRANCH  10  11
BRANCH   1  22
HETATM   22  O1  UNL     1      -3.426   1.967   0.823  1.00  0.00    -0.349 OA
BRANCH  22  23
HETATM   23  C2  UNL     1      -3.895   3.278   0.931  1.00  0.00     0.171 C 
HETATM   24  C1  UNL     1      -5.389   3.255   1.238  1.00  0.00     0.034 C 
ENDBRANCH  22  23
ENDBRANCH   1  22
BRANCH   7  25
HETATM   25  N3  UNL     1       2.118  -1.107  -0.347  1.00  0.00    -0.363 N 
HETATM   26  H8  UNL     1       1.464  -1.906  -0.219  1.00  0.00     0.162 HD
BRANCH  25  27
HETATM   27  C8  UNL     1       3.516  -1.361  -0.637  1.00  0.00     0.130 C 
HETATM   28  C9  UNL     1       3.901  -0.750  -1.953  1.00  0.00     0.002 C 
HETATM   29  C10 UNL     1       5.022  -0.252  -2.449  1.00  0.00    -0.002 C 
HETATM   30  C11 UNL     1       6.339  -0.139  -1.807  1.00  0.00     0.000 C 
HETATM   31  C12 UNL     1       6.581  -0.186  -0.507  1.00  0.00     0.006 C 
HETATM   32  C13 UNL     1       5.609  -0.360   0.570  1.00  0.00    -0.064 C 
HETATM   33  C14 UNL     1       6.019   0.041   1.953  1.00  0.00     0.048 C 
HETATM   34  C15 UNL     1       4.380  -0.840   0.466  1.00  0.00     0.009 C 
ENDBRANCH  25  27
ENDBRANCH   7  25
TORSDOF 6
