REMARK  10 active torsions:
REMARK  status: ('A' for Active; 'I' for Inactive)
REMARK    1  A    between atoms: O1_2  and  C2_3 
REMARK    2  A    between atoms: C2_3  and  C3_4 
REMARK    3  A    between atoms: C3_4  and  C4_5 
REMARK       I    between atoms: C4_5  and  N1_7 
REMARK    4  A    between atoms: N1_7  and  C5_8 
REMARK    5  A    between atoms: C7_11  and  C8_12 
REMARK    6  A    between atoms: C9_13  and  C10_15 
REMARK    7  A    between atoms: C14_20  and  O3_21 
REMARK    8  A    between atoms: O3_21  and  C15_22 
REMARK    9  A    between atoms: C15_22  and  C16_23 
REMARK   10  A    between atoms: C16_23  and  N3_24 
ROOT
HETATM    1  C5  UNL     1      -2.800   0.533  -0.404  1.00  0.00     0.434 C 
HETATM    2  N2  UNL     1      -3.813   1.267   0.293  1.00  0.00     0.130 N 
HETATM    3  C6  UNL     1      -3.994   2.628  -0.167  1.00  0.00     0.315 C 
HETATM    4  C7  UNL     1      -2.709   3.329  -0.106  1.00  0.00    -0.002 C 
HETATM    5  C11 UNL     1      -1.551   2.680  -0.175  1.00  0.00     0.045 A 
HETATM    6  C12 UNL     1      -0.208   3.240  -0.127  1.00  0.00     0.033 A 
HETATM    7  C13 UNL     1       0.866   2.482  -0.217  1.00  0.00     0.040 A 
HETATM    8  C14 UNL     1       0.795   1.013  -0.375  1.00  0.00     0.084 A 
HETATM    9  C22 UNL     1      -0.406   0.463  -0.423  1.00  0.00     0.132 A 
HETATM   10  N4  UNL     1      -1.572   1.266  -0.327  1.00  0.00    -0.307 N 
HETATM   11  H10 UNL     1      -3.650   1.179   1.313  1.00  0.00     0.321 HD
ENDROOT
BRANCH   8  12
HETATM   12  O3  UNL     1       2.032   0.443  -0.446  1.00  0.00    -0.348 OA
BRANCH  12  13
HETATM   13  C15 UNL     1       2.376  -0.694  -1.207  1.00  0.00     0.195 C 
BRANCH  13  14
HETATM   14  C16 UNL     1       3.833  -0.983  -1.184  1.00  0.00     0.143 C 
BRANCH  14  15
HETATM   15  N3  UNL     1       4.465  -1.248   0.031  1.00  0.00    -0.410 N 
HETATM   16  C17 UNL     1       4.622  -0.242   1.004  1.00  0.00     0.117 C 
HETATM   17  C18 UNL     1       4.934  -0.768   2.388  1.00  0.00     0.019 C 
HETATM   18  C19 UNL     1       5.917  -1.905   2.363  1.00  0.00     0.003 C 
HETATM   19  C20 UNL     1       6.586  -1.891   1.006  1.00  0.00     0.019 C 
HETATM   20  C21 UNL     1       5.509  -2.236  -0.003  1.00  0.00     0.117 C 
ENDBRANCH  14  15
ENDBRANCH  13  14
ENDBRANCH  12  13
ENDBRANCH   8  12
BRANCH   1  21
HETATM   21  N1  UNL     1      -2.755  -0.787   0.174  1.00  0.00    -0.315 N 
HETATM   22  C4  UNL     1      -3.016  -1.977  -0.583  1.00  0.00     0.222 C 
HETATM   23  O2  UNL     1      -3.281  -1.734  -1.784  1.00  0.00    -0.273 OA
HETATM   24  H8  UNL     1      -2.511  -0.711   1.185  1.00  0.00     0.166 HD
BRANCH  22  25
HETATM   25  C3  UNL     1      -2.904  -3.194   0.261  1.00  0.00     0.129 C 
BRANCH  25  26
HETATM   26  C2  UNL     1      -3.173  -4.455  -0.527  1.00  0.00     0.176 C 
BRANCH  26  27
HETATM   27  O1  UNL     1      -4.457  -4.400  -1.048  1.00  0.00    -0.395 OA
HETATM   28  C1  UNL     1      -4.733  -5.564  -1.785  1.00  0.00     0.201 C 
ENDBRANCH  26  27
ENDBRANCH  25  26
ENDBRANCH  22  25
ENDBRANCH   1  21
BRANCH   4  29
HETATM   29  C8  UNL     1      -2.618   4.770   0.025  1.00  0.00     0.033 C 
HETATM   30  C9  UNL     1      -3.549   5.704   0.116  1.00  0.00     0.041 C 
HETATM   31 CL1  UNL     1      -5.280   5.444   0.100  1.00  0.00    -0.086 Cl
BRANCH  30  32
HETATM   32  C10 UNL     1      -3.402   7.157   0.243  1.00  0.00     0.273 C 
HETATM   33  F1  UNL     1      -2.072   7.548   0.257  1.00  0.00    -0.250 F 
ENDBRANCH  30  32
ENDBRANCH   4  29
TORSDOF 10
