REMARK  1 active torsions:
REMARK  status: ('A' for Active; 'I' for Inactive)
REMARK    1  A    between atoms: C11_16  and  N4_17 
ROOT
HETATM    1 CL1  UNL     1      -0.367  -1.950   1.563  1.00  0.00    -0.087 Cl
HETATM    2  C1  UNL     1      -0.564  -1.003   0.071  1.00  0.00     0.046 C 
HETATM    3  C2  UNL     1      -1.530  -1.233  -0.864  1.00  0.00     0.014 C 
HETATM    4  C3  UNL     1      -2.617  -1.606  -1.763  1.00  0.00     0.150 C 
HETATM    5  N1  UNL     1      -3.539  -0.410  -1.908  1.00  0.00    -0.371 N 
HETATM    6  C4  UNL     1      -3.463  -0.145  -0.483  1.00  0.00     0.132 A 
HETATM    7  N2  UNL     1      -4.024  -0.799   0.542  1.00  0.00    -0.225 NA
HETATM    8  C5  UNL     1      -3.683  -0.584   1.853  1.00  0.00     0.230 A 
HETATM    9  N3  UNL     1      -2.695   0.362   2.093  1.00  0.00    -0.263 NA
HETATM   10  C6  UNL     1      -2.186   0.971   0.988  1.00  0.00     0.125 A 
HETATM   11  C7  UNL     1      -2.491   0.821  -0.344  1.00  0.00     0.023 A 
HETATM   12  C8  UNL     1      -1.971   1.817  -1.357  1.00  0.00     0.210 C 
HETATM   13  O1  UNL     1      -0.750   2.307  -0.684  1.00  0.00    -0.370 OA
HETATM   14  C9  UNL     1      -0.548   1.425   0.445  1.00  0.00     0.136 A 
HETATM   15  C10 UNL     1      -0.920   1.396   1.708  1.00  0.00     0.074 A 
HETATM   16  C11 UNL     1       0.313   0.257  -0.036  1.00  0.00     0.304 C 
HETATM   17  H4  UNL     1      -4.077   0.127  -2.622  1.00  0.00     0.161 HD
ENDROOT
BRANCH  16  18
HETATM   18  N4  UNL     1       1.470   0.049   0.749  1.00  0.00     0.101 N 
HETATM   19  C12 UNL     1       2.379   1.166   0.738  1.00  0.00     0.273 C 
HETATM   20  C13 UNL     1       3.742   0.852   1.231  1.00  0.00     0.030 C 
HETATM   21  C14 UNL     1       4.345  -0.386   0.614  1.00  0.00     0.003 C 
HETATM   22  C15 UNL     1       3.336  -0.925  -0.410  1.00  0.00     0.030 C 
HETATM   23  C16 UNL     1       2.080  -1.218   0.414  1.00  0.00     0.273 C 
ENDBRANCH  16  18
TORSDOF 1
