REMARK  4 active torsions:
REMARK  status: ('A' for Active; 'I' for Inactive)
REMARK    1  A    between atoms: C2_2  and  C3_4 
REMARK    2  A    between atoms: C15_19  and  N2_20 
REMARK    3  A    between atoms: N2_20  and  C16_21 
REMARK    4  A    between atoms: C16_21  and  C17_22 
ROOT
HETATM    1  C3  UNL     1      -1.972  -1.270  -0.146  1.00  0.00    -0.018 C 
HETATM    2  C4  UNL     1      -0.936  -0.644   0.464  1.00  0.00    -0.030 C 
HETATM    3  C5  UNL     1      -0.241  -1.543   1.390  1.00  0.00     0.095 C 
HETATM    4  C6  UNL     1      -0.151  -2.883   0.745  1.00  0.00     0.031 C 
HETATM    5  C7  UNL     1       0.992  -3.494   0.401  1.00  0.00     0.159 C 
HETATM    6  O1  UNL     1       2.096  -2.688   0.735  1.00  0.00    -0.361 OA
HETATM    7  C8  UNL     1       2.661  -1.915  -0.306  1.00  0.00     0.176 C 
HETATM    8  C9  UNL     1       3.754  -0.989   0.131  1.00  0.00     0.057 C 
HETATM    9  C10 UNL     1       3.277   0.007   1.171  1.00  0.00     0.274 C 
HETATM   10  N1  UNL     1       2.205   0.754   0.609  1.00  0.00     0.093 N 
HETATM   11  C11 UNL     1       2.624   1.861  -0.256  1.00  0.00     0.298 C 
HETATM   12  C12 UNL     1       1.680   3.021  -0.182  1.00  0.00     0.198 C 
HETATM   13  O2  UNL     1       0.374   2.745   0.014  1.00  0.00    -0.380 OA
HETATM   14  C13 UNL     1       0.068   1.679   0.871  1.00  0.00     0.187 C 
HETATM   15  C14 UNL     1       1.332   1.365   1.557  1.00  0.00     0.306 C 
HETATM   16  C15 UNL     1      -0.703   0.749   0.111  1.00  0.00     0.281 C 
HETATM   17  N3  UNL     1      -1.407  -3.526   0.482  1.00  0.00    -0.387 N 
HETATM   18  C18 UNL     1      -2.518  -2.576   0.360  1.00  0.00     0.160 C 
HETATM   19  H24 UNL     1      -1.466  -4.572   0.393  1.00  0.00     0.159 HD
ENDROOT
BRANCH  16  20
HETATM   20  N2  UNL     1      -2.023   1.331  -0.082  1.00  0.00     0.101 N 
HETATM   21  H20 UNL     1      -2.583   1.141   0.765  1.00  0.00     0.317 HD
BRANCH  20  22
HETATM   22  C16 UNL     1      -2.066   2.709  -0.399  1.00  0.00     0.339 C 
BRANCH  22  23
HETATM   23  C17 UNL     1      -3.539   3.026  -0.579  1.00  0.00     0.261 C 
HETATM   24  O3  UNL     1      -3.799   4.196  -0.864  1.00  0.00    -0.305 OA
ENDBRANCH  22  23
ENDBRANCH  20  22
ENDBRANCH  16  20
BRANCH   1  25
HETATM   25  C2  UNL     1      -2.597  -0.690  -1.331  1.00  0.00     0.017 A 
HETATM   26  C1  UNL     1      -3.624  -1.226  -2.006  1.00  0.00     0.153 A 
HETATM   27 CL1  UNL     1      -3.082   0.283  -2.699  1.00  0.00    -0.181 Cl
ENDBRANCH   1  25
TORSDOF 4
