REMARK  6 active torsions:
REMARK  status: ('A' for Active; 'I' for Inactive)
REMARK    1  A    between atoms: C2_4  and  N2_5 
REMARK    2  A    between atoms: N2_5  and  O2_6 
REMARK    3  A    between atoms: N2_5  and  C3_7 
REMARK    4  A    between atoms: C4_8  and  C5_9 
REMARK    5  A    between atoms: C8_15  and  N5_16 
REMARK    6  A    between atoms: N5_16  and  C9_17 
ROOT
HETATM    1  C5  UNL     1      -0.105  -0.093  -2.821  1.00  0.00     0.052 A 
HETATM    2  C6  UNL     1      -0.340   0.166  -4.148  1.00  0.00     0.141 A 
HETATM    3 CL1  UNL     1       0.884  -0.143  -5.342  1.00  0.00    -0.061 Cl
HETATM    4  N3  UNL     1      -1.533   0.663  -4.517  1.00  0.00    -0.229 NA
HETATM    5  C7  UNL     1      -2.475   0.901  -3.601  1.00  0.00     0.237 A 
HETATM    6  N4  UNL     1      -2.236   0.648  -2.324  1.00  0.00    -0.223 NA
HETATM    7  C8  UNL     1      -1.069   0.151  -1.887  1.00  0.00     0.142 A 
ENDROOT
BRANCH   1   8
HETATM    8  C4  UNL     1       1.141  -0.621  -2.379  1.00  0.00     0.038 C 
HETATM    9  C3  UNL     1       1.978  -1.040  -1.482  1.00  0.00     0.120 C 
BRANCH   9  10
HETATM   10  N2  UNL     1       2.325  -1.316  -0.144  1.00  0.00    -0.246 N 
BRANCH  10  11
HETATM   11  C2  UNL     1       2.930  -0.290   0.693  1.00  0.00     0.240 C 
HETATM   12  N1  UNL     1       2.061   0.848   0.894  1.00  0.00    -0.311 N 
HETATM   13  C1  UNL     1       2.613   1.435   2.090  1.00  0.00     0.362 C 
HETATM   14  H1  UNL     1       1.242   1.418   0.576  1.00  0.00     0.167 HD
HETATM   15  O1  UNL     1       2.546   2.567   2.669  1.00  0.00    -0.238 OA
HETATM   16  O3  UNL     1       3.421   0.499   2.763  1.00  0.00    -0.300 OA
HETATM   17  C15 UNL     1       3.218  -0.744   2.091  1.00  0.00     0.229 C 
ENDBRANCH  10  11
BRANCH  10  18
HETATM   18  O2  UNL     1       2.139  -2.515   0.511  1.00  0.00    -0.286 OA
HETATM   19  H3  UNL     1       3.042  -2.918   0.642  1.00  0.00     0.244 HD
ENDBRANCH  10  18
ENDBRANCH   9  10
ENDBRANCH   1   8
BRANCH   7  20
HETATM   20  N5  UNL     1      -1.037  -0.047  -0.498  1.00  0.00    -0.340 N 
HETATM   21  H7  UNL     1      -0.118  -0.447  -0.267  1.00  0.00     0.167 HD
BRANCH  20  22
HETATM   22  C9  UNL     1      -1.945   0.172   0.553  1.00  0.00     0.033 A 
HETATM   23  C10 UNL     1      -3.226   0.654   0.419  1.00  0.00     0.032 A 
HETATM   24  C11 UNL     1      -4.095   0.860   1.467  1.00  0.00     0.044 A 
HETATM   25  C12 UNL     1      -3.596   0.544   2.713  1.00  0.00     0.116 A 
HETATM   26  F1  UNL     1      -4.392   0.720   3.796  1.00  0.00    -0.206 F 
HETATM   27  C13 UNL     1      -2.328   0.057   2.938  1.00  0.00     0.044 A 
HETATM   28  C14 UNL     1      -1.529  -0.117   1.835  1.00  0.00     0.032 A 
ENDBRANCH  20  22
ENDBRANCH   7  20
TORSDOF 6
