REMARK  5 active torsions:
REMARK  status: ('A' for Active; 'I' for Inactive)
REMARK    1  A    between atoms: C7_9  and  N3_10 
REMARK    2  A    between atoms: N3_10  and  C8_11 
REMARK    3  A    between atoms: C8_11  and  C9_12 
REMARK    4  A    between atoms: C13_18  and  N4_19 
REMARK    5  A    between atoms: C21_29  and  C22_31 
ROOT
HETATM    1  C1  UNL     1       5.306  -0.404   0.320  1.00  0.00     0.071 C 
HETATM    2  C2  UNL     1       4.281  -1.497   0.306  1.00  0.00     0.044 C 
HETATM    3  N1  UNL     1       4.662  -2.653  -0.215  1.00  0.00    -0.246 NA
HETATM    4  C3  UNL     1       3.971  -3.919   0.021  1.00  0.00     0.235 C 
HETATM    5  N2  UNL     1       2.747  -4.174   0.513  1.00  0.00    -0.230 NA
HETATM    6  C4  UNL     1       1.766  -3.191   0.819  1.00  0.00     0.111 C 
HETATM    7  C5  UNL     1       2.235  -2.182   1.663  1.00  0.00     0.060 C 
HETATM    8  C6  UNL     1       2.978  -1.104   0.907  1.00  0.00     0.016 C 
HETATM    9  C7  UNL     1       2.642   0.169   0.559  1.00  0.00     0.041 C 
HETATM   10  C10 UNL     1       1.469   0.825   1.189  1.00  0.00     0.225 C 
HETATM   11  O2  UNL     1       0.478   1.154   0.288  1.00  0.00    -0.385 OA
HETATM   12  C11 UNL     1      -0.613   1.549   1.090  1.00  0.00     0.173 C 
HETATM   13  C12 UNL     1      -1.939   1.487   0.430  1.00  0.00     0.080 C 
HETATM   14  C13 UNL     1      -2.409   0.173  -0.090  1.00  0.00     0.012 C 
HETATM   15  C18 UNL     1      -2.523  -1.125  -0.438  1.00  0.00     0.093 A 
HETATM   16  C19 UNL     1      -1.185  -1.404   0.130  1.00  0.00     0.068 A 
HETATM   17  C20 UNL     1      -0.154  -2.197   0.308  1.00  0.00     0.140 A 
HETATM   18  N5  UNL     1       0.510  -3.415   0.124  1.00  0.00    -0.218 NA
HETATM   19  C21 UNL     1      -0.779  -3.254  -0.446  1.00  0.00     0.205 A 
HETATM   20  F1  UNL     1      -0.929  -4.452  -1.008  1.00  0.00    -0.221 F 
HETATM   21  C22 UNL     1      -1.694  -2.321  -0.520  1.00  0.00     0.103 A 
HETATM   22 CL1  UNL     1      -3.113  -2.852  -1.459  1.00  0.00    -0.187 Cl
ENDROOT
BRANCH  14  23
HETATM   23  N4  UNL     1      -3.726   0.417  -0.645  1.00  0.00    -0.382 N 
HETATM   24  C14 UNL     1      -4.860   0.559   0.277  1.00  0.00     0.148 C 
HETATM   25  C15 UNL     1      -5.523   1.907   0.062  1.00  0.00     0.187 C 
HETATM   26  O3  UNL     1      -5.111   2.468  -1.165  1.00  0.00    -0.388 OA
HETATM   27  C16 UNL     1      -5.227   1.549  -2.192  1.00  0.00     0.187 C 
HETATM   28  C17 UNL     1      -4.097   0.552  -2.062  1.00  0.00     0.148 C 
ENDBRANCH  14  23
BRANCH   9  29
HETATM   29  N3  UNL     1       3.256   1.116  -0.230  1.00  0.00    -0.384 N 
HETATM   30  H6  UNL     1       3.178   0.532  -1.098  1.00  0.00     0.159 HD
BRANCH  29  31
HETATM   31  C8  UNL     1       3.754   2.412   0.130  1.00  0.00     0.189 C 
BRANCH  31  32
HETATM   32  C9  UNL     1       4.339   2.983  -1.124  1.00  0.00     0.250 C 
HETATM   33  O1  UNL     1       4.765   4.103  -0.811  1.00  0.00    -0.305 OA
ENDBRANCH  31  32
ENDBRANCH  29  31
ENDBRANCH   9  29
TORSDOF 5
