REMARK  7 active torsions:
REMARK  status: ('A' for Active; 'I' for Inactive)
REMARK       I    between atoms: N1_1  and  C1_2 
REMARK    1  A    between atoms: C1_2  and  O2_4 
REMARK    2  A    between atoms: O2_4  and  C2_5 
REMARK    3  A    between atoms: C2_5  and  C3_6 
REMARK       I    between atoms: C3_6  and  N2_8 
REMARK    4  A    between atoms: N2_8  and  C4_9 
REMARK    5  A    between atoms: C9_15  and  N4_16 
REMARK    6  A    between atoms: N4_16  and  C10_17 
REMARK    7  A    between atoms: C10_17  and  C11_18 
ROOT
HETATM    1  C4  UNL     1       0.916   0.241   0.054  1.00  0.00     0.098 C 
HETATM    2  C5  UNL     1      -0.296  -0.205  -0.227  1.00  0.00    -0.011 C 
HETATM    3  C6  UNL     1      -0.869  -1.382  -0.938  1.00  0.00     0.045 C 
HETATM    4  C7  UNL     1      -1.689  -0.855  -2.098  1.00  0.00     0.051 C 
HETATM    5  C8  UNL     1      -2.064   0.550  -2.004  1.00  0.00     0.086 C 
HETATM    6  N3  UNL     1      -1.970   1.235  -0.946  1.00  0.00    -0.266 NA
HETATM    7  C9  UNL     1      -1.466   0.633   0.260  1.00  0.00     0.372 C 
ENDROOT
BRANCH   1   8
HETATM    8  N2  UNL     1       2.293   0.068  -0.032  1.00  0.00    -0.335 N 
HETATM    9  C3  UNL     1       3.059  -0.959  -0.638  1.00  0.00     0.245 C 
HETATM   10  O3  UNL     1       2.522  -1.948  -1.243  1.00  0.00    -0.271 OA
HETATM   11  H5  UNL     1       3.054   0.681   0.330  1.00  0.00     0.168 HD
BRANCH   9  12
HETATM   12  C2  UNL     1       4.507  -1.220  -0.772  1.00  0.00     0.283 C 
BRANCH  12  13
HETATM   13  O2  UNL     1       5.291  -0.199  -0.132  1.00  0.00    -0.295 OA
BRANCH  13  14
HETATM   14  C1  UNL     1       5.208  -0.054   1.264  1.00  0.00     0.358 C 
HETATM   15  N1  UNL     1       6.029   1.000   1.746  1.00  0.00    -0.346 N 
HETATM   16  H1  UNL     1       7.069   1.194   1.667  1.00  0.00     0.161 HD
HETATM   17  H2  UNL     1       6.107   1.894   2.272  1.00  0.00     0.161 HD
HETATM   18  O1  UNL     1       4.499  -0.750   2.069  1.00  0.00    -0.239 OA
ENDBRANCH  13  14
ENDBRANCH  12  13
ENDBRANCH   9  12
ENDBRANCH   1   8
BRANCH   7  19
HETATM   19  N4  UNL     1      -2.518  -0.192   0.797  1.00  0.00     0.117 N 
HETATM   20  H13 UNL     1      -2.210  -0.903   1.486  1.00  0.00     0.319 HD
BRANCH  19  21
HETATM   21  C10 UNL     1      -3.610   0.615   1.293  1.00  0.00     0.322 C 
BRANCH  21  22
HETATM   22  C11 UNL     1      -4.356   1.327   0.246  1.00  0.00     0.051 A 
HETATM   23 CL1  UNL     1      -4.920   2.331  -1.070  1.00  0.00    -0.145 Cl
HETATM   24  C12 UNL     1      -5.652   1.123   0.056  1.00  0.00     0.512 A 
HETATM   25  F1  UNL     1      -6.382   0.265   0.788  1.00  0.00    -0.442 F 
ENDBRANCH  21  22
ENDBRANCH  19  21
ENDBRANCH   7  19
TORSDOF 7
