REMARK  6 active torsions:
REMARK  status: ('A' for Active; 'I' for Inactive)
REMARK    1  A    between atoms: C2_2  and  C3_3 
REMARK    2  A    between atoms: C3_3  and  C4_5 
REMARK    3  A    between atoms: C8_11  and  N3_12 
REMARK    4  A    between atoms: N3_12  and  C9_13 
REMARK    5  A    between atoms: C16_23  and  C17_24 
REMARK    6  A    between atoms: C17_24  and  O2_25 
ROOT
HETATM    1  C4  UNL     1       2.939  -0.833  -0.030  1.00  0.00     0.077 C 
HETATM    2  C5  UNL     1       2.127  -1.824  -0.427  1.00  0.00     0.067 C 
HETATM    3  C6  UNL     1       0.651  -1.915  -0.396  1.00  0.00     0.093 A 
HETATM    4  N1  UNL     1       0.351  -3.209  -0.549  1.00  0.00    -0.240 NA
HETATM    5  C7  UNL     1      -0.931  -3.613  -0.563  1.00  0.00     0.236 A 
HETATM    6  N2  UNL     1      -1.884  -2.698  -0.422  1.00  0.00    -0.222 NA
HETATM    7  C8  UNL     1      -1.712  -1.389  -0.263  1.00  0.00     0.160 A 
HETATM    8  C15 UNL     1      -0.385  -1.019  -0.255  1.00  0.00     0.131 A 
HETATM    9  N4  UNL     1      -0.348   0.414  -0.078  1.00  0.00    -0.248 NA
HETATM   10  C16 UNL     1       0.435   1.260   0.501  1.00  0.00     0.054 C 
HETATM   11  C19 UNL     1       1.702   1.140   1.277  1.00  0.00     0.176 C 
HETATM   12  N5  UNL     1       2.747   0.459   0.547  1.00  0.00    -0.381 N 
HETATM   13  H19 UNL     1       3.589   1.065   0.398  1.00  0.00     0.160 HD
ENDROOT
BRANCH   7  14
HETATM   14  N3  UNL     1      -2.704  -0.388  -0.110  1.00  0.00    -0.339 N 
HETATM   15  H8  UNL     1      -2.374   0.609   0.005  1.00  0.00     0.167 HD
BRANCH  14  16
HETATM   16  C9  UNL     1      -4.109  -0.554  -0.091  1.00  0.00     0.035 A 
HETATM   17  C10 UNL     1      -4.969   0.530   0.068  1.00  0.00     0.032 A 
HETATM   18  C11 UNL     1      -6.330   0.405   0.091  1.00  0.00     0.046 A 
HETATM   19  C12 UNL     1      -6.933  -0.828  -0.045  1.00  0.00     0.138 A 
HETATM   20  F1  UNL     1      -8.285  -0.884  -0.014  1.00  0.00    -0.204 F 
HETATM   21  C13 UNL     1      -6.134  -1.940  -0.206  1.00  0.00     0.074 A 
HETATM   22 CL1  UNL     1      -6.872  -3.519  -0.382  1.00  0.00    -0.081 Cl
HETATM   23  C14 UNL     1      -4.770  -1.750  -0.222  1.00  0.00     0.056 A 
ENDBRANCH  14  16
ENDBRANCH   7  14
BRANCH  10  24
HETATM   24  C17 UNL     1       0.000   2.684   0.383  1.00  0.00     0.223 C 
BRANCH  24  25
HETATM   25  O2  UNL     1       0.967   3.452  -0.265  1.00  0.00    -0.390 OA
HETATM   26  C18 UNL     1       0.572   4.783  -0.381  1.00  0.00     0.201 C 
ENDBRANCH  24  25
ENDBRANCH  10  24
BRANCH   1  27
HETATM   27  C3  UNL     1       4.329  -1.200  -0.258  1.00  0.00     0.175 C 
HETATM   28  O1  UNL     1       4.533  -2.332  -0.765  1.00  0.00    -0.291 OA
BRANCH  27  29
HETATM   29  C2  UNL     1       5.411  -0.241   0.111  1.00  0.00     0.081 C 
HETATM   30  C1  UNL     1       6.762  -0.865  -0.226  1.00  0.00     0.013 C 
ENDBRANCH  27  29
ENDBRANCH   1  27
TORSDOF 6
