REMARK  6 active torsions:
REMARK  status: ('A' for Active; 'I' for Inactive)
REMARK    1  A    between atoms: C4_7  and  C5_8 
REMARK    2  A    between atoms: C5_8  and  N2_9 
REMARK    3  A    between atoms: N2_9  and  C6_10 
REMARK    4  A    between atoms: C10_15  and  C11_16 
REMARK    5  A    between atoms: C12_17  and  N4_18 
REMARK    6  A    between atoms: N4_18  and  C13_19 
ROOT
HETATM    1  C6  UNL     1      -0.621   0.927   0.806  1.00  0.00     0.057 A 
HETATM    2  C7  UNL     1      -0.690   1.360   2.109  1.00  0.00     0.033 A 
HETATM    3  C8  UNL     1       0.433   1.720   2.818  1.00  0.00     0.022 A 
HETATM    4  C9  UNL     1       1.630   1.610   2.111  1.00  0.00     0.117 A 
HETATM    5  N3  UNL     1       1.684   1.185   0.834  1.00  0.00    -0.259 NA
HETATM    6  C10 UNL     1       0.586   0.833   0.144  1.00  0.00     0.084 A 
ENDROOT
BRANCH   6   7
HETATM    7  C11 UNL     1       0.709   0.381  -1.234  1.00  0.00     0.051 C 
HETATM    8  C12 UNL     1       1.900   0.317  -1.804  1.00  0.00     0.090 C 
BRANCH   8   9
HETATM    9  N4  UNL     1       3.127   0.653  -1.200  1.00  0.00    -0.366 N 
HETATM   10  H15 UNL     1       3.194   1.659  -0.943  1.00  0.00     0.165 HD
BRANCH   9  11
HETATM   11  C13 UNL     1       4.332  -0.008  -0.832  1.00  0.00     0.033 A 
HETATM   12  C14 UNL     1       4.647  -0.632   0.364  1.00  0.00     0.032 A 
HETATM   13  C15 UNL     1       5.864  -1.221   0.543  1.00  0.00     0.046 A 
HETATM   14  C16 UNL     1       6.779  -1.196  -0.465  1.00  0.00     0.138 A 
HETATM   15  F1  UNL     1       7.967  -1.812  -0.190  1.00  0.00    -0.204 F 
HETATM   16  C17 UNL     1       6.529  -0.595  -1.672  1.00  0.00     0.074 A 
HETATM   17 CL1  UNL     1       7.766  -0.611  -2.913  1.00  0.00    -0.081 Cl
HETATM   18  C18 UNL     1       5.283   0.005  -1.847  1.00  0.00     0.056 A 
ENDBRANCH   9  11
ENDBRANCH   8   9
ENDBRANCH   6   7
BRANCH   1  19
HETATM   19  N2  UNL     1      -1.828   0.573   0.143  1.00  0.00    -0.386 N 
HETATM   20  H9  UNL     1      -1.883   0.235  -0.842  1.00  0.00     0.159 HD
BRANCH  19  21
HETATM   21  C5  UNL     1      -3.109   0.661   0.811  1.00  0.00     0.147 C 
BRANCH  21  22
HETATM   22  C4  UNL     1      -4.277   0.250  -0.032  1.00  0.00     0.133 C 
HETATM   23  C2  UNL     1      -4.165  -1.191  -0.504  1.00  0.00     0.154 C 
HETATM   24  C1  UNL     1      -5.257  -1.437  -1.511  1.00  0.00     0.042 C 
HETATM   25  O1  UNL     1      -4.488  -1.891   0.685  1.00  0.00    -0.297 OA
HETATM   26  C3  UNL     1      -5.590  -1.239   1.253  1.00  0.00     0.361 C 
HETATM   27  O2  UNL     1      -6.491  -1.791   1.946  1.00  0.00    -0.238 OA
HETATM   28  N1  UNL     1      -5.422   0.127   0.861  1.00  0.00    -0.328 N 
HETATM   29  H5  UNL     1      -6.072   0.862   1.211  1.00  0.00     0.165 HD
ENDBRANCH  21  22
ENDBRANCH  19  21
ENDBRANCH   1  19
TORSDOF 6
