REMARK  7 active torsions:
REMARK  status: ('A' for Active; 'I' for Inactive)
REMARK    1  A    between atoms: O1_2  and  C2_3 
REMARK    2  A    between atoms: C6_9  and  N3_10 
REMARK    3  A    between atoms: N3_10  and  C7_11 
REMARK    4  A    between atoms: C8_12  and  C9_13 
REMARK    5  A    between atoms: C10_14  and  C12_16 
REMARK    6  A    between atoms: C15_20  and  N4_21 
REMARK       I    between atoms: N4_21  and  C16_22 
REMARK    7  A    between atoms: C16_22  and  C17_24 
ROOT
HETATM    1  C2  UNL     1      -1.777   1.517  -1.185  1.00  0.00     0.097 A 
HETATM    2  C3  UNL     1      -0.771   1.591  -2.155  1.00  0.00     0.071 A 
HETATM    3  C4  UNL     1       0.320   0.748  -2.019  1.00  0.00     0.075 A 
HETATM    4  N1  UNL     1       1.263   0.854  -2.977  1.00  0.00    -0.241 NA
HETATM    5  C5  UNL     1       2.357   0.087  -2.941  1.00  0.00     0.236 A 
HETATM    6  N2  UNL     1       2.499  -0.799  -1.924  1.00  0.00    -0.224 NA
HETATM    7  C6  UNL     1       1.550  -0.892  -0.979  1.00  0.00     0.141 A 
HETATM    8  C13 UNL     1       0.409  -0.124  -0.975  1.00  0.00     0.041 A 
HETATM    9  C14 UNL     1      -0.549  -0.234  -0.000  1.00  0.00     0.050 A 
HETATM   10  C15 UNL     1      -1.633   0.617  -0.152  1.00  0.00     0.069 A 
ENDROOT
BRANCH  10  11
HETATM   11  N4  UNL     1      -2.655   0.521   0.861  1.00  0.00    -0.323 N 
HETATM   12  C16 UNL     1      -3.596  -0.447   0.435  1.00  0.00     0.247 C 
HETATM   13  O2  UNL     1      -3.446  -1.056  -0.677  1.00  0.00    -0.271 OA
HETATM   14  H16 UNL     1      -2.928   0.917   1.782  1.00  0.00     0.169 HD
BRANCH  12  15
HETATM   15  C17 UNL     1      -4.833  -0.960   1.045  1.00  0.00     0.203 C 
HETATM   16  C18 UNL     1      -6.078  -0.673   0.244  1.00  0.00     0.215 C 
HETATM   17  O3  UNL     1      -7.082  -1.036   1.204  1.00  0.00    -0.301 OA
HETATM   18  C19 UNL     1      -6.551  -0.695   2.453  1.00  0.00     0.361 C 
HETATM   19  O4  UNL     1      -7.324  -0.718   3.470  1.00  0.00    -0.238 OA
HETATM   20  N5  UNL     1      -5.152  -0.367   2.325  1.00  0.00    -0.321 N 
HETATM   21  H20 UNL     1      -4.693   0.163   3.072  1.00  0.00     0.165 HD
ENDBRANCH  12  15
ENDBRANCH  10  11
BRANCH   1  22
HETATM   22  O1  UNL     1      -2.909   2.292  -1.198  1.00  0.00    -0.354 OA
HETATM   23  C1  UNL     1      -3.173   3.245  -2.194  1.00  0.00     0.210 C 
ENDBRANCH   1  22
BRANCH   7  24
HETATM   24  N3  UNL     1       1.787  -1.850   0.048  1.00  0.00    -0.350 N 
HETATM   25  H6  UNL     1       1.243  -2.122   0.871  1.00  0.00     0.166 HD
BRANCH  24  26
HETATM   26  C7  UNL     1       2.973  -2.633   0.024  1.00  0.00     0.090 C 
HETATM   27  C8  UNL     1       4.158  -2.137   0.318  1.00  0.00     0.017 C 
BRANCH  27  28
HETATM   28  C9  UNL     1       4.282  -0.741   0.683  1.00  0.00     0.006 C 
HETATM   29  C10 UNL     1       5.426  -0.155   0.994  1.00  0.00    -0.056 C 
HETATM   30  C11 UNL     1       5.572   1.272   1.370  1.00  0.00     0.046 C 
BRANCH  29  31
HETATM   31  C12 UNL     1       6.761  -0.795   1.027  1.00  0.00     0.256 C 
HETATM   32  F1  UNL     1       7.294  -0.696   2.320  1.00  0.00    -0.251 F 
ENDBRANCH  29  31
ENDBRANCH  27  28
ENDBRANCH  24  26
ENDBRANCH   7  24
TORSDOF 7
