REMARK  7 active torsions:
REMARK  status: ('A' for Active; 'I' for Inactive)
REMARK    1  A    between atoms: C2_2  and  C3_4 
REMARK    2  A    between atoms: C4_5  and  C5_6 
REMARK    3  A    between atoms: C5_6  and  N1_8 
REMARK    4  A    between atoms: N1_8  and  C7_9 
REMARK    5  A    between atoms: C11_15  and  O1_16 
REMARK    6  A    between atoms: C13_18  and  N4_19 
REMARK       I    between atoms: N4_19  and  C14_20 
REMARK    7  A    between atoms: C14_20  and  C15_22 
ROOT
HETATM    1  C7  UNL     1      -2.338  -0.996  -1.169  1.00  0.00     0.142 A 
HETATM    2  N2  UNL     1      -3.283  -1.775  -1.769  1.00  0.00    -0.224 NA
HETATM    3  C8  UNL     1      -2.918  -2.944  -2.343  1.00  0.00     0.236 A 
HETATM    4  N3  UNL     1      -1.655  -3.427  -2.375  1.00  0.00    -0.241 NA
HETATM    5  C9  UNL     1      -0.677  -2.702  -1.798  1.00  0.00     0.075 A 
HETATM    6  C10 UNL     1       0.622  -3.108  -1.786  1.00  0.00     0.071 A 
HETATM    7  C11 UNL     1       1.633  -2.390  -1.212  1.00  0.00     0.097 A 
HETATM    8  C13 UNL     1       1.331  -1.185  -0.609  1.00  0.00     0.069 A 
HETATM    9  C19 UNL     1      -0.005  -0.769  -0.621  1.00  0.00     0.050 A 
HETATM   10  C20 UNL     1      -1.047  -1.492  -1.203  1.00  0.00     0.041 A 
ENDROOT
BRANCH   8  11
HETATM   11  N4  UNL     1       2.234  -0.294   0.037  1.00  0.00    -0.323 N 
HETATM   12  C14 UNL     1       2.688  -0.163   1.381  1.00  0.00     0.247 C 
HETATM   13  O2  UNL     1       2.106  -1.069   2.030  1.00  0.00    -0.271 OA
HETATM   14  H13 UNL     1       2.461   0.253  -0.848  1.00  0.00     0.169 HD
BRANCH  12  15
HETATM   15  C15 UNL     1       3.639   0.978   1.409  1.00  0.00     0.208 C 
HETATM   16  N5  UNL     1       4.124   1.153   2.757  1.00  0.00    -0.321 N 
HETATM   17  C16 UNL     1       3.539   2.365   3.239  1.00  0.00     0.361 C 
HETATM   18  H15 UNL     1       4.737   0.703   3.466  1.00  0.00     0.165 HD
HETATM   19  O3  UNL     1       3.434   3.024   4.311  1.00  0.00    -0.238 OA
HETATM   20  O4  UNL     1       2.885   3.001   2.178  1.00  0.00    -0.296 OA
HETATM   21  C17 UNL     1       2.968   2.243   1.006  1.00  0.00     0.161 C 
HETATM   22  C18 UNL     1       3.747   3.018  -0.046  1.00  0.00     0.043 C 
ENDBRANCH  12  15
ENDBRANCH   8  11
BRANCH   7  23
HETATM   23  O1  UNL     1       2.973  -2.722  -1.152  1.00  0.00    -0.354 OA
HETATM   24  C12 UNL     1       3.380  -3.941  -1.745  1.00  0.00     0.210 C 
ENDBRANCH   7  23
BRANCH   1  25
HETATM   25  N1  UNL     1      -2.628   0.258  -0.529  1.00  0.00    -0.341 N 
HETATM   26  H7  UNL     1      -2.405   0.798  -1.368  1.00  0.00     0.167 HD
BRANCH  25  27
HETATM   27  C5  UNL     1      -3.037   0.134   0.819  1.00  0.00     0.024 C 
HETATM   28  C6  UNL     1      -2.413  -0.740   1.583  1.00  0.00     0.043 C 
BRANCH  27  29
HETATM   29  C4  UNL     1      -4.096   0.885   1.447  1.00  0.00     0.030 C 
HETATM   30  C3  UNL     1      -4.834   1.803   0.855  1.00  0.00     0.021 C 
BRANCH  30  31
HETATM   31  C2  UNL     1      -5.032   2.473  -0.400  1.00  0.00     0.009 A 
HETATM   32  C1  UNL     1      -5.741   3.393  -1.059  1.00  0.00     0.152 A 
HETATM   33 CL1  UNL     1      -4.586   2.698  -2.081  1.00  0.00    -0.182 Cl
ENDBRANCH  30  31
ENDBRANCH  27  29
ENDBRANCH  25  27
ENDBRANCH   1  25
TORSDOF 7
