REMARK  5 active torsions:
REMARK  status: ('A' for Active; 'I' for Inactive)
REMARK    1  A    between atoms: O1_2  and  C2_3 
REMARK    2  A    between atoms: C6_9  and  N3_10 
REMARK    3  A    between atoms: N3_10  and  C7_11 
REMARK    4  A    between atoms: N4_22  and  C16_23 
REMARK    5  A    between atoms: C16_23  and  C18_25 
ROOT
HETATM    1  C2  UNL     1      -0.730  -0.161   1.903  1.00  0.00     0.096 A 
HETATM    2  C3  UNL     1       0.058   0.459   2.728  1.00  0.00     0.071 A 
HETATM    3  C4  UNL     1       1.142   0.876   1.995  1.00  0.00     0.075 A 
HETATM    4  N1  UNL     1       2.087   1.541   2.686  1.00  0.00    -0.241 NA
HETATM    5  C5  UNL     1       3.187   1.977   2.046  1.00  0.00     0.236 A 
HETATM    6  N2  UNL     1       3.293   1.734   0.755  1.00  0.00    -0.224 NA
HETATM    7  C6  UNL     1       2.398   1.088   0.020  1.00  0.00     0.142 A 
HETATM    8  C13 UNL     1       1.261   0.622   0.624  1.00  0.00     0.041 A 
HETATM    9  C14 UNL     1       0.145  -0.109   0.096  1.00  0.00     0.049 A 
HETATM   10  C15 UNL     1      -1.135  -0.663   0.704  1.00  0.00     0.063 A 
HETATM   11  N4  UNL     1      -1.531  -1.156  -0.479  1.00  0.00    -0.381 N 
HETATM   12  H11 UNL     1      -1.320  -1.219  -1.449  1.00  0.00     0.160 HD
ENDROOT
BRANCH   1  13
HETATM   13  O1  UNL     1      -1.958  -0.694   2.439  1.00  0.00    -0.354 OA
HETATM   14  C1  UNL     1      -2.312  -0.567   3.768  1.00  0.00     0.210 C 
ENDBRANCH   1  13
BRANCH  11  15
HETATM   15  C16 UNL     1      -2.756  -1.912  -0.566  1.00  0.00     0.102 C 
HETATM   16  C17 UNL     1      -2.832  -3.110   0.343  1.00  0.00     0.034 C 
BRANCH  15  17
HETATM   17  C18 UNL     1      -4.013  -1.113  -0.570  1.00  0.00     0.133 C 
HETATM   18  C19 UNL     1      -4.005  -0.143  -1.748  1.00  0.00     0.208 C 
HETATM   19  O2  UNL     1      -4.942   0.834  -1.337  1.00  0.00    -0.302 OA
HETATM   20  C20 UNL     1      -4.984   0.829   0.067  1.00  0.00     0.361 C 
HETATM   21  O3  UNL     1      -5.545   1.905   0.432  1.00  0.00    -0.239 OA
HETATM   22  N5  UNL     1      -4.378  -0.384   0.577  1.00  0.00    -0.328 N 
HETATM   23  H19 UNL     1      -4.457  -0.237   1.623  1.00  0.00     0.165 HD
ENDBRANCH  15  17
ENDBRANCH  11  15
BRANCH   7  24
HETATM   24  N3  UNL     1       2.461   0.819  -1.355  1.00  0.00    -0.340 N 
HETATM   25  H6  UNL     1       1.844   0.457  -2.095  1.00  0.00     0.167 HD
BRANCH  24  26
HETATM   26  C7  UNL     1       3.634   1.049  -2.164  1.00  0.00     0.035 A 
HETATM   27  C8  UNL     1       3.681   1.789  -3.310  1.00  0.00     0.032 A 
HETATM   28  C9  UNL     1       4.884   1.850  -3.960  1.00  0.00     0.046 A 
HETATM   29  C10 UNL     1       5.970   1.202  -3.473  1.00  0.00     0.138 A 
HETATM   30  F1  UNL     1       7.137   1.277  -4.146  1.00  0.00    -0.204 F 
HETATM   31  C11 UNL     1       5.853   0.484  -2.323  1.00  0.00     0.074 A 
HETATM   32 CL1  UNL     1       7.336  -0.338  -1.767  1.00  0.00    -0.081 Cl
HETATM   33  C12 UNL     1       4.669   0.324  -1.533  1.00  0.00     0.056 A 
ENDBRANCH  24  26
ENDBRANCH   7  24
TORSDOF 5
