REMARK  2 active torsions:
REMARK  status: ('A' for Active; 'I' for Inactive)
REMARK    1  A    between atoms: C11_14  and  N4_15 
REMARK       I    between atoms: N4_15  and  C12_16 
REMARK    2  A    between atoms: C12_16  and  C13_18 
ROOT
HETATM    1  C1  UNL     1      -0.819  -2.995   1.527  1.00  0.00     0.076 C 
HETATM    2  C2  UNL     1      -1.386  -2.182   0.437  1.00  0.00     0.043 C 
HETATM    3  C3  UNL     1      -1.543  -2.106  -0.871  1.00  0.00     0.033 C 
HETATM    4  C4  UNL     1      -2.063  -1.384  -2.006  1.00  0.00     0.019 C 
HETATM    5  C5  UNL     1      -2.730  -0.254  -2.027  1.00  0.00     0.090 C 
HETATM    6  N1  UNL     1      -3.255   0.756  -1.190  1.00  0.00    -0.350 N 
HETATM    7  C6  UNL     1      -2.954   2.073  -0.847  1.00  0.00     0.140 A 
HETATM    8  N2  UNL     1      -4.090   2.818  -0.716  1.00  0.00    -0.224 NA
HETATM    9  C7  UNL     1      -4.041   4.121  -0.389  1.00  0.00     0.234 A 
HETATM   10  N3  UNL     1      -2.893   4.776  -0.172  1.00  0.00    -0.253 NA
HETATM   11  C8  UNL     1      -1.742   4.100  -0.285  1.00  0.00     0.133 A 
HETATM   12  C9  UNL     1      -1.791   2.774  -0.618  1.00  0.00     0.029 A 
HETATM   13  C10 UNL     1      -0.710   1.826  -0.813  1.00  0.00     0.044 C 
HETATM   14  C11 UNL     1      -0.615   0.716  -0.125  1.00  0.00     0.037 C 
HETATM   15  C17 UNL     1      -1.476   0.222   0.978  1.00  0.00     0.232 C 
HETATM   16  O4  UNL     1      -2.050  -1.007   0.567  1.00  0.00    -0.350 OA
HETATM   17  H7  UNL     1      -4.067   0.263  -0.784  1.00  0.00     0.166 HD
ENDROOT
BRANCH  14  18
HETATM   18  N4  UNL     1       0.518  -0.071  -0.480  1.00  0.00    -0.327 N 
HETATM   19  C12 UNL     1       1.357  -0.252   0.627  1.00  0.00     0.247 C 
HETATM   20  O1  UNL     1       1.578  -0.027   1.850  1.00  0.00    -0.271 OA
HETATM   21  H11 UNL     1       0.881  -0.538  -1.322  1.00  0.00     0.168 HD
BRANCH  19  22
HETATM   22  C13 UNL     1       2.630  -1.015   0.648  1.00  0.00     0.208 C 
HETATM   23  N5  UNL     1       3.193  -0.957   1.984  1.00  0.00    -0.321 N 
HETATM   24  C14 UNL     1       4.073   0.171   1.919  1.00  0.00     0.361 C 
HETATM   25  H13 UNL     1       3.185  -1.418   2.920  1.00  0.00     0.165 HD
HETATM   26  O2  UNL     1       4.549   0.954   2.789  1.00  0.00    -0.238 OA
HETATM   27  O3  UNL     1       4.448   0.399   0.582  1.00  0.00    -0.296 OA
HETATM   28  C15 UNL     1       3.682  -0.455  -0.259  1.00  0.00     0.161 C 
HETATM   29  C16 UNL     1       4.593  -1.578  -0.671  1.00  0.00     0.043 C 
ENDBRANCH  19  22
ENDBRANCH  14  18
TORSDOF 2
