REMARK  4 active torsions:
REMARK  status: ('A' for Active; 'I' for Inactive)
REMARK    1  A    between atoms: C2_2  and  C3_3 
REMARK    2  A    between atoms: C4_4  and  C5_6 
REMARK    3  A    between atoms: C5_6  and  N1_7 
REMARK    4  A    between atoms: N1_7  and  C6_8 
ROOT
HETATM    1  C6  UNL     1       1.127  -1.437   0.386  1.00  0.00     0.166 A 
HETATM    2  C7  UNL     1       1.454  -2.436  -0.668  1.00  0.00     0.123 A 
HETATM    3  N2  UNL     1       0.418  -2.683  -1.433  1.00  0.00    -0.237 NA
HETATM    4  C8  UNL     1      -0.667  -1.869  -0.942  1.00  0.00     0.194 A 
HETATM    5  C9  UNL     1      -0.292  -1.144   0.100  1.00  0.00     0.086 A 
HETATM    6  N3  UNL     1      -1.133  -0.239   0.812  1.00  0.00    -0.383 N 
HETATM    7  C10 UNL     1      -2.280   0.545   0.412  1.00  0.00     0.161 C 
HETATM    8  C11 UNL     1      -3.114  -0.071  -0.621  1.00  0.00    -0.005 A 
HETATM    9  C12 UNL     1      -4.280   0.661  -0.642  1.00  0.00     0.030 A 
HETATM   10  C13 UNL     1      -5.333   0.382  -1.501  1.00  0.00     0.011 A 
HETATM   11 BR2  UNL     1      -6.960   1.395  -1.534  1.00  0.00    -0.051 Br
HETATM   12  C14 UNL     1      -5.132  -0.705  -2.359  1.00  0.00     0.022 A 
HETATM   13  C15 UNL     1      -3.984  -1.467  -2.377  1.00  0.00     0.039 A 
HETATM   14  C16 UNL     1      -2.969  -1.132  -1.488  1.00  0.00     0.086 A 
HETATM   15  O1  UNL     1      -1.872  -1.964  -1.598  1.00  0.00    -0.290 OA
HETATM   16  H8  UNL     1      -0.842  -0.136   1.832  1.00  0.00     0.160 HD
ENDROOT
BRANCH   1  17
HETATM   17  N1  UNL     1       1.881  -0.204   0.247  1.00  0.00    -0.406 NA
BRANCH  17  18
HETATM   18  C5  UNL     1       2.975   0.031   0.894  1.00  0.00     0.295 C 
BRANCH  18  19
HETATM   19  C4  UNL     1       4.176   0.095   1.709  1.00  0.00     0.028 C 
HETATM   20  C3  UNL     1       4.919   1.172   1.652  1.00  0.00     0.020 C 
HETATM   21 BR1  UNL     1       3.696  -1.631   2.306  1.00  0.00    -0.050 Br
BRANCH  20  22
HETATM   22  C2  UNL     1       4.588   2.298   0.807  1.00  0.00    -0.009 C 
HETATM   23  C1  UNL     1       5.466   3.250   0.912  1.00  0.00     0.011 C 
ENDBRANCH  20  22
ENDBRANCH  18  19
ENDBRANCH  17  18
ENDBRANCH   1  17
TORSDOF 4
