REMARK  3 active torsions:
REMARK  status: ('A' for Active; 'I' for Inactive)
REMARK    1  A    between atoms: C4_7  and  C5_8 
REMARK       I    between atoms: C5_8  and  N2_10 
REMARK    2  A    between atoms: N2_10  and  C6_11 
REMARK    3  A    between atoms: C11_18  and  N5_19 
ROOT
HETATM    1  C6  UNL     1       1.196  -1.195   0.289  1.00  0.00     0.036 C 
HETATM    2  C7  UNL     1      -0.125  -0.955   0.208  1.00  0.00     0.044 C 
HETATM    3  C8  UNL     1      -1.108  -2.030   0.298  1.00  0.00     0.039 A 
HETATM    4  C9  UNL     1      -0.945  -3.393   0.186  1.00  0.00     0.073 A 
HETATM    5  N3  UNL     1      -2.033  -4.189   0.300  1.00  0.00    -0.243 NA
HETATM    6  C10 UNL     1      -3.244  -3.633   0.520  1.00  0.00     0.235 A 
HETATM    7  N4  UNL     1      -3.407  -2.292   0.631  1.00  0.00    -0.224 NA
HETATM    8  C11 UNL     1      -2.344  -1.461   0.523  1.00  0.00     0.140 A 
HETATM    9  C19 UNL     1       0.377  -4.055  -0.053  1.00  0.00     0.228 C 
HETATM   10  O4  UNL     1       1.227  -3.515   0.933  1.00  0.00    -0.379 OA
HETATM   11  C20 UNL     1       1.962  -2.432   0.464  1.00  0.00     0.225 C 
ENDROOT
BRANCH   1  12
HETATM   12  N2  UNL     1       1.968  -0.011   0.178  1.00  0.00    -0.327 N 
HETATM   13  C5  UNL     1       2.938   0.233  -0.832  1.00  0.00     0.247 C 
HETATM   14  O3  UNL     1       3.107  -0.685  -1.680  1.00  0.00    -0.271 OA
HETATM   15  H7  UNL     1       1.693   0.643   0.971  1.00  0.00     0.168 HD
BRANCH  13  16
HETATM   16  C4  UNL     1       3.571   1.561  -0.672  1.00  0.00     0.208 C 
HETATM   17  C2  UNL     1       4.441   1.617   0.589  1.00  0.00     0.161 C 
HETATM   18  C1  UNL     1       5.495   0.523   0.548  1.00  0.00     0.043 C 
HETATM   19  O1  UNL     1       5.119   2.838   0.355  1.00  0.00    -0.296 OA
HETATM   20  C3  UNL     1       5.396   2.829  -1.026  1.00  0.00     0.361 C 
HETATM   21  O2  UNL     1       6.264   3.591  -1.564  1.00  0.00    -0.238 OA
HETATM   22  N1  UNL     1       4.555   1.848  -1.669  1.00  0.00    -0.321 N 
HETATM   23  H5  UNL     1       4.710   1.498  -2.630  1.00  0.00     0.165 HD
ENDBRANCH  13  16
ENDBRANCH   1  12
BRANCH   8  24
HETATM   24  N5  UNL     1      -2.632  -0.064   0.672  1.00  0.00    -0.356 N 
HETATM   25  C12 UNL     1      -2.238   0.959   1.654  1.00  0.00     0.153 C 
HETATM   26  C13 UNL     1      -2.102   2.258   0.982  1.00  0.00     0.013 C 
HETATM   27  C14 UNL     1      -2.846   2.691  -0.035  1.00  0.00     0.015 C 
HETATM   28 CL1  UNL     1      -2.646   4.266  -0.814  1.00  0.00    -0.089 Cl
HETATM   29  C15 UNL     1      -3.887   1.743  -0.494  1.00  0.00     0.048 C 
HETATM   30  C16 UNL     1      -5.155   2.063   0.271  1.00  0.00     0.018 C 
HETATM   31  C17 UNL     1      -3.504   0.318  -0.433  1.00  0.00     0.091 C 
HETATM   32  C18 UNL     1      -2.794  -0.094  -1.730  1.00  0.00     0.033 C 
ENDBRANCH   8  24
TORSDOF 3
