REMARK  4 active torsions:
REMARK  status: ('A' for Active; 'I' for Inactive)
REMARK    1  A    between atoms: O1_2  and  C2_3 
REMARK    2  A    between atoms: C2_3  and  C3_4 
REMARK    3  A    between atoms: C4_5  and  N2_10 
REMARK    4  A    between atoms: C14_19  and  N4_20 
ROOT
HETATM    1  C3  UNL     1       1.970  -0.184   1.211  1.00  0.00     0.043 C 
HETATM    2  C4  UNL     1       0.953  -0.924   0.934  1.00  0.00     0.104 A 
HETATM    3  C5  UNL     1      -0.298  -1.934   0.624  1.00  0.00     0.040 A 
HETATM    4  C6  UNL     1      -0.405  -3.326   0.842  1.00  0.00     0.181 A 
HETATM    5  N1  UNL     1      -0.370  -3.408   2.232  1.00  0.00    -0.263 N 
HETATM    6  C7  UNL     1      -0.238  -1.942   2.529  1.00  0.00     0.132 A 
HETATM    7  N2  UNL     1      -0.287  -2.010   1.094  1.00  0.00     0.000 N 
HETATM    8  C8  UNL     1      -0.205  -0.716   0.435  1.00  0.00    -0.004 A 
HETATM    9  C9  UNL     1      -0.732  -0.530  -0.934  1.00  0.00     0.041 C 
HETATM   10  C10 UNL     1      -1.531  -1.496  -1.693  1.00  0.00     0.035 C 
HETATM   11  C11 UNL     1      -1.962  -0.787  -2.990  1.00  0.00     0.016 C 
HETATM   12  C12 UNL     1      -1.029  -2.803  -2.155  1.00  0.00     0.031 C 
HETATM   13 CL1  UNL     1      -0.534  -3.120  -3.837  1.00  0.00    -0.087 Cl
HETATM   14  C13 UNL     1      -0.833  -4.041  -1.620  1.00  0.00     0.105 C 
HETATM   15  N3  UNL     1      -0.548  -4.269  -0.208  1.00  0.00    -0.366 N 
HETATM   16  C14 UNL     1      -1.658   0.714  -0.944  1.00  0.00     0.260 C 
HETATM   17  C15 UNL     1      -1.322   1.858  -0.127  1.00  0.00     0.128 C 
HETATM   18  C16 UNL     1      -1.612   1.795   1.322  1.00  0.00     0.052 C 
HETATM   19  O2  UNL     1      -2.272   2.915  -0.556  1.00  0.00    -0.288 OA
HETATM   20  C17 UNL     1      -1.645   4.032   0.082  1.00  0.00     0.362 C 
HETATM   21  O3  UNL     1      -2.381   5.064   0.314  1.00  0.00    -0.238 OA
HETATM   22  N5  UNL     1      -0.231   3.788   0.364  1.00  0.00    -0.321 N 
HETATM   23  C18 UNL     1      -0.110   2.695  -0.534  1.00  0.00     0.215 C 
HETATM   24  C19 UNL     1       1.108   1.896  -0.537  1.00  0.00     0.244 C 
HETATM   25  O4  UNL     1       2.218   1.534  -0.991  1.00  0.00    -0.271 OA
HETATM   26  N6  UNL     1       1.392   0.892   0.433  1.00  0.00    -0.352 N 
HETATM   27  H14 UNL     1      -0.382  -5.039   0.452  1.00  0.00     0.161 HD
HETATM   28  H21 UNL     1       0.245   4.389   1.048  1.00  0.00     0.165 HD
HETATM   29  H23 UNL     1       0.722   1.229   1.201  1.00  0.00     0.163 HD
ENDROOT
BRANCH   1  30
HETATM   30  C2  UNL     1       3.297   0.217   1.749  1.00  0.00     0.193 C 
BRANCH  30  31
HETATM   31  O1  UNL     1       4.062   0.628   0.629  1.00  0.00    -0.394 OA
HETATM   32  C1  UNL     1       5.318   0.939   1.077  1.00  0.00     0.201 C 
ENDBRANCH  30  31
ENDBRANCH   1  30
BRANCH  16  33
HETATM   33  N4  UNL     1      -3.026   0.281  -0.674  1.00  0.00     0.086 N 
HETATM   34  H16 UNL     1      -3.171  -0.134   0.250  1.00  0.00     0.313 HD
HETATM   35  H17 UNL     1      -3.614   1.112  -0.883  1.00  0.00     0.313 HD
ENDBRANCH  16  33
TORSDOF 4
