REMARK  7 active torsions:
REMARK  status: ('A' for Active; 'I' for Inactive)
REMARK    1  A    between atoms: O1_2  and  C2_3 
REMARK    2  A    between atoms: C7_8  and  C8_9 
REMARK    3  A    between atoms: C8_9  and  C9_10 
REMARK    4  A    between atoms: C9_10  and  C10_11 
REMARK    5  A    between atoms: C10_11  and  N1_12 
REMARK    6  A    between atoms: C15_18  and  N2_19 
REMARK    7  A    between atoms: C18_23  and  N3_24 
ROOT
HETATM    1  C2  UNL     1       0.063  -2.568  -1.268  1.00  0.00     0.076 A 
HETATM    2  C3  UNL     1       1.323  -3.163  -1.369  1.00  0.00     0.069 A 
HETATM    3  C4  UNL     1       2.434  -2.404  -1.109  1.00  0.00     0.066 A 
HETATM    4  C5  UNL     1       2.271  -1.079  -0.756  1.00  0.00     0.017 A 
HETATM    5  C6  UNL     1       1.032  -0.485  -0.654  1.00  0.00     0.025 A 
HETATM    6  C7  UNL     1      -0.100  -1.224  -0.910  1.00  0.00    -0.024 A 
HETATM    7  C15 UNL     1       3.435  -0.507  -0.544  1.00  0.00     0.044 A 
HETATM    8  C21 UNL     1       4.491  -1.524  -0.769  1.00  0.00     0.207 A 
HETATM    9  N4  UNL     1       3.707  -2.703  -1.128  1.00  0.00    -0.283 NA
ENDROOT
BRANCH   7  10
HETATM   10  N2  UNL     1       3.853   0.798  -0.169  1.00  0.00    -0.351 N 
HETATM   11  C16 UNL     1       3.906   1.976  -0.962  1.00  0.00     0.136 A 
HETATM   12  C17 UNL     1       4.378   3.079  -0.406  1.00  0.00     0.157 A 
HETATM   13  F1  UNL     1       4.419   4.193  -1.190  1.00  0.00    -0.202 F 
HETATM   14  C18 UNL     1       4.820   3.140   0.961  1.00  0.00     0.064 A 
HETATM   15  C19 UNL     1       4.758   2.054   1.711  1.00  0.00     0.025 A 
HETATM   16  C20 UNL     1       4.256   0.751   1.238  1.00  0.00     0.158 A 
BRANCH  14  17
HETATM   17  N3  UNL     1       5.329   4.323   1.563  1.00  0.00    -0.397 N 
HETATM   18  H21 UNL     1       6.208   4.818   1.322  1.00  0.00     0.156 HD
HETATM   19  H22 UNL     1       4.796   4.795   2.349  1.00  0.00     0.156 HD
ENDBRANCH  14  17
ENDBRANCH   7  10
BRANCH   6  20
HETATM   20  C8  UNL     1      -1.520  -0.798  -0.862  1.00  0.00     0.043 C 
BRANCH  20  21
HETATM   21  C9  UNL     1      -2.226  -1.315   0.367  1.00  0.00     0.024 C 
BRANCH  21  22
HETATM   22  C10 UNL     1      -3.661  -0.908   0.426  1.00  0.00     0.117 C 
BRANCH  22  23
HETATM   23  N1  UNL     1      -3.943   0.470   0.448  1.00  0.00    -0.408 N 
HETATM   24  C11 UNL     1      -3.589   1.218   1.598  1.00  0.00     0.143 C 
HETATM   25  C12 UNL     1      -4.438   2.486   1.626  1.00  0.00     0.187 C 
HETATM   26  O2  UNL     1      -5.755   2.047   1.676  1.00  0.00    -0.388 OA
HETATM   27  C13 UNL     1      -6.111   1.523   0.464  1.00  0.00     0.187 C 
HETATM   28  C14 UNL     1      -4.976   0.980  -0.371  1.00  0.00     0.143 C 
ENDBRANCH  22  23
ENDBRANCH  21  22
ENDBRANCH  20  21
ENDBRANCH   6  20
BRANCH   1  29
HETATM   29  O1  UNL     1      -1.008  -3.406  -1.548  1.00  0.00    -0.355 OA
HETATM   30  C1  UNL     1      -0.898  -4.751  -1.909  1.00  0.00     0.210 C 
ENDBRANCH   1  29
TORSDOF 7
