REMARK  0 active torsions:
REMARK  status: ('A' for Active; 'I' for Inactive)
ROOT
HETATM    1  F1  UNL     1       7.283   1.693   1.423  1.00  0.00    -0.204 F 
HETATM    2  C1  UNL     1       6.319   1.014   0.753  1.00  0.00     0.138 A 
HETATM    3  C2  UNL     1       5.192   1.598   0.210  1.00  0.00     0.053 A 
HETATM    4  C3  UNL     1       4.211   0.913  -0.472  1.00  0.00    -0.027 A 
HETATM    5  C4  UNL     1       4.357  -0.448  -0.624  1.00  0.00     0.037 A 
HETATM    6  C5  UNL     1       5.507  -1.017  -0.065  1.00  0.00     0.056 A 
HETATM    7  C6  UNL     1       6.520  -0.344   0.632  1.00  0.00     0.074 A 
HETATM    8 CL1  UNL     1       7.874  -1.260   1.249  1.00  0.00    -0.081 Cl
HETATM    9  N1  UNL     1       3.488  -1.369  -1.273  1.00  0.00    -0.368 N 
HETATM   10  C7  UNL     1       2.215  -1.893  -0.821  1.00  0.00     0.290 C 
HETATM   11  O1  UNL     1       1.240  -0.957  -0.617  1.00  0.00    -0.367 OA
HETATM   12  C8  UNL     1       0.097  -1.624  -0.169  1.00  0.00     0.216 C 
HETATM   13  C9  UNL     1      -0.404  -2.623  -1.134  1.00  0.00     0.117 C 
HETATM   14  N2  UNL     1      -1.416  -3.213  -0.622  1.00  0.00    -0.256 N 
HETATM   15  C10 UNL     1      -2.149  -4.225  -1.257  1.00  0.00     0.231 A 
HETATM   16  N3  UNL     1      -2.584  -3.840  -0.084  1.00  0.00    -0.254 N 
HETATM   17  C11 UNL     1      -3.729  -4.435   0.479  1.00  0.00     0.118 C 
HETATM   18  C12 UNL     1      -4.862  -3.794   0.633  1.00  0.00     0.021 C 
HETATM   19  C13 UNL     1      -5.157  -2.424   0.281  1.00  0.00     0.025 C 
HETATM   20  C14 UNL     1      -4.719  -1.299  -0.224  1.00  0.00     0.134 C 
HETATM   21  O2  UNL     1      -4.315  -0.087  -0.747  1.00  0.00    -0.363 OA
HETATM   22  C15 UNL     1      -4.082   0.926   0.253  1.00  0.00     0.174 C 
HETATM   23  C16 UNL     1      -3.419   2.105  -0.362  1.00  0.00     0.027 C 
HETATM   24  C17 UNL     1      -3.136   3.217   0.589  1.00  0.00     0.006 C 
HETATM   25  C18 UNL     1      -2.253   2.841   1.732  1.00  0.00     0.033 C 
HETATM   26  P1  UNL     1      -0.599   2.224   1.201  1.00  0.00    -0.104 P 
HETATM   27  C19 UNL     1       0.325   3.605   0.385  1.00  0.00     0.198 C 
HETATM   28  O3  UNL     1       1.253   3.103  -0.529  1.00  0.00    -0.387 OA
HETATM   29  C20 UNL     1       2.195   2.280   0.119  1.00  0.00     0.172 C 
HETATM   30  C21 UNL     1       3.123   1.794  -0.951  1.00  0.00     0.067 C 
HETATM   31  H3  UNL     1       4.047  -1.546  -2.139  1.00  0.00     0.161 HD
HETATM   32  H22 UNL     1       0.116   1.678   2.336  1.00  0.00     0.059 HD
ENDROOT
TORSDOF 0
