REMARK  2 active torsions:
REMARK  status: ('A' for Active; 'I' for Inactive)
REMARK    1  A    between atoms: C10_16  and  N4_17 
REMARK    2  A    between atoms: N4_17  and  C11_18 
ROOT
HETATM    1  F1  UNL     1      -3.024  -1.724   2.031  1.00  0.00    -0.104 F 
HETATM    2  N1  UNL     1      -3.254  -1.420   0.733  1.00  0.00    -0.250 N 
HETATM    3  C1  UNL     1      -2.896  -2.487  -0.123  1.00  0.00     0.157 C 
HETATM    4  C2  UNL     1      -1.597  -2.455  -0.915  1.00  0.00     0.049 C 
HETATM    5  C3  UNL     1      -1.573  -1.162  -1.512  1.00  0.00     0.177 C 
HETATM    6  O1  UNL     1      -0.506  -0.516  -2.190  1.00  0.00    -0.351 OA
HETATM    7  C4  UNL     1       0.024   0.356  -1.124  1.00  0.00     0.088 C 
HETATM    8  C5  UNL     1      -1.115   1.032  -0.836  1.00  0.00     0.045 C 
HETATM    9  C6  UNL     1      -1.993   2.069  -0.051  1.00  0.00     0.171 C 
HETATM   10  C7  UNL     1      -1.458   3.329  -0.025  1.00  0.00     0.033 C 
HETATM   11  C8  UNL     1      -0.477   4.173   0.217  1.00  0.00     0.142 C 
HETATM   12  O2  UNL     1       0.381   3.204   0.649  1.00  0.00    -0.315 OA
HETATM   13  C9  UNL     1       0.782   2.928   1.921  1.00  0.00     0.279 C 
HETATM   14  N2  UNL     1       1.320   1.751   1.946  1.00  0.00    -0.165 NA
HETATM   15  N3  UNL     1       1.369   1.060   0.724  1.00  0.00    -0.283 N 
HETATM   16  C10 UNL     1       1.381   0.433  -0.578  1.00  0.00     0.257 C 
HETATM   17  O3  UNL     1      -3.275   1.868  -0.417  1.00  0.00    -0.376 OA
HETATM   18  C17 UNL     1      -4.005   0.806  -0.356  1.00  0.00     0.191 C 
HETATM   19  C18 UNL     1      -4.096  -0.360   0.487  1.00  0.00     0.181 C 
HETATM   20  H12 UNL     1       1.691   0.474   1.554  1.00  0.00     0.185 HD
ENDROOT
BRANCH  16  21
HETATM   21  N4  UNL     1       1.993  -0.863  -0.535  1.00  0.00    -0.362 N 
HETATM   22  H14 UNL     1       1.403  -1.704  -0.776  1.00  0.00     0.162 HD
BRANCH  21  23
HETATM   23  C11 UNL     1       3.347  -1.113  -0.188  1.00  0.00     0.031 A 
HETATM   24  C12 UNL     1       3.884  -2.376  -0.140  1.00  0.00     0.029 A 
HETATM   25  C13 UNL     1       5.203  -2.540   0.184  1.00  0.00     0.004 A 
HETATM   26  C14 UNL     1       6.072  -1.523   0.478  1.00  0.00     0.024 A 
HETATM   27  C15 UNL     1       5.495  -0.285   0.418  1.00  0.00     0.036 A 
HETATM   28 CL1  UNL     1       6.551   1.089   0.775  1.00  0.00    -0.084 Cl
HETATM   29  C16 UNL     1       4.176  -0.019   0.101  1.00  0.00     0.053 A 
ENDBRANCH  21  23
ENDBRANCH  16  21
TORSDOF 2
