REMARK  5 active torsions:
REMARK  status: ('A' for Active; 'I' for Inactive)
REMARK    1  A    between atoms: O1_1  and  C1_2 
REMARK    2  A    between atoms: C6_8  and  N1_9 
REMARK    3  A    between atoms: N1_9  and  C7_10 
REMARK    4  A    between atoms: C10_15  and  N4_16 
REMARK    5  A    between atoms: C11_17  and  C12_18 
ROOT
HETATM    1  C7  UNL     1      -1.001  -2.059   1.119  1.00  0.00     0.099 A 
HETATM    2  C8  UNL     1      -1.659  -3.049   1.822  1.00  0.00     0.151 A 
HETATM    3  N2  UNL     1      -1.080  -3.533   2.949  1.00  0.00    -0.252 NA
HETATM    4  C9  UNL     1       0.105  -3.067   3.383  1.00  0.00     0.235 A 
HETATM    5  N3  UNL     1       0.742  -2.101   2.694  1.00  0.00    -0.220 NA
HETATM    6  C10 UNL     1       0.216  -1.573   1.556  1.00  0.00     0.178 A 
ENDROOT
BRANCH   1   7
HETATM    7  N1  UNL     1      -1.684  -1.614  -0.049  1.00  0.00    -0.350 N 
HETATM    8  H5  UNL     1      -1.931  -2.214  -0.845  1.00  0.00     0.166 HD
BRANCH   7   9
HETATM    9  C6  UNL     1      -2.211  -0.373  -0.510  1.00  0.00     0.067 A 
HETATM   10  C1  UNL     1      -3.185   0.108   0.370  1.00  0.00     0.092 A 
HETATM   11  C2  UNL     1      -3.837   1.307   0.122  1.00  0.00     0.040 A 
HETATM   12  C3  UNL     1      -3.508   2.023  -1.015  1.00  0.00     0.022 A 
HETATM   13  C4  UNL     1      -2.551   1.543  -1.872  1.00  0.00     0.013 A 
HETATM   14 BR1  UNL     1      -2.046   2.481  -3.460  1.00  0.00    -0.051 Br
HETATM   15  C5  UNL     1      -1.895   0.355  -1.639  1.00  0.00     0.051 A 
BRANCH  10  16
HETATM   16  O1  UNL     1      -3.604  -0.519   1.544  1.00  0.00    -0.358 OA
HETATM   17  H1  UNL     1      -4.216  -1.320   1.404  1.00  0.00     0.217 HD
ENDBRANCH  10  16
ENDBRANCH   7   9
ENDBRANCH   1   7
BRANCH   6  18
HETATM   18  N4  UNL     1       0.839  -0.551   0.783  1.00  0.00    -0.239 NA
HETATM   19  C11 UNL     1       2.138  -0.539   0.896  1.00  0.00     0.130 C 
BRANCH  19  20
HETATM   20  C12 UNL     1       2.811   0.495   0.118  1.00  0.00    -0.019 A 
HETATM   21  C13 UNL     1       2.116   1.387  -0.674  1.00  0.00     0.013 A 
HETATM   22  C14 UNL     1       2.747   2.375  -1.418  1.00  0.00     0.001 A 
HETATM   23  C15 UNL     1       4.131   2.487  -1.378  1.00  0.00     0.000 A 
HETATM   24  C16 UNL     1       4.857   1.608  -0.594  1.00  0.00     0.001 A 
HETATM   25  C17 UNL     1       4.182   0.658   0.115  1.00  0.00     0.013 A 
ENDBRANCH  19  20
ENDBRANCH   6  18
TORSDOF 5
