REMARK  7 active torsions:
REMARK  status: ('A' for Active; 'I' for Inactive)
REMARK    1  A    between atoms: B1_1  and  O1_2 
REMARK    2  A    between atoms: O1_2  and  C1_3 
REMARK    3  A    between atoms: C5_8  and  N2_9 
REMARK    4  A    between atoms: N2_9  and  C6_10 
REMARK    5  A    between atoms: N3_24  and  C17_25 
REMARK    6  A    between atoms: C17_25  and  C18_26 
REMARK    7  A    between atoms: C18_26  and  O3_27 
ROOT
HETATM    1  C1  UNL     1      -0.564  -0.771  -0.411  1.00  0.00     0.081 C 
HETATM    2  C2  UNL     1      -0.194   0.478  -0.812  1.00  0.00     0.028 C 
HETATM    3  C3  UNL     1      -0.532   1.471   0.349  1.00  0.00     0.033 C 
HETATM    4  C4  UNL     1       0.678   2.311   0.195  1.00  0.00     0.102 C 
HETATM    5  N1  UNL     1       1.857   1.701   0.307  1.00  0.00    -0.274 NA
HETATM    6  C5  UNL     1       1.993   0.421   0.982  1.00  0.00     0.238 C 
HETATM    7  C12 UNL     1       0.673  -0.214   1.143  1.00  0.00     0.001 C 
HETATM    8  C13 UNL     1      -0.020  -1.270   0.930  1.00  0.00     0.106 C 
HETATM    9  O2  UNL     1      -0.733  -2.464   0.808  1.00  0.00    -0.348 OA
HETATM   10  C14 UNL     1      -2.029  -2.481   1.387  1.00  0.00     0.177 C 
HETATM   11  C15 UNL     1      -3.113  -1.616   1.037  1.00  0.00     0.046 C 
HETATM   12  C16 UNL     1      -3.198  -0.143   1.060  1.00  0.00     0.119 C 
HETATM   13  N3  UNL     1      -2.782   0.745   0.118  1.00  0.00    -0.409 N 
HETATM   14  C19 UNL     1      -1.876   1.851   0.251  1.00  0.00     0.136 C 
HETATM   15  C20 UNL     1      -0.231   0.838   1.697  1.00  0.00     0.062 C 
ENDROOT
BRANCH   6  16
HETATM   16  N2  UNL     1       2.973  -0.446   0.400  1.00  0.00    -0.364 N 
HETATM   17  H6  UNL     1       2.533  -1.359   0.051  1.00  0.00     0.162 HD
BRANCH  16  18
HETATM   18  C6  UNL     1       4.367  -0.269   0.226  1.00  0.00     0.031 A 
HETATM   19  C7  UNL     1       4.990   0.894   0.629  1.00  0.00     0.032 A 
HETATM   20  C8  UNL     1       6.356   0.956   0.427  1.00  0.00     0.046 A 
HETATM   21  C9  UNL     1       7.067  -0.064  -0.143  1.00  0.00     0.138 A 
HETATM   22  F1  UNL     1       8.406   0.043  -0.320  1.00  0.00    -0.204 F 
HETATM   23  C10 UNL     1       6.439  -1.219  -0.543  1.00  0.00     0.074 A 
HETATM   24 CL1  UNL     1       7.289  -2.587  -1.284  1.00  0.00    -0.081 Cl
HETATM   25  C11 UNL     1       5.082  -1.308  -0.352  1.00  0.00     0.056 A 
ENDBRANCH  16  18
ENDBRANCH   6  16
BRANCH   1  26
HETATM   26  O1  UNL     1      -1.409  -1.383  -1.389  1.00  0.00    -0.427 OA
BRANCH  26  27
HETATM   27  B1  UNL     1      -1.004  -2.661  -2.021  1.00  0.00     0.300 B 
HETATM   28  H1  UNL     1      -1.309  -2.911  -3.127  1.00  0.00     0.002 HD
HETATM   29  H2  UNL     1      -0.103  -3.248  -1.516  1.00  0.00     0.002 HD
ENDBRANCH  26  27
ENDBRANCH   1  26
BRANCH  13  30
HETATM   30  C17 UNL     1      -3.467   0.926  -1.118  1.00  0.00     0.143 C 
BRANCH  30  31
HETATM   31  C18 UNL     1      -4.769   1.653  -0.960  1.00  0.00     0.183 C 
BRANCH  31  32
HETATM   32  O3  UNL     1      -5.732   1.062  -0.190  1.00  0.00    -0.399 OA
HETATM   33  H20 UNL     1      -6.092   1.613   0.549  1.00  0.00     0.209 HD
ENDBRANCH  31  32
ENDBRANCH  30  31
ENDBRANCH  13  30
TORSDOF 7
