REMARK  7 active torsions:
REMARK  status: ('A' for Active; 'I' for Inactive)
REMARK    1  A    between atoms: C1_2  and  O2_3 
REMARK    2  A    between atoms: C1_2  and  C2_4 
REMARK    3  A    between atoms: C3_6  and  C4_7 
REMARK    4  A    between atoms: C5_8  and  P1_9 
REMARK    5  A    between atoms: P1_9  and  C6_10 
REMARK    6  A    between atoms: C6_10  and  C7_11 
REMARK    7  A    between atoms: C15_19  and  O4_20 
ROOT
HETATM    1  C2  UNL     1      -3.926   0.521  -0.493  1.00  0.00     0.248 C 
HETATM    2  O3  UNL     1      -2.708   0.371   0.148  1.00  0.00    -0.363 OA
HETATM    3  C3  UNL     1      -2.305  -0.940  -0.001  1.00  0.00     0.148 C 
HETATM    4  C14 UNL     1      -3.422  -1.726  -0.625  1.00  0.00     0.071 C 
HETATM    5  C15 UNL     1      -4.612  -0.819  -0.358  1.00  0.00     0.160 C 
ENDROOT
BRANCH   3   6
HETATM    6  C4  UNL     1      -1.068  -0.957  -0.828  1.00  0.00     0.007 C 
HETATM    7  C5  UNL     1      -0.190  -0.016  -1.208  1.00  0.00     0.023 C 
BRANCH   7   8
HETATM    8  P1  UNL     1       1.261  -0.464  -2.273  1.00  0.00     0.024 P 
BRANCH   8   9
HETATM    9  C6  UNL     1       2.767  -0.271  -1.590  1.00  0.00    -0.103 C 
BRANCH   9  10
HETATM   10  C7  UNL     1       3.783  -0.004  -0.776  1.00  0.00     0.010 A 
HETATM   11  C8  UNL     1       4.219   1.377  -0.929  1.00  0.00     0.020 A 
HETATM   12  C9  UNL     1       5.207   1.883  -0.179  1.00  0.00     0.001 A 
HETATM   13  C10 UNL     1       6.005   1.230   0.872  1.00  0.00     0.000 A 
HETATM   14  C11 UNL     1       5.965  -0.009   1.332  1.00  0.00     0.000 A 
HETATM   15  C12 UNL     1       5.099  -1.136   0.932  1.00  0.00     0.001 A 
HETATM   16  C13 UNL     1       4.124  -1.180   0.009  1.00  0.00     0.020 A 
ENDBRANCH   9  10
ENDBRANCH   8   9
ENDBRANCH   7   8
ENDBRANCH   3   6
BRANCH   1  17
HETATM   17  C1  UNL     1      -4.673   1.615   0.172  1.00  0.00     0.172 C 
HETATM   18  O1  UNL     1      -4.262   2.292   1.157  1.00  0.00    -0.648 OA
BRANCH  17  19
HETATM   19  O2  UNL     1      -5.949   1.948  -0.313  1.00  0.00    -0.774 OA
HETATM   20  H1  UNL     1      -6.264   2.918  -0.352  1.00  0.00     0.167 HD
ENDBRANCH  17  19
ENDBRANCH   1  17
BRANCH   5  21
HETATM   21  O4  UNL     1      -5.054  -1.099   0.915  1.00  0.00    -0.392 OA
HETATM   22  H15 UNL     1      -5.911  -0.684   1.172  1.00  0.00     0.210 HD
ENDBRANCH   5  21
TORSDOF 7
