REMARK  0 active torsions:
REMARK  status: ('A' for Active; 'I' for Inactive)
ROOT
HETATM    1 BR1  UNL     1       6.648  -0.266  -0.437  1.00  0.00    -0.051 Br
HETATM    2  C1  UNL     1       4.783  -0.522  -0.178  1.00  0.00     0.013 A 
HETATM    3  C2  UNL     1       4.277  -1.670   0.389  1.00  0.00     0.021 A 
HETATM    4  C3  UNL     1       2.889  -1.774   0.541  1.00  0.00     0.033 A 
HETATM    5  C4  UNL     1       2.004  -0.793   0.156  1.00  0.00     0.059 A 
HETATM    6  C5  UNL     1       2.453   0.358  -0.405  1.00  0.00     0.056 A 
HETATM    7  C6  UNL     1       3.846   0.441  -0.549  1.00  0.00     0.050 A 
HETATM    8  N1  UNL     1       1.810   1.529  -0.875  1.00  0.00    -0.388 N 
HETATM    9  C7  UNL     1       1.411   2.728  -0.182  1.00  0.00     0.123 C 
HETATM   10  C8  UNL     1       0.358   2.533   0.872  1.00  0.00     0.047 C 
HETATM   11  C9  UNL     1      -0.915   2.041   0.336  1.00  0.00    -0.025 C 
HETATM   12  C10 UNL     1      -2.030   1.527  -0.075  1.00  0.00    -0.003 C 
HETATM   13  C11 UNL     1      -3.248   1.351  -0.792  1.00  0.00     0.016 C 
HETATM   14  C12 UNL     1      -3.991   0.316  -0.583  1.00  0.00     0.083 C 
HETATM   15  N2  UNL     1      -4.102  -0.858   0.157  1.00  0.00    -0.397 N 
HETATM   16  C13 UNL     1      -3.288  -1.838   0.803  1.00  0.00     0.141 C 
HETATM   17  C14 UNL     1      -2.473  -2.699  -0.135  1.00  0.00     0.169 C 
HETATM   18  N3  UNL     1      -1.538  -1.823  -0.857  1.00  0.00    -0.283 NA
HETATM   19  C15 UNL     1      -0.423  -1.480  -0.339  1.00  0.00     0.201 C 
HETATM   20  N4  UNL     1       0.712  -1.262   0.449  1.00  0.00    -0.349 N 
HETATM   21  H4  UNL     1       1.756   1.205  -1.865  1.00  0.00     0.159 HD
HETATM   22  H13 UNL     1      -5.149  -1.019   0.230  1.00  0.00     0.158 HD
HETATM   23  H19 UNL     1       0.286  -1.577   1.327  1.00  0.00     0.166 HD
ENDROOT
TORSDOF 0
