REMARK  3 active torsions:
REMARK  status: ('A' for Active; 'I' for Inactive)
REMARK    1  A    between atoms: C1_2  and  C2_3 
REMARK    2  A    between atoms: C2_3  and  N1_4 
REMARK    3  A    between atoms: N1_4  and  C3_5 
ROOT
HETATM    1  C3  UNL     1       2.889   0.260  -1.379  1.00  0.00     0.067 A 
HETATM    2  C4  UNL     1       2.510   1.581  -1.249  1.00  0.00     0.034 A 
HETATM    3  C5  UNL     1       1.277   1.874  -0.669  1.00  0.00     0.031 A 
HETATM    4  C6  UNL     1       0.400   0.915  -0.210  1.00  0.00     0.030 A 
HETATM    5  C7  UNL     1       0.729  -0.417  -0.315  1.00  0.00    -0.030 A 
HETATM    6  C8  UNL     1       1.977  -0.668  -0.904  1.00  0.00     0.041 A 
HETATM    7  C9  UNL     1       0.122  -1.683   0.033  1.00  0.00     0.046 C 
HETATM    8  C10 UNL     1      -1.305  -1.711   0.428  1.00  0.00     0.051 C 
HETATM    9  C11 UNL     1      -2.206  -1.215  -0.635  1.00  0.00    -0.011 C 
HETATM   10 BR1  UNL     1      -1.749  -2.307  -2.166  1.00  0.00    -0.056 Br
HETATM   11  C12 UNL     1      -3.141  -0.295  -0.797  1.00  0.00     0.016 C 
HETATM   12  C13 UNL     1      -3.768   0.724   0.024  1.00  0.00     0.022 C 
HETATM   13  C14 UNL     1      -3.562   1.059   1.287  1.00  0.00     0.141 C 
HETATM   14  N2  UNL     1      -3.103   1.168   2.639  1.00  0.00    -0.162 NA
HETATM   15  N3  UNL     1      -1.823   1.385   2.784  1.00  0.00    -0.143 NA
HETATM   16  C15 UNL     1      -1.191   1.458   1.476  1.00  0.00     0.428 C 
HETATM   17  N4  UNL     1      -0.723   1.606   0.303  1.00  0.00    -0.370 NA
ENDROOT
BRANCH   1  18
HETATM   18  N1  UNL     1       4.151  -0.055  -1.972  1.00  0.00    -0.202 NA
BRANCH  18  19
HETATM   19  C2  UNL     1       5.066  -0.577  -1.249  1.00  0.00     0.044 C 
BRANCH  19  20
HETATM   20  C1  UNL     1       5.913  -1.166  -0.472  1.00  0.00     0.295 C 
HETATM   21  O1  UNL     1       6.859  -1.853  -0.093  1.00  0.00    -0.272 OA
ENDBRANCH  19  20
ENDBRANCH  18  19
ENDBRANCH   1  18
TORSDOF 3
