REMARK  4 active torsions:
REMARK  status: ('A' for Active; 'I' for Inactive)
REMARK    1  A    between atoms: C2_2  and  C3_3 
REMARK    2  A    between atoms: C3_3  and  C4_5 
REMARK    3  A    between atoms: C8_11  and  N3_12 
REMARK    4  A    between atoms: C13_18  and  N4_19 
ROOT
HETATM    1  C4  UNL     1       2.048   0.101  -0.417  1.00  0.00     0.106 C 
HETATM    2  C5  UNL     1       2.760  -1.161  -0.230  1.00  0.00     0.009 C 
HETATM    3  C6  UNL     1       2.248  -1.776  -1.341  1.00  0.00     0.115 C 
HETATM    4  N1  UNL     1       1.350  -1.520  -2.433  1.00  0.00    -0.254 NA
HETATM    5  C7  UNL     1       0.270  -0.784  -2.314  1.00  0.00     0.234 C 
HETATM    6  N2  UNL     1      -0.097  -0.186  -1.110  1.00  0.00    -0.224 NA
HETATM    7  C8  UNL     1      -1.221   0.131  -0.639  1.00  0.00     0.136 C 
HETATM    8  C14 UNL     1      -0.299   0.437   0.481  1.00  0.00     0.048 C 
HETATM    9  C15 UNL     1       1.042   0.426   0.610  1.00  0.00    -0.007 C 
ENDROOT
BRANCH   7  10
HETATM   10  N3  UNL     1      -2.615   0.322  -0.487  1.00  0.00    -0.291 N 
HETATM   11  C9  UNL     1      -3.397   1.141  -1.345  1.00  0.00     0.113 C 
HETATM   12  C10 UNL     1      -4.601   1.422  -0.953  1.00  0.00    -0.007 C 
HETATM   13  C11 UNL     1      -5.207   0.608  -0.112  1.00  0.00     0.036 C 
HETATM   14  C12 UNL     1      -4.490  -0.267   0.838  1.00  0.00     0.056 C 
HETATM   15 BR1  UNL     1      -5.422  -1.134   2.257  1.00  0.00    -0.047 Br
HETATM   16  C13 UNL     1      -3.182  -0.383   0.611  1.00  0.00     0.124 C 
BRANCH  16  17
HETATM   17  N4  UNL     1      -2.446  -1.216   1.501  1.00  0.00    -0.384 N 
HETATM   18  H10 UNL     1      -1.865  -2.079   1.405  1.00  0.00     0.157 HD
HETATM   19  H11 UNL     1      -2.527  -0.850   2.467  1.00  0.00     0.157 HD
ENDBRANCH  16  17
ENDBRANCH   7  10
BRANCH   1  20
HETATM   20  C3  UNL     1       3.186   1.207  -0.078  1.00  0.00     0.159 C 
HETATM   21  O1  UNL     1       3.841   2.180  -0.532  1.00  0.00    -0.292 OA
BRANCH  20  22
HETATM   22  C2  UNL     1       3.670   1.048   1.277  1.00  0.00     0.041 C 
HETATM   23  C1  UNL     1       4.596   2.008   1.440  1.00  0.00     0.015 C 
ENDBRANCH  20  22
ENDBRANCH   1  20
TORSDOF 4
