REMARK  4 active torsions:
REMARK  status: ('A' for Active; 'I' for Inactive)
REMARK    1  A    between atoms: C1_2  and  N1_3 
REMARK    2  A    between atoms: N1_3  and  C2_4 
REMARK    3  A    between atoms: C7_11  and  N4_12 
REMARK    4  A    between atoms: N4_12  and  C8_13 
ROOT
HETATM    1  C2  UNL     1      -2.437   0.436   0.868  1.00  0.00     0.053 A 
HETATM    2  C3  UNL     1      -3.236  -0.383   1.577  1.00  0.00     0.030 A 
HETATM    3  C4  UNL     1      -3.175  -1.766   1.073  1.00  0.00     0.030 A 
HETATM    4  C5  UNL     1      -2.334  -1.808   0.043  1.00  0.00     0.053 A 
HETATM    5  N2  UNL     1      -1.866  -2.843  -0.822  1.00  0.00    -0.245 NA
HETATM    6  C6  UNL     1      -0.717  -2.613  -1.446  1.00  0.00     0.235 C 
HETATM    7  N3  UNL     1      -0.075  -1.371  -1.234  1.00  0.00    -0.227 NA
HETATM    8  C7  UNL     1      -0.481  -0.384  -0.520  1.00  0.00     0.121 C 
HETATM    9  C14 UNL     1      -1.908  -0.428  -0.158  1.00  0.00     0.159 A 
ENDROOT
BRANCH   8  10
HETATM   10  N4  UNL     1       0.143   0.863  -0.261  1.00  0.00    -0.343 N 
HETATM   11  H4  UNL     1      -0.331   1.785  -0.167  1.00  0.00     0.167 HD
BRANCH  10  12
HETATM   12  C8  UNL     1       1.579   0.724  -0.136  1.00  0.00     0.034 A 
HETATM   13  C9  UNL     1       2.193   0.562   1.109  1.00  0.00     0.029 A 
HETATM   14  C10 UNL     1       3.582   0.427   1.170  1.00  0.00     0.004 A 
HETATM   15  C11 UNL     1       4.343   0.454   0.000  1.00  0.00     0.019 A 
HETATM   16  C12 UNL     1       3.768   0.612  -1.245  1.00  0.00     0.013 A 
HETATM   17 BR1  UNL     1       4.811   0.647  -2.840  1.00  0.00    -0.051 Br
HETATM   18  C13 UNL     1       2.396   0.740  -1.242  1.00  0.00     0.048 A 
ENDBRANCH  10  12
ENDBRANCH   8  10
BRANCH   1  19
HETATM   19  N1  UNL     1      -2.294   1.821   1.138  1.00  0.00    -0.237 NA
BRANCH  19  20
HETATM   20  C1  UNL     1      -3.104   2.707   0.728  1.00  0.00     0.163 C 
HETATM   21  S1  UNL     1      -3.624   3.936  -0.170  1.00  0.00    -0.055 SA
ENDBRANCH  19  20
ENDBRANCH   1  19
TORSDOF 4
