REMARK  3 active torsions:
REMARK  status: ('A' for Active; 'I' for Inactive)
REMARK    1  A    between atoms: C2_2  and  C3_3 
REMARK       I    between atoms: C3_3  and  N1_5 
REMARK    2  A    between atoms: N1_5  and  C4_6 
REMARK    3  A    between atoms: C4_6  and  C7_9 
ROOT
HETATM    1  C7  UNL     1      -0.468  -0.354   0.821  1.00  0.00     0.003 A 
HETATM    2  C8  UNL     1      -0.085  -1.426   1.482  1.00  0.00     0.031 A 
HETATM    3  C9  UNL     1      -1.099  -1.850   2.423  1.00  0.00     0.111 A 
HETATM    4  N2  UNL     1      -2.198  -1.255   2.572  1.00  0.00    -0.298 NA
HETATM    5  C10 UNL     1      -2.662  -0.100   1.888  1.00  0.00     0.188 A 
HETATM    6  C11 UNL     1      -1.693   0.446   0.881  1.00  0.00     0.097 A 
HETATM    7  C12 UNL     1      -2.429   0.444  -0.426  1.00  0.00     0.030 A 
HETATM    8  C13 UNL     1      -2.829   1.518  -1.077  1.00  0.00     0.011 A 
HETATM    9 BR1  UNL     1      -3.776   1.424  -2.751  1.00  0.00    -0.051 Br
HETATM   10  C14 UNL     1      -2.512   2.828  -0.543  1.00  0.00     0.035 A 
HETATM   11  C15 UNL     1      -1.833   3.027   0.568  1.00  0.00     0.085 A 
HETATM   12  N3  UNL     1      -1.414   1.840   1.228  1.00  0.00    -0.381 N 
HETATM   13  H16 UNL     1      -0.815   1.873   2.098  1.00  0.00     0.160 HD
ENDROOT
BRANCH   1  14
HETATM   14  C4  UNL     1       0.596   0.034  -0.123  1.00  0.00     0.040 C 
HETATM   15  C5  UNL     1       0.749   1.005  -1.009  1.00  0.00    -0.001 C 
HETATM   16  C6  UNL     1       2.006   1.008  -1.757  1.00  0.00     0.038 C 
BRANCH  14  17
HETATM   17  N1  UNL     1       1.857  -0.643  -0.315  1.00  0.00    -0.323 N 
HETATM   18  C3  UNL     1       1.698  -1.973  -0.792  1.00  0.00     0.244 C 
HETATM   19  O1  UNL     1       0.813  -2.804  -1.119  1.00  0.00    -0.268 OA
HETATM   20  H4  UNL     1       2.824  -0.302  -0.154  1.00  0.00     0.169 HD
BRANCH  18  21
HETATM   21  C2  UNL     1       2.908  -2.749  -1.018  1.00  0.00     0.064 C 
HETATM   22  C1  UNL     1       4.127  -2.284  -0.806  1.00  0.00     0.017 C 
ENDBRANCH  18  21
ENDBRANCH  14  17
ENDBRANCH   1  14
TORSDOF 3
