REMARK  9 active torsions:
REMARK  status: ('A' for Active; 'I' for Inactive)
REMARK    1  A    between atoms: C2_2  and  C3_3 
REMARK       I    between atoms: C3_3  and  N1_5 
REMARK    2  A    between atoms: N1_5  and  C4_6 
REMARK    3  A    between atoms: C5_7  and  C6_8 
REMARK    4  A    between atoms: C7_9  and  C8_10 
REMARK    5  A    between atoms: C7_9  and  C9_12 
REMARK    6  A    between atoms: C8_10  and  N2_11 
REMARK    7  A    between atoms: C9_12  and  C10_13 
REMARK    8  A    between atoms: C10_13  and  N3_14 
REMARK    9  A    between atoms: N3_14  and  C11_15 
ROOT
HETATM    1  C6  UNL     1       0.861   0.548  -0.696  1.00  0.00     0.070 C 
HETATM    2  C7  UNL     1      -0.167   0.014  -0.056  1.00  0.00    -0.043 C 
ENDROOT
BRANCH   2   3
HETATM    3  C8  UNL     1      -0.042  -1.047   0.947  1.00  0.00     0.301 C 
BRANCH   3   4
HETATM    4  N2  UNL     1       1.334  -1.472   1.181  1.00  0.00     0.082 N 
HETATM    5  H10 UNL     1       1.402  -2.505   1.242  1.00  0.00     0.313 HD
HETATM    6  H11 UNL     1       1.729  -1.004   2.017  1.00  0.00     0.313 HD
ENDBRANCH   3   4
ENDBRANCH   2   3
BRANCH   2   7
HETATM    7  C9  UNL     1      -1.562   0.464  -0.317  1.00  0.00     0.056 C 
BRANCH   7   8
HETATM    8  C10 UNL     1      -2.189   1.004   0.935  1.00  0.00     0.124 C 
BRANCH   8   9
HETATM    9  N3  UNL     1      -3.533   1.442   0.723  1.00  0.00    -0.390 N 
HETATM   10  H16 UNL     1      -3.729   2.486   0.795  1.00  0.00     0.159 HD
BRANCH   9  11
HETATM   11  C11 UNL     1      -4.666   0.643   0.421  1.00  0.00     0.029 A 
HETATM   12  C12 UNL     1      -4.646  -0.730   0.321  1.00  0.00     0.029 A 
HETATM   13  C13 UNL     1      -5.738  -1.516   0.017  1.00  0.00     0.004 A 
HETATM   14  C14 UNL     1      -6.956  -0.912  -0.209  1.00  0.00     0.019 A 
HETATM   15  C15 UNL     1      -7.025   0.462  -0.119  1.00  0.00     0.013 A 
HETATM   16 BR1  UNL     1      -8.675   1.367  -0.418  1.00  0.00    -0.051 Br
HETATM   17  C16 UNL     1      -5.904   1.202   0.187  1.00  0.00     0.048 A 
ENDBRANCH   9  11
ENDBRANCH   8   9
ENDBRANCH   7   8
ENDBRANCH   2   7
BRANCH   1  18
HETATM   18  C5  UNL     1       2.211   0.127  -0.460  1.00  0.00    -0.055 C 
HETATM   19  C4  UNL     1       3.371  -0.218  -0.273  1.00  0.00     0.017 C 
BRANCH  19  20
HETATM   20  N1  UNL     1       4.703  -0.614  -0.062  1.00  0.00    -0.286 N 
HETATM   21  C3  UNL     1       5.684   0.197  -0.702  1.00  0.00     0.228 C 
HETATM   22  O1  UNL     1       5.391   1.208  -1.415  1.00  0.00    -0.273 OA
HETATM   23  H6  UNL     1       4.959  -1.443   0.522  1.00  0.00     0.179 HD
BRANCH  21  24
HETATM   24  C2  UNL     1       7.137  -0.130  -0.546  1.00  0.00     0.099 C 
HETATM   25  C1  UNL     1       7.941   0.894  -1.330  1.00  0.00     0.014 C 
ENDBRANCH  21  24
ENDBRANCH  19  20
ENDBRANCH   1  18
TORSDOF 9
