REMARK  1 active torsions:
REMARK  status: ('A' for Active; 'I' for Inactive)
REMARK    1  A    between atoms: O1_1  and  C1_2 
ROOT
HETATM    1  C1  UNL     1       2.244   0.330   2.791  1.00  0.00     0.145 C 
HETATM    2  C2  UNL     1       1.972   1.690   2.272  1.00  0.00     0.030 C 
HETATM    3  C3  UNL     1       1.590   2.608   1.407  1.00  0.00     0.004 C 
HETATM    4  C4  UNL     1       1.042   2.874   0.027  1.00  0.00     0.022 C 
HETATM    5  C5  UNL     1       0.555   2.727  -1.235  1.00  0.00     0.111 C 
HETATM    6  N1  UNL     1       0.188   1.771  -2.272  1.00  0.00    -0.367 N 
HETATM    7  C6  UNL     1      -1.034   0.988  -2.247  1.00  0.00     0.138 A 
HETATM    8  N2  UNL     1      -1.968   1.691  -2.951  1.00  0.00    -0.224 NA
HETATM    9  C7  UNL     1      -3.235   1.151  -3.008  1.00  0.00     0.235 A 
HETATM   10  N3  UNL     1      -3.517  -0.031  -2.384  1.00  0.00    -0.241 NA
HETATM   11  C8  UNL     1      -2.571  -0.694  -1.703  1.00  0.00     0.072 A 
HETATM   12  C9  UNL     1      -2.805  -1.886  -1.060  1.00  0.00     0.033 A 
HETATM   13  C10 UNL     1      -1.863  -2.597  -0.355  1.00  0.00     0.010 A 
HETATM   14  C11 UNL     1      -0.568  -2.087  -0.275  1.00  0.00    -0.054 A 
HETATM   15  C12 UNL     1      -0.330  -0.877  -0.927  1.00  0.00     0.025 A 
HETATM   16  C13 UNL     1      -1.304  -0.202  -1.618  1.00  0.00     0.039 A 
HETATM   17  C14 UNL     1       0.592  -2.709   0.441  1.00  0.00     0.065 C 
HETATM   18  C15 UNL     1       1.310  -1.769   1.318  1.00  0.00    -0.024 C 
HETATM   19  C16 UNL     1       1.515  -0.606   1.908  1.00  0.00     0.001 C 
HETATM   20  H7  UNL     1       0.790   1.606  -3.097  1.00  0.00     0.161 HD
ENDROOT
BRANCH   1  21
HETATM   21  O1  UNL     1       1.706   0.316   4.099  1.00  0.00    -0.391 OA
HETATM   22  H1  UNL     1       1.693  -0.586   4.482  1.00  0.00     0.210 HD
ENDBRANCH   1  21
TORSDOF 1
