REMARK  4 active torsions:
REMARK  status: ('A' for Active; 'I' for Inactive)
REMARK    1  A    between atoms: N1_1  and  C1_2 
REMARK    2  A    between atoms: C6_9  and  N4_10 
REMARK    3  A    between atoms: N4_10  and  P1_11 
REMARK    4  A    between atoms: P1_11  and  C7_12 
ROOT
HETATM    1  C1  UNL     1      -3.623   1.041   0.303  1.00  0.00     0.026 A 
HETATM    2  C2  UNL     1      -4.712   0.210   0.083  1.00  0.00     0.031 A 
HETATM    3  C3  UNL     1      -4.508  -1.101  -0.312  1.00  0.00     0.035 A 
HETATM    4  C4  UNL     1      -3.211  -1.553  -0.479  1.00  0.00     0.072 A 
HETATM    5  N2  UNL     1      -3.062  -2.836  -0.864  1.00  0.00    -0.241 NA
HETATM    6  C5  UNL     1      -1.797  -3.276  -1.027  1.00  0.00     0.236 A 
HETATM    7  N3  UNL     1      -0.688  -2.514  -0.828  1.00  0.00    -0.224 NA
HETATM    8  C6  UNL     1      -0.873  -1.225  -0.440  1.00  0.00     0.141 A 
HETATM    9  C13 UNL     1      -2.139  -0.706  -0.254  1.00  0.00     0.041 A 
HETATM   10  C14 UNL     1      -2.313   0.602   0.140  1.00  0.00     0.046 A 
ENDROOT
BRANCH   8  11
HETATM   11  N4  UNL     1       0.299  -0.446  -0.237  1.00  0.00    -0.347 N 
HETATM   12  H6  UNL     1       0.443  -0.039  -1.188  1.00  0.00     0.166 HD
BRANCH  11  13
HETATM   13  P1  UNL     1       1.405  -0.086   1.127  1.00  0.00     0.006 P 
HETATM   14  H7  UNL     1       1.027   1.151   1.774  1.00  0.00     0.085 HD
BRANCH  13  15
HETATM   15  C7  UNL     1       3.109   0.127   0.449  1.00  0.00    -0.013 A 
HETATM   16  C8  UNL     1       4.210  -0.669   0.612  1.00  0.00     0.014 A 
HETATM   17  C9  UNL     1       5.382  -0.306   0.005  1.00  0.00     0.002 A 
HETATM   18  C10 UNL     1       5.500   0.831  -0.766  1.00  0.00     0.019 A 
HETATM   19  C11 UNL     1       4.385   1.649  -0.939  1.00  0.00     0.011 A 
HETATM   20 BR1  UNL     1       4.580   3.209  -2.007  1.00  0.00    -0.051 Br
HETATM   21  C12 UNL     1       3.195   1.287  -0.327  1.00  0.00     0.032 A 
ENDBRANCH  13  15
ENDBRANCH  11  13
ENDBRANCH   8  11
BRANCH   1  22
HETATM   22  N1  UNL     1      -3.798   2.399   0.712  1.00  0.00    -0.399 N 
HETATM   23  H1  UNL     1      -4.264   3.181   0.198  1.00  0.00     0.156 HD
HETATM   24  H2  UNL     1      -3.401   2.620   1.653  1.00  0.00     0.156 HD
ENDBRANCH   1  22
TORSDOF 4
