REMARK  4 active torsions:
REMARK  status: ('A' for Active; 'I' for Inactive)
REMARK    1  A    between atoms: C2_2  and  C3_3 
REMARK    2  A    between atoms: C4_5  and  C5_6 
REMARK    3  A    between atoms: C8_9  and  C9_10 
REMARK    4  A    between atoms: C9_10  and  S1_11 
ROOT
HETATM    1  C5  UNL     1       1.221   0.880   0.163  1.00  0.00     0.038 C 
HETATM    2  C6  UNL     1      -0.006   0.416   0.162  1.00  0.00    -0.035 C 
HETATM    3  C7  UNL     1      -0.755  -0.860   0.250  1.00  0.00     0.047 C 
HETATM    4  C8  UNL     1      -1.665  -0.910  -0.895  1.00  0.00     0.028 C 
HETATM    5  C11 UNL     1      -2.595   0.231  -1.055  1.00  0.00     0.007 C 
HETATM    6  C12 UNL     1      -2.223   1.356  -0.521  1.00  0.00     0.048 C 
HETATM    7  N1  UNL     1      -3.056   2.533  -0.622  1.00  0.00    -0.246 NA
HETATM    8  C13 UNL     1      -2.414   3.682  -0.559  1.00  0.00     0.235 C 
HETATM    9  N2  UNL     1      -1.020   3.691  -0.384  1.00  0.00    -0.228 NA
HETATM   10  C14 UNL     1      -0.236   2.705  -0.242  1.00  0.00     0.120 C 
HETATM   11  N3  UNL     1       1.068   2.272  -0.078  1.00  0.00    -0.343 N 
HETATM   12  C15 UNL     1      -0.982   1.501   0.179  1.00  0.00     0.138 C 
HETATM   13  H13 UNL     1       1.764   3.084  -0.164  1.00  0.00     0.167 HD
ENDROOT
BRANCH   1  14
HETATM   14  C4  UNL     1       2.561   0.366   0.262  1.00  0.00     0.048 C 
HETATM   15  C3  UNL     1       3.077  -0.833   0.395  1.00  0.00     0.012 C 
HETATM   16 BR1  UNL     1       2.609  -2.698   0.559  1.00  0.00    -0.051 Br
BRANCH  15  17
HETATM   17  C2  UNL     1       4.555  -0.877   0.453  1.00  0.00     0.009 C 
HETATM   18  C1  UNL     1       5.400  -1.850   0.576  1.00  0.00     0.012 C 
ENDBRANCH  15  17
ENDBRANCH   1  14
BRANCH   4  19
HETATM   19  C9  UNL     1      -2.166  -2.201  -1.430  1.00  0.00     0.132 C 
BRANCH  19  20
HETATM   20  S1  UNL     1      -3.416  -2.312  -0.682  1.00  0.00    -0.283 SA
HETATM   21  C10 UNL     1      -3.124  -2.264   0.750  1.00  0.00     0.145 C 
ENDBRANCH  19  20
ENDBRANCH   4  19
TORSDOF 4
