REMARK  3 active torsions:
REMARK  status: ('A' for Active; 'I' for Inactive)
REMARK    1  A    between atoms: C1_2  and  C2_3 
REMARK    2  A    between atoms: C7_10  and  N3_11 
REMARK    3  A    between atoms: N3_11  and  C8_12 
ROOT
HETATM    1  C2  UNL     1       2.801   0.927  -0.901  1.00  0.00    -0.026 C 
HETATM    2  C3  UNL     1       3.863   0.071  -1.116  1.00  0.00     0.013 C 
HETATM    3  C4  UNL     1       4.186  -1.006  -0.316  1.00  0.00     0.020 C 
HETATM    4  C5  UNL     1       3.582  -2.250  -0.373  1.00  0.00     0.118 C 
HETATM    5  N1  UNL     1       2.258  -2.081  -0.275  1.00  0.00    -0.254 NA
HETATM    6  C6  UNL     1       1.578  -2.369   0.846  1.00  0.00     0.234 C 
HETATM    7  N2  UNL     1       1.152  -1.170   1.297  1.00  0.00    -0.225 NA
HETATM    8  C7  UNL     1       0.024  -0.571   0.898  1.00  0.00     0.129 C 
HETATM    9  C14 UNL     1       0.650   0.502   0.305  1.00  0.00     0.051 C 
HETATM   10  C15 UNL     1       1.435   0.770  -0.792  1.00  0.00     0.016 C 
ENDROOT
BRANCH   8  11
HETATM   11  N3  UNL     1      -1.337  -0.873   1.013  1.00  0.00    -0.341 N 
HETATM   12  H6  UNL     1      -1.369  -1.780   1.555  1.00  0.00     0.167 HD
BRANCH  11  13
HETATM   13  C8  UNL     1      -2.517  -0.235   0.574  1.00  0.00     0.034 A 
HETATM   14  C9  UNL     1      -2.434   0.921  -0.170  1.00  0.00     0.029 A 
HETATM   15  C10 UNL     1      -3.572   1.561  -0.607  1.00  0.00     0.004 A 
HETATM   16  C11 UNL     1      -4.790   1.005  -0.273  1.00  0.00     0.019 A 
HETATM   17  C12 UNL     1      -4.842  -0.153   0.474  1.00  0.00     0.013 A 
HETATM   18 BR1  UNL     1      -6.546  -0.870   0.903  1.00  0.00    -0.051 Br
HETATM   19  C13 UNL     1      -3.720  -0.810   0.921  1.00  0.00     0.048 A 
ENDBRANCH  11  13
ENDBRANCH   8  11
BRANCH   1  20
HETATM   20  C1  UNL     1       2.686   2.371  -0.696  1.00  0.00     0.092 C 
HETATM   21  S1  UNL     1       2.303   3.220   0.647  1.00  0.00    -0.092 SA
ENDBRANCH   1  20
TORSDOF 3
