REMARK  3 active torsions:
REMARK  status: ('A' for Active; 'I' for Inactive)
REMARK    1  A    between atoms: S1_2  and  N1_5 
REMARK    2  A    between atoms: N1_5  and  C2_6 
REMARK    3  A    between atoms: N3_16  and  C11_17 
ROOT
HETATM    1  C2  UNL     1      -4.149  -1.257  -0.918  1.00  0.00     0.043 A 
HETATM    2  C3  UNL     1      -3.616  -2.530  -1.074  1.00  0.00     0.033 A 
HETATM    3  C4  UNL     1      -2.322  -2.810  -0.675  1.00  0.00     0.040 A 
HETATM    4  C5  UNL     1      -1.540  -1.821  -0.113  1.00  0.00     0.086 A 
HETATM    5  C6  UNL     1      -2.007  -0.536   0.072  1.00  0.00    -0.004 A 
HETATM    6  C7  UNL     1      -3.319  -0.298  -0.346  1.00  0.00     0.041 A 
HETATM    7  C8  UNL     1      -1.401   0.682   0.632  1.00  0.00     0.161 C 
HETATM    8  N2  UNL     1      -0.035   0.914   0.140  1.00  0.00    -0.381 N 
HETATM    9  C9  UNL     1       1.044  -0.013   0.137  1.00  0.00     0.101 A 
HETATM   10  C10 UNL     1       2.230   0.569   0.081  1.00  0.00     0.151 A 
HETATM   11  N3  UNL     1       3.438  -0.174   0.068  1.00  0.00    -0.249 N 
HETATM   12  N4  UNL     1       3.269  -1.557   0.120  1.00  0.00    -0.211 N 
HETATM   13  N5  UNL     1       2.003  -2.157   0.179  1.00  0.00    -0.130 NA
HETATM   14  C17 UNL     1       0.913  -1.465   0.190  1.00  0.00     0.218 A 
HETATM   15  O3  UNL     1      -0.244  -2.231   0.251  1.00  0.00    -0.288 OA
HETATM   16  H10 UNL     1       0.211   1.865  -0.265  1.00  0.00     0.160 HD
HETATM   17  H16 UNL     1       4.080  -2.206   0.116  1.00  0.00     0.211 HD
ENDROOT
BRANCH  11  18
HETATM   18  C11 UNL     1       4.709   0.448   0.008  1.00  0.00     0.058 A 
HETATM   19  C12 UNL     1       4.874   1.806  -0.043  1.00  0.00     0.031 A 
HETATM   20  C13 UNL     1       6.094   2.446  -0.102  1.00  0.00     0.004 A 
HETATM   21  C14 UNL     1       7.245   1.685  -0.112  1.00  0.00     0.019 A 
HETATM   22  C15 UNL     1       7.123   0.318  -0.062  1.00  0.00     0.013 A 
HETATM   23 BR1  UNL     1       8.728  -0.705  -0.076  1.00  0.00    -0.051 Br
HETATM   24  C16 UNL     1       5.880  -0.274  -0.003  1.00  0.00     0.050 A 
ENDBRANCH  11  18
BRANCH   1  25
HETATM   25  N1  UNL     1      -5.452  -0.890  -1.296  1.00  0.00    -0.285 N 
HETATM   26  H4  UNL     1      -5.637  -1.291  -2.264  1.00  0.00     0.178 HD
BRANCH  25  27
HETATM   27  S1  UNL     1      -6.579   0.032  -0.405  1.00  0.00     0.227 S 
HETATM   28  C1  UNL     1      -6.072   1.663  -0.035  1.00  0.00     0.186 C 
HETATM   29  O1  UNL     1      -6.866  -0.713   0.861  1.00  0.00    -0.206 OA
HETATM   30  O2  UNL     1      -7.877   0.006  -1.198  1.00  0.00    -0.206 OA
ENDBRANCH  25  27
ENDBRANCH   1  25
TORSDOF 3
