REMARK  7 active torsions:
REMARK  status: ('A' for Active; 'I' for Inactive)
REMARK    1  A    between atoms: C5_5  and  C6_6 
REMARK    2  A    between atoms: C6_6  and  C7_7 
REMARK    3  A    between atoms: C7_7  and  C9_10 
REMARK       I    between atoms: C9_10  and  N2_11 
REMARK    4  A    between atoms: C10_13  and  O2_14 
REMARK    5  A    between atoms: C11_15  and  S1_16 
REMARK    6  A    between atoms: S1_16  and  C12_17 
REMARK    7  A    between atoms: C17_22  and  O3_23 
ROOT
HETATM    1  C7  UNL     1       3.753   0.894  -1.283  1.00  0.00     0.188 C 
HETATM    2  C8  UNL     1       2.894   2.044  -1.415  1.00  0.00     0.073 C 
HETATM    3  N1  UNL     1       2.214   2.988  -1.524  1.00  0.00    -0.196 NA
ENDROOT
BRANCH   1   4
HETATM    4  C6  UNL     1       3.131  -0.424  -1.527  1.00  0.00     0.070 C 
BRANCH   4   5
HETATM    5  C5  UNL     1       2.040  -0.887  -0.707  1.00  0.00    -0.025 A 
HETATM    6  C4  UNL     1       2.317  -2.007   0.001  1.00  0.00    -0.013 A 
HETATM    7  C3  UNL     1       1.468  -2.784   0.948  1.00  0.00     0.063 A 
HETATM    8  C2  UNL     1       0.110  -2.154   0.994  1.00  0.00    -0.056 A 
HETATM    9  C1  UNL     1      -0.552  -2.968   1.830  1.00  0.00     0.040 C 
HETATM   10  C11 UNL     1      -0.265  -0.924   0.235  1.00  0.00     0.042 A 
HETATM   11  C10 UNL     1       0.700  -0.451  -0.494  1.00  0.00     0.089 A 
BRANCH  10  12
HETATM   12  S1  UNL     1      -1.877  -0.631   0.673  1.00  0.00    -0.085 SA
BRANCH  12  13
HETATM   13  C12 UNL     1      -2.919   0.490  -0.102  1.00  0.00     0.038 A 
HETATM   14  C13 UNL     1      -2.985   1.327  -1.166  1.00  0.00     0.021 A 
HETATM   15  C14 UNL     1      -3.995   2.166  -1.532  1.00  0.00     0.002 A 
HETATM   16  C15 UNL     1      -5.097   2.165  -0.714  1.00  0.00     0.003 A 
HETATM   17  C16 UNL     1      -5.173   1.354   0.421  1.00  0.00     0.038 A 
HETATM   18  C17 UNL     1      -4.077   0.523   0.712  1.00  0.00     0.082 A 
BRANCH  18  19
HETATM   19  O3  UNL     1      -4.446  -0.160   1.892  1.00  0.00    -0.359 OA
HETATM   20  H16 UNL     1      -4.145   0.281   2.747  1.00  0.00     0.217 HD
ENDBRANCH  18  19
ENDBRANCH  12  13
ENDBRANCH  10  12
BRANCH  11  21
HETATM   21  O2  UNL     1       0.319   0.678  -1.170  1.00  0.00    -0.359 OA
HETATM   22  H11 UNL     1       0.003   1.525  -0.713  1.00  0.00     0.217 HD
ENDBRANCH  11  21
ENDBRANCH   4   5
ENDBRANCH   1   4
BRANCH   1  23
HETATM   23  C9  UNL     1       4.442   0.922   0.074  1.00  0.00     0.233 C 
HETATM   24  N2  UNL     1       3.546   0.678   1.145  1.00  0.00    -0.369 N 
HETATM   25  H9  UNL     1       2.930   0.401   1.920  1.00  0.00     0.159 HD
HETATM   26  H10 UNL     1       2.971   1.503   1.487  1.00  0.00     0.159 HD
HETATM   27  O1  UNL     1       5.591   1.097   0.590  1.00  0.00    -0.272 OA
ENDBRANCH   1  23
TORSDOF 7
