REMARK  4 active torsions:
REMARK  status: ('A' for Active; 'I' for Inactive)
REMARK    1  A    between atoms: N1_1  and  C1_2 
REMARK    2  A    between atoms: C1_2  and  C2_3 
REMARK    3  A    between atoms: C5_6  and  N2_7 
REMARK    4  A    between atoms: N3_13  and  C10_14 
ROOT
HETATM    1  N2  UNL     1       3.954  -1.761  -2.049  1.00  0.00    -0.234 NA
HETATM    2  C6  UNL     1       4.174  -1.071  -3.096  1.00  0.00     0.163 C 
HETATM    3  S1  UNL     1       4.348  -0.260  -4.486  1.00  0.00    -0.055 SA
ENDROOT
BRANCH   1   4
HETATM    4  C5  UNL     1       2.806  -1.533  -1.244  1.00  0.00     0.058 C 
HETATM    5  C4  UNL     1       1.704  -1.753  -1.920  1.00  0.00     0.033 C 
HETATM    6  C3  UNL     1       0.299  -1.634  -1.465  1.00  0.00     0.029 C 
HETATM    7  C2  UNL     1      -0.446  -0.985  -0.565  1.00  0.00     0.040 C 
HETATM    8  N3  UNL     1       0.011  -0.022   0.413  1.00  0.00    -0.345 N 
HETATM    9  C9  UNL     1       1.096   0.114   1.332  1.00  0.00     0.156 C 
HETATM   10  C8  UNL     1       2.372  -0.479   0.991  1.00  0.00    -0.005 C 
HETATM   11  C7  UNL     1       3.169  -1.112   0.128  1.00  0.00     0.029 C 
BRANCH   7  12
HETATM   12  C1  UNL     1      -1.918  -1.234  -0.505  1.00  0.00     0.323 C 
BRANCH  12  13
HETATM   13  N1  UNL     1      -2.380  -2.177  -1.473  1.00  0.00     0.083 N 
HETATM   14  H1  UNL     1      -2.296  -1.930  -2.458  1.00  0.00     0.313 HD
HETATM   15  H2  UNL     1      -2.022  -3.139  -1.325  1.00  0.00     0.313 HD
ENDBRANCH  12  13
ENDBRANCH   7  12
BRANCH   8  16
HETATM   16  C10 UNL     1      -0.899   1.103   0.467  1.00  0.00     0.036 A 
HETATM   17  C11 UNL     1      -1.589   1.785  -0.544  1.00  0.00     0.029 A 
HETATM   18  C12 UNL     1      -2.412   2.832  -0.205  1.00  0.00     0.004 A 
HETATM   19  C13 UNL     1      -2.601   3.258   1.091  1.00  0.00     0.019 A 
HETATM   20  C14 UNL     1      -1.931   2.600   2.087  1.00  0.00     0.013 A 
HETATM   21 BR1  UNL     1      -2.227   3.230   3.861  1.00  0.00    -0.051 Br
HETATM   22  C15 UNL     1      -1.100   1.546   1.772  1.00  0.00     0.048 A 
ENDBRANCH   8  16
ENDBRANCH   1   4
TORSDOF 4
