REMARK  4 active torsions:
REMARK  status: ('A' for Active; 'I' for Inactive)
REMARK    1  A    between atoms: N1_1  and  C1_2 
REMARK    2  A    between atoms: C3_4  and  N2_5 
REMARK    3  A    between atoms: N2_5  and  C4_6 
REMARK    4  A    between atoms: C14_21  and  N7_22 
ROOT
HETATM    1  C1  UNL     1       0.511  -0.472   0.481  1.00  0.00     0.056 A 
HETATM    2  C2  UNL     1      -0.087  -1.533   0.091  1.00  0.00     0.086 A 
HETATM    3  C3  UNL     1      -1.422  -1.358   0.110  1.00  0.00     0.145 A 
HETATM    4  N3  UNL     1      -2.260  -2.341  -0.247  1.00  0.00    -0.223 NA
HETATM    5  C10 UNL     1      -1.797  -3.570  -0.643  1.00  0.00     0.237 A 
HETATM    6  N4  UNL     1      -0.457  -3.802  -0.678  1.00  0.00    -0.220 NA
HETATM    7  C11 UNL     1       0.342  -2.773  -0.309  1.00  0.00     0.186 A 
HETATM    8  N5  UNL     1       1.584  -3.045  -0.324  1.00  0.00    -0.153 NA
HETATM    9  N6  UNL     1       2.807  -2.506  -0.055  1.00  0.00    -0.275 N 
HETATM   10  C12 UNL     1       2.952  -1.139   0.394  1.00  0.00     0.065 A 
HETATM   11  C13 UNL     1       4.288  -0.812   0.574  1.00  0.00     0.060 A 
HETATM   12  C14 UNL     1       4.594   0.449   0.994  1.00  0.00     0.028 A 
HETATM   13  C15 UNL     1       3.602   1.347   1.224  1.00  0.00     0.030 A 
HETATM   14  C16 UNL     1       2.267   1.082   1.065  1.00  0.00     0.018 A 
HETATM   15  C17 UNL     1       1.938  -0.195   0.638  1.00  0.00     0.019 A 
HETATM   16  H9  UNL     1       3.678  -3.077  -0.165  1.00  0.00     0.189 HD
ENDROOT
BRANCH   3  17
HETATM   17  N2  UNL     1      -2.206  -0.259   0.495  1.00  0.00    -0.340 N 
HETATM   18  H3  UNL     1      -2.116  -0.277   1.558  1.00  0.00     0.167 HD
BRANCH  17  19
HETATM   19  C4  UNL     1      -3.013   0.734  -0.195  1.00  0.00     0.035 A 
HETATM   20  C5  UNL     1      -4.199   0.978   0.455  1.00  0.00     0.029 A 
HETATM   21  C6  UNL     1      -5.033   1.907  -0.081  1.00  0.00     0.004 A 
HETATM   22  C7  UNL     1      -4.749   2.602  -1.224  1.00  0.00     0.024 A 
HETATM   23  C8  UNL     1      -3.539   2.263  -1.765  1.00  0.00     0.036 A 
HETATM   24 CL1  UNL     1      -3.077   3.113  -3.249  1.00  0.00    -0.084 Cl
HETATM   25  C9  UNL     1      -2.541   1.356  -1.391  1.00  0.00     0.053 A 
ENDBRANCH  17  19
ENDBRANCH   3  17
BRANCH   1  26
HETATM   26  N1  UNL     1      -0.159   0.713   0.862  1.00  0.00    -0.397 N 
HETATM   27  H1  UNL     1      -0.632   1.561   1.178  1.00  0.00     0.156 HD
HETATM   28  H2  UNL     1      -0.649   1.619   0.798  1.00  0.00     0.156 HD
ENDBRANCH   1  26
BRANCH  12  29
HETATM   29  N7  UNL     1       5.985   0.664   1.150  1.00  0.00    -0.399 N 
HETATM   30  H11 UNL     1       6.152   1.484   0.537  1.00  0.00     0.156 HD
HETATM   31  H12 UNL     1       6.741   0.205   1.697  1.00  0.00     0.156 HD
ENDBRANCH  12  29
TORSDOF 4
