REMARK  6 active torsions:
REMARK  status: ('A' for Active; 'I' for Inactive)
REMARK       I    between atoms: N1_2  and  C2_3 
REMARK    1  A    between atoms: C2_3  and  C3_5 
REMARK    2  A    between atoms: C5_8  and  C6_9 
REMARK    3  A    between atoms: C7_10  and  C8_11 
REMARK    4  A    between atoms: C8_11  and  S1_13 
REMARK    5  A    between atoms: S1_13  and  N3_16 
REMARK    6  A    between atoms: C18_27  and  N5_28 
ROOT
HETATM    1  C6  UNL     1       1.883  -0.778   0.622  1.00  0.00     0.001 C 
HETATM    2  C7  UNL     1       0.925  -1.474   1.199  1.00  0.00     0.010 C 
ENDROOT
BRANCH   1   3
HETATM    3  C5  UNL     1       1.848   0.619   0.217  1.00  0.00     0.029 C 
HETATM    4  C4  UNL     1       2.904   1.193  -0.362  1.00  0.00     0.055 A 
HETATM    5  N2  UNL     1       4.030   0.351  -0.543  1.00  0.00    -0.242 NA
HETATM    6  C17 UNL     1       2.911   2.611  -0.790  1.00  0.00     0.210 A 
HETATM    7  C3  UNL     1       5.134   0.735  -1.088  1.00  0.00     0.169 A 
HETATM    8  C18 UNL     1       5.148   2.114  -1.510  1.00  0.00     0.151 A 
HETATM    9  N4  UNL     1       4.176   2.949  -1.384  1.00  0.00    -0.265 NA
BRANCH   7  10
HETATM   10  C2  UNL     1       6.208  -0.227  -1.213  1.00  0.00     0.273 C 
HETATM   11  N1  UNL     1       7.503  -0.086  -1.758  1.00  0.00    -0.360 N 
HETATM   12  C1  UNL     1       8.348  -1.266  -1.728  1.00  0.00     0.149 C 
HETATM   13  H4  UNL     1       7.746   0.851  -2.136  1.00  0.00     0.162 HD
HETATM   14  O1  UNL     1       6.037  -1.408  -0.788  1.00  0.00    -0.266 OA
ENDBRANCH   7  10
BRANCH   8  15
HETATM   15  N5  UNL     1       6.311   2.642  -2.121  1.00  0.00    -0.382 N 
HETATM   16  H25 UNL     1       6.993   3.073  -1.464  1.00  0.00     0.157 HD
HETATM   17  H26 UNL     1       6.126   2.427  -3.127  1.00  0.00     0.157 HD
ENDBRANCH   8  15
ENDBRANCH   1   3
BRANCH   2  18
HETATM   18  C8  UNL     1      -0.440  -1.067   1.604  1.00  0.00     0.243 C 
HETATM   19 CL1  UNL     1      -0.357   0.556   2.320  1.00  0.00    -0.103 Cl
BRANCH  18  20
HETATM   20  S1  UNL     1      -1.486  -1.139   0.182  1.00  0.00     0.233 S 
HETATM   21  O2  UNL     1      -0.975  -0.187  -0.843  1.00  0.00    -0.209 OA
HETATM   22  O3  UNL     1      -1.409  -2.544  -0.347  1.00  0.00    -0.209 OA
BRANCH  20  23
HETATM   23  N3  UNL     1      -3.116  -0.750   0.521  1.00  0.00    -0.201 NA
HETATM   24  C9  UNL     1      -3.295   0.577   1.017  1.00  0.00     0.141 C 
HETATM   25  C10 UNL     1      -4.775   0.861   0.926  1.00  0.00    -0.068 C 
HETATM   26  C11 UNL     1      -5.316   2.077   0.256  1.00  0.00     0.045 C 
HETATM   27  C12 UNL     1      -5.554  -0.061   1.492  1.00  0.00    -0.079 C 
HETATM   28  C13 UNL     1      -7.032   0.152   1.442  1.00  0.00     0.044 C 
HETATM   29  C14 UNL     1      -4.919  -1.246   2.139  1.00  0.00     0.054 C 
HETATM   30  C15 UNL     1      -3.836  -1.773   1.211  1.00  0.00     0.074 C 
HETATM   31  C16 UNL     1      -4.567  -2.612   0.163  1.00  0.00     0.027 C 
ENDBRANCH  20  23
ENDBRANCH  18  20
ENDBRANCH   2  18
TORSDOF 6
