REMARK  6 active torsions:
REMARK  status: ('A' for Active; 'I' for Inactive)
REMARK    1  A    between atoms: C3_3  and  C4_4 
REMARK    2  A    between atoms: C4_4  and  C5_5 
REMARK    3  A    between atoms: C7_7  and  C8_8 
REMARK    4  A    between atoms: C14_16  and  O2_17 
REMARK    5  A    between atoms: O2_17  and  C15_18 
REMARK    6  A    between atoms: C17_20  and  O3_21 
ROOT
HETATM    1  C5  UNL     1      -1.924  -0.465   0.648  1.00  0.00    -0.018 A 
HETATM    2  C6  UNL     1      -0.759  -1.113   0.314  1.00  0.00     0.022 A 
HETATM    3  C7  UNL     1       0.394  -0.417   0.055  1.00  0.00    -0.032 A 
HETATM    4  C13 UNL     1       0.380   0.956   0.133  1.00  0.00     0.051 A 
HETATM    5  C14 UNL     1      -0.747   1.673   0.461  1.00  0.00     0.103 A 
HETATM    6  C17 UNL     1      -1.903   0.929   0.718  1.00  0.00     0.105 A 
ENDROOT
BRANCH   3   7
HETATM    7  C8  UNL     1       1.656  -1.043  -0.311  1.00  0.00     0.024 C 
HETATM    8  C9  UNL     1       2.911  -0.842  -0.005  1.00  0.00     0.012 C 
HETATM    9  C10 UNL     1       4.127  -1.595  -0.481  1.00  0.00     0.064 C 
HETATM   10  C12 UNL     1       3.480   0.176   0.906  1.00  0.00     0.247 C 
HETATM   11  C11 UNL     1       5.082  -0.443  -0.710  1.00  0.00     0.128 C 
HETATM   12  N1  UNL     1       4.787   0.450   0.393  1.00  0.00    -0.357 N 
HETATM   13  H14 UNL     1       5.423   1.178   0.757  1.00  0.00     0.162 HD
HETATM   14  O1  UNL     1       2.882   0.659   1.909  1.00  0.00    -0.268 OA
ENDBRANCH   3   7
BRANCH   1  15
HETATM   15  C4  UNL     1      -3.122  -1.305   0.913  1.00  0.00     0.068 C 
BRANCH  15  16
HETATM   16  C3  UNL     1      -2.832  -2.750   0.728  1.00  0.00    -0.026 C 
HETATM   17  C2  UNL     1      -3.388  -3.616  -0.110  1.00  0.00    -0.035 C 
HETATM   18  C1  UNL     1      -4.467  -3.120  -1.023  1.00  0.00     0.036 C 
ENDBRANCH  15  16
ENDBRANCH   1  15
BRANCH   5  19
HETATM   19  O2  UNL     1      -1.043   2.993   0.606  1.00  0.00    -0.349 OA
BRANCH  19  20
HETATM   20  C15 UNL     1      -0.235   4.105   0.437  1.00  0.00     0.171 C 
HETATM   21  C16 UNL     1       0.287   4.262  -0.948  1.00  0.00     0.034 C 
ENDBRANCH  19  20
ENDBRANCH   5  19
BRANCH   6  22
HETATM   22  O3  UNL     1      -3.173   1.431   1.073  1.00  0.00    -0.357 OA
HETATM   23  H21 UNL     1      -3.640   2.072   0.421  1.00  0.00     0.217 HD
ENDBRANCH   6  22
TORSDOF 6
