REMARK  4 active torsions:
REMARK  status: ('A' for Active; 'I' for Inactive)
REMARK    1  A    between atoms: C2_2  and  C3_3 
REMARK    2  A    between atoms: C8_8  and  O1_9 
REMARK    3  A    between atoms: C8_8  and  C9_10 
REMARK    4  A    between atoms: C15_18  and  O3_19 
ROOT
HETATM    1  C3  UNL     1       2.116  -0.248  -0.822  1.00  0.00     0.012 C 
HETATM    2  C4  UNL     1       0.793  -0.574  -1.289  1.00  0.00    -0.010 C 
HETATM    3  C5  UNL     1       0.466  -1.697  -0.711  1.00  0.00    -0.034 C 
HETATM    4  C6  UNL     1       0.466  -1.565   0.606  1.00  0.00    -0.011 C 
HETATM    5  C7  UNL     1      -0.009  -0.175   0.599  1.00  0.00     0.075 C 
HETATM    6  C8  UNL     1      -1.433  -0.008   0.214  1.00  0.00     0.111 C 
HETATM    7  C13 UNL     1      -1.635   1.446  -0.164  1.00  0.00     0.019 C 
HETATM    8  C14 UNL     1      -0.807   2.403  -0.632  1.00  0.00     0.035 C 
HETATM    9  C15 UNL     1       0.565   2.779  -1.055  1.00  0.00     0.061 C 
HETATM   10  C16 UNL     1       1.763   2.148  -1.140  1.00  0.00     0.010 C 
HETATM   11  C17 UNL     1       2.764   1.079  -1.054  1.00  0.00     0.038 C 
ENDROOT
BRANCH   6  12
HETATM   12  O1  UNL     1      -1.865  -0.670  -0.943  1.00  0.00    -0.380 OA
HETATM   13  H11 UNL     1      -2.684  -0.230  -1.234  1.00  0.00     0.211 HD
ENDBRANCH   6  12
BRANCH   6  14
HETATM   14  C9  UNL     1      -2.454  -0.341   1.199  1.00  0.00     0.045 A 
HETATM   15  C10 UNL     1      -2.226  -0.851   2.399  1.00  0.00     0.009 A 
HETATM   16  C11 UNL     1      -3.520  -1.055   3.123  1.00  0.00     0.151 A 
HETATM   17  N1  UNL     1      -4.491  -0.614   2.139  1.00  0.00    -0.354 N 
HETATM   18  C12 UNL     1      -3.851  -0.162   0.960  1.00  0.00     0.251 A 
HETATM   19  H15 UNL     1      -5.474  -0.685   2.415  1.00  0.00     0.163 HD
HETATM   20  O2  UNL     1      -4.563   0.260   0.040  1.00  0.00    -0.268 OA
ENDBRANCH   6  14
BRANCH   9  21
HETATM   21  O3  UNL     1       0.586   4.146  -1.465  1.00  0.00    -0.361 OA
HETATM   22  H18 UNL     1       1.059   4.737  -0.783  1.00  0.00     0.217 HD
ENDBRANCH   9  21
BRANCH   1  23
HETATM   23  C2  UNL     1       3.044  -1.361  -0.378  1.00  0.00     0.004 C 
HETATM   24  C1  UNL     1       3.364  -2.421  -1.396  1.00  0.00     0.006 C 
ENDBRANCH   1  23
TORSDOF 4
