REMARK  7 active torsions:
REMARK  status: ('A' for Active; 'I' for Inactive)
REMARK    1  A    between atoms: C2_2  and  O1_3 
REMARK    2  A    between atoms: O1_3  and  C3_4 
REMARK    3  A    between atoms: C5_6  and  C6_7 
REMARK    4  A    between atoms: C12_15  and  C13_16 
REMARK    5  A    between atoms: C13_16  and  S1_17 
REMARK    6  A    between atoms: S1_17  and  C14_18 
REMARK    7  A    between atoms: C20_24  and  O3_25 
ROOT
HETATM    1  C3  UNL     1      -0.909   1.815  -0.045  1.00  0.00     0.103 A 
HETATM    2  C4  UNL     1      -1.768   0.792   0.231  1.00  0.00     0.051 A 
HETATM    3  C5  UNL     1      -1.425  -0.536   0.265  1.00  0.00    -0.032 A 
HETATM    4  C11 UNL     1      -0.079  -0.802  -0.012  1.00  0.00     0.022 A 
HETATM    5  C12 UNL     1       0.846   0.175  -0.299  1.00  0.00    -0.012 A 
HETATM    6  C20 UNL     1       0.413   1.481  -0.311  1.00  0.00     0.106 A 
ENDROOT
BRANCH   3   7
HETATM    7  C6  UNL     1      -2.333  -1.620   0.535  1.00  0.00     0.024 C 
HETATM    8  C7  UNL     1      -3.552  -1.937   0.131  1.00  0.00     0.012 C 
HETATM    9  C8  UNL     1      -4.300  -3.164   0.582  1.00  0.00     0.064 C 
HETATM   10  C10 UNL     1      -4.438  -1.238  -0.824  1.00  0.00     0.247 C 
HETATM   11  C9  UNL     1      -5.735  -2.679   0.444  1.00  0.00     0.128 C 
HETATM   12  N1  UNL     1      -5.665  -1.962  -0.808  1.00  0.00    -0.357 N 
HETATM   13  H12 UNL     1      -6.373  -1.951  -1.594  1.00  0.00     0.162 HD
HETATM   14  O2  UNL     1      -4.142  -0.229  -1.490  1.00  0.00    -0.268 OA
ENDBRANCH   3   7
BRANCH   1  15
HETATM   15  O1  UNL     1      -1.214   3.160  -0.089  1.00  0.00    -0.349 OA
BRANCH  15  16
HETATM   16  C2  UNL     1      -2.492   3.692   0.147  1.00  0.00     0.171 C 
HETATM   17  C1  UNL     1      -2.412   5.198   0.016  1.00  0.00     0.034 C 
ENDBRANCH  15  16
ENDBRANCH   1  15
BRANCH   5  18
HETATM   18  C13 UNL     1       2.229  -0.283  -0.560  1.00  0.00     0.121 C 
BRANCH  18  19
HETATM   19  S1  UNL     1       3.257   0.028   0.913  1.00  0.00    -0.125 SA
BRANCH  19  20
HETATM   20  C14 UNL     1       4.915  -0.523   0.599  1.00  0.00     0.000 A 
HETATM   21  C15 UNL     1       5.851   0.339   0.077  1.00  0.00     0.018 A 
HETATM   22  C16 UNL     1       7.145  -0.135  -0.158  1.00  0.00     0.001 A 
HETATM   23  C17 UNL     1       7.393  -1.464   0.161  1.00  0.00     0.000 A 
HETATM   24  C18 UNL     1       6.479  -2.368   0.689  1.00  0.00     0.001 A 
HETATM   25  C19 UNL     1       5.214  -1.826   0.894  1.00  0.00     0.018 A 
ENDBRANCH  19  20
ENDBRANCH  18  19
ENDBRANCH   5  18
BRANCH   6  26
HETATM   26  O3  UNL     1       1.354   2.437  -0.601  1.00  0.00    -0.357 OA
HETATM   27  H21 UNL     1       1.972   2.889   0.037  1.00  0.00     0.217 HD
ENDBRANCH   6  26
TORSDOF 7
