REMARK  6 active torsions:
REMARK  status: ('A' for Active; 'I' for Inactive)
REMARK    1  A    between atoms: C2_2  and  O1_3 
REMARK    2  A    between atoms: O1_3  and  C3_4 
REMARK    3  A    between atoms: C5_6  and  C6_7 
REMARK    4  A    between atoms: C12_15  and  C13_16 
REMARK    5  A    between atoms: C13_16  and  C14_17 
REMARK    6  A    between atoms: C20_24  and  O3_25 
ROOT
HETATM    1  C3  UNL     1      -0.049   1.762  -0.594  1.00  0.00     0.103 A 
HETATM    2  C4  UNL     1      -1.198   1.014  -0.743  1.00  0.00     0.051 A 
HETATM    3  C5  UNL     1      -1.231  -0.297  -1.168  1.00  0.00    -0.032 A 
HETATM    4  C11 UNL     1       0.007  -0.852  -1.452  1.00  0.00     0.022 A 
HETATM    5  C12 UNL     1       1.201  -0.183  -1.333  1.00  0.00    -0.017 A 
HETATM    6  C20 UNL     1       1.144   1.125  -0.901  1.00  0.00     0.105 A 
ENDROOT
BRANCH   3   7
HETATM    7  C6  UNL     1      -2.459  -1.062  -1.290  1.00  0.00     0.024 C 
HETATM    8  C7  UNL     1      -3.509  -1.250  -0.549  1.00  0.00     0.012 C 
HETATM    9  C8  UNL     1      -4.677  -2.112  -0.913  1.00  0.00     0.064 C 
HETATM   10  C10 UNL     1      -3.856  -0.756   0.762  1.00  0.00     0.247 C 
HETATM   11  C9  UNL     1      -5.302  -2.496   0.412  1.00  0.00     0.128 C 
HETATM   12  N1  UNL     1      -5.056  -1.346   1.282  1.00  0.00    -0.357 N 
HETATM   13  H12 UNL     1      -5.647  -1.052   2.093  1.00  0.00     0.162 HD
HETATM   14  O2  UNL     1      -3.246   0.089   1.452  1.00  0.00    -0.268 OA
ENDBRANCH   3   7
BRANCH   1  15
HETATM   15  O1  UNL     1      -0.041   3.082  -0.165  1.00  0.00    -0.349 OA
BRANCH  15  16
HETATM   16  C2  UNL     1      -1.249   3.706   0.134  1.00  0.00     0.171 C 
HETATM   17  C1  UNL     1      -1.079   5.138   0.589  1.00  0.00     0.034 C 
ENDBRANCH  15  16
ENDBRANCH   1  15
BRANCH   5  18
HETATM   18  C13 UNL     1       2.543  -0.715  -1.614  1.00  0.00     0.087 C 
BRANCH  18  19
HETATM   19  C14 UNL     1       3.281  -1.032  -0.337  1.00  0.00    -0.013 C 
HETATM   20  C15 UNL     1       4.408  -0.351  -0.184  1.00  0.00     0.015 C 
HETATM   21  C16 UNL     1       5.360  -0.395   0.901  1.00  0.00     0.001 C 
HETATM   22  C17 UNL     1       5.543  -1.268   1.856  1.00  0.00     0.001 C 
HETATM   23  C18 UNL     1       4.883  -2.504   2.199  1.00  0.00     0.007 C 
HETATM   24  C19 UNL     1       3.717  -2.942   1.792  1.00  0.00     0.050 C 
HETATM   25  S1  UNL     1       2.488  -2.239   0.687  1.00  0.00    -0.106 SA
ENDBRANCH  18  19
ENDBRANCH   5  18
BRANCH   6  26
HETATM   26  O3  UNL     1       2.313   1.885  -0.751  1.00  0.00    -0.357 OA
HETATM   27  H21 UNL     1       2.270   2.817  -1.170  1.00  0.00     0.217 HD
ENDBRANCH   6  26
TORSDOF 6
