REMARK  6 active torsions:
REMARK  status: ('A' for Active; 'I' for Inactive)
REMARK    1  A    between atoms: C2_2  and  C3_3 
REMARK    2  A    between atoms: C3_3  and  C4_4 
REMARK    3  A    between atoms: C4_4  and  C5_5 
REMARK    4  A    between atoms: C7_7  and  C8_8 
REMARK    5  A    between atoms: C18_20  and  C19_21 
REMARK    6  A    between atoms: C22_24  and  O2_25 
ROOT
HETATM    1  C5  UNL     1      -2.062  -0.317   0.083  1.00  0.00    -0.024 A 
HETATM    2  C6  UNL     1      -0.797  -0.842  -0.060  1.00  0.00     0.021 A 
HETATM    3  C7  UNL     1       0.329  -0.009  -0.137  1.00  0.00    -0.034 A 
HETATM    4  C17 UNL     1       0.043   1.330  -0.057  1.00  0.00     0.021 A 
HETATM    5  C18 UNL     1      -1.189   1.915   0.085  1.00  0.00    -0.020 A 
HETATM    6  C22 UNL     1      -2.283   1.041   0.157  1.00  0.00     0.078 A 
ENDROOT
BRANCH   3   7
HETATM    7  C8  UNL     1       1.688  -0.453  -0.311  1.00  0.00     0.029 C 
HETATM    8  C9  UNL     1       2.837  -0.166   0.258  1.00  0.00     0.045 A 
HETATM    9  C10 UNL     1       3.195   0.744   1.326  1.00  0.00     0.257 A 
HETATM   10  C16 UNL     1       4.088  -0.776  -0.152  1.00  0.00     0.006 A 
HETATM   11  O1  UNL     1       2.410   1.481   1.972  1.00  0.00    -0.267 OA
HETATM   12  N1  UNL     1       4.597   0.707   1.571  1.00  0.00    -0.322 N 
HETATM   13  C11 UNL     1       5.066  -0.238   0.635  1.00  0.00     0.046 A 
HETATM   14  H12 UNL     1       5.107   1.258   2.278  1.00  0.00     0.169 HD
HETATM   15  C12 UNL     1       6.365  -0.692   0.403  1.00  0.00     0.030 A 
HETATM   16  C13 UNL     1       6.681  -1.615  -0.543  1.00  0.00     0.002 A 
HETATM   17  C14 UNL     1       5.697  -2.158  -1.337  1.00  0.00     0.001 A 
HETATM   18  C15 UNL     1       4.405  -1.725  -1.126  1.00  0.00     0.015 A 
ENDBRANCH   3   7
BRANCH   1  19
HETATM   19  C4  UNL     1      -3.243  -1.215   0.160  1.00  0.00     0.041 C 
BRANCH  19  20
HETATM   20  C3  UNL     1      -2.914  -2.673   0.156  1.00  0.00     0.004 C 
BRANCH  20  21
HETATM   21  C2  UNL     1      -4.232  -3.431   0.233  1.00  0.00    -0.004 C 
HETATM   22  C1  UNL     1      -5.097  -3.086  -0.954  1.00  0.00     0.005 C 
ENDBRANCH  20  21
ENDBRANCH  19  20
ENDBRANCH   1  19
BRANCH   5  23
HETATM   23  C19 UNL     1      -1.507   3.353   0.168  1.00  0.00     0.013 C 
HETATM   24  C20 UNL     1      -1.695   3.994  -1.191  1.00  0.00     0.015 C 
HETATM   25  C21 UNL     1      -0.447   4.153   0.890  1.00  0.00     0.015 C 
ENDBRANCH   5  23
BRANCH   6  26
HETATM   26  O2  UNL     1      -3.571   1.541   0.302  1.00  0.00    -0.360 OA
HETATM   27  H25 UNL     1      -4.294   1.436  -0.401  1.00  0.00     0.217 HD
ENDBRANCH   6  26
TORSDOF 6
