REMARK  4 active torsions:
REMARK  status: ('A' for Active; 'I' for Inactive)
REMARK    1  A    between atoms: C7_7  and  C8_8 
REMARK    2  A    between atoms: C14_14  and  N1_15 
REMARK    3  A    between atoms: N1_15  and  O1_16 
REMARK    4  A    between atoms: C16_18  and  C17_19 
ROOT
HETATM    1  C1  UNL     1      -3.874   0.544   1.271  1.00  0.00     0.043 C 
HETATM    2  C2  UNL     1      -2.703   1.164   1.248  1.00  0.00    -0.051 C 
HETATM    3  C3  UNL     1      -2.707   2.473   1.951  1.00  0.00     0.004 C 
HETATM    4  C4  UNL     1      -1.638   2.795   2.709  1.00  0.00    -0.026 C 
HETATM    5  C5  UNL     1      -0.366   2.143   3.057  1.00  0.00     0.032 C 
HETATM    6  C6  UNL     1       0.390   1.469   1.987  1.00  0.00     0.043 C 
HETATM    7  C7  UNL     1      -0.330   0.726   0.951  1.00  0.00    -0.050 C 
HETATM    8  C16 UNL     1      -1.567   0.493   0.528  1.00  0.00    -0.042 C 
ENDROOT
BRANCH   7   9
HETATM    9  C8  UNL     1       0.634   0.238  -0.006  1.00  0.00     0.021 C 
HETATM   10  C9  UNL     1       1.865   0.034  -0.401  1.00  0.00    -0.006 C 
HETATM   11  C10 UNL     1       2.844   0.514   0.552  1.00  0.00     0.026 C 
HETATM   12  C14 UNL     1       2.557  -0.550  -1.536  1.00  0.00     0.064 C 
HETATM   13  C11 UNL     1       4.083   0.778   0.262  1.00  0.00    -0.025 C 
HETATM   14  C12 UNL     1       4.739  -0.041  -0.509  1.00  0.00     0.014 C 
HETATM   15  C13 UNL     1       3.879  -0.568  -1.554  1.00  0.00     0.033 C 
BRANCH  12  16
HETATM   16  N1  UNL     1       1.636  -1.040  -2.514  1.00  0.00    -0.267 N 
HETATM   17  H13 UNL     1       1.003  -0.380  -2.990  1.00  0.00     0.194 HD
BRANCH  16  18
HETATM   18  O1  UNL     1       1.561  -2.329  -2.842  1.00  0.00    -0.285 OA
HETATM   19  C15 UNL     1       2.143  -3.180  -1.927  1.00  0.00     0.237 C 
ENDBRANCH  16  18
ENDBRANCH  12  16
ENDBRANCH   7   9
BRANCH   8  20
HETATM   20  C17 UNL     1      -2.095  -0.429  -0.443  1.00  0.00     0.011 C 
HETATM   21  C18 UNL     1      -1.339  -1.666  -0.784  1.00  0.00     0.015 C 
HETATM   22  C19 UNL     1      -2.719   0.164  -1.686  1.00  0.00     0.015 C 
ENDBRANCH   8  20
TORSDOF 4
