REMARK  4 active torsions:
REMARK  status: ('A' for Active; 'I' for Inactive)
REMARK    1  A    between atoms: C2_2  and  C3_4 
REMARK    2  A    between atoms: C5_6  and  C6_7 
REMARK    3  A    between atoms: C16_19  and  C17_20 
REMARK    4  A    between atoms: C20_23  and  O3_24 
ROOT
HETATM    1  C3  UNL     1      -2.168   1.563  -0.605  1.00  0.00     0.044 A 
HETATM    2  C4  UNL     1      -0.807   1.523  -0.420  1.00  0.00     0.029 A 
HETATM    3  C5  UNL     1      -0.081   0.437   0.085  1.00  0.00    -0.034 A 
HETATM    4  C15 UNL     1      -0.883  -0.649   0.402  1.00  0.00     0.021 A 
HETATM    5  C16 UNL     1      -2.254  -0.671   0.240  1.00  0.00    -0.020 A 
HETATM    6  C20 UNL     1      -2.870   0.446  -0.264  1.00  0.00     0.086 A 
ENDROOT
BRANCH   3   7
HETATM    7  C6  UNL     1       1.358   0.496   0.256  1.00  0.00     0.029 C 
HETATM    8  C7  UNL     1       2.323  -0.346  -0.048  1.00  0.00     0.045 A 
HETATM    9  C8  UNL     1       2.319  -1.657  -0.674  1.00  0.00     0.257 A 
HETATM   10  C14 UNL     1       3.722  -0.067   0.232  1.00  0.00     0.006 A 
HETATM   11  O2  UNL     1       1.310  -2.282  -1.080  1.00  0.00    -0.267 OA
HETATM   12  N1  UNL     1       3.646  -2.170  -0.778  1.00  0.00    -0.322 N 
HETATM   13  C9  UNL     1       4.453  -1.148  -0.205  1.00  0.00     0.046 A 
HETATM   14  H6  UNL     1       3.963  -3.081  -1.179  1.00  0.00     0.169 HD
HETATM   15  C10 UNL     1       5.818  -1.127  -0.052  1.00  0.00     0.030 A 
HETATM   16  C11 UNL     1       6.508  -0.061   0.526  1.00  0.00     0.002 A 
HETATM   17  C12 UNL     1       5.765   1.001   0.954  1.00  0.00     0.001 A 
HETATM   18  C13 UNL     1       4.396   1.001   0.810  1.00  0.00     0.015 A 
ENDBRANCH   3   7
BRANCH   1  19
HETATM   19  C2  UNL     1      -2.843   2.734  -1.135  1.00  0.00     0.158 C 
HETATM   20  C1  UNL     1      -2.152   3.985  -1.530  1.00  0.00     0.097 C 
HETATM   21  O1  UNL     1      -4.107   2.682  -1.267  1.00  0.00    -0.293 OA
ENDBRANCH   1  19
BRANCH   5  22
HETATM   22  C17 UNL     1      -3.032  -1.894   0.608  1.00  0.00     0.013 C 
HETATM   23  C18 UNL     1      -3.502  -1.690   2.036  1.00  0.00     0.015 C 
HETATM   24  C19 UNL     1      -4.196  -2.178  -0.259  1.00  0.00     0.015 C 
ENDBRANCH   5  22
BRANCH   6  25
HETATM   25  O3  UNL     1      -4.247   0.426  -0.427  1.00  0.00    -0.359 OA
HETATM   26  H19 UNL     1      -4.738   0.433  -1.305  1.00  0.00     0.217 HD
ENDBRANCH   6  25
TORSDOF 4
