REMARK  7 active torsions:
REMARK  status: ('A' for Active; 'I' for Inactive)
REMARK    1  A    between atoms: C2_2  and  O1_3 
REMARK    2  A    between atoms: O1_3  and  C3_4 
REMARK    3  A    between atoms: C5_6  and  C6_7 
REMARK    4  A    between atoms: C8_10  and  C9_11 
REMARK    5  A    between atoms: C9_11  and  S1_12 
REMARK    6  A    between atoms: S1_12  and  C10_13 
REMARK    7  A    between atoms: C16_19  and  O2_20 
ROOT
HETATM    1  C3  UNL     1      -2.208  -0.225  -0.722  1.00  0.00     0.102 A 
HETATM    2  C4  UNL     1      -2.082   0.889   0.076  1.00  0.00     0.048 A 
HETATM    3  C5  UNL     1      -0.954   1.662   0.075  1.00  0.00    -0.041 A 
HETATM    4  C7  UNL     1       0.141   1.360  -0.741  1.00  0.00     0.019 A 
HETATM    5  C8  UNL     1       0.050   0.249  -1.553  1.00  0.00    -0.012 A 
HETATM    6  C16 UNL     1      -1.110  -0.526  -1.538  1.00  0.00     0.106 A 
ENDROOT
BRANCH   5   7
HETATM    7  C9  UNL     1       1.190  -0.116  -2.443  1.00  0.00     0.121 C 
BRANCH   7   8
HETATM    8  S1  UNL     1       2.138  -1.520  -1.796  1.00  0.00    -0.125 SA
BRANCH   8   9
HETATM    9  C10 UNL     1       2.957  -1.059  -0.279  1.00  0.00     0.000 A 
HETATM   10  C11 UNL     1       4.230  -0.535  -0.532  1.00  0.00     0.018 A 
HETATM   11  C12 UNL     1       5.043  -0.111   0.521  1.00  0.00     0.001 A 
HETATM   12  C13 UNL     1       4.553  -0.224   1.827  1.00  0.00     0.000 A 
HETATM   13  C14 UNL     1       3.292  -0.746   2.060  1.00  0.00     0.001 A 
HETATM   14  C15 UNL     1       2.490  -1.164   1.019  1.00  0.00     0.018 A 
ENDBRANCH   8   9
ENDBRANCH   7   8
ENDBRANCH   5   7
BRANCH   6  15
HETATM   15  O2  UNL     1      -1.108  -1.637  -2.401  1.00  0.00    -0.357 OA
HETATM   16  H17 UNL     1      -1.379  -1.516  -3.384  1.00  0.00     0.217 HD
ENDBRANCH   6  15
BRANCH   3  17
HETATM   17  C6  UNL     1      -0.891   2.855   0.970  1.00  0.00     0.153 C 
HETATM   18 CL1  UNL     1      -0.182   2.323   2.511  1.00  0.00    -0.126 Cl
ENDBRANCH   3  17
BRANCH   1  19
HETATM   19  O1  UNL     1      -3.263  -1.111  -0.849  1.00  0.00    -0.349 OA
BRANCH  19  20
HETATM   20  C2  UNL     1      -4.441  -0.950  -0.103  1.00  0.00     0.171 C 
HETATM   21  C1  UNL     1      -4.274  -0.994   1.378  1.00  0.00     0.034 C 
ENDBRANCH  19  20
ENDBRANCH   1  19
TORSDOF 7
