REMARK  4 active torsions:
REMARK  status: ('A' for Active; 'I' for Inactive)
REMARK    1  A    between atoms: C3_3  and  O1_4 
REMARK    2  A    between atoms: C4_5  and  O2_6 
REMARK    3  A    between atoms: C12_14  and  N1_15 
REMARK    4  A    between atoms: C13_16  and  C14_17 
ROOT
HETATM    1  C1  UNL     1      -0.737   2.643   0.438  1.00  0.00     0.080 C 
HETATM    2  C2  UNL     1      -1.492   1.471  -0.131  1.00  0.00     0.087 C 
HETATM    3  C3  UNL     1      -2.763   1.822   0.137  1.00  0.00     0.130 C 
HETATM    4  C4  UNL     1      -3.912   1.026  -0.235  1.00  0.00     0.118 C 
HETATM    5  C5  UNL     1      -4.139  -0.072  -0.874  1.00  0.00     0.041 C 
HETATM    6  C6  UNL     1      -5.110  -1.030  -1.345  1.00  0.00     0.018 C 
HETATM    7  C7  UNL     1      -4.891  -2.208  -1.866  1.00  0.00    -0.021 C 
HETATM    8  C8  UNL     1      -3.774  -2.862  -2.547  1.00  0.00     0.055 C 
HETATM    9  C9  UNL     1      -2.461  -2.820  -1.854  1.00  0.00    -0.004 C 
HETATM   10  C10 UNL     1      -1.900  -1.790  -1.263  1.00  0.00     0.006 C 
HETATM   11  C11 UNL     1      -0.840  -1.862  -0.221  1.00  0.00     0.076 C 
HETATM   12  C12 UNL     1      -0.304  -0.700  -0.045  1.00  0.00     0.170 C 
HETATM   13  O3  UNL     1      -0.572   0.537  -0.670  1.00  0.00    -0.294 OA
HETATM   14  S1  UNL     1      -2.441  -0.151  -1.579  1.00  0.00    -0.088 SA
ENDROOT
BRANCH  12  15
HETATM   15  N1  UNL     1       0.728  -0.585   0.919  1.00  0.00    -0.237 NA
HETATM   16  C13 UNL     1       1.889  -0.128   0.606  1.00  0.00     0.120 C 
BRANCH  16  17
HETATM   17  C14 UNL     1       2.842  -0.065   1.697  1.00  0.00     0.024 C 
HETATM   18  C15 UNL     1       4.074   0.370   1.546  1.00  0.00    -0.049 C 
HETATM   19  C16 UNL     1       4.791   0.878   0.318  1.00  0.00     0.066 C 
HETATM   20  C18 UNL     1       5.228   0.527   2.464  1.00  0.00     0.304 C 
HETATM   21  C17 UNL     1       6.152   0.220   0.364  1.00  0.00     0.274 C 
HETATM   22  N2  UNL     1       6.346  -0.130   1.770  1.00  0.00     0.087 N 
HETATM   23  H18 UNL     1       6.218  -1.155   1.906  1.00  0.00     0.316 HD
ENDBRANCH  16  17
ENDBRANCH  12  15
BRANCH   3  24
HETATM   24  O1  UNL     1      -3.175   2.950   0.769  1.00  0.00    -0.356 OA
HETATM   25  H4  UNL     1      -2.963   3.158   1.730  1.00  0.00     0.218 HD
ENDBRANCH   3  24
BRANCH   4  26
HETATM   26  O2  UNL     1      -5.255   1.229   0.010  1.00  0.00    -0.357 OA
HETATM   27  H5  UNL     1      -5.636   1.435   0.924  1.00  0.00     0.218 HD
ENDBRANCH   4  26
TORSDOF 4
