REMARK  4 active torsions:
REMARK  status: ('A' for Active; 'I' for Inactive)
REMARK    1  A    between atoms: S1_2  and  N1_5 
REMARK    2  A    between atoms: N1_5  and  C2_6 
REMARK    3  A    between atoms: N2_13  and  N3_14 
REMARK    4  A    between atoms: C10_16  and  C11_17 
ROOT
HETATM    1  C2  UNL     1       3.640   0.106   0.857  1.00  0.00     0.043 A 
HETATM    2  C3  UNL     1       3.777  -1.259   0.717  1.00  0.00     0.033 A 
HETATM    3  C4  UNL     1       2.746  -2.088   0.269  1.00  0.00     0.040 A 
HETATM    4  C5  UNL     1       1.535  -1.491  -0.045  1.00  0.00     0.086 A 
HETATM    5  C6  UNL     1       1.337  -0.110   0.078  1.00  0.00    -0.003 A 
HETATM    6  C7  UNL     1       2.410   0.643   0.529  1.00  0.00     0.041 A 
HETATM    7  C8  UNL     1       0.266   0.859  -0.139  1.00  0.00     0.184 C 
HETATM    8  N2  UNL     1      -1.035   0.339  -0.360  1.00  0.00    -0.306 N 
HETATM    9  C9  UNL     1      -1.569  -0.970  -0.204  1.00  0.00     0.107 A 
HETATM   10  C10 UNL     1      -2.859  -1.142   0.027  1.00  0.00     0.004 A 
HETATM   11  C17 UNL     1      -3.051  -2.630   0.135  1.00  0.00     0.193 A 
HETATM   12  N4  UNL     1      -1.721  -3.156  -0.066  1.00  0.00    -0.260 NA
HETATM   13  C18 UNL     1      -0.857  -2.244  -0.261  1.00  0.00     0.194 A 
HETATM   14  O3  UNL     1       0.530  -2.376  -0.492  1.00  0.00    -0.290 OA
ENDROOT
BRANCH  10  15
HETATM   15  C11 UNL     1      -3.992  -0.242   0.184  1.00  0.00    -0.025 A 
HETATM   16  C12 UNL     1      -5.129  -0.560  -0.570  1.00  0.00     0.012 A 
HETATM   17  C13 UNL     1      -6.307   0.132  -0.567  1.00  0.00     0.002 A 
HETATM   18  C14 UNL     1      -6.393   1.239   0.245  1.00  0.00     0.019 A 
HETATM   19  C15 UNL     1      -5.282   1.593   1.017  1.00  0.00     0.011 A 
HETATM   20 BR1  UNL     1      -5.350   3.127   2.165  1.00  0.00    -0.051 Br
HETATM   21  C16 UNL     1      -4.110   0.875   0.991  1.00  0.00     0.031 A 
ENDBRANCH  10  15
BRANCH   8  22
HETATM   22  N3  UNL     1      -2.006   1.264  -0.835  1.00  0.00    -0.247 NA
HETATM   23  H10 UNL     1      -1.882   2.194  -0.372  1.00  0.00     0.143 HD
HETATM   24  H11 UNL     1      -2.034   1.330  -1.861  1.00  0.00     0.143 HD
ENDBRANCH   8  22
BRANCH   1  25
HETATM   25  N1  UNL     1       4.757   0.808   1.320  1.00  0.00    -0.285 N 
HETATM   26  H4  UNL     1       4.414   1.478   2.067  1.00  0.00     0.178 HD
BRANCH  25  27
HETATM   27  S1  UNL     1       6.405   0.744   0.898  1.00  0.00     0.227 S 
HETATM   28  C1  UNL     1       6.650   1.182  -0.824  1.00  0.00     0.186 C 
HETATM   29  O1  UNL     1       7.027  -0.601   1.189  1.00  0.00    -0.206 OA
HETATM   30  O2  UNL     1       7.183   1.738   1.712  1.00  0.00    -0.206 OA
ENDBRANCH  25  27
ENDBRANCH   1  25
TORSDOF 4
