REMARK  5 active torsions:
REMARK  status: ('A' for Active; 'I' for Inactive)
REMARK    1  A    between atoms: C2_2  and  C4_4 
REMARK    2  A    between atoms: C6_6  and  C7_7 
REMARK    3  A    between atoms: C7_7  and  C8_8 
REMARK    4  A    between atoms: C17_19  and  C18_20 
REMARK    5  A    between atoms: C21_23  and  N2_24 
ROOT
HETATM    1  C4  UNL     1      -1.986   1.147   0.001  1.00  0.00    -0.027 A 
HETATM    2  C5  UNL     1      -0.624   1.135  -0.214  1.00  0.00     0.021 A 
HETATM    3  C6  UNL     1       0.195   0.010  -0.397  1.00  0.00    -0.034 A 
HETATM    4  C16 UNL     1      -0.496  -1.185  -0.348  1.00  0.00     0.021 A 
HETATM    5  C17 UNL     1      -1.855  -1.261  -0.138  1.00  0.00    -0.027 A 
HETATM    6  C21 UNL     1      -2.578  -0.100   0.033  1.00  0.00     0.039 A 
ENDROOT
BRANCH   3   7
HETATM    7  C7  UNL     1       1.612   0.240  -0.621  1.00  0.00     0.029 C 
BRANCH   7   8
HETATM    8  C8  UNL     1       2.671  -0.300  -0.103  1.00  0.00     0.045 A 
HETATM    9  C9  UNL     1       2.822  -1.341   0.899  1.00  0.00     0.257 A 
HETATM   10  O1  UNL     1       1.913  -1.961   1.497  1.00  0.00    -0.267 OA
HETATM   11  N1  UNL     1       4.193  -1.613   1.163  1.00  0.00    -0.322 N 
HETATM   12  C10 UNL     1       4.894  -0.726   0.309  1.00  0.00     0.046 A 
HETATM   13  H10 UNL     1       4.589  -2.315   1.842  1.00  0.00     0.169 HD
HETATM   14  C11 UNL     1       6.252  -0.550   0.145  1.00  0.00     0.030 A 
HETATM   15  C15 UNL     1       4.035   0.045  -0.434  1.00  0.00     0.006 A 
HETATM   16  C12 UNL     1       6.780   0.378  -0.744  1.00  0.00     0.002 A 
HETATM   17  C13 UNL     1       5.935   1.164  -1.502  1.00  0.00     0.001 A 
HETATM   18  C14 UNL     1       4.568   0.982  -1.332  1.00  0.00     0.015 A 
ENDBRANCH   7   8
ENDBRANCH   3   7
BRANCH   1  19
HETATM   19  C2  UNL     1      -2.711   2.422   0.188  1.00  0.00     0.013 C 
HETATM   20  C1  UNL     1      -2.536   2.982   1.593  1.00  0.00     0.015 C 
HETATM   21  C3  UNL     1      -2.210   3.436  -0.799  1.00  0.00     0.015 C 
ENDBRANCH   1  19
BRANCH   5  22
HETATM   22  C18 UNL     1      -2.528  -2.564  -0.102  1.00  0.00     0.013 C 
HETATM   23  C19 UNL     1      -3.045  -3.030  -1.441  1.00  0.00     0.015 C 
HETATM   24  C20 UNL     1      -3.622  -2.640   0.962  1.00  0.00     0.015 C 
ENDBRANCH   5  22
BRANCH   6  25
HETATM   25  N2  UNL     1      -3.989  -0.079   0.258  1.00  0.00    -0.398 N 
HETATM   26  H23 UNL     1      -4.370  -0.003   1.228  1.00  0.00     0.156 HD
HETATM   27  H24 UNL     1      -4.362  -0.155  -0.703  1.00  0.00     0.156 HD
ENDBRANCH   6  25
TORSDOF 5
