REMARK  4 active torsions:
REMARK  status: ('A' for Active; 'I' for Inactive)
REMARK    1  A    between atoms: C3_3  and  O1_4 
REMARK    2  A    between atoms: C4_5  and  C5_6 
REMARK    3  A    between atoms: C9_10  and  C10_11 
REMARK    4  A    between atoms: C10_11  and  C11_12 
ROOT
HETATM    1  C10 UNL     1       0.653  -0.099  -0.275  1.00  0.00     0.004 C 
ENDROOT
BRANCH   1   2
HETATM    2  C9  UNL     1      -0.501  -0.316  -1.150  1.00  0.00     0.064 A 
HETATM    3  C2  UNL     1      -1.161   0.995  -1.487  1.00  0.00    -0.039 A 
HETATM    4  C1  UNL     1      -0.485   2.077  -2.266  1.00  0.00     0.047 C 
HETATM    5  C3  UNL     1      -2.382   0.984  -0.980  1.00  0.00     0.075 A 
HETATM    6  C4  UNL     1      -2.667  -0.253  -0.289  1.00  0.00    -0.024 A 
HETATM    7  C8  UNL     1      -1.564  -0.990  -0.400  1.00  0.00    -0.004 A 
BRANCH   5   8
HETATM    8  O1  UNL     1      -3.179   2.096  -1.168  1.00  0.00    -0.360 OA
HETATM    9  H4  UNL     1      -3.127   2.926  -0.588  1.00  0.00     0.217 HD
ENDBRANCH   5   8
BRANCH   6  10
HETATM   10  C5  UNL     1      -3.960  -0.528   0.370  1.00  0.00     0.013 C 
HETATM   11  C6  UNL     1      -4.314   0.416   1.463  1.00  0.00     0.015 C 
HETATM   12  C7  UNL     1      -3.885  -1.927   0.988  1.00  0.00     0.015 C 
ENDBRANCH   6  10
ENDBRANCH   1   2
BRANCH   1  13
HETATM   13  C11 UNL     1       1.898  -0.405  -0.503  1.00  0.00     0.042 A 
HETATM   14  C12 UNL     1       2.466  -1.033  -1.664  1.00  0.00     0.256 A 
HETATM   15  O2  UNL     1       1.898  -1.423  -2.706  1.00  0.00    -0.267 OA
HETATM   16  N1  UNL     1       3.869  -1.163  -1.453  1.00  0.00    -0.322 N 
HETATM   17  C13 UNL     1       4.165  -0.616  -0.166  1.00  0.00     0.046 A 
HETATM   18  H15 UNL     1       4.601  -1.578  -2.096  1.00  0.00     0.169 HD
HETATM   19  C14 UNL     1       5.333  -0.471   0.557  1.00  0.00     0.030 A 
HETATM   20  C18 UNL     1       2.998  -0.170   0.390  1.00  0.00     0.006 A 
HETATM   21  C15 UNL     1       5.379   0.100   1.808  1.00  0.00     0.002 A 
HETATM   22  C16 UNL     1       4.201   0.562   2.398  1.00  0.00     0.001 A 
HETATM   23  C17 UNL     1       3.049   0.404   1.652  1.00  0.00     0.014 A 
ENDBRANCH   1  13
TORSDOF 4
