REMARK  7 active torsions:
REMARK  status: ('A' for Active; 'I' for Inactive)
REMARK    1  A    between atoms: C2_2  and  C4_4 
REMARK    2  A    between atoms: C4_4  and  C5_5 
REMARK    3  A    between atoms: C6_6  and  S1_7 
REMARK    4  A    between atoms: C8_9  and  C9_10 
REMARK    5  A    between atoms: C9_10  and  C11_12 
REMARK    6  A    between atoms: C11_12  and  C12_13 
REMARK    7  A    between atoms: C21_24  and  O2_25 
ROOT
HETATM    1  C9  UNL     1       0.354   0.459  -1.153  1.00  0.00     0.017 C 
HETATM    2  C10 UNL     1       0.845  -0.921  -1.484  1.00  0.00     0.015 C 
ENDROOT
BRANCH   1   3
HETATM    3  C8  UNL     1      -1.102   0.532  -0.979  1.00  0.00    -0.042 A 
HETATM    4  C7  UNL     1      -2.094   1.132  -1.598  1.00  0.00     0.024 A 
HETATM    5  C6  UNL     1      -3.371   0.823  -0.947  1.00  0.00     0.003 A 
HETATM    6  C5  UNL     1      -3.142   0.015   0.090  1.00  0.00    -0.030 A 
HETATM    7  C21 UNL     1      -1.653  -0.240   0.155  1.00  0.00     0.178 A 
BRANCH   5   8
HETATM    8  S1  UNL     1      -4.806   1.583  -1.697  1.00  0.00    -0.143 SA
HETATM    9  H10 UNL     1      -4.610   2.992  -1.587  1.00  0.00     0.107 HD
ENDBRANCH   5   8
BRANCH   6  10
HETATM   10  C4  UNL     1      -3.941  -0.619   1.087  1.00  0.00     0.042 C 
BRANCH  10  11
HETATM   11  C2  UNL     1      -5.404  -0.437   1.125  1.00  0.00    -0.019 C 
HETATM   12  C1  UNL     1      -5.862   0.990   1.301  1.00  0.00     0.010 C 
HETATM   13  C3  UNL     1      -6.137  -1.136  -0.004  1.00  0.00     0.010 C 
ENDBRANCH  10  11
ENDBRANCH   6  10
BRANCH   7  14
HETATM   14  O2  UNL     1      -1.384  -1.587  -0.055  1.00  0.00    -0.387 OA
HETATM   15  H25 UNL     1      -1.685  -2.067   0.763  1.00  0.00     0.210 HD
ENDBRANCH   7  14
ENDBRANCH   1   3
BRANCH   1  16
HETATM   16  C11 UNL     1       1.141   0.965   0.038  1.00  0.00     0.037 C 
BRANCH  16  17
HETATM   17  C12 UNL     1       2.589   0.847  -0.242  1.00  0.00    -0.008 C 
HETATM   18  C13 UNL     1       3.538   0.175   0.380  1.00  0.00     0.041 A 
HETATM   19  C14 UNL     1       3.353  -0.655   1.560  1.00  0.00     0.256 A 
HETATM   20  C20 UNL     1       4.915   0.198  -0.068  1.00  0.00     0.006 A 
HETATM   21  O1  UNL     1       2.324  -0.915   2.224  1.00  0.00    -0.267 OA
HETATM   22  N1  UNL     1       4.686  -1.142   1.815  1.00  0.00    -0.322 N 
HETATM   23  C15 UNL     1       5.587  -0.617   0.830  1.00  0.00     0.046 A 
HETATM   24  H19 UNL     1       4.986  -1.786   2.596  1.00  0.00     0.169 HD
HETATM   25  C16 UNL     1       6.944  -0.798   0.664  1.00  0.00     0.030 A 
HETATM   26  C17 UNL     1       7.621  -0.177  -0.381  1.00  0.00     0.002 A 
HETATM   27  C18 UNL     1       6.922   0.637  -1.271  1.00  0.00     0.001 A 
HETATM   28  C19 UNL     1       5.576   0.814  -1.102  1.00  0.00     0.014 A 
ENDBRANCH  16  17
ENDBRANCH   1  16
TORSDOF 7
