REMARK  3 active torsions:
REMARK  status: ('A' for Active; 'I' for Inactive)
REMARK    1  A    between atoms: C2_2  and  C4_4 
REMARK    2  A    between atoms: C5_5  and  O1_6 
REMARK    3  A    between atoms: C6_7  and  C7_8 
ROOT
HETATM    1  C4  UNL     1      -1.829  -1.026   0.503  1.00  0.00    -0.043 C 
HETATM    2  C5  UNL     1      -2.200   0.150   1.012  1.00  0.00     0.051 C 
HETATM    3  C6  UNL     1      -1.281   1.261   0.802  1.00  0.00     0.050 C 
HETATM    4  C10 UNL     1       0.169   0.899   0.901  1.00  0.00     0.048 C 
HETATM    5  C11 UNL     1       0.509  -0.374   0.262  1.00  0.00    -0.050 C 
HETATM    6  C12 UNL     1       1.776  -0.730   0.132  1.00  0.00     0.043 C 
HETATM    7  N1  UNL     1       2.197  -1.974  -0.489  1.00  0.00    -0.310 N 
HETATM    8  C13 UNL     1       3.510  -1.787  -1.070  1.00  0.00     0.327 C 
HETATM    9  O2  UNL     1       4.208  -2.656  -1.702  1.00  0.00    -0.246 OA
HETATM   10  N2  UNL     1       3.894  -0.417  -0.804  1.00  0.00    -0.296 N 
HETATM   11  C14 UNL     1       4.718   0.496  -1.515  1.00  0.00     0.097 A 
HETATM   12  C15 UNL     1       4.758   1.732  -0.986  1.00  0.00     0.017 A 
HETATM   13  C16 UNL     1       4.004   2.045   0.223  1.00  0.00    -0.000 A 
HETATM   14  C17 UNL     1       3.258   1.139   0.865  1.00  0.00     0.005 A 
HETATM   15  C18 UNL     1       3.122  -0.251   0.435  1.00  0.00     0.167 A 
HETATM   16  C19 UNL     1      -0.582  -1.251  -0.233  1.00  0.00     0.073 C 
HETATM   17  H19 UNL     1       1.673  -2.909  -0.548  1.00  0.00     0.170 HD
ENDROOT
BRANCH   3  18
HETATM   18  C7  UNL     1      -1.501   1.970  -0.531  1.00  0.00    -0.012 C 
HETATM   19  C8  UNL     1      -0.527   3.106  -0.696  1.00  0.00     0.010 C 
HETATM   20  C9  UNL     1      -2.898   2.509  -0.634  1.00  0.00     0.010 C 
ENDBRANCH   3  18
BRANCH   1  21
HETATM   21  C2  UNL     1      -2.735  -2.191   0.691  1.00  0.00     0.009 C 
HETATM   22  C1  UNL     1      -3.109  -2.670  -0.695  1.00  0.00     0.014 C 
HETATM   23  C3  UNL     1      -2.118  -3.327   1.439  1.00  0.00     0.014 C 
ENDBRANCH   1  21
BRANCH   2  24
HETATM   24  O1  UNL     1      -3.400   0.332   1.711  1.00  0.00    -0.364 OA
HETATM   25  H8  UNL     1      -4.291   0.059   1.342  1.00  0.00     0.217 HD
ENDBRANCH   2  24
TORSDOF 3
