REMARK  6 active torsions:
REMARK  status: ('A' for Active; 'I' for Inactive)
REMARK    1  A    between atoms: S1_2  and  C2_3 
REMARK    2  A    between atoms: C2_3  and  C3_4 
REMARK    3  A    between atoms: C5_6  and  C6_7 
REMARK    4  A    between atoms: C16_18  and  C17_19 
REMARK    5  A    between atoms: C17_19  and  S2_20 
REMARK    6  A    between atoms: C19_22  and  O1_23 
ROOT
HETATM    1  C3  UNL     1      -2.314  -0.488   0.453  1.00  0.00    -0.014 A 
HETATM    2  C4  UNL     1      -1.111  -0.993   0.096  1.00  0.00     0.022 A 
HETATM    3  C5  UNL     1      -0.075  -0.099  -0.216  1.00  0.00    -0.034 A 
HETATM    4  C15 UNL     1      -0.398   1.238  -0.123  1.00  0.00     0.022 A 
HETATM    5  C16 UNL     1      -1.621   1.783   0.241  1.00  0.00    -0.014 A 
HETATM    6  C19 UNL     1      -2.606   0.871   0.538  1.00  0.00     0.079 A 
ENDROOT
BRANCH   3   7
HETATM    7  C6  UNL     1       1.223  -0.626  -0.601  1.00  0.00     0.021 C 
HETATM    8  C7  UNL     1       2.368  -0.076  -0.240  1.00  0.00    -0.027 C 
HETATM    9  C8  UNL     1       2.703   1.102   0.569  1.00  0.00     0.159 C 
HETATM   10  C14 UNL     1       3.683  -0.613  -0.643  1.00  0.00    -0.002 A 
HETATM   11  N1  UNL     1       4.016   0.732   1.122  1.00  0.00    -0.385 N 
HETATM   12  C9  UNL     1       4.665  -0.108   0.198  1.00  0.00     0.039 A 
HETATM   13  H10 UNL     1       4.413   1.040   2.057  1.00  0.00     0.160 HD
HETATM   14  C10 UNL     1       5.994  -0.444   0.050  1.00  0.00     0.030 A 
HETATM   15  C11 UNL     1       6.294  -1.324  -0.996  1.00  0.00     0.002 A 
HETATM   16  C12 UNL     1       5.370  -1.855  -1.858  1.00  0.00     0.001 A 
HETATM   17  C13 UNL     1       4.070  -1.475  -1.648  1.00  0.00     0.014 A 
ENDBRANCH   3   7
BRANCH   1  18
HETATM   18  C2  UNL     1      -3.378  -1.475   0.783  1.00  0.00     0.114 C 
BRANCH  18  19
HETATM   19  S1  UNL     1      -2.834  -3.174   0.619  1.00  0.00    -0.169 SA
HETATM   20  C1  UNL     1      -4.230  -4.255   1.061  1.00  0.00     0.090 C 
ENDBRANCH  18  19
ENDBRANCH   1  18
BRANCH   5  21
HETATM   21  C17 UNL     1      -1.701   3.251   0.253  1.00  0.00     0.114 C 
BRANCH  21  22
HETATM   22  S2  UNL     1      -2.485   3.916  -1.201  1.00  0.00    -0.169 SA
HETATM   23  C18 UNL     1      -4.228   3.497  -1.277  1.00  0.00     0.090 C 
ENDBRANCH  21  22
ENDBRANCH   5  21
BRANCH   6  24
HETATM   24  O1  UNL     1      -3.844   1.363   0.907  1.00  0.00    -0.360 OA
HETATM   25  H21 UNL     1      -4.312   0.953   1.720  1.00  0.00     0.217 HD
ENDBRANCH   6  24
TORSDOF 6
