REMARK  4 active torsions:
REMARK  status: ('A' for Active; 'I' for Inactive)
REMARK    1  A    between atoms: C3_3  and  C4_4 
REMARK    2  A    between atoms: C12_12  and  S1_13 
REMARK    3  A    between atoms: S1_13  and  C13_14 
REMARK    4  A    between atoms: C13_14  and  S2_15 
ROOT
HETATM    1  C4  UNL     1       1.757  -0.269   0.232  1.00  0.00    -0.061 C 
HETATM    2  C5  UNL     1       1.633  -1.360   1.083  1.00  0.00    -0.015 C 
HETATM    3  C6  UNL     1       0.281  -2.082   1.558  1.00  0.00     0.062 C 
HETATM    4  C7  UNL     1      -0.360  -0.952   0.976  1.00  0.00    -0.066 C 
HETATM    5  C8  UNL     1      -0.737  -1.756  -0.062  1.00  0.00    -0.004 C 
HETATM    6  C9  UNL     1      -0.698  -1.763  -1.609  1.00  0.00     0.099 C 
HETATM    7  C10 UNL     1      -2.129  -1.166  -1.314  1.00  0.00     0.012 C 
HETATM    8  C11 UNL     1      -2.532   0.093  -1.354  1.00  0.00     0.014 C 
HETATM    9  C12 UNL     1      -1.548   1.233  -1.055  1.00  0.00     0.077 C 
HETATM   10  C14 UNL     1      -0.436   1.134  -0.131  1.00  0.00     0.011 C 
HETATM   11  C15 UNL     1       0.952   0.747  -0.463  1.00  0.00     0.044 C 
HETATM   12  C16 UNL     1      -0.588   0.523   1.174  1.00  0.00     0.041 C 
HETATM   13  N1  UNL     1      -2.726  -2.415  -0.762  1.00  0.00    -0.344 N 
HETATM   14  C17 UNL     1      -1.665  -2.926   0.237  1.00  0.00     0.127 C 
HETATM   15  N2  UNL     1      -1.178  -3.665   1.109  1.00  0.00    -0.283 NA
HETATM   16  H21 UNL     1      -3.647  -2.662  -1.052  1.00  0.00     0.167 HD
HETATM   17  H22 UNL     1      -1.569  -4.516   1.508  1.00  0.00     0.188 HD
ENDROOT
BRANCH   9  18
HETATM   18  S1  UNL     1      -2.530   2.693  -1.055  1.00  0.00    -0.150 SA
BRANCH  18  19
HETATM   19  C13 UNL     1      -3.734   2.949   0.200  1.00  0.00     0.145 C 
BRANCH  19  20
HETATM   20  S2  UNL     1      -2.977   3.253   1.815  1.00  0.00    -0.172 SA
HETATM   21  H15 UNL     1      -1.757   3.947   1.571  1.00  0.00     0.102 HD
ENDBRANCH  19  20
ENDBRANCH  18  19
ENDBRANCH   9  18
BRANCH   1  22
HETATM   22  C3  UNL     1       3.224  -0.073  -0.080  1.00  0.00     0.002 C 
HETATM   23  C2  UNL     1       3.671   0.865  -0.852  1.00  0.00    -0.030 C 
HETATM   24  C1  UNL     1       5.126   1.052  -1.156  1.00  0.00     0.036 C 
ENDBRANCH   1  22
TORSDOF 4
