REMARK  5 active torsions:
REMARK  status: ('A' for Active; 'I' for Inactive)
REMARK    1  A    between atoms: S1_3  and  C3_4 
REMARK    2  A    between atoms: C5_6  and  C6_7 
REMARK    3  A    between atoms: C15_18  and  C16_19 
REMARK    4  A    between atoms: C16_19  and  S2_20 
REMARK    5  A    between atoms: S2_20  and  C17_21 
ROOT
HETATM    1  C3  UNL     1      -0.832  -1.869   0.247  1.00  0.00    -0.018 C 
HETATM    2  C4  UNL     1       0.059  -0.986  -0.178  1.00  0.00     0.025 C 
HETATM    3  C5  UNL     1       0.439   0.367   0.207  1.00  0.00    -0.035 C 
HETATM    4  C14 UNL     1      -0.519   1.066   0.845  1.00  0.00     0.017 C 
HETATM    5  C15 UNL     1      -1.912   0.853   1.292  1.00  0.00     0.154 C 
HETATM    6  O2  UNL     1      -2.458  -0.359   0.970  1.00  0.00    -0.376 OA
HETATM    7  C19 UNL     1      -1.731  -1.469   1.397  1.00  0.00     0.212 C 
ENDROOT
BRANCH   3   8
HETATM    8  C6  UNL     1       1.719   0.966  -0.060  1.00  0.00     0.029 C 
HETATM    9  C7  UNL     1       2.899   0.830  -0.560  1.00  0.00     0.041 C 
HETATM   10  C8  UNL     1       3.531  -0.341  -1.232  1.00  0.00     0.253 C 
HETATM   11  C13 UNL     1       3.995   1.822  -0.655  1.00  0.00    -0.016 A 
HETATM   12  O1  UNL     1       3.086  -1.518  -1.468  1.00  0.00    -0.268 OA
HETATM   13  N1  UNL     1       4.878  -0.033  -1.669  1.00  0.00    -0.345 N 
HETATM   14  C9  UNL     1       5.184   0.886  -0.646  1.00  0.00     0.142 A 
HETATM   15  H6  UNL     1       5.366  -0.432  -2.502  1.00  0.00     0.163 HD
HETATM   16  C10 UNL     1       6.281   1.829  -0.765  1.00  0.00     0.003 A 
HETATM   17  C11 UNL     1       5.773   3.073  -0.802  1.00  0.00    -0.001 A 
HETATM   18  C12 UNL     1       4.296   3.105  -0.727  1.00  0.00     0.010 A 
ENDBRANCH   3   8
BRANCH   1  19
HETATM   19  S1  UNL     1      -0.851  -3.440  -0.642  1.00  0.00    -0.223 SA
HETATM   20  C2  UNL     1      -2.103  -4.497   0.031  1.00  0.00     0.006 A 
HETATM   21  C1  UNL     1      -0.993  -5.222  -0.095  1.00  0.00     0.200 A 
ENDBRANCH   1  19
BRANCH   5  22
HETATM   22  C16 UNL     1      -2.779   1.936   0.639  1.00  0.00     0.110 C 
BRANCH  22  23
HETATM   23  S2  UNL     1      -4.507   1.813   1.083  1.00  0.00    -0.167 SA
BRANCH  23  24
HETATM   24  C17 UNL     1      -5.304   0.327   0.435  1.00  0.00     0.069 C 
HETATM   25  C18 UNL     1      -5.380   0.357  -1.081  1.00  0.00     0.016 C 
ENDBRANCH  23  24
ENDBRANCH  22  23
ENDBRANCH   5  22
TORSDOF 5
