REMARK  6 active torsions:
REMARK  status: ('A' for Active; 'I' for Inactive)
REMARK    1  A    between atoms: S1_2  and  C2_3 
REMARK    2  A    between atoms: C2_3  and  C3_4 
REMARK    3  A    between atoms: C5_6  and  C6_7 
REMARK    4  A    between atoms: C17_19  and  S2_20 
REMARK    5  A    between atoms: S2_20  and  C18_21 
REMARK    6  A    between atoms: C19_23  and  O2_24 
ROOT
HETATM    1  C3  UNL     1       2.930   1.012  -0.816  1.00  0.00    -0.014 A 
HETATM    2  C4  UNL     1       1.641   1.462  -0.966  1.00  0.00     0.022 A 
HETATM    3  C5  UNL     1       0.531   0.611  -1.064  1.00  0.00    -0.034 A 
HETATM    4  C16 UNL     1       0.844  -0.735  -0.997  1.00  0.00     0.033 A 
HETATM    5  C17 UNL     1       2.115  -1.233  -0.849  1.00  0.00     0.042 A 
HETATM    6  C19 UNL     1       3.144  -0.347  -0.760  1.00  0.00     0.089 A 
ENDROOT
BRANCH   3   7
HETATM    7  C6  UNL     1      -0.828   1.089  -1.240  1.00  0.00     0.021 C 
HETATM    8  C7  UNL     1      -1.987   0.862  -0.711  1.00  0.00    -0.023 C 
HETATM    9  C8  UNL     1      -2.472  -0.008   0.346  1.00  0.00    -0.005 A 
HETATM   10  C14 UNL     1      -3.228   1.573  -1.191  1.00  0.00     0.112 C 
HETATM   11  C9  UNL     1      -1.811  -0.653   1.270  1.00  0.00    -0.012 A 
HETATM   12  C13 UNL     1      -3.925  -0.121   0.308  1.00  0.00     0.035 A 
HETATM   13  C10 UNL     1      -2.414  -1.520   2.306  1.00  0.00     0.032 A 
HETATM   14  C11 UNL     1      -3.900  -1.621   2.261  1.00  0.00     0.033 A 
HETATM   15  C12 UNL     1      -4.552  -0.862   1.191  1.00  0.00     0.004 A 
HETATM   16  N1  UNL     1      -4.307   0.696  -0.789  1.00  0.00    -0.381 N 
HETATM   17  H14 UNL     1      -5.236   0.679  -1.251  1.00  0.00     0.160 HD
HETATM   18  C15 UNL     1      -3.145   1.594  -2.719  1.00  0.00     0.037 C 
ENDBRANCH   3   7
BRANCH   1  19
HETATM   19  C2  UNL     1       4.011   2.056  -0.694  1.00  0.00     0.115 C 
BRANCH  19  20
HETATM   20  S1  UNL     1       4.474   2.315   1.022  1.00  0.00    -0.169 SA
HETATM   21  C1  UNL     1       5.235   0.878   1.766  1.00  0.00     0.090 C 
ENDBRANCH  19  20
ENDBRANCH   1  19
BRANCH   5  22
HETATM   22  S2  UNL     1       2.553  -2.959  -0.765  1.00  0.00    -0.059 SA
BRANCH  22  23
HETATM   23  C18 UNL     1       2.522  -3.447   0.953  1.00  0.00     0.309 C 
HETATM   24  O1  UNL     1       2.645  -3.608   2.178  1.00  0.00    -0.295 OA
ENDBRANCH  22  23
ENDBRANCH   5  22
BRANCH   6  25
HETATM   25  O2  UNL     1       4.461  -0.754  -0.611  1.00  0.00    -0.359 OA
HETATM   26  H21 UNL     1       5.084  -0.543  -1.381  1.00  0.00     0.217 HD
ENDBRANCH   6  25
TORSDOF 6
