REMARK  3 active torsions:
REMARK  status: ('A' for Active; 'I' for Inactive)
REMARK    1  A    between atoms: S1_2  and  C2_3 
REMARK    2  A    between atoms: C2_3  and  C3_4 
REMARK    3  A    between atoms: C8_10  and  C9_11 
ROOT
HETATM    1  C9  UNL     1       1.215  -0.114  -0.105  1.00  0.00     0.036 C 
HETATM    2  C10 UNL     1       2.458   0.082   0.247  1.00  0.00     0.046 A 
HETATM    3  C11 UNL     1       3.125   1.200   0.881  1.00  0.00     0.257 A 
HETATM    4  O1  UNL     1       2.651   2.298   1.260  1.00  0.00    -0.267 OA
HETATM    5  N1  UNL     1       4.513   0.993   1.089  1.00  0.00    -0.322 N 
HETATM    6  C12 UNL     1       4.721  -0.309   0.563  1.00  0.00     0.046 A 
HETATM    7  C13 UNL     1       5.885  -1.080   0.476  1.00  0.00     0.030 A 
HETATM    8  C14 UNL     1       5.933  -2.343  -0.067  1.00  0.00     0.002 A 
HETATM    9  C15 UNL     1       4.793  -2.908  -0.561  1.00  0.00     0.001 A 
HETATM   10  C16 UNL     1       3.647  -2.155  -0.478  1.00  0.00     0.015 A 
HETATM   11  C17 UNL     1       3.572  -0.870   0.069  1.00  0.00     0.006 A 
HETATM   12  H14 UNL     1       5.248   1.591   1.510  1.00  0.00     0.169 HD
ENDROOT
BRANCH   1  13
HETATM   13  C8  UNL     1       0.030   0.680  -0.011  1.00  0.00     0.002 C 
HETATM   14  S2  UNL     1       0.001   2.314   0.703  1.00  0.00    -0.130 SA
HETATM   15  C7  UNL     1      -1.409   2.665   1.701  1.00  0.00     0.083 C 
HETATM   16  C6  UNL     1      -2.584   1.785   1.659  1.00  0.00     0.045 C 
HETATM   17  C4  UNL     1      -3.054   1.281   0.376  1.00  0.00    -0.076 C 
HETATM   18  C3  UNL     1      -2.483   0.550  -0.602  1.00  0.00    -0.046 C 
HETATM   19  C5  UNL     1      -4.482   1.595  -0.004  1.00  0.00     0.044 C 
HETATM   20  C18 UNL     1      -1.091   0.100  -0.505  1.00  0.00     0.026 C 
BRANCH  18  21
HETATM   21  C2  UNL     1      -3.201   0.142  -1.847  1.00  0.00     0.112 C 
BRANCH  21  22
HETATM   22  S1  UNL     1      -3.245  -1.669  -1.967  1.00  0.00    -0.169 SA
HETATM   23  C1  UNL     1      -4.271  -2.359  -0.620  1.00  0.00     0.090 C 
ENDBRANCH  21  22
ENDBRANCH  18  21
ENDBRANCH   1  13
TORSDOF 3
