REMARK  5 active torsions:
REMARK  status: ('A' for Active; 'I' for Inactive)
REMARK    1  A    between atoms: C2_2  and  C3_4 
REMARK    2  A    between atoms: C4_5  and  C5_6 
REMARK    3  A    between atoms: N1_7  and  C6_8 
REMARK    4  A    between atoms: C13_18  and  N5_19 
REMARK    5  A    between atoms: N5_19  and  S1_20 
ROOT
HETATM    1  C6  UNL     1       2.860  -1.169  -1.226  1.00  0.00     0.181 A 
HETATM    2  N2  UNL     1       3.339  -2.199  -1.940  1.00  0.00    -0.220 NA
HETATM    3  C7  UNL     1       2.494  -3.064  -2.531  1.00  0.00     0.238 A 
HETATM    4  N3  UNL     1       1.139  -2.963  -2.452  1.00  0.00    -0.215 NA
HETATM    5  C8  UNL     1       0.594  -1.939  -1.742  1.00  0.00     0.202 A 
HETATM    6  C9  UNL     1       1.486  -1.068  -1.147  1.00  0.00     0.130 A 
HETATM    7  N4  UNL     1       1.140   0.069  -0.360  1.00  0.00    -0.379 N 
HETATM    8  C10 UNL     1      -0.040   0.919  -0.425  1.00  0.00     0.161 C 
HETATM    9  C11 UNL     1      -1.292   0.131  -0.438  1.00  0.00    -0.004 A 
HETATM   10  C12 UNL     1      -2.322   0.749   0.240  1.00  0.00     0.041 A 
HETATM   11  C13 UNL     1      -3.617   0.252   0.399  1.00  0.00     0.043 A 
HETATM   12  C15 UNL     1      -3.824  -0.973  -0.199  1.00  0.00     0.033 A 
HETATM   13  C16 UNL     1      -2.864  -1.652  -0.889  1.00  0.00     0.040 A 
HETATM   14  C17 UNL     1      -1.607  -1.088  -0.999  1.00  0.00     0.086 A 
HETATM   15  O3  UNL     1      -0.794  -1.940  -1.734  1.00  0.00    -0.289 OA
HETATM   16  H7  UNL     1       1.873   0.305   0.373  1.00  0.00     0.160 HD
ENDROOT
BRANCH   1  17
HETATM   17  N1  UNL     1       3.730  -0.245  -0.594  1.00  0.00    -0.239 NA
HETATM   18  C5  UNL     1       3.856   0.992  -0.944  1.00  0.00     0.119 C 
BRANCH  18  19
HETATM   19  C4  UNL     1       4.853   1.406   0.039  1.00  0.00     0.020 C 
HETATM   20  C3  UNL     1       5.324   0.554   0.922  1.00  0.00     0.016 C 
BRANCH  20  21
HETATM   21  C2  UNL     1       6.320   0.980   1.898  1.00  0.00    -0.011 C 
HETATM   22  C1  UNL     1       6.790   0.101   2.791  1.00  0.00     0.051 C 
HETATM   23 BR1  UNL     1       6.950   2.779   1.905  1.00  0.00    -0.056 Br
ENDBRANCH  20  21
ENDBRANCH  18  19
ENDBRANCH   1  17
BRANCH  11  24
HETATM   24  N5  UNL     1      -4.554   1.023   1.129  1.00  0.00    -0.285 N 
HETATM   25  H11 UNL     1      -4.151   1.403   2.025  1.00  0.00     0.178 HD
BRANCH  24  26
HETATM   26  S1  UNL     1      -6.194   1.394   0.741  1.00  0.00     0.227 S 
HETATM   27  C14 UNL     1      -7.099  -0.123   0.657  1.00  0.00     0.186 C 
HETATM   28  O1  UNL     1      -6.799   2.243   1.815  1.00  0.00    -0.206 OA
HETATM   29  O2  UNL     1      -6.283   2.154  -0.554  1.00  0.00    -0.206 OA
ENDBRANCH  24  26
ENDBRANCH  11  24
TORSDOF 5
