REMARK  10 active torsions:
REMARK  status: ('A' for Active; 'I' for Inactive)
REMARK    1  A    between atoms: S1_2  and  C2_3 
REMARK    2  A    between atoms: C2_3  and  C3_4 
REMARK    3  A    between atoms: C5_6  and  C6_7 
REMARK    4  A    between atoms: C7_8  and  C8_9 
REMARK    5  A    between atoms: C8_9  and  N1_10 
REMARK    6  A    between atoms: N1_10  and  N2_11 
REMARK    7  A    between atoms: C13_16  and  O1_17 
REMARK    8  A    between atoms: C15_19  and  C16_20 
REMARK    9  A    between atoms: C16_20  and  S2_21 
REMARK   10  A    between atoms: C18_23  and  O2_24 
ROOT
HETATM    1  C3  UNL     1       3.011  -1.138  -0.554  1.00  0.00    -0.014 A 
HETATM    2  C4  UNL     1       1.649  -0.910  -0.570  1.00  0.00     0.022 A 
HETATM    3  C5  UNL     1       1.204   0.345  -0.927  1.00  0.00    -0.035 A 
HETATM    4  C14 UNL     1       2.026   1.393  -1.270  1.00  0.00     0.022 A 
HETATM    5  C15 UNL     1       3.381   1.143  -1.248  1.00  0.00    -0.014 A 
HETATM    6  C18 UNL     1       3.869  -0.097  -0.897  1.00  0.00     0.079 A 
ENDROOT
BRANCH   3   7
HETATM    7  C6  UNL     1      -0.230   0.587  -0.947  1.00  0.00     0.008 C 
HETATM    8  C7  UNL     1      -1.262  -0.194  -0.679  1.00  0.00    -0.010 C 
BRANCH   8   9
HETATM    9  C8  UNL     1      -2.724   0.102  -0.714  1.00  0.00     0.138 C 
BRANCH   9  10
HETATM   10  N1  UNL     1      -3.280  -0.107   0.588  1.00  0.00    -0.233 NA
HETATM   11  H11 UNL     1      -3.023  -0.987   1.048  1.00  0.00     0.147 HD
BRANCH  10  12
HETATM   12  N2  UNL     1      -4.666   0.158   0.626  1.00  0.00    -0.292 N 
HETATM   13  C9  UNL     1      -5.170   1.485   0.571  1.00  0.00     0.107 A 
HETATM   14  C10 UNL     1      -6.475   1.714   0.608  1.00  0.00     0.018 A 
HETATM   15  C11 UNL     1      -7.392   0.601   0.704  1.00  0.00     0.002 A 
HETATM   16  C12 UNL     1      -6.954  -0.653   0.756  1.00  0.00     0.027 A 
HETATM   17  C13 UNL     1      -5.513  -1.011   0.722  1.00  0.00     0.259 A 
BRANCH  17  18
HETATM   18  O1  UNL     1      -5.318  -1.883  -0.338  1.00  0.00    -0.372 OA
HETATM   19  H17 UNL     1      -6.098  -2.518  -0.333  1.00  0.00     0.212 HD
ENDBRANCH  17  18
ENDBRANCH  10  12
ENDBRANCH   9  10
ENDBRANCH   8   9
ENDBRANCH   3   7
BRANCH   1  20
HETATM   20  C2  UNL     1       3.680  -2.399  -0.206  1.00  0.00     0.114 C 
BRANCH  20  21
HETATM   21  S1  UNL     1       4.413  -2.377   1.445  1.00  0.00    -0.169 SA
HETATM   22  C1  UNL     1       5.192  -3.990   1.735  1.00  0.00     0.090 C 
ENDBRANCH  20  21
ENDBRANCH   1  20
BRANCH   5  23
HETATM   23  C16 UNL     1       4.323   2.242  -1.606  1.00  0.00     0.114 C 
BRANCH  23  24
HETATM   24  S2  UNL     1       5.103   2.930  -0.109  1.00  0.00    -0.169 SA
HETATM   25  C17 UNL     1       3.886   3.757   0.926  1.00  0.00     0.090 C 
ENDBRANCH  23  24
ENDBRANCH   5  23
BRANCH   6  26
HETATM   26  O2  UNL     1       5.268  -0.256  -0.904  1.00  0.00    -0.360 OA
HETATM   27  H24 UNL     1       5.793  -0.092  -0.054  1.00  0.00     0.217 HD
ENDBRANCH   6  26
TORSDOF 10
