REMARK  6 active torsions:
REMARK  status: ('A' for Active; 'I' for Inactive)
REMARK    1  A    between atoms: S1_2  and  C2_3 
REMARK    2  A    between atoms: C2_3  and  C3_4 
REMARK    3  A    between atoms: C5_6  and  C6_7 
REMARK    4  A    between atoms: C16_18  and  C17_19 
REMARK    5  A    between atoms: C17_19  and  S2_20 
REMARK    6  A    between atoms: C19_22  and  O1_23 
ROOT
HETATM    1  C3  UNL     1      -1.858  -0.820   0.509  1.00  0.00    -0.014 A 
HETATM    2  C4  UNL     1      -0.505  -0.909   0.725  1.00  0.00     0.022 A 
HETATM    3  C5  UNL     1       0.237   0.130   0.227  1.00  0.00    -0.026 A 
HETATM    4  C15 UNL     1      -0.332   1.202  -0.449  1.00  0.00     0.022 A 
HETATM    5  C16 UNL     1      -1.698   1.259  -0.648  1.00  0.00    -0.014 A 
HETATM    6  C19 UNL     1      -2.474   0.216  -0.152  1.00  0.00     0.079 A 
ENDROOT
BRANCH   3   7
HETATM    7  C6  UNL     1       1.673   0.239   0.343  1.00  0.00    -0.023 C 
HETATM    8  C7  UNL     1       2.322  -0.895   0.220  1.00  0.00    -0.065 C 
HETATM    9  C8  UNL     1       2.056  -2.097  -0.663  1.00  0.00     0.061 C 
HETATM   10  C12 UNL     1       3.616  -1.099   1.004  1.00  0.00     0.063 C 
HETATM   11  C9  UNL     1       3.345  -2.078  -1.500  1.00  0.00    -0.024 C 
HETATM   12  C10 UNL     1       4.298  -1.121  -1.284  1.00  0.00    -0.006 C 
HETATM   13  C11 UNL     1       4.527  -0.320  -0.000  1.00  0.00     0.104 C 
HETATM   14  N1  UNL     1       3.972   0.973  -0.046  1.00  0.00    -0.406 N 
HETATM   15  C13 UNL     1       2.729   1.268   0.547  1.00  0.00     0.107 C 
HETATM   16  H14 UNL     1       4.628   1.732  -0.174  1.00  0.00     0.154 HD
HETATM   17  C14 UNL     1       2.872   1.734   1.957  1.00  0.00     0.037 C 
ENDBRANCH   3   7
BRANCH   1  18
HETATM   18  C2  UNL     1      -2.748  -1.896   1.010  1.00  0.00     0.114 C 
BRANCH  18  19
HETATM   19  S1  UNL     1      -3.210  -2.892  -0.443  1.00  0.00    -0.169 SA
HETATM   20  C1  UNL     1      -4.303  -4.250   0.025  1.00  0.00     0.090 C 
ENDBRANCH  18  19
ENDBRANCH   1  18
BRANCH   5  21
HETATM   21  C17 UNL     1      -2.419   2.357  -1.357  1.00  0.00     0.114 C 
BRANCH  21  22
HETATM   22  S2  UNL     1      -3.203   3.348  -0.032  1.00  0.00    -0.169 SA
HETATM   23  C18 UNL     1      -4.127   4.728  -0.758  1.00  0.00     0.090 C 
ENDBRANCH  21  22
ENDBRANCH   5  21
BRANCH   6  24
HETATM   24  O1  UNL     1      -3.858   0.239  -0.334  1.00  0.00    -0.360 OA
HETATM   25  H25 UNL     1      -4.317   0.147  -1.216  1.00  0.00     0.217 HD
ENDBRANCH   6  24
TORSDOF 6
