REMARK  7 active torsions:
REMARK  status: ('A' for Active; 'I' for Inactive)
REMARK    1  A    between atoms: S1_2  and  C2_3 
REMARK    2  A    between atoms: C2_3  and  C3_4 
REMARK    3  A    between atoms: C5_6  and  C6_7 
REMARK    4  A    between atoms: C11_12  and  O1_13 
REMARK    5  A    between atoms: C14_17  and  C15_18 
REMARK    6  A    between atoms: C15_18  and  S2_19 
REMARK    7  A    between atoms: C17_21  and  O2_22 
ROOT
HETATM    1  C3  UNL     1       1.149  -1.491  -0.633  1.00  0.00    -0.014 A 
HETATM    2  C4  UNL     1       0.144  -0.857   0.100  1.00  0.00     0.022 A 
HETATM    3  C5  UNL     1       0.119   0.543   0.142  1.00  0.00    -0.033 A 
HETATM    4  C13 UNL     1       1.053   1.308  -0.517  1.00  0.00     0.022 A 
HETATM    5  C14 UNL     1       2.036   0.684  -1.234  1.00  0.00    -0.014 A 
HETATM    6  C17 UNL     1       2.092  -0.707  -1.298  1.00  0.00     0.079 A 
ENDROOT
BRANCH   3   7
HETATM    7  C6  UNL     1      -0.940   1.161   0.882  1.00  0.00     0.047 C 
HETATM    8  C7  UNL     1      -2.257   0.793   0.876  1.00  0.00     0.164 A 
HETATM    9  C8  UNL     1      -3.711   1.013   1.380  1.00  0.00     0.240 A 
HETATM   10  N1  UNL     1      -3.396   0.007   0.368  1.00  0.00     0.015 N 
HETATM   11  C9  UNL     1      -4.579   2.008   1.101  1.00  0.00    -0.004 A 
HETATM   12  C12 UNL     1      -3.444  -0.514   1.786  1.00  0.00     0.301 A 
HETATM   13  C10 UNL     1      -4.910   1.605  -0.308  1.00  0.00     0.045 A 
HETATM   14  C11 UNL     1      -4.133   0.241  -0.860  1.00  0.00     0.356 A 
BRANCH  14  15
HETATM   15  O1  UNL     1      -5.116  -0.650  -1.130  1.00  0.00    -0.366 OA
HETATM   16  H10 UNL     1      -4.906  -1.582  -0.867  1.00  0.00     0.212 HD
ENDBRANCH  14  15
ENDBRANCH   3   7
BRANCH   1  17
HETATM   17  C2  UNL     1       1.279  -2.953  -0.774  1.00  0.00     0.114 C 
BRANCH  17  18
HETATM   18  S1  UNL     1       2.627  -3.634   0.191  1.00  0.00    -0.169 SA
HETATM   19  C1  UNL     1       2.384  -3.506   1.974  1.00  0.00     0.090 C 
ENDBRANCH  17  18
ENDBRANCH   1  17
BRANCH   5  20
HETATM   20  C15 UNL     1       3.014   1.530  -1.946  1.00  0.00     0.114 C 
BRANCH  20  21
HETATM   21  S2  UNL     1       2.741   3.285  -1.535  1.00  0.00    -0.169 SA
HETATM   22  C16 UNL     1       3.100   3.604   0.207  1.00  0.00     0.090 C 
ENDBRANCH  20  21
ENDBRANCH   5  20
BRANCH   6  23
HETATM   23  O2  UNL     1       3.107  -1.343  -2.039  1.00  0.00    -0.360 OA
HETATM   24  H19 UNL     1       3.471  -0.830  -2.829  1.00  0.00     0.217 HD
ENDBRANCH   6  23
TORSDOF 7
