REMARK  4 active torsions:
REMARK  status: ('A' for Active; 'I' for Inactive)
REMARK    1  A    between atoms: C7_7  and  C8_8 
REMARK    2  A    between atoms: C8_8  and  C9_9 
REMARK    3  A    between atoms: C10_10  and  C11_11 
REMARK    4  A    between atoms: C12_12  and  O1_13 
ROOT
HETATM    1  O1  UNL     1      -2.011   1.232   2.045  1.00  0.00    -0.239 OA
HETATM    2  C13 UNL     1      -2.138   0.601   3.241  1.00  0.00     0.234 C 
HETATM    3  N1  UNL     1      -2.234   0.070   4.265  1.00  0.00    -0.164 NA
ENDROOT
BRANCH   1   4
HETATM    4  C12 UNL     1      -2.382   0.642   0.834  1.00  0.00     0.111 A 
HETATM    5  C11 UNL     1      -1.858   0.295  -0.353  1.00  0.00     0.011 A 
HETATM    6  C19 UNL     1      -3.169  -0.208  -0.752  1.00  0.00    -0.010 A 
HETATM    7  C14 UNL     1      -3.727   0.149   0.480  1.00  0.00     0.011 A 
HETATM    8  C18 UNL     1      -3.985  -0.808  -1.705  1.00  0.00     0.013 A 
HETATM    9  C15 UNL     1      -5.079  -0.100   0.729  1.00  0.00     0.015 A 
HETATM   10  C16 UNL     1      -5.885  -0.695  -0.219  1.00  0.00     0.001 A 
HETATM   11  C17 UNL     1      -5.332  -1.046  -1.433  1.00  0.00     0.001 A 
BRANCH   5  12
HETATM   12  C10 UNL     1      -0.529   0.397  -0.948  1.00  0.00     0.011 C 
HETATM   13  C9  UNL     1       0.442   0.932  -0.254  1.00  0.00    -0.025 C 
BRANCH  13  14
HETATM   14  C8  UNL     1       1.820   1.073  -0.784  1.00  0.00     0.040 C 
BRANCH  14  15
HETATM   15  C7  UNL     1       2.745   0.306   0.117  1.00  0.00     0.041 C 
HETATM   16  C2  UNL     1       4.141   0.430  -0.394  1.00  0.00    -0.065 C 
HETATM   17  C1  UNL     1       4.891   1.715  -0.162  1.00  0.00     0.045 C 
HETATM   18  C3  UNL     1       4.712  -0.570  -1.040  1.00  0.00    -0.023 C 
HETATM   19  C4  UNL     1       4.531  -1.798  -0.585  1.00  0.00     0.012 C 
HETATM   20  C5  UNL     1       3.191  -2.137  -0.113  1.00  0.00    -0.002 C 
HETATM   21  C6  UNL     1       2.385  -1.134   0.205  1.00  0.00    -0.017 C 
ENDBRANCH  14  15
ENDBRANCH  13  14
ENDBRANCH   5  12
ENDBRANCH   1   4
TORSDOF 4
