REMARK  6 active torsions:
REMARK  status: ('A' for Active; 'I' for Inactive)
REMARK    1  A    between atoms: C2_2  and  C3_3 
REMARK    2  A    between atoms: C3_3  and  C4_4 
REMARK    3  A    between atoms: C4_4  and  C5_5 
REMARK    4  A    between atoms: C5_5  and  C6_6 
REMARK    5  A    between atoms: C8_8  and  C9_9 
REMARK    6  A    between atoms: C10_10  and  C12_13 
REMARK       I    between atoms: C12_13  and  N2_14 
ROOT
HETATM    1  C9  UNL     1      -2.551   1.563   0.138  1.00  0.00     0.039 C 
HETATM    2  C10 UNL     1      -3.666   2.173  -0.202  1.00  0.00     0.112 C 
HETATM    3  C11 UNL     1      -4.157   3.422   0.401  1.00  0.00     0.105 C 
HETATM    4  N1  UNL     1      -4.533   4.386   0.887  1.00  0.00    -0.191 NA
ENDROOT
BRANCH   2   5
HETATM    5  C12 UNL     1      -4.607   1.698  -1.248  1.00  0.00     0.260 C 
HETATM    6  N2  UNL     1      -5.020   0.778  -2.251  1.00  0.00    -0.365 N 
HETATM    7  H10 UNL     1      -5.640  -0.046  -2.024  1.00  0.00     0.159 HD
HETATM    8  H11 UNL     1      -4.717   0.874  -3.267  1.00  0.00     0.159 HD
HETATM    9  O1  UNL     1      -5.650   2.387  -1.478  1.00  0.00    -0.267 OA
ENDBRANCH   2   5
BRANCH   1  10
HETATM   10  C8  UNL     1      -1.575   0.465   0.003  1.00  0.00    -0.038 C 
HETATM   11  C7  UNL     1      -0.467   0.688   0.961  1.00  0.00     0.015 C 
HETATM   12  C6  UNL     1       0.701   0.185   1.389  1.00  0.00    -0.062 C 
HETATM   13  C18 UNL     1       0.764  -0.902   0.346  1.00  0.00     0.010 A 
HETATM   14  C17 UNL     1       1.389   0.017  -0.468  1.00  0.00    -0.031 A 
HETATM   15  C19 UNL     1       0.182  -1.765   1.200  1.00  0.00     0.035 A 
HETATM   16  C15 UNL     1       0.000  -1.838  -0.421  1.00  0.00    -0.004 A 
HETATM   17  C16 UNL     1       0.656  -0.888  -1.156  1.00  0.00     0.035 A 
HETATM   18  C20 UNL     1      -0.556  -2.681   0.509  1.00  0.00    -0.035 A 
HETATM   19  C14 UNL     1      -1.176  -1.733  -1.391  1.00  0.00     0.043 C 
HETATM   20  C13 UNL     1      -1.873  -0.452  -0.913  1.00  0.00    -0.014 C 
BRANCH  12  21
HETATM   21  C5  UNL     1       1.839   0.301   2.289  1.00  0.00     0.062 C 
BRANCH  21  22
HETATM   22  C4  UNL     1       3.101   0.152   1.559  1.00  0.00    -0.023 C 
BRANCH  22  23
HETATM   23  C3  UNL     1       4.318   0.413   1.054  1.00  0.00    -0.008 C 
BRANCH  23  24
HETATM   24  C2  UNL     1       5.022  -0.522   0.223  1.00  0.00    -0.027 C 
HETATM   25  C1  UNL     1       6.239  -0.301  -0.286  1.00  0.00     0.031 C 
ENDBRANCH  23  24
ENDBRANCH  22  23
ENDBRANCH  21  22
ENDBRANCH  12  21
ENDBRANCH   1  10
TORSDOF 6
