REMARK  7 active torsions:
REMARK  status: ('A' for Active; 'I' for Inactive)
REMARK    1  A    between atoms: C3_3  and  C4_4 
REMARK    2  A    between atoms: C3_3  and  C15_18 
REMARK    3  A    between atoms: C4_4  and  C5_5 
REMARK    4  A    between atoms: C5_5  and  C6_6 
REMARK    5  A    between atoms: C6_6  and  C7_7 
REMARK    6  A    between atoms: C11_11  and  C12_12 
REMARK    7  A    between atoms: C12_12  and  C14_15 
REMARK       I    between atoms: C14_15  and  N2_16 
ROOT
HETATM    1  C12 UNL     1       3.377   0.089   2.317  1.00  0.00     0.103 C 
HETATM    2  C13 UNL     1       2.284   0.388   3.284  1.00  0.00     0.026 C 
HETATM    3  N1  UNL     1       1.383   0.625   4.087  1.00  0.00    -0.096 N 
ENDROOT
BRANCH   1   4
HETATM    4  C11 UNL     1       2.746  -0.454   1.415  1.00  0.00    -0.005 A 
HETATM    5  C7  UNL     1       1.901  -1.058   0.456  1.00  0.00    -0.043 A 
HETATM    6  C8  UNL     1       2.362  -1.623  -0.648  1.00  0.00     0.008 A 
HETATM    7  C9  UNL     1       3.831  -1.445  -0.564  1.00  0.00     0.002 A 
HETATM    8  C10 UNL     1       4.056  -0.773   0.618  1.00  0.00     0.013 A 
BRANCH   5   9
HETATM    9  C6  UNL     1       0.565  -0.822   1.113  1.00  0.00     0.066 C 
BRANCH   9  10
HETATM   10  C5  UNL     1      -0.529  -1.334   0.315  1.00  0.00    -0.021 C 
BRANCH  10  11
HETATM   11  C4  UNL     1      -1.600  -1.440  -0.396  1.00  0.00     0.008 C 
BRANCH  11  12
HETATM   12  C3  UNL     1      -2.644  -0.553  -0.911  1.00  0.00    -0.030 C 
HETATM   13  C2  UNL     1      -3.609  -1.122  -1.603  1.00  0.00    -0.019 C 
HETATM   14  C1  UNL     1      -3.677  -2.595  -1.875  1.00  0.00     0.037 C 
BRANCH  12  15
HETATM   15  C15 UNL     1      -2.819   0.882  -0.766  1.00  0.00    -0.026 A 
HETATM   16  C16 UNL     1      -3.974   1.512  -1.049  1.00  0.00     0.012 A 
HETATM   17  C17 UNL     1      -4.165   2.884  -0.994  1.00  0.00     0.001 A 
HETATM   18  C18 UNL     1      -3.110   3.713  -0.617  1.00  0.00     0.000 A 
HETATM   19  C19 UNL     1      -1.930   3.134  -0.324  1.00  0.00     0.001 A 
HETATM   20  C20 UNL     1      -1.813   1.758  -0.403  1.00  0.00     0.012 A 
ENDBRANCH  12  15
ENDBRANCH  11  12
ENDBRANCH  10  11
ENDBRANCH   9  10
ENDBRANCH   5   9
ENDBRANCH   1   4
BRANCH   1  21
HETATM   21  C14 UNL     1       4.448   0.612   3.000  1.00  0.00     0.239 C 
HETATM   22  N2  UNL     1       5.687   0.475   2.269  1.00  0.00    -0.268 NA
HETATM   23  H12 UNL     1       6.598   0.606   1.722  1.00  0.00     0.127 HD
HETATM   24  H13 UNL     1       6.295   1.211   1.754  1.00  0.00     0.127 HD
HETATM   25  O1  UNL     1       5.137   1.115   3.776  1.00  0.00    -0.273 OA
ENDBRANCH   1  21
TORSDOF 7
