REMARK  7 active torsions:
REMARK  status: ('A' for Active; 'I' for Inactive)
REMARK    1  A    between atoms: C2_2  and  C3_3 
REMARK    2  A    between atoms: C4_4  and  C5_5 
REMARK    3  A    between atoms: C6_6  and  C7_7 
REMARK    4  A    between atoms: C9_9  and  C10_10 
REMARK       I    between atoms: N1_11  and  C11_12 
REMARK    5  A    between atoms: C11_12  and  C12_14 
REMARK    6  A    between atoms: C15_18  and  C16_19 
REMARK    7  A    between atoms: C22_25  and  O2_26 
ROOT
HETATM    1  C12 UNL     1      -3.802   4.364   0.654  1.00  0.00     0.228 C 
HETATM    2  C13 UNL     1      -4.320   5.652   1.151  1.00  0.00     0.068 C 
HETATM    3  N2  UNL     1      -4.726   6.660   1.559  1.00  0.00    -0.197 NA
ENDROOT
BRANCH   1   4
HETATM    4  C11 UNL     1      -2.719   3.894   1.556  1.00  0.00     0.255 C 
HETATM    5  N1  UNL     1      -2.244   2.645   1.079  1.00  0.00    -0.225 NA
HETATM    6  C10 UNL     1      -0.993   2.331   1.029  1.00  0.00     0.131 C 
HETATM    7  O1  UNL     1      -2.782   4.903   2.323  1.00  0.00    -0.270 OA
BRANCH   6   8
HETATM    8  C9  UNL     1      -0.655   1.011   0.516  1.00  0.00    -0.017 A 
HETATM    9  C8  UNL     1       0.663   0.623   0.441  1.00  0.00     0.027 A 
HETATM   10  C7  UNL     1       0.965  -0.605  -0.035  1.00  0.00    -0.001 A 
HETATM   11  C22 UNL     1       0.050  -1.534  -0.467  1.00  0.00     0.087 A 
HETATM   12  C15 UNL     1      -1.295  -1.145  -0.395  1.00  0.00     0.009 A 
HETATM   13  C14 UNL     1      -1.621   0.120   0.096  1.00  0.00     0.028 A 
BRANCH  10  14
HETATM   14  C6  UNL     1       2.286  -1.162  -0.176  1.00  0.00     0.014 C 
HETATM   15  C5  UNL     1       3.321  -0.453   0.148  1.00  0.00     0.001 C 
BRANCH  15  16
HETATM   16  C4  UNL     1       4.726  -0.240   0.303  1.00  0.00    -0.000 C 
HETATM   17  C3  UNL     1       5.849   0.364   0.590  1.00  0.00    -0.004 C 
BRANCH  17  18
HETATM   18  C2  UNL     1       7.112  -0.405   0.373  1.00  0.00    -0.026 C 
HETATM   19  C1  UNL     1       7.783   0.681   0.799  1.00  0.00     0.031 C 
ENDBRANCH  17  18
ENDBRANCH  15  16
ENDBRANCH  10  14
BRANCH  11  20
HETATM   20  O2  UNL     1       0.352  -2.809  -0.961  1.00  0.00    -0.359 OA
HETATM   21  H18 UNL     1       0.747  -2.963  -1.871  1.00  0.00     0.217 HD
ENDBRANCH  11  20
BRANCH  12  22
HETATM   22  C16 UNL     1      -2.377  -2.015  -0.821  1.00  0.00    -0.023 A 
HETATM   23  C17 UNL     1      -3.429  -2.067   0.084  1.00  0.00     0.012 A 
HETATM   24  C18 UNL     1      -4.517  -2.864  -0.225  1.00  0.00     0.001 A 
HETATM   25  C19 UNL     1      -4.490  -3.563  -1.422  1.00  0.00     0.000 A 
HETATM   26  C20 UNL     1      -3.447  -3.500  -2.300  1.00  0.00     0.001 A 
HETATM   27  C21 UNL     1      -2.334  -2.704  -2.016  1.00  0.00     0.012 A 
ENDBRANCH  12  22
ENDBRANCH   6   8
ENDBRANCH   1   4
TORSDOF 7
