REMARK  3 active torsions:
REMARK  status: ('A' for Active; 'I' for Inactive)
REMARK    1  A    between atoms: C2_3  and  C22_24 
REMARK    2  A    between atoms: C3_4  and  C4_5 
REMARK    3  A    between atoms: C13_14  and  O1_15 
ROOT
HETATM    1  N1  UNL     1       4.948   3.188   1.563  1.00  0.00    -0.191 NA
HETATM    2  C1  UNL     1       4.332   2.321   1.088  1.00  0.00     0.104 C 
HETATM    3  C2  UNL     1       3.549   1.252   0.477  1.00  0.00     0.108 C 
HETATM    4  C3  UNL     1       2.253   1.202   0.554  1.00  0.00     0.034 C 
ENDROOT
BRANCH   3   5
HETATM    5  C22 UNL     1       4.399   0.272  -0.220  1.00  0.00     0.324 A 
HETATM    6  N2  UNL     1       5.838   0.361  -0.276  1.00  0.00     0.102 N 
HETATM    7  H17 UNL     1       6.675   0.916   0.032  1.00  0.00     0.325 HD
HETATM    8  H18 UNL     1       6.377   1.129   0.181  1.00  0.00     0.325 HD
HETATM    9  O2  UNL     1       4.906  -0.681  -0.871  1.00  0.00    -0.125 OA
ENDBRANCH   3   5
BRANCH   4  10
HETATM   10  C4  UNL     1       1.162   0.343   0.105  1.00  0.00    -0.051 C 
HETATM   11  C5  UNL     1      -0.031   0.848   0.516  1.00  0.00     0.022 C 
HETATM   12  C6  UNL     1      -1.426   0.344   0.440  1.00  0.00     0.005 C 
HETATM   13  C7  UNL     1      -2.346   0.938   1.367  1.00  0.00    -0.024 A 
HETATM   14  C13 UNL     1      -2.028  -0.594  -0.328  1.00  0.00     0.065 C 
HETATM   15  C8  UNL     1      -2.244   2.334   1.395  1.00  0.00     0.012 A 
HETATM   16  C12 UNL     1      -3.251   0.374   2.213  1.00  0.00     0.012 A 
HETATM   17  C9  UNL     1      -3.023   3.119   2.242  1.00  0.00     0.001 A 
HETATM   18  C10 UNL     1      -3.933   2.503   3.089  1.00  0.00     0.000 A 
HETATM   19  C11 UNL     1      -4.037   1.117   3.063  1.00  0.00     0.001 A 
HETATM   20  C14 UNL     1      -1.502  -1.396  -1.330  1.00  0.00     0.089 C 
HETATM   21  C15 UNL     1      -1.967  -2.309  -2.257  1.00  0.00    -0.011 C 
HETATM   22  C20 UNL     1      -0.434  -2.198  -0.552  1.00  0.00    -0.004 C 
HETATM   23  C16 UNL     1      -1.136  -2.857  -3.209  1.00  0.00    -0.003 C 
HETATM   24  C17 UNL     1       0.345  -2.693  -3.434  1.00  0.00     0.000 C 
HETATM   25  C18 UNL     1       1.202  -2.266  -2.452  1.00  0.00     0.007 C 
HETATM   26  C19 UNL     1       0.710  -1.803  -1.105  1.00  0.00    -0.057 C 
HETATM   27  C21 UNL     1       1.728  -0.824  -0.647  1.00  0.00     0.076 C 
BRANCH  14  28
HETATM   28  O1  UNL     1      -3.356  -0.805  -0.109  1.00  0.00    -0.363 OA
HETATM   29  H8  UNL     1      -3.812  -1.727  -0.020  1.00  0.00     0.217 HD
ENDBRANCH  14  28
ENDBRANCH   4  10
TORSDOF 3
