REMARK  5 active torsions:
REMARK  status: ('A' for Active; 'I' for Inactive)
REMARK    1  A    between atoms: C2_3  and  C21_24 
REMARK    2  A    between atoms: C3_4  and  C4_5 
REMARK    3  A    between atoms: C6_7  and  C7_8 
REMARK    4  A    between atoms: C13_14  and  O1_15 
REMARK    5  A    between atoms: C14_16  and  C15_17 
REMARK       I    between atoms: C21_24  and  N2_25 
ROOT
HETATM    1  N1  UNL     1       4.111  -0.037  -1.738  1.00  0.00    -0.191 NA
HETATM    2  C1  UNL     1       3.952   0.461  -0.706  1.00  0.00     0.105 C 
HETATM    3  C2  UNL     1       3.760   1.101   0.563  1.00  0.00     0.112 C 
HETATM    4  C3  UNL     1       2.591   1.155   1.176  1.00  0.00     0.039 C 
ENDROOT
BRANCH   3   5
HETATM    5  C21 UNL     1       4.926   1.716   1.185  1.00  0.00     0.260 C 
HETATM    6  N2  UNL     1       4.622   2.315   2.428  1.00  0.00    -0.365 N 
HETATM    7  H14 UNL     1       4.349   3.256   2.749  1.00  0.00     0.159 HD
HETATM    8  H15 UNL     1       4.517   2.212   3.467  1.00  0.00     0.159 HD
HETATM    9  O2  UNL     1       6.065   1.705   0.661  1.00  0.00    -0.267 OA
ENDBRANCH   3   5
BRANCH   4  10
HETATM   10  C4  UNL     1       1.383   0.579   0.638  1.00  0.00    -0.033 A 
HETATM   11  C5  UNL     1       1.257  -0.633  -0.012  1.00  0.00     0.026 A 
HETATM   12  C6  UNL     1       0.028  -1.082  -0.502  1.00  0.00     0.009 A 
HETATM   13  C13 UNL     1      -1.091  -0.302  -0.336  1.00  0.00     0.087 A 
HETATM   14  C14 UNL     1      -1.049   0.928   0.306  1.00  0.00     0.009 A 
HETATM   15  C20 UNL     1       0.197   1.302   0.760  1.00  0.00     0.026 A 
BRANCH  12  16
HETATM   16  C7  UNL     1      -0.049  -2.372  -1.175  1.00  0.00    -0.023 A 
HETATM   17  C8  UNL     1      -1.133  -3.107  -0.747  1.00  0.00     0.012 A 
HETATM   18  C9  UNL     1      -1.399  -4.369  -1.253  1.00  0.00     0.001 A 
HETATM   19  C10 UNL     1      -0.553  -4.912  -2.218  1.00  0.00     0.000 A 
HETATM   20  C11 UNL     1       0.543  -4.162  -2.647  1.00  0.00     0.001 A 
HETATM   21  C12 UNL     1       0.790  -2.905  -2.129  1.00  0.00     0.012 A 
ENDBRANCH  12  16
BRANCH  13  22
HETATM   22  O1  UNL     1      -2.340  -0.711  -0.810  1.00  0.00    -0.359 OA
HETATM   23  H8  UNL     1      -2.914  -0.062  -1.367  1.00  0.00     0.217 HD
ENDBRANCH  13  22
BRANCH  14  24
HETATM   24  C15 UNL     1      -2.200   1.804   0.510  1.00  0.00    -0.022 A 
HETATM   25  C16 UNL     1      -3.439   1.380   0.934  1.00  0.00     0.012 A 
HETATM   26  C17 UNL     1      -4.535   2.170   1.137  1.00  0.00     0.002 A 
HETATM   27  C18 UNL     1      -4.683   3.532   0.979  1.00  0.00     0.016 A 
HETATM   28  P1  UNL     1      -3.204   4.305   0.433  1.00  0.00    -0.034 P 
HETATM   29  C19 UNL     1      -1.909   3.140   0.228  1.00  0.00     0.028 A 
ENDBRANCH  14  24
ENDBRANCH   4  10
TORSDOF 5
