REMARK  7 active torsions:
REMARK  status: ('A' for Active; 'I' for Inactive)
REMARK    1  A    between atoms: C2_2  and  C4_4 
REMARK    2  A    between atoms: C6_6  and  C7_7 
REMARK    3  A    between atoms: C7_7  and  C9_10 
REMARK    4  A    between atoms: C11_13  and  C12_14 
REMARK    5  A    between atoms: C15_17  and  O2_18 
REMARK    6  A    between atoms: O2_18  and  C16_19 
REMARK    7  A    between atoms: C16_19  and  N2_20 
ROOT
HETATM    1  C7  UNL     1       2.418  -2.510  -0.024  1.00  0.00     0.186 C 
HETATM    2  C8  UNL     1       3.049  -2.464   1.297  1.00  0.00     0.075 C 
HETATM    3  N1  UNL     1       3.552  -2.410   2.342  1.00  0.00    -0.196 NA
ENDROOT
BRANCH   1   4
HETATM    4  C6  UNL     1       1.374  -1.459  -0.097  1.00  0.00    -0.033 A 
HETATM    5  C5  UNL     1       1.658  -0.093  -0.047  1.00  0.00     0.019 A 
HETATM    6  C4  UNL     1       0.645   0.854  -0.119  1.00  0.00    -0.020 A 
HETATM    7  C15 UNL     1      -0.675   0.493  -0.242  1.00  0.00     0.084 A 
HETATM    8  C11 UNL     1      -0.979  -0.839  -0.294  1.00  0.00    -0.020 A 
HETATM    9  C10 UNL     1       0.019  -1.788  -0.223  1.00  0.00     0.019 A 
BRANCH   6  10
HETATM   10  C2  UNL     1       1.208   2.225  -0.059  1.00  0.00     0.013 C 
HETATM   11  C1  UNL     1       1.586   2.730  -1.439  1.00  0.00     0.015 C 
HETATM   12  C3  UNL     1       2.335   2.374   0.927  1.00  0.00     0.015 C 
ENDBRANCH   6  10
BRANCH   7  13
HETATM   13  O2  UNL     1      -1.603   1.516  -0.305  1.00  0.00    -0.321 OA
BRANCH  13  14
HETATM   14  C16 UNL     1      -2.175   1.998   0.883  1.00  0.00     0.441 C 
BRANCH  14  15
HETATM   15  N2  UNL     1      -3.123   3.073   0.639  1.00  0.00     0.101 N 
HETATM   16  H21 UNL     1      -3.689   3.166   1.511  1.00  0.00     0.315 HD
HETATM   17  H22 UNL     1      -2.626   3.992   0.529  1.00  0.00     0.315 HD
ENDBRANCH  14  15
ENDBRANCH  13  14
ENDBRANCH   7  13
BRANCH   8  18
HETATM   18  C12 UNL     1      -2.385  -1.298  -0.428  1.00  0.00     0.013 C 
HETATM   19  C13 UNL     1      -3.047  -1.637   0.865  1.00  0.00     0.015 C 
HETATM   20  C14 UNL     1      -2.328  -2.596  -1.247  1.00  0.00     0.015 C 
ENDBRANCH   8  18
ENDBRANCH   1   4
BRANCH   1  21
HETATM   21  C9  UNL     1       3.432  -2.368  -1.103  1.00  0.00     0.255 C 
HETATM   22  O1  UNL     1       4.616  -2.195  -0.847  1.00  0.00    -0.305 OA
ENDBRANCH   1  21
TORSDOF 7
