REMARK  6 active torsions:
REMARK  status: ('A' for Active; 'I' for Inactive)
REMARK    1  A    between atoms: C2_2  and  C4_4 
REMARK    2  A    between atoms: C4_4  and  O1_5 
REMARK    3  A    between atoms: O1_5  and  C5_6 
REMARK    4  A    between atoms: C5_6  and  C6_7 
REMARK    5  A    between atoms: C8_9  and  C9_10 
REMARK    6  A    between atoms: C10_11  and  C12_14 
REMARK       I    between atoms: C12_14  and  N2_15 
ROOT
HETATM    1  C9  UNL     1      -2.295   2.649  -0.940  1.00  0.00     0.039 C 
HETATM    2  C10 UNL     1      -3.463   3.233  -0.960  1.00  0.00     0.112 C 
HETATM    3  C11 UNL     1      -4.795   2.668  -0.874  1.00  0.00     0.105 C 
HETATM    4  N1  UNL     1      -5.852   2.198  -0.808  1.00  0.00    -0.191 NA
ENDROOT
BRANCH   2   5
HETATM    5  C12 UNL     1      -3.528   4.704  -1.089  1.00  0.00     0.260 C 
HETATM    6  N2  UNL     1      -2.253   5.326  -1.178  1.00  0.00    -0.365 N 
HETATM    7  H14 UNL     1      -1.930   6.056  -0.522  1.00  0.00     0.159 HD
HETATM    8  H15 UNL     1      -1.313   5.777  -1.253  1.00  0.00     0.159 HD
HETATM    9  O2  UNL     1      -4.542   5.405  -1.123  1.00  0.00    -0.267 OA
ENDBRANCH   2   5
BRANCH   1  10
HETATM   10  C8  UNL     1      -1.788   1.305  -0.835  1.00  0.00    -0.038 C 
HETATM   11  C7  UNL     1      -0.309   1.208  -0.869  1.00  0.00     0.020 C 
HETATM   12  C6  UNL     1       0.678   0.291  -0.993  1.00  0.00    -0.034 C 
HETATM   13  C19 UNL     1       0.513  -1.139  -1.194  1.00  0.00     0.006 C 
HETATM   14  C18 UNL     1      -0.363  -2.054  -0.796  1.00  0.00    -0.017 C 
HETATM   15  C15 UNL     1      -1.572  -1.927   0.056  1.00  0.00    -0.027 C 
HETATM   16  C14 UNL     1      -2.713  -1.218  -0.588  1.00  0.00     0.041 C 
HETATM   17  C16 UNL     1      -1.230  -1.357   1.413  1.00  0.00     0.019 C 
HETATM   18  C17 UNL     1      -2.039  -3.358   0.305  1.00  0.00     0.019 C 
HETATM   19  C13 UNL     1      -2.572   0.236  -0.719  1.00  0.00    -0.014 C 
BRANCH  12  20
HETATM   20  C5  UNL     1       2.019   0.914  -0.941  1.00  0.00     0.206 C 
BRANCH  20  21
HETATM   21  O1  UNL     1       2.874   0.559   0.026  1.00  0.00    -0.386 OA
BRANCH  21  22
HETATM   22  C4  UNL     1       3.230  -0.741   0.092  1.00  0.00     0.171 C 
BRANCH  22  23
HETATM   23  C2  UNL     1       4.273  -1.007   1.186  1.00  0.00     0.001 C 
HETATM   24  C1  UNL     1       4.577  -2.486   1.149  1.00  0.00     0.011 C 
HETATM   25  C3  UNL     1       3.792  -0.620   2.550  1.00  0.00     0.011 C 
ENDBRANCH  22  23
ENDBRANCH  21  22
ENDBRANCH  20  21
ENDBRANCH  12  20
ENDBRANCH   1  10
TORSDOF 6
