REMARK  6 active torsions:
REMARK  status: ('A' for Active; 'I' for Inactive)
REMARK    1  A    between atoms: C2_2  and  C3_3 
REMARK    2  A    between atoms: C4_4  and  O1_5 
REMARK    3  A    between atoms: C5_6  and  C6_7 
REMARK    4  A    between atoms: C9_10  and  C10_11 
REMARK    5  A    between atoms: C10_11  and  C11_12 
REMARK    6  A    between atoms: C14_15  and  C15_16 
REMARK       I    between atoms: C15_16  and  N1_17 
ROOT
HETATM    1  C3  UNL     1       1.045   2.150  -0.467  1.00  0.00     0.062 C 
HETATM    2  C4  UNL     1      -0.087   1.708   0.114  1.00  0.00     0.099 C 
HETATM    3  C5  UNL     1      -0.611   0.360   0.447  1.00  0.00    -0.017 C 
HETATM    4  C9  UNL     1      -0.403  -0.822  -0.133  1.00  0.00    -0.066 C 
HETATM    5  C13 UNL     1       0.412  -1.260  -1.321  1.00  0.00     0.080 C 
HETATM    6  C14 UNL     1       1.842  -0.947  -1.213  1.00  0.00     0.029 C 
HETATM    7  C16 UNL     1       2.582   0.168  -1.088  1.00  0.00     0.101 C 
HETATM    8  N2  UNL     1       2.223   1.565  -1.008  1.00  0.00    -0.363 N 
HETATM    9  H24 UNL     1       2.943   2.185  -1.406  1.00  0.00     0.165 HD
ENDROOT
BRANCH   6  10
HETATM   10  C15 UNL     1       2.697  -2.135  -1.253  1.00  0.00     0.247 C 
HETATM   11  N1  UNL     1       4.111  -2.021  -1.166  1.00  0.00    -0.366 N 
HETATM   12  H21 UNL     1       4.270  -1.922  -2.195  1.00  0.00     0.159 HD
HETATM   13  H22 UNL     1       4.083  -2.110  -0.109  1.00  0.00     0.159 HD
HETATM   14  O2  UNL     1       2.164  -3.273  -1.367  1.00  0.00    -0.268 OA
ENDBRANCH   6  10
BRANCH   4  15
HETATM   15  C10 UNL     1      -1.092  -1.928   0.482  1.00  0.00     0.034 C 
BRANCH  15  16
HETATM   16  C11 UNL     1      -2.161  -2.522  -0.456  1.00  0.00    -0.000 C 
HETATM   17  C12 UNL     1      -2.859  -3.678   0.224  1.00  0.00     0.005 C 
ENDBRANCH  15  16
ENDBRANCH   4  15
BRANCH   3  18
HETATM   18  C6  UNL     1      -1.494   0.486   1.607  1.00  0.00     0.013 C 
HETATM   19  C7  UNL     1      -0.649   1.245   2.666  1.00  0.00     0.015 C 
HETATM   20  C8  UNL     1      -2.685   1.393   1.350  1.00  0.00     0.015 C 
ENDBRANCH   3  18
BRANCH   1  21
HETATM   21  C2  UNL     1       1.082   3.585  -0.565  1.00  0.00     0.006 C 
HETATM   22  C1  UNL     1       1.965   4.439  -1.047  1.00  0.00     0.033 C 
ENDBRANCH   1  21
BRANCH   2  23
HETATM   23  O1  UNL     1      -0.857   2.789   0.433  1.00  0.00    -0.358 OA
HETATM   24  H4  UNL     1      -1.273   3.324  -0.316  1.00  0.00     0.217 HD
ENDBRANCH   2  23
TORSDOF 6
