REMARK  6 active torsions:
REMARK  status: ('A' for Active; 'I' for Inactive)
REMARK    1  A    between atoms: C2_3  and  C22_25 
REMARK    2  A    between atoms: C3_4  and  C4_5 
REMARK    3  A    between atoms: C6_7  and  S1_8 
REMARK    4  A    between atoms: S1_8  and  C7_9 
REMARK    5  A    between atoms: C13_15  and  O1_16 
REMARK    6  A    between atoms: C14_17  and  C15_18 
REMARK       I    between atoms: C22_25  and  N2_26 
ROOT
HETATM    1  N1  UNL     1      -6.422  -2.650  -2.597  1.00  0.00    -0.191 NA
HETATM    2  C1  UNL     1      -5.429  -2.546  -1.981  1.00  0.00     0.104 C 
HETATM    3  C2  UNL     1      -4.186  -2.404  -1.236  1.00  0.00     0.107 C 
HETATM    4  C3  UNL     1      -3.344  -1.449  -1.570  1.00  0.00     0.039 C 
ENDROOT
BRANCH   3   5
HETATM    5  C22 UNL     1      -4.060  -3.371  -0.164  1.00  0.00     0.239 C 
HETATM    6  N2  UNL     1      -3.017  -3.526   0.786  1.00  0.00    -0.268 NA
HETATM    7  H15 UNL     1      -3.070  -3.588   1.825  1.00  0.00     0.127 HD
HETATM    8  H16 UNL     1      -3.049  -3.590   1.826  1.00  0.00     0.127 HD
HETATM    9  O2  UNL     1      -4.865  -4.271   0.130  1.00  0.00    -0.273 OA
ENDBRANCH   3   5
BRANCH   4  10
HETATM   10  C4  UNL     1      -2.045  -0.955  -1.132  1.00  0.00    -0.032 A 
HETATM   11  C5  UNL     1      -1.003  -1.805  -0.871  1.00  0.00     0.033 A 
HETATM   12  C6  UNL     1       0.229  -1.375  -0.428  1.00  0.00     0.040 A 
HETATM   13  C13 UNL     1       0.397  -0.033  -0.247  1.00  0.00     0.093 A 
HETATM   14  C14 UNL     1      -0.603   0.875  -0.489  1.00  0.00     0.009 A 
HETATM   15  C21 UNL     1      -1.815   0.394  -0.930  1.00  0.00     0.026 A 
BRANCH  12  16
HETATM   16  S1  UNL     1       1.588  -2.468  -0.078  1.00  0.00    -0.088 SA
BRANCH  16  17
HETATM   17  C7  UNL     1       3.046  -1.625   0.472  1.00  0.00     0.005 A 
HETATM   18  C8  UNL     1       3.285  -1.363   1.820  1.00  0.00     0.019 A 
HETATM   19  C9  UNL     1       4.405  -0.713   2.289  1.00  0.00     0.001 A 
HETATM   20  C10 UNL     1       5.366  -0.285   1.381  1.00  0.00     0.000 A 
HETATM   21  C11 UNL     1       5.124  -0.546   0.063  1.00  0.00     0.001 A 
HETATM   22  C12 UNL     1       4.017  -1.192  -0.434  1.00  0.00     0.019 A 
ENDBRANCH  16  17
ENDBRANCH  12  16
BRANCH  13  23
HETATM   23  O1  UNL     1       1.610   0.465   0.198  1.00  0.00    -0.358 OA
HETATM   24  H8  UNL     1       1.758   1.140   0.910  1.00  0.00     0.217 HD
ENDBRANCH  13  23
BRANCH  14  25
HETATM   25  C15 UNL     1      -0.485   2.312  -0.315  1.00  0.00    -0.023 A 
HETATM   26  C16 UNL     1       0.647   2.965  -0.785  1.00  0.00     0.012 A 
HETATM   27  C17 UNL     1       0.782   4.344  -0.629  1.00  0.00     0.001 A 
HETATM   28  C18 UNL     1      -0.194   5.096  -0.008  1.00  0.00     0.000 A 
HETATM   29  C19 UNL     1      -1.329   4.451   0.465  1.00  0.00     0.001 A 
HETATM   30  C20 UNL     1      -1.454   3.086   0.306  1.00  0.00     0.012 A 
ENDBRANCH  14  25
ENDBRANCH   4  10
TORSDOF 6
