REMARK  3 active torsions:
REMARK  status: ('A' for Active; 'I' for Inactive)
REMARK    1  A    between atoms: C3_4  and  C4_5 
REMARK    2  A    between atoms: C13_14  and  O1_15 
REMARK    3  A    between atoms: C14_16  and  C15_17 
ROOT
HETATM    1  N1  UNL     1       1.959   5.082   0.688  1.00  0.00    -0.192 NA
HETATM    2  C1  UNL     1       0.826   4.872   0.557  1.00  0.00     0.087 C 
HETATM    3  C2  UNL     1      -0.577   4.638   0.397  1.00  0.00     0.094 C 
HETATM    4  C3  UNL     1      -1.241   3.526   0.223  1.00  0.00     0.022 C 
ENDROOT
BRANCH   4   5
HETATM    5  C4  UNL     1      -0.821   2.147   0.130  1.00  0.00    -0.034 A 
HETATM    6  C5  UNL     1      -1.727   1.097  -0.061  1.00  0.00     0.026 A 
HETATM    7  C6  UNL     1      -1.328  -0.214  -0.149  1.00  0.00     0.009 A 
HETATM    8  C7  UNL     1      -2.347  -1.219  -0.347  1.00  0.00    -0.023 A 
HETATM    9  C13 UNL     1       0.002  -0.549  -0.051  1.00  0.00     0.087 A 
HETATM   10  C8  UNL     1      -2.062  -2.175  -1.302  1.00  0.00     0.012 A 
HETATM   11  C12 UNL     1      -3.550  -1.288   0.331  1.00  0.00     0.012 A 
HETATM   12  C9  UNL     1      -2.983  -3.188  -1.567  1.00  0.00     0.001 A 
HETATM   13  C10 UNL     1      -4.190  -3.269  -0.896  1.00  0.00     0.000 A 
HETATM   14  C11 UNL     1      -4.470  -2.298   0.067  1.00  0.00     0.001 A 
HETATM   15  C14 UNL     1       0.950   0.434   0.138  1.00  0.00     0.009 A 
HETATM   16  C21 UNL     1       0.489   1.731   0.219  1.00  0.00     0.026 A 
BRANCH   9  17
HETATM   17  O1  UNL     1       0.355  -1.878  -0.145  1.00  0.00    -0.359 OA
HETATM   18  H9  UNL     1       1.103  -2.125  -0.787  1.00  0.00     0.217 HD
ENDBRANCH   9  17
BRANCH  15  19
HETATM   19  C15 UNL     1       2.360   0.080   0.242  1.00  0.00    -0.023 A 
HETATM   20  C16 UNL     1       2.605  -1.009   1.067  1.00  0.00     0.012 A 
HETATM   21  C17 UNL     1       3.899  -1.485   1.280  1.00  0.00     0.001 A 
HETATM   22  C18 UNL     1       4.962  -0.852   0.653  1.00  0.00     0.000 A 
HETATM   23  C19 UNL     1       4.707   0.242  -0.174  1.00  0.00     0.001 A 
HETATM   24  C20 UNL     1       3.431   0.687  -0.366  1.00  0.00     0.012 A 
ENDBRANCH  15  19
ENDBRANCH   4   5
TORSDOF 3
