REMARK  5 active torsions:
REMARK  status: ('A' for Active; 'I' for Inactive)
REMARK    1  A    between atoms: C3_3  and  O1_4 
REMARK    2  A    between atoms: C4_5  and  C5_6 
REMARK    3  A    between atoms: C8_9  and  C9_10 
REMARK    4  A    between atoms: C9_10  and  C10_11 
REMARK    5  A    between atoms: C11_12  and  C13_15 
REMARK       I    between atoms: C13_15  and  N2_16 
ROOT
HETATM    1  C10 UNL     1       2.707   0.625  -0.412  1.00  0.00     0.005 C 
HETATM    2  C11 UNL     1       3.798   0.311  -1.077  1.00  0.00     0.102 C 
HETATM    3  C12 UNL     1       3.916   0.378  -2.503  1.00  0.00     0.104 C 
HETATM    4  N1  UNL     1       3.998   0.441  -3.657  1.00  0.00    -0.191 NA
ENDROOT
BRANCH   2   5
HETATM    5  C13 UNL     1       4.928  -0.126  -0.279  1.00  0.00     0.238 C 
HETATM    6  N2  UNL     1       4.845  -0.204   1.139  1.00  0.00    -0.268 NA
HETATM    7  H15 UNL     1       4.435   0.670   1.580  1.00  0.00     0.127 HD
HETATM    8  H16 UNL     1       4.443   0.653   1.563  1.00  0.00     0.127 HD
HETATM    9  O2  UNL     1       6.007  -0.445  -0.824  1.00  0.00    -0.273 OA
ENDBRANCH   2   5
BRANCH   1  10
HETATM   10  C9  UNL     1       1.389   1.108  -1.009  1.00  0.00     0.063 C 
BRANCH  10  11
HETATM   11  C8  UNL     1       0.394   0.168  -0.545  1.00  0.00    -0.067 C 
HETATM   12  C4  UNL     1      -0.597   0.646   0.171  1.00  0.00    -0.019 C 
HETATM   13  C3  UNL     1      -1.749  -0.066   0.777  1.00  0.00     0.074 C 
HETATM   14  C2  UNL     1      -2.485  -1.156   0.483  1.00  0.00    -0.050 C 
HETATM   15  C1  UNL     1      -3.552  -1.376   1.517  1.00  0.00     0.046 C 
HETATM   16  C17 UNL     1      -2.503  -2.177  -0.596  1.00  0.00     0.036 C 
HETATM   17  C16 UNL     1      -1.169  -2.764  -0.908  1.00  0.00     0.005 C 
HETATM   18  C15 UNL     1      -0.325  -1.876  -1.797  1.00  0.00     0.005 C 
HETATM   19  C14 UNL     1       0.785  -1.206  -1.040  1.00  0.00     0.035 C 
BRANCH  12  20
HETATM   20  C5  UNL     1      -0.703   2.056   0.455  1.00  0.00     0.013 C 
HETATM   21  C6  UNL     1      -2.122   2.546   0.025  1.00  0.00     0.015 C 
HETATM   22  C7  UNL     1      -0.631   2.252   1.982  1.00  0.00     0.015 C 
ENDBRANCH  12  20
BRANCH  13  23
HETATM   23  O1  UNL     1      -2.262   0.447   1.936  1.00  0.00    -0.360 OA
HETATM   24  H4  UNL     1      -2.176   0.011   2.848  1.00  0.00     0.217 HD
ENDBRANCH  13  23
ENDBRANCH  10  11
ENDBRANCH   1  10
TORSDOF 5
