REMARK  5 active torsions:
REMARK  status: ('A' for Active; 'I' for Inactive)
REMARK    1  A    between atoms: C2_2  and  C4_4 
REMARK    2  A    between atoms: C6_6  and  C7_7 
REMARK    3  A    between atoms: C7_7  and  C9_10 
REMARK       I    between atoms: C9_10  and  N2_11 
REMARK    4  A    between atoms: C11_14  and  C12_15 
REMARK    5  A    between atoms: C16_19  and  O2_20 
ROOT
HETATM    1  C7  UNL     1      -2.201  -2.424  -0.063  1.00  0.00     0.217 C 
HETATM    2  C8  UNL     1      -2.648  -2.674  -1.435  1.00  0.00     0.078 C 
HETATM    3  N1  UNL     1      -3.019  -2.871  -2.508  1.00  0.00    -0.196 NA
ENDROOT
BRANCH   1   4
HETATM    4  C6  UNL     1      -1.228  -1.316  -0.077  1.00  0.00    -0.030 A 
HETATM    5  C5  UNL     1      -1.653  -0.055  -0.420  1.00  0.00     0.019 A 
HETATM    6  C4  UNL     1      -0.815   1.037  -0.459  1.00  0.00    -0.020 A 
HETATM    7  C16 UNL     1       0.505   0.810  -0.132  1.00  0.00     0.079 A 
HETATM    8  C11 UNL     1       1.021  -0.411   0.222  1.00  0.00    -0.016 A 
HETATM    9  C10 UNL     1       0.119  -1.450   0.237  1.00  0.00     0.019 A 
BRANCH   6  10
HETATM   10  C2  UNL     1      -1.377   2.352  -0.843  1.00  0.00     0.013 C 
HETATM   11  C1  UNL     1      -1.271   2.515  -2.341  1.00  0.00     0.015 C 
HETATM   12  C3  UNL     1      -0.749   3.519  -0.157  1.00  0.00     0.015 C 
ENDBRANCH   6  10
BRANCH   7  13
HETATM   13  O2  UNL     1       1.355   1.904  -0.169  1.00  0.00    -0.360 OA
HETATM   14  H22 UNL     1       1.663   2.318  -1.058  1.00  0.00     0.217 HD
ENDBRANCH   7  13
BRANCH   8  15
HETATM   15  C12 UNL     1       2.446  -0.568   0.558  1.00  0.00    -0.021 C 
HETATM   16  C13 UNL     1       3.247  -0.154  -0.652  1.00  0.00     0.019 C 
HETATM   17  C14 UNL     1       2.701  -2.044   0.811  1.00  0.00     0.019 C 
HETATM   18  C15 UNL     1       2.877   0.248   1.741  1.00  0.00     0.019 C 
ENDBRANCH   8  15
ENDBRANCH   1   4
BRANCH   1  19
HETATM   19  C9  UNL     1      -3.341  -2.207   0.852  1.00  0.00     0.237 C 
HETATM   20  N2  UNL     1      -3.015  -2.034   2.227  1.00  0.00    -0.369 N 
HETATM   21  H10 UNL     1      -3.640  -2.442   2.977  1.00  0.00     0.159 HD
HETATM   22  H11 UNL     1      -2.296  -1.598   2.843  1.00  0.00     0.159 HD
HETATM   23  O1  UNL     1      -4.575  -2.151   0.588  1.00  0.00    -0.272 OA
ENDBRANCH   1  19
TORSDOF 5
