REMARK  5 active torsions:
REMARK  status: ('A' for Active; 'I' for Inactive)
REMARK    1  A    between atoms: C2_2  and  C5_5 
REMARK    2  A    between atoms: C7_7  and  C8_8 
REMARK    3  A    between atoms: C9_9  and  C11_12 
REMARK       I    between atoms: C11_12  and  N2_13 
REMARK    4  A    between atoms: C13_16  and  C14_17 
REMARK    5  A    between atoms: C14_17  and  O2_20 
ROOT
HETATM    1  C8  UNL     1       2.502   0.956   0.802  1.00  0.00     0.039 C 
HETATM    2  C9  UNL     1       3.683   0.802   0.267  1.00  0.00     0.112 C 
HETATM    3  C10 UNL     1       3.683   0.075  -0.982  1.00  0.00     0.105 C 
HETATM    4  N1  UNL     1       3.679  -0.536  -1.997  1.00  0.00    -0.191 NA
ENDROOT
BRANCH   2   5
HETATM    5  C11 UNL     1       4.890   1.319   0.891  1.00  0.00     0.260 C 
HETATM    6  N2  UNL     1       6.106   1.059   0.159  1.00  0.00    -0.365 N 
HETATM    7  H12 UNL     1       6.699   1.922   0.277  1.00  0.00     0.159 HD
HETATM    8  H13 UNL     1       6.199   0.132  -0.333  1.00  0.00     0.159 HD
HETATM    9  O1  UNL     1       4.766   1.927   1.985  1.00  0.00    -0.267 OA
ENDBRANCH   2   5
BRANCH   1  10
HETATM   10  C7  UNL     1       1.113   0.640   0.573  1.00  0.00    -0.033 A 
HETATM   11  C6  UNL     1       0.825  -0.678   0.227  1.00  0.00     0.019 A 
HETATM   12  C5  UNL     1      -0.466  -1.093  -0.046  1.00  0.00    -0.049 A 
HETATM   13  C17 UNL     1      -1.477  -0.174   0.029  1.00  0.00     0.018 A 
HETATM   14  C13 UNL     1      -1.220   1.137   0.369  1.00  0.00    -0.024 A 
HETATM   15  C12 UNL     1       0.086   1.552   0.644  1.00  0.00     0.021 A 
BRANCH  12  16
HETATM   16  C2  UNL     1      -0.839  -2.479  -0.404  1.00  0.00    -0.024 C 
HETATM   17  C1  UNL     1      -0.769  -2.608  -1.906  1.00  0.00     0.019 C 
HETATM   18  C3  UNL     1       0.187  -3.462   0.152  1.00  0.00     0.019 C 
HETATM   19  C4  UNL     1      -2.183  -2.898   0.115  1.00  0.00     0.019 C 
ENDBRANCH  12  16
BRANCH  14  20
HETATM   20  C14 UNL     1      -2.182   2.281   0.485  1.00  0.00     0.077 C 
HETATM   21  C15 UNL     1      -3.585   1.710   0.362  1.00  0.00     0.051 C 
HETATM   22  C16 UNL     1      -2.022   3.214  -0.704  1.00  0.00     0.051 C 
BRANCH  20  23
HETATM   23  O2  UNL     1      -2.041   2.943   1.677  1.00  0.00    -0.386 OA
HETATM   24  H21 UNL     1      -2.899   3.144   2.100  1.00  0.00     0.211 HD
ENDBRANCH  20  23
ENDBRANCH  14  20
ENDBRANCH   1  10
TORSDOF 5
