REMARK  6 active torsions:
REMARK  status: ('A' for Active; 'I' for Inactive)
REMARK    1  A    between atoms: C2_2  and  C4_4 
REMARK    2  A    between atoms: C6_6  and  C7_7 
REMARK    3  A    between atoms: C7_7  and  C8_8 
REMARK    4  A    between atoms: C9_9  and  C11_12 
REMARK       I    between atoms: C11_12  and  N2_13 
REMARK    5  A    between atoms: C13_16  and  C14_17 
REMARK    6  A    between atoms: C18_21  and  O2_22 
ROOT
HETATM    1  C8  UNL     1       3.245  -0.278   0.733  1.00  0.00     0.006 C 
HETATM    2  C9  UNL     1       4.212   0.545   1.100  1.00  0.00     0.108 C 
HETATM    3  C10 UNL     1       4.577   0.744   2.471  1.00  0.00     0.104 C 
HETATM    4  N1  UNL     1       4.853   0.898   3.583  1.00  0.00    -0.191 NA
ENDROOT
BRANCH   2   5
HETATM    5  C11 UNL     1       4.962   1.299   0.106  1.00  0.00     0.259 C 
HETATM    6  N2  UNL     1       4.795   1.279  -1.305  1.00  0.00    -0.365 N 
HETATM    7  H12 UNL     1       5.294   0.461  -1.755  1.00  0.00     0.159 HD
HETATM    8  H13 UNL     1       4.353   1.776  -2.110  1.00  0.00     0.159 HD
HETATM    9  O1  UNL     1       5.887   2.091   0.395  1.00  0.00    -0.267 OA
ENDBRANCH   2   5
BRANCH   1  10
HETATM   10  C7  UNL     1       2.596  -0.741  -0.495  1.00  0.00     0.067 C 
BRANCH  10  11
HETATM   11  C6  UNL     1       1.158  -0.392  -0.435  1.00  0.00    -0.053 A 
HETATM   12  C5  UNL     1       0.637   0.796  -0.902  1.00  0.00     0.017 A 
HETATM   13  C4  UNL     1      -0.730   1.089  -0.827  1.00  0.00    -0.021 A 
HETATM   14  C18 UNL     1      -1.591   0.168  -0.271  1.00  0.00     0.079 A 
HETATM   15  C13 UNL     1      -1.136  -1.040   0.215  1.00  0.00    -0.016 A 
HETATM   16  C12 UNL     1       0.241  -1.268   0.109  1.00  0.00     0.018 A 
BRANCH  13  17
HETATM   17  C2  UNL     1      -1.206   2.393  -1.354  1.00  0.00     0.013 C 
HETATM   18  C1  UNL     1      -1.192   3.455  -0.276  1.00  0.00     0.015 C 
HETATM   19  C3  UNL     1      -2.511   2.262  -2.063  1.00  0.00     0.015 C 
ENDBRANCH  13  17
BRANCH  14  20
HETATM   20  O2  UNL     1      -2.952   0.426  -0.181  1.00  0.00    -0.360 OA
HETATM   21  H24 UNL     1      -3.543   0.040  -0.906  1.00  0.00     0.217 HD
ENDBRANCH  14  20
BRANCH  15  22
HETATM   22  C14 UNL     1      -1.984  -2.091   0.829  1.00  0.00    -0.021 C 
HETATM   23  C15 UNL     1      -1.139  -3.277   1.246  1.00  0.00     0.019 C 
HETATM   24  C16 UNL     1      -2.595  -1.560   2.135  1.00  0.00     0.019 C 
HETATM   25  C17 UNL     1      -3.077  -2.590  -0.066  1.00  0.00     0.019 C 
ENDBRANCH  15  22
ENDBRANCH  10  11
ENDBRANCH   1  10
TORSDOF 6
