REMARK  5 active torsions:
REMARK  status: ('A' for Active; 'I' for Inactive)
REMARK    1  A    between atoms: C2_2  and  C5_5 
REMARK    2  A    between atoms: C7_7  and  C8_8 
REMARK    3  A    between atoms: C9_9  and  C10_10 
REMARK       I    between atoms: C10_10  and  N1_11 
REMARK    4  A    between atoms: C12_14  and  C13_15 
REMARK    5  A    between atoms: C17_19  and  O2_20 
ROOT
HETATM    1  C5  UNL     1      -0.986  -0.753  -0.033  1.00  0.00    -0.015 A 
HETATM    2  C6  UNL     1       0.226  -1.435   0.056  1.00  0.00     0.031 A 
HETATM    3  C7  UNL     1       1.438  -0.779   0.122  1.00  0.00     0.019 A 
HETATM    4  C11 UNL     1       1.427   0.600   0.097  1.00  0.00     0.031 A 
HETATM    5  C12 UNL     1       0.224   1.290   0.008  1.00  0.00    -0.015 A 
HETATM    6  C17 UNL     1      -0.962   0.627  -0.055  1.00  0.00     0.079 A 
ENDROOT
BRANCH   3   7
HETATM    7  C8  UNL     1       2.702  -1.456   0.214  1.00  0.00    -0.057 C 
HETATM    8  C9  UNL     1       3.763  -2.028   0.274  1.00  0.00    -0.000 C 
BRANCH   8   9
HETATM    9  C10 UNL     1       5.041  -2.713   0.323  1.00  0.00     0.294 C 
HETATM   10  N1  UNL     1       5.080  -4.135   0.460  1.00  0.00    -0.359 N 
HETATM   11  H11 UNL     1       5.583  -4.356   1.346  1.00  0.00     0.160 HD
HETATM   12  H12 UNL     1       4.614  -4.615  -0.329  1.00  0.00     0.160 HD
HETATM   13  O1  UNL     1       6.071  -1.986   0.238  1.00  0.00    -0.258 OA
ENDBRANCH   8   9
ENDBRANCH   3   7
BRANCH   1  14
HETATM   14  C2  UNL     1      -2.263  -1.500  -0.100  1.00  0.00    -0.021 C 
HETATM   15  C1  UNL     1      -3.060  -1.237  -1.348  1.00  0.00     0.019 C 
HETATM   16  C3  UNL     1      -3.069  -1.171   1.155  1.00  0.00     0.019 C 
HETATM   17  C4  UNL     1      -1.971  -2.985  -0.052  1.00  0.00     0.019 C 
ENDBRANCH   1  14
BRANCH   5  18
HETATM   18  C13 UNL     1       0.252   2.761  -0.016  1.00  0.00    -0.021 C 
HETATM   19  C14 UNL     1      -0.502   3.379   1.124  1.00  0.00     0.019 C 
HETATM   20  C15 UNL     1       1.688   3.278   0.082  1.00  0.00     0.019 C 
HETATM   21  C16 UNL     1      -0.323   3.338  -1.301  1.00  0.00     0.019 C 
ENDBRANCH   5  18
BRANCH   6  22
HETATM   22  O2  UNL     1      -2.197   1.256  -0.145  1.00  0.00    -0.360 OA
HETATM   23  H23 UNL     1      -2.506   1.434  -1.109  1.00  0.00     0.217 HD
ENDBRANCH   6  22
TORSDOF 5
