REMARK  5 active torsions:
REMARK  status: ('A' for Active; 'I' for Inactive)
REMARK    1  A    between atoms: C6_6  and  C7_7 
REMARK    2  A    between atoms: C7_7  and  C8_8 
REMARK    3  A    between atoms: C8_8  and  N1_9 
REMARK       I    between atoms: N1_9  and  C9_10 
REMARK       I    between atoms: C9_10  and  N2_11 
REMARK    4  A    between atoms: C11_14  and  C12_15 
REMARK    5  A    between atoms: C16_19  and  O2_20 
ROOT
HETATM    1  C1  UNL     1      -0.465  -1.912  -1.330  1.00  0.00     0.019 C 
HETATM    2  C2  UNL     1      -0.855  -2.396   0.031  1.00  0.00    -0.024 C 
HETATM    3  C3  UNL     1      -1.363  -3.831  -0.152  1.00  0.00     0.019 C 
HETATM    4  C4  UNL     1       0.236  -2.442   1.009  1.00  0.00    -0.017 C 
HETATM    5  C5  UNL     1       0.963  -1.462   1.524  1.00  0.00     0.009 C 
HETATM    6  C6  UNL     1       1.057   0.009   1.409  1.00  0.00    -0.027 C 
HETATM    7  C10 UNL     1       0.143   0.871   0.918  1.00  0.00     0.022 C 
HETATM    8  C11 UNL     1      -1.216   0.889   0.322  1.00  0.00    -0.021 C 
HETATM    9  C16 UNL     1      -1.978  -0.177   0.241  1.00  0.00     0.051 C 
HETATM   10  C17 UNL     1      -2.049  -1.601   0.545  1.00  0.00     0.077 C 
ENDROOT
BRANCH   6  11
HETATM   11  C7  UNL     1       2.293   0.569   1.889  1.00  0.00     0.088 C 
BRANCH  11  12
HETATM   12  C8  UNL     1       3.152   0.826   0.916  1.00  0.00    -0.010 C 
BRANCH  12  13
HETATM   13  N1  UNL     1       4.123   0.881   0.068  1.00  0.00    -0.150 NA
HETATM   14  C9  UNL     1       4.824  -0.351  -0.191  1.00  0.00     0.347 C 
HETATM   15  N2  UNL     1       5.531  -0.483  -1.415  1.00  0.00    -0.350 N 
HETATM   16  O1  UNL     1       4.862  -1.349   0.602  1.00  0.00    -0.245 OA
HETATM   17  H10 UNL     1       5.884   0.340  -1.961  1.00  0.00     0.160 HD
HETATM   18  H11 UNL     1       5.746  -1.400  -1.849  1.00  0.00     0.160 HD
ENDBRANCH  12  13
ENDBRANCH  11  12
ENDBRANCH   6  11
BRANCH   8  19
HETATM   19  C12 UNL     1      -1.443   2.246  -0.095  1.00  0.00    -0.022 C 
HETATM   20  C13 UNL     1      -2.737   2.597  -0.750  1.00  0.00     0.019 C 
HETATM   21  C14 UNL     1      -0.245   2.684  -0.932  1.00  0.00     0.019 C 
HETATM   22  C15 UNL     1      -1.409   3.114   1.181  1.00  0.00     0.019 C 
ENDBRANCH   8  19
BRANCH   9  23
HETATM   23  O2  UNL     1      -3.114   0.326  -0.371  1.00  0.00    -0.364 OA
HETATM   24  H22 UNL     1      -3.448  -0.219  -1.180  1.00  0.00     0.217 HD
ENDBRANCH   9  23
TORSDOF 5
