REMARK  5 active torsions:
REMARK  status: ('A' for Active; 'I' for Inactive)
REMARK    1  A    between atoms: C2_2  and  C4_4 
REMARK    2  A    between atoms: C2_2  and  C5_6 
REMARK    3  A    between atoms: C4_4  and  O1_5 
REMARK    4  A    between atoms: C7_8  and  C8_9 
REMARK    5  A    between atoms: C9_10  and  C11_13 
REMARK       I    between atoms: C11_13  and  N2_14 
ROOT
HETATM    1  C8  UNL     1       2.917   0.155   0.456  1.00  0.00     0.039 C 
HETATM    2  C9  UNL     1       4.071   0.411  -0.096  1.00  0.00     0.112 C 
HETATM    3  C10 UNL     1       4.397   0.956  -1.376  1.00  0.00     0.105 C 
HETATM    4  N1  UNL     1       4.643   1.388  -2.415  1.00  0.00    -0.191 NA
ENDROOT
BRANCH   2   5
HETATM    5  C11 UNL     1       5.262   0.080   0.725  1.00  0.00     0.260 C 
HETATM    6  N2  UNL     1       4.960  -0.467   1.987  1.00  0.00    -0.365 N 
HETATM    7  H12 UNL     1       4.758  -0.829   2.914  1.00  0.00     0.159 HD
HETATM    8  H13 UNL     1       4.594  -1.180   2.639  1.00  0.00     0.159 HD
HETATM    9  O2  UNL     1       6.434   0.260   0.353  1.00  0.00    -0.267 OA
ENDBRANCH   2   5
BRANCH   1  10
HETATM   10  C7  UNL     1       1.514   0.235   0.198  1.00  0.00    -0.034 A 
HETATM   11  C6  UNL     1       0.586  -0.762   0.535  1.00  0.00     0.020 A 
HETATM   12  C5  UNL     1      -0.772  -0.721   0.308  1.00  0.00    -0.040 A 
HETATM   13  C14 UNL     1      -1.205   0.439  -0.317  1.00  0.00    -0.043 A 
HETATM   14  C13 UNL     1      -0.355   1.431  -0.665  1.00  0.00    -0.042 A 
HETATM   15  C15 UNL     1      -2.360   1.152  -0.832  1.00  0.00     0.053 A 
HETATM   16  C12 UNL     1       0.998   1.353  -0.419  1.00  0.00     0.020 A 
HETATM   17  C16 UNL     1      -1.416   2.248  -1.216  1.00  0.00    -0.016 A 
HETATM   18  C17 UNL     1      -1.590   3.542  -0.449  1.00  0.00     0.020 C 
HETATM   19  C18 UNL     1      -1.276   2.443  -2.718  1.00  0.00     0.020 C 
BRANCH  12  20
HETATM   20  C2  UNL     1      -1.554  -1.900   0.756  1.00  0.00     0.001 C 
HETATM   21  C1  UNL     1      -0.617  -2.935   1.404  1.00  0.00     0.022 C 
HETATM   22  C3  UNL     1      -2.613  -1.599   1.762  1.00  0.00     0.022 C 
BRANCH  20  23
HETATM   23  C4  UNL     1      -2.200  -2.645  -0.403  1.00  0.00     0.177 C 
BRANCH  23  24
HETATM   24  O1  UNL     1      -3.071  -1.811  -1.049  1.00  0.00    -0.400 OA
HETATM   25  H9  UNL     1      -3.189  -2.055  -2.013  1.00  0.00     0.209 HD
ENDBRANCH  23  24
ENDBRANCH  20  23
ENDBRANCH  12  20
ENDBRANCH   1  10
TORSDOF 5
