REMARK  4 active torsions:
REMARK  status: ('A' for Active; 'I' for Inactive)
REMARK    1  A    between atoms: N1_2  and  C2_3 
REMARK    2  A    between atoms: C9_14  and  N4_15 
REMARK    3  A    between atoms: N4_15  and  S1_16 
REMARK    4  A    between atoms: S1_16  and  P1_19 
ROOT
HETATM    1  C2  UNL     1      -3.712  -0.872   0.870  1.00  0.00     0.130 A 
HETATM    2  C3  UNL     1      -4.337  -0.995   2.056  1.00  0.00     0.160 A 
HETATM    3  N2  UNL     1      -5.219  -1.817   1.470  1.00  0.00    -0.222 NA
HETATM    4  C4  UNL     1      -5.098  -2.123   0.117  1.00  0.00     0.238 A 
HETATM    5  N3  UNL     1      -4.144  -1.655  -0.712  1.00  0.00    -0.213 NA
HETATM    6  C5  UNL     1      -3.163  -0.814  -0.343  1.00  0.00     0.232 A 
HETATM    7  O1  UNL     1      -2.084  -0.235  -1.071  1.00  0.00    -0.169 OA
HETATM    8  O2  UNL     1      -0.824  -0.493  -0.609  1.00  0.00    -0.190 OA
HETATM    9  C6  UNL     1       0.365   0.039  -0.875  1.00  0.00     0.114 A 
HETATM   10  C7  UNL     1       0.687   0.811  -1.856  1.00  0.00     0.043 A 
HETATM   11  C8  UNL     1       1.887   1.482  -2.322  1.00  0.00     0.033 A 
HETATM   12  C9  UNL     1       2.840   1.070  -1.328  1.00  0.00     0.040 A 
HETATM   13  C11 UNL     1       2.720   0.253  -0.196  1.00  0.00     0.040 A 
HETATM   14  C12 UNL     1       1.460  -0.205  -0.062  1.00  0.00    -0.016 A 
HETATM   15  C13 UNL     1       1.253  -1.082   1.183  1.00  0.00     0.068 C 
HETATM   16  C14 UNL     1       0.126  -0.385   1.936  1.00  0.00    -0.022 C 
HETATM   17  C15 UNL     1      -0.777  -1.283   1.973  1.00  0.00    -0.002 C 
HETATM   18  C16 UNL     1      -2.053  -1.795   2.303  1.00  0.00     0.017 C 
HETATM   19  C17 UNL     1      -2.650  -0.707   2.903  1.00  0.00     0.090 C 
HETATM   20  N5  UNL     1      -3.995  -0.588   3.421  1.00  0.00    -0.349 N 
HETATM   21  H20 UNL     1      -4.918  -0.486   3.852  1.00  0.00     0.167 HD
ENDROOT
BRANCH  12  22
HETATM   22  N4  UNL     1       4.127   1.649  -1.659  1.00  0.00    -0.314 N 
HETATM   23  H8  UNL     1       4.414   2.532  -1.130  1.00  0.00     0.176 HD
BRANCH  22  24
HETATM   24  S1  UNL     1       5.264   1.090  -2.807  1.00  0.00     0.045 S 
HETATM   25  C10 UNL     1       6.221  -0.245  -2.140  1.00  0.00     0.141 C 
HETATM   26  O3  UNL     1       4.592   0.595  -4.066  1.00  0.00    -0.245 OA
BRANCH  24  27
HETATM   27  P1  UNL     1       6.470   2.503  -3.335  1.00  0.00     0.016 P 
HETATM   28  H12 UNL     1       7.113   2.362  -4.654  1.00  0.00     0.077 HD
ENDBRANCH  24  27
ENDBRANCH  22  24
ENDBRANCH  12  22
BRANCH   1  29
HETATM   29  N1  UNL     1      -3.433   0.614   0.836  1.00  0.00    -0.388 N 
HETATM   30  C1  UNL     1      -3.783   1.797   1.638  1.00  0.00     0.146 C 
HETATM   31  H4  UNL     1      -2.869   1.315   0.199  1.00  0.00     0.159 HD
ENDBRANCH   1  29
TORSDOF 4
