REMARK  7 active torsions:
REMARK  status: ('A' for Active; 'I' for Inactive)
REMARK    1  A    between atoms: C2_3  and  C24_26 
REMARK    2  A    between atoms: C3_4  and  C4_5 
REMARK    3  A    between atoms: C9_10  and  C10_11 
REMARK    4  A    between atoms: C10_11  and  C11_12 
REMARK    5  A    between atoms: C15_16  and  C16_17 
REMARK    6  A    between atoms: C16_17  and  C17_18 
REMARK    7  A    between atoms: C23_24  and  O1_25 
REMARK       I    between atoms: C24_26  and  N2_27 
ROOT
HETATM    1  N1  UNL     1       5.999  -2.497   0.589  1.00  0.00    -0.191 NA
HETATM    2  C1  UNL     1       5.610  -1.418   0.425  1.00  0.00     0.105 C 
HETATM    3  C2  UNL     1       5.135  -0.085   0.210  1.00  0.00     0.112 C 
HETATM    4  C3  UNL     1       3.874   0.285   0.339  1.00  0.00     0.040 C 
ENDROOT
BRANCH   3   5
HETATM    5  C24 UNL     1       6.114   0.920  -0.168  1.00  0.00     0.260 C 
HETATM    6  N2  UNL     1       5.691   2.260  -0.382  1.00  0.00    -0.365 N 
HETATM    7  H19 UNL     1       5.834   2.802   0.511  1.00  0.00     0.159 HD
HETATM    8  H20 UNL     1       5.300   3.052  -0.939  1.00  0.00     0.159 HD
HETATM    9  O2  UNL     1       7.334   0.704  -0.329  1.00  0.00    -0.267 OA
ENDBRANCH   3   5
BRANCH   4  10
HETATM   10  C4  UNL     1       2.755  -0.564   0.716  1.00  0.00    -0.028 A 
HETATM   11  C5  UNL     1       3.038  -1.449   1.761  1.00  0.00     0.012 A 
HETATM   12  C6  UNL     1       2.103  -2.335   2.252  1.00  0.00     0.001 A 
HETATM   13  C7  UNL     1       0.861  -2.289   1.638  1.00  0.00     0.001 A 
HETATM   14  C8  UNL     1       0.556  -1.434   0.613  1.00  0.00     0.008 A 
HETATM   15  C9  UNL     1       1.504  -0.559   0.139  1.00  0.00    -0.043 A 
BRANCH  15  16
HETATM   16  C10 UNL     1       1.382   0.429  -0.965  1.00  0.00     0.080 C 
BRANCH  16  17
HETATM   17  C11 UNL     1       0.035   0.362  -1.557  1.00  0.00    -0.020 A 
HETATM   18  C12 UNL     1      -0.112  -0.319  -2.748  1.00  0.00     0.010 A 
HETATM   19  C13 UNL     1      -1.303  -0.487  -3.428  1.00  0.00     0.001 A 
HETATM   20  C14 UNL     1      -2.390   0.104  -2.802  1.00  0.00     0.010 A 
HETATM   21  C15 UNL     1      -2.331   0.806  -1.608  1.00  0.00    -0.020 A 
HETATM   22  C23 UNL     1      -1.095   0.909  -1.022  1.00  0.00     0.079 A 
BRANCH  21  23
HETATM   23  C16 UNL     1      -3.590   1.373  -1.112  1.00  0.00     0.080 C 
BRANCH  23  24
HETATM   24  C17 UNL     1      -4.181   0.642   0.034  1.00  0.00    -0.054 A 
HETATM   25  C18 UNL     1      -4.984  -0.472  -0.033  1.00  0.00     0.007 A 
HETATM   26  C19 UNL     1      -5.486  -1.058   1.131  1.00  0.00     0.001 A 
HETATM   27  C20 UNL     1      -5.204  -0.557   2.398  1.00  0.00     0.000 A 
HETATM   28  C21 UNL     1      -4.398   0.563   2.475  1.00  0.00     0.001 A 
HETATM   29  C22 UNL     1      -3.914   1.126   1.314  1.00  0.00     0.007 A 
ENDBRANCH  23  24
ENDBRANCH  21  23
BRANCH  22  30
HETATM   30  O1  UNL     1      -0.987   1.601   0.173  1.00  0.00    -0.360 OA
HETATM   31  H18 UNL     1      -0.240   2.263   0.311  1.00  0.00     0.217 HD
ENDBRANCH  22  30
ENDBRANCH  16  17
ENDBRANCH  15  16
ENDBRANCH   4  10
TORSDOF 7
