REMARK  3 active torsions:
REMARK  status: ('A' for Active; 'I' for Inactive)
REMARK    1  A    between atoms: C2_3  and  C23_25 
REMARK    2  A    between atoms: C7_8  and  C8_9 
REMARK    3  A    between atoms: C14_15  and  O1_16 
REMARK       I    between atoms: C23_25  and  N2_26 
ROOT
HETATM    1  N1  UNL     1      -2.904   5.398  -2.604  1.00  0.00    -0.191 NA
HETATM    2  C1  UNL     1      -2.891   4.445  -1.982  1.00  0.00     0.101 C 
HETATM    3  C2  UNL     1      -2.850   3.248  -1.190  1.00  0.00     0.093 C 
HETATM    4  C3  UNL     1      -2.014   2.477  -0.575  1.00  0.00     0.072 A 
HETATM    5  C4  UNL     1      -1.014   1.651   0.099  1.00  0.00    -0.068 A 
HETATM    6  C5  UNL     1       0.260   1.580   0.313  1.00  0.00    -0.018 C 
HETATM    7  C6  UNL     1       0.711   0.471   1.133  1.00  0.00     0.070 C 
HETATM    8  C7  UNL     1       1.735  -0.409   0.616  1.00  0.00    -0.011 C 
HETATM    9  C14 UNL     1       2.166  -1.661   0.274  1.00  0.00     0.073 C 
HETATM   10  C15 UNL     1       1.743  -3.070   0.210  1.00  0.00     0.037 C 
HETATM   11  C16 UNL     1       0.815  -3.984   0.369  1.00  0.00     0.002 C 
HETATM   12  C17 UNL     1      -0.453  -4.601   0.666  1.00  0.00    -0.004 C 
HETATM   13  C18 UNL     1      -1.595  -4.105   1.038  1.00  0.00    -0.027 C 
HETATM   14  C19 UNL     1      -1.454  -2.656   1.148  1.00  0.00     0.027 C 
HETATM   15  C20 UNL     1      -2.235  -2.042   0.005  1.00  0.00     0.005 C 
HETATM   16  C21 UNL     1      -2.186  -0.546  -0.011  1.00  0.00    -0.018 C 
HETATM   17  C22 UNL     1      -2.220   0.824  -0.034  1.00  0.00     0.055 A 
ENDROOT
BRANCH   3  18
HETATM   18  C23 UNL     1      -4.184   2.649  -0.956  1.00  0.00     0.235 C 
HETATM   19  N2  UNL     1      -5.274   1.845  -0.555  1.00  0.00    -0.268 NA
HETATM   20  H21 UNL     1      -5.207   1.281   0.341  1.00  0.00     0.127 HD
HETATM   21  H22 UNL     1      -5.261   1.268   0.320  1.00  0.00     0.127 HD
HETATM   22  O2  UNL     1      -5.273   3.138  -1.422  1.00  0.00    -0.274 OA
ENDBRANCH   3  18
BRANCH   8  23
HETATM   23  C8  UNL     1       2.759   0.598   0.248  1.00  0.00    -0.027 A 
HETATM   24  C9  UNL     1       3.337   1.589   0.977  1.00  0.00     0.012 A 
HETATM   25  C10 UNL     1       4.265   2.489   0.503  1.00  0.00     0.001 A 
HETATM   26  C11 UNL     1       4.663   2.401  -0.829  1.00  0.00     0.000 A 
HETATM   27  C12 UNL     1       4.110   1.417  -1.613  1.00  0.00     0.001 A 
HETATM   28  C13 UNL     1       3.181   0.540  -1.080  1.00  0.00     0.012 A 
ENDBRANCH   8  23
BRANCH   9  29
HETATM   29  O1  UNL     1       3.507  -1.607  -0.214  1.00  0.00    -0.360 OA
HETATM   30  H10 UNL     1       4.228  -1.873   0.443  1.00  0.00     0.217 HD
ENDBRANCH   9  29
TORSDOF 3
