REMARK  5 active torsions:
REMARK  status: ('A' for Active; 'I' for Inactive)
REMARK    1  A    between atoms: C2_3  and  C22_24 
REMARK    2  A    between atoms: C3_4  and  C4_5 
REMARK    3  A    between atoms: C6_7  and  C7_8 
REMARK    4  A    between atoms: C7_8  and  C8_9 
REMARK    5  A    between atoms: C14_15  and  O1_16 
REMARK       I    between atoms: C22_24  and  N2_25 
ROOT
HETATM    1  N1  UNL     1      -3.797  -0.759   1.517  1.00  0.00    -0.191 NA
HETATM    2  C1  UNL     1      -3.246  -1.091   0.553  1.00  0.00     0.105 C 
HETATM    3  C2  UNL     1      -2.551  -1.528  -0.639  1.00  0.00     0.112 C 
HETATM    4  C3  UNL     1      -1.400  -1.037  -1.056  1.00  0.00     0.040 C 
ENDROOT
BRANCH   3   5
HETATM    5  C22 UNL     1      -3.236  -2.591  -1.399  1.00  0.00     0.260 C 
HETATM    6  N2  UNL     1      -4.495  -3.155  -0.985  1.00  0.00    -0.365 N 
HETATM    7  H15 UNL     1      -4.199  -4.056  -0.502  1.00  0.00     0.159 HD
HETATM    8  H16 UNL     1      -5.538  -3.026  -0.975  1.00  0.00     0.159 HD
HETATM    9  O2  UNL     1      -2.820  -3.112  -2.462  1.00  0.00    -0.267 OA
ENDBRANCH   3   5
BRANCH   4  10
HETATM   10  C4  UNL     1      -0.677   0.019  -0.368  1.00  0.00    -0.022 A 
HETATM   11  C5  UNL     1       0.661  -0.089  -0.002  1.00  0.00     0.022 A 
HETATM   12  C6  UNL     1       1.372   0.926   0.640  1.00  0.00    -0.019 A 
HETATM   13  C14 UNL     1       0.694   2.107   0.925  1.00  0.00     0.079 A 
HETATM   14  C15 UNL     1      -0.643   2.244   0.570  1.00  0.00    -0.008 A 
HETATM   15  C16 UNL     1      -1.327   1.208  -0.072  1.00  0.00    -0.006 A 
HETATM   16  C21 UNL     1      -1.526   3.426   0.776  1.00  0.00     0.082 A 
HETATM   17  C17 UNL     1      -2.688   1.728  -0.309  1.00  0.00    -0.018 A 
HETATM   18  C18 UNL     1      -2.792   2.960   0.159  1.00  0.00    -0.043 A 
HETATM   19  C20 UNL     1      -4.098   1.844  -0.728  1.00  0.00     0.013 A 
HETATM   20  C19 UNL     1      -4.194   3.073  -0.259  1.00  0.00     0.009 A 
BRANCH  12  21
HETATM   21  C7  UNL     1       2.789   0.764   1.020  1.00  0.00     0.080 C 
BRANCH  21  22
HETATM   22  C8  UNL     1       3.449  -0.425   0.479  1.00  0.00    -0.054 A 
HETATM   23  C9  UNL     1       3.427  -1.696   1.009  1.00  0.00     0.007 A 
HETATM   24  C10 UNL     1       4.073  -2.783   0.461  1.00  0.00     0.001 A 
HETATM   25  C11 UNL     1       4.806  -2.596  -0.716  1.00  0.00     0.000 A 
HETATM   26  C12 UNL     1       4.864  -1.322  -1.301  1.00  0.00     0.001 A 
HETATM   27  C13 UNL     1       4.190  -0.264  -0.698  1.00  0.00     0.007 A 
ENDBRANCH  21  22
ENDBRANCH  12  21
BRANCH  13  28
HETATM   28  O1  UNL     1       1.422   3.103   1.565  1.00  0.00    -0.360 OA
HETATM   29  H10 UNL     1       1.764   2.884   2.494  1.00  0.00     0.217 HD
ENDBRANCH  13  28
ENDBRANCH   4  10
TORSDOF 5
