REMARK  8 active torsions:
REMARK  status: ('A' for Active; 'I' for Inactive)
REMARK       I    between atoms: N1_2  and  C2_3 
REMARK    1  A    between atoms: C2_3  and  C3_5 
REMARK    2  A    between atoms: C3_5  and  C5_8 
REMARK    3  A    between atoms: C6_9  and  P1_10 
REMARK    4  A    between atoms: C7_11  and  C8_12 
REMARK    5  A    between atoms: C8_12  and  C9_13 
REMARK    6  A    between atoms: C9_13  and  C10_14 
REMARK    7  A    between atoms: C16_20  and  C17_21 
REMARK    8  A    between atoms: C17_21  and  C18_22 
ROOT
HETATM    1  C3  UNL     1      -2.421   1.337   1.234  1.00  0.00     0.199 C 
HETATM    2  C4  UNL     1      -1.426   1.333   2.312  1.00  0.00     0.074 C 
HETATM    3  N2  UNL     1      -0.657   1.346   3.159  1.00  0.00    -0.196 NA
ENDROOT
BRANCH   1   4
HETATM    4  C2  UNL     1      -2.886   2.717   0.932  1.00  0.00     0.260 C 
HETATM    5  N1  UNL     1      -3.401   3.990   0.558  1.00  0.00    -0.236 NA
HETATM    6  C1  UNL     1      -4.664   4.204   0.815  1.00  0.00     0.153 C 
HETATM    7  O1  UNL     1      -2.044   2.830   1.862  1.00  0.00    -0.270 OA
ENDBRANCH   1   4
BRANCH   1   8
HETATM    8  C5  UNL     1      -1.799   0.764   0.014  1.00  0.00     0.076 A 
HETATM    9  C6  UNL     1      -0.644   1.493  -0.509  1.00  0.00    -0.034 A 
HETATM   10  C7  UNL     1       0.205   0.326  -0.297  1.00  0.00    -0.046 A 
HETATM   11  C16 UNL     1      -0.838  -0.337   0.177  1.00  0.00    -0.058 A 
BRANCH   9  12
HETATM   12  P1  UNL     1      -0.446   3.036  -1.095  1.00  0.00    -0.067 P 
HETATM   13  H5  UNL     1       0.839   3.525  -1.563  1.00  0.00     0.067 HD
ENDBRANCH   9  12
BRANCH  10  14
HETATM   14  C8  UNL     1       1.651   0.083  -0.547  1.00  0.00     0.044 C 
BRANCH  14  15
HETATM   15  C9  UNL     1       2.555   1.015   0.216  1.00  0.00     0.043 C 
BRANCH  15  16
HETATM   16  C10 UNL     1       3.956   0.628  -0.155  1.00  0.00    -0.058 A 
HETATM   17  C11 UNL     1       4.601  -0.327   0.608  1.00  0.00     0.007 A 
HETATM   18  C12 UNL     1       5.890  -0.681   0.266  1.00  0.00     0.001 A 
HETATM   19  C13 UNL     1       6.581  -0.143  -0.794  1.00  0.00     0.000 A 
HETATM   20  C14 UNL     1       5.900   0.809  -1.532  1.00  0.00     0.001 A 
HETATM   21  C15 UNL     1       4.608   1.196  -1.226  1.00  0.00     0.007 A 
ENDBRANCH  15  16
ENDBRANCH  14  15
ENDBRANCH  10  14
BRANCH  11  22
HETATM   22  C17 UNL     1      -1.028  -1.716   0.704  1.00  0.00     0.073 C 
BRANCH  22  23
HETATM   23  C18 UNL     1      -1.998  -2.515  -0.046  1.00  0.00    -0.054 A 
HETATM   24  C19 UNL     1      -1.603  -3.292  -1.116  1.00  0.00     0.007 A 
HETATM   25  C20 UNL     1      -2.545  -4.047  -1.817  1.00  0.00     0.001 A 
HETATM   26  C21 UNL     1      -3.871  -3.986  -1.403  1.00  0.00     0.000 A 
HETATM   27  C22 UNL     1      -4.288  -3.205  -0.323  1.00  0.00     0.001 A 
HETATM   28  C23 UNL     1      -3.328  -2.480   0.337  1.00  0.00     0.007 A 
ENDBRANCH  22  23
ENDBRANCH  11  22
ENDBRANCH   1   8
TORSDOF 8
