REMARK  4 active torsions:
REMARK  status: ('A' for Active; 'I' for Inactive)
REMARK    1  A    between atoms: C3_3  and  C4_4 
REMARK    2  A    between atoms: C4_4  and  C5_5 
REMARK    3  A    between atoms: C14_14  and  C16_17 
REMARK    4  A    between atoms: C17_19  and  O2_20 
ROOT
HETATM    1  C1  UNL     1       0.763  -2.856  -1.097  1.00  0.00     0.044 C 
HETATM    2  C2  UNL     1       0.307  -1.494  -0.787  1.00  0.00    -0.073 C 
HETATM    3  C3  UNL     1       0.921  -0.372  -1.293  1.00  0.00    -0.052 C 
HETATM    4  C11 UNL     1       0.375   0.984  -1.170  1.00  0.00     0.008 C 
HETATM    5  C12 UNL     1      -0.766   1.449  -0.662  1.00  0.00     0.012 C 
HETATM    6  C13 UNL     1      -2.088   1.794  -0.058  1.00  0.00    -0.003 C 
HETATM    7  C14 UNL     1      -2.288   3.179   0.015  1.00  0.00     0.077 C 
HETATM    8  C15 UNL     1      -2.602   4.500   0.142  1.00  0.00     0.102 C 
HETATM    9  N1  UNL     1      -2.853   5.617   0.235  1.00  0.00    -0.191 NA
HETATM   10  C17 UNL     1      -2.949   0.670   0.203  1.00  0.00     0.186 C 
HETATM   11  C18 UNL     1      -2.696  -0.346   1.208  1.00  0.00    -0.019 A 
HETATM   12  C19 UNL     1      -3.513  -0.420   2.312  1.00  0.00     0.011 A 
HETATM   13  C20 UNL     1      -3.250  -1.413   3.202  1.00  0.00     0.001 A 
HETATM   14  C21 UNL     1      -2.290  -2.394   3.216  1.00  0.00     0.001 A 
HETATM   15  C22 UNL     1      -1.477  -2.282   2.072  1.00  0.00     0.008 A 
HETATM   16  C23 UNL     1      -1.684  -1.293   1.119  1.00  0.00    -0.045 A 
HETATM   17  C24 UNL     1      -0.681  -1.395   0.159  1.00  0.00     0.073 C 
ENDROOT
BRANCH   7  18
HETATM   18  C16 UNL     1      -3.362   2.950   1.050  1.00  0.00     0.401 C 
HETATM   19  O1  UNL     1      -4.307   2.982   1.942  1.00  0.00    -0.404 OA
ENDBRANCH   7  18
BRANCH  10  20
HETATM   20  O2  UNL     1      -4.305   1.071   0.320  1.00  0.00    -0.386 OA
HETATM   21  H15 UNL     1      -4.899   0.288   0.402  1.00  0.00     0.210 HD
ENDBRANCH  10  20
BRANCH   3  22
HETATM   22  C4  UNL     1       2.059  -0.640  -2.144  1.00  0.00     0.077 C 
BRANCH  22  23
HETATM   23  C5  UNL     1       3.382  -0.183  -1.684  1.00  0.00    -0.054 A 
HETATM   24  C6  UNL     1       4.213  -1.131  -1.085  1.00  0.00     0.007 A 
HETATM   25  C7  UNL     1       5.461  -0.750  -0.644  1.00  0.00     0.001 A 
HETATM   26  C8  UNL     1       5.973   0.521  -0.746  1.00  0.00     0.000 A 
HETATM   27  C9  UNL     1       5.137   1.468  -1.346  1.00  0.00     0.001 A 
HETATM   28  C10 UNL     1       3.884   1.116  -1.799  1.00  0.00     0.007 A 
ENDBRANCH  22  23
ENDBRANCH   3  22
TORSDOF 4
