REMARK  5 active torsions:
REMARK  status: ('A' for Active; 'I' for Inactive)
REMARK    1  A    between atoms: C2_3  and  C10_13 
REMARK    2  A    between atoms: C3_4  and  C4_5 
REMARK    3  A    between atoms: C7_8  and  O1_9 
REMARK    4  A    between atoms: C8_10  and  O2_11 
REMARK    5  A    between atoms: C13_17  and  C14_18 
ROOT
HETATM    1  N1  UNL     1       1.132  -2.973   0.466  1.00  0.00    -0.192 NA
HETATM    2  C1  UNL     1       0.816  -1.977  -0.021  1.00  0.00     0.097 C 
HETATM    3  C2  UNL     1       0.407  -0.716  -0.619  1.00  0.00     0.057 C 
HETATM    4  C3  UNL     1       1.195   0.338  -0.713  1.00  0.00     0.032 C 
ENDROOT
BRANCH   3   5
HETATM    5  C10 UNL     1      -0.979  -0.673  -1.138  1.00  0.00     0.273 C 
HETATM    6  N2  UNL     1      -1.220  -1.648  -2.199  1.00  0.00     0.093 N 
HETATM    7  C11 UNL     1      -2.691  -1.676  -2.185  1.00  0.00     0.271 C 
HETATM    8  H8  UNL     1      -0.944  -2.575  -1.761  1.00  0.00     0.316 HD
HETATM    9  C12 UNL     1      -2.886  -2.004  -0.708  1.00  0.00     0.043 C 
HETATM   10  C13 UNL     1      -2.015  -0.986  -0.060  1.00  0.00     0.077 C 
BRANCH  10  11
HETATM   11  C14 UNL     1      -2.686   0.194   0.482  1.00  0.00     0.038 C 
HETATM   12  C15 UNL     1      -3.978   0.480   0.454  1.00  0.00     0.005 C 
HETATM   13  C16 UNL     1      -4.471   1.761   1.077  1.00  0.00     0.058 C 
HETATM   14  C17 UNL     1      -3.642   1.893   2.329  1.00  0.00     0.011 C 
HETATM   15  C18 UNL     1      -2.380   1.944   2.007  1.00  0.00     0.082 C 
HETATM   16  N3  UNL     1      -1.876   1.175   1.132  1.00  0.00    -0.251 NA
ENDBRANCH  10  11
ENDBRANCH   3   5
BRANCH   4  17
HETATM   17  C4  UNL     1       2.573   0.480  -0.268  1.00  0.00    -0.032 A 
HETATM   18  C5  UNL     1       3.482   1.163  -1.061  1.00  0.00     0.014 A 
HETATM   19  C6  UNL     1       4.806   1.394  -0.785  1.00  0.00     0.040 A 
HETATM   20  C7  UNL     1       5.255   0.888   0.407  1.00  0.00     0.098 A 
HETATM   21  C8  UNL     1       4.413   0.200   1.247  1.00  0.00     0.099 A 
HETATM   22  C9  UNL     1       3.073  -0.009   0.918  1.00  0.00     0.051 A 
BRANCH  20  23
HETATM   23  O1  UNL     1       6.579   1.076   0.763  1.00  0.00    -0.358 OA
HETATM   24  H4  UNL     1       7.271   1.504   0.194  1.00  0.00     0.217 HD
ENDBRANCH  20  23
BRANCH  21  25
HETATM   25  O2  UNL     1       4.940  -0.288   2.448  1.00  0.00    -0.358 OA
HETATM   26  H5  UNL     1       5.710   0.191   2.869  1.00  0.00     0.217 HD
ENDBRANCH  21  25
ENDBRANCH   4  17
TORSDOF 5
