REMARK  2 active torsions:
REMARK  status: ('A' for Active; 'I' for Inactive)
REMARK    1  A    between atoms: N1_1  and  C1_2 
REMARK    2  A    between atoms: C3_4  and  S1_5 
ROOT
HETATM    1  C1  UNL     1      -0.929   1.870   1.840  1.00  0.00     0.011 C 
HETATM    2  C2  UNL     1      -1.636   0.780   1.684  1.00  0.00     0.063 C 
HETATM    3  C3  UNL     1      -2.208  -0.521   1.372  1.00  0.00     0.078 C 
HETATM    4  C4  UNL     1      -2.846  -0.613   0.056  1.00  0.00     0.001 C 
HETATM    5  C5  UNL     1      -2.897  -1.739  -0.623  1.00  0.00    -0.029 C 
HETATM    6  C6  UNL     1      -2.313  -2.733  -0.051  1.00  0.00     0.012 C 
HETATM    7  C7  UNL     1      -0.966  -2.175  -0.184  1.00  0.00     0.002 C 
HETATM    8  C8  UNL     1      -0.218  -2.120  -1.284  1.00  0.00     0.011 C 
HETATM    9  C9  UNL     1       1.097  -1.651  -1.727  1.00  0.00    -0.036 A 
HETATM   10  C10 UNL     1       1.972  -2.292  -2.547  1.00  0.00     0.011 A 
HETATM   11  C11 UNL     1       3.144  -1.625  -2.774  1.00  0.00     0.001 A 
HETATM   12  C12 UNL     1       3.463  -0.405  -2.244  1.00  0.00     0.009 A 
HETATM   13  C13 UNL     1       2.582   0.252  -1.412  1.00  0.00    -0.033 A 
HETATM   14  C14 UNL     1       1.393  -0.447  -1.194  1.00  0.00     0.020 A 
HETATM   15  C15 UNL     1       2.708   1.585  -0.702  1.00  0.00     0.213 C 
HETATM   16  O1  UNL     1       1.845   1.457   0.425  1.00  0.00    -0.358 OA
HETATM   17  C16 UNL     1       1.416   2.572   1.097  1.00  0.00     0.137 C 
HETATM   18  C17 UNL     1       0.239   2.695   1.676  1.00  0.00     0.049 C 
ENDROOT
BRANCH   1  19
HETATM   19  N1  UNL     1      -2.072   2.318   2.559  1.00  0.00    -0.402 N 
HETATM   20  H1  UNL     1      -2.996   2.806   2.549  1.00  0.00     0.156 HD
HETATM   21  H2  UNL     1      -2.560   2.379   3.504  1.00  0.00     0.156 HD
ENDBRANCH   1  19
BRANCH   3  22
HETATM   22  S1  UNL     1      -3.792  -0.442   2.405  1.00  0.00    -0.173 SA
HETATM   23  H5  UNL     1      -4.667   0.476   1.854  1.00  0.00     0.102 HD
ENDBRANCH   3  22
TORSDOF 2
