REMARK  2 active torsions:
REMARK  status: ('A' for Active; 'I' for Inactive)
REMARK    1  A    between atoms: C14_16  and  N3_17 
REMARK    2  A    between atoms: N3_17  and  S1_18 
ROOT
HETATM    1  C1  UNL     1      -4.422   2.267  -0.388  1.00  0.00     0.023 C 
HETATM    2  C2  UNL     1      -3.202   1.466  -0.766  1.00  0.00     0.081 C 
HETATM    3  C3  UNL     1      -3.559   0.152  -1.218  1.00  0.00    -0.014 C 
HETATM    4  C4  UNL     1      -3.849  -1.110  -1.602  1.00  0.00    -0.005 C 
HETATM    5  C5  UNL     1      -3.372  -2.513  -1.273  1.00  0.00     0.000 C 
HETATM    6  C6  UNL     1      -2.514  -3.258  -0.530  1.00  0.00     0.132 C 
HETATM    7  N1  UNL     1      -1.476  -2.967   0.469  1.00  0.00    -0.363 N 
HETATM    8  C7  UNL     1      -0.683  -1.954   1.198  1.00  0.00     0.140 C 
HETATM    9  C8  UNL     1       0.589  -1.953   0.931  1.00  0.00     0.134 C 
HETATM   10  N2  UNL     1       1.718  -1.223   1.336  1.00  0.00    -0.385 N 
HETATM   11  C9  UNL     1       1.927   0.238   1.188  1.00  0.00     0.138 C 
HETATM   12  C10 UNL     1       0.536   0.749   1.127  1.00  0.00     0.096 C 
HETATM   13  C11 UNL     1       0.259   2.074   0.523  1.00  0.00     0.057 C 
HETATM   14  C12 UNL     1       1.275   2.701  -0.052  1.00  0.00     0.035 C 
HETATM   15  C13 UNL     1       2.477   1.924  -0.335  1.00  0.00     0.030 C 
HETATM   16  C14 UNL     1       2.605   0.620  -0.045  1.00  0.00     0.042 C 
HETATM   17  O3  UNL     1      -1.112   2.420   0.693  1.00  0.00    -0.299 OA
HETATM   18  C16 UNL     1      -2.151   1.578   0.298  1.00  0.00     0.154 C 
HETATM   19  N4  UNL     1      -1.980   0.768   1.219  1.00  0.00    -0.221 NA
HETATM   20  C17 UNL     1      -2.445  -0.392   1.751  1.00  0.00     0.237 C 
HETATM   21  N5  UNL     1      -1.930  -1.588   1.771  1.00  0.00    -0.223 NA
HETATM   22  H9  UNL     1      -1.146  -3.925   0.810  1.00  0.00     0.162 HD
HETATM   23  H11 UNL     1       2.512  -1.761   1.798  1.00  0.00     0.159 HD
ENDROOT
BRANCH  16  24
HETATM   24  N3  UNL     1       3.383  -0.122  -1.009  1.00  0.00    -0.287 N 
HETATM   25  H17 UNL     1       2.859  -0.747  -1.687  1.00  0.00     0.178 HD
BRANCH  24  26
HETATM   26  S1  UNL     1       5.075   0.096  -0.942  1.00  0.00     0.227 S 
HETATM   27  C15 UNL     1       5.793  -0.408   0.600  1.00  0.00     0.186 C 
HETATM   28  O1  UNL     1       5.375   1.571  -1.078  1.00  0.00    -0.206 OA
HETATM   29  O2  UNL     1       5.804  -0.584  -2.037  1.00  0.00    -0.206 OA
ENDBRANCH  24  26
ENDBRANCH  16  24
TORSDOF 2
