REMARK  8 active torsions:
REMARK  status: ('A' for Active; 'I' for Inactive)
REMARK    1  A    between atoms: C2_2  and  C3_3 
REMARK    2  A    between atoms: C3_3  and  C4_4 
REMARK    3  A    between atoms: C6_6  and  C7_7 
REMARK    4  A    between atoms: C7_7  and  C9_10 
REMARK       I    between atoms: C9_10  and  N2_11 
REMARK    5  A    between atoms: C11_14  and  C12_15 
REMARK    6  A    between atoms: C12_15  and  S1_16 
REMARK    7  A    between atoms: S1_16  and  C13_17 
REMARK    8  A    between atoms: C20_24  and  O2_25 
ROOT
HETATM    1  C7  UNL     1      -3.592   2.465   0.592  1.00  0.00     0.217 C 
HETATM    2  C8  UNL     1      -3.473   3.112   1.917  1.00  0.00     0.078 C 
HETATM    3  N1  UNL     1      -3.371   3.629   2.967  1.00  0.00    -0.196 NA
ENDROOT
BRANCH   1   4
HETATM    4  C6  UNL     1      -2.714   1.261   0.555  1.00  0.00    -0.030 A 
HETATM    5  C5  UNL     1      -3.255   0.006   0.368  1.00  0.00     0.019 A 
HETATM    6  C4  UNL     1      -2.531  -1.169   0.319  1.00  0.00    -0.024 A 
HETATM    7  C20 UNL     1      -1.163  -1.074   0.469  1.00  0.00     0.079 A 
HETATM    8  C11 UNL     1      -0.560   0.172   0.661  1.00  0.00    -0.014 A 
HETATM    9  C10 UNL     1      -1.345   1.330   0.701  1.00  0.00     0.019 A 
BRANCH   6  10
HETATM   10  C3  UNL     1      -3.215  -2.468   0.113  1.00  0.00     0.041 C 
BRANCH  10  11
HETATM   11  C2  UNL     1      -3.066  -3.015  -1.282  1.00  0.00     0.000 C 
HETATM   12  C1  UNL     1      -3.815  -4.336  -1.332  1.00  0.00     0.005 C 
ENDBRANCH  10  11
ENDBRANCH   6  10
BRANCH   7  13
HETATM   13  O2  UNL     1      -0.384  -2.224   0.428  1.00  0.00    -0.360 OA
HETATM   14  H22 UNL     1       0.032  -2.556   1.290  1.00  0.00     0.217 HD
ENDBRANCH   7  13
BRANCH   8  15
HETATM   15  C12 UNL     1       0.925   0.238   0.820  1.00  0.00     0.121 C 
BRANCH  15  16
HETATM   16  S1  UNL     1       1.732   0.030  -0.800  1.00  0.00    -0.125 SA
BRANCH  16  17
HETATM   17  C13 UNL     1       3.497   0.121  -0.534  1.00  0.00     0.000 A 
HETATM   18  C14 UNL     1       4.172  -1.039  -0.271  1.00  0.00     0.019 A 
HETATM   19  C15 UNL     1       5.539  -0.961  -0.065  1.00  0.00     0.008 A 
HETATM   20  C16 UNL     1       6.210   0.248  -0.123  1.00  0.00    -0.062 A 
HETATM   21  C17 UNL     1       7.677   0.261   0.108  1.00  0.00     0.048 C 
HETATM   22  C18 UNL     1       5.506   1.396  -0.389  1.00  0.00     0.008 A 
HETATM   23  C19 UNL     1       4.131   1.347  -0.600  1.00  0.00     0.019 A 
ENDBRANCH  16  17
ENDBRANCH  15  16
ENDBRANCH   8  15
ENDBRANCH   1   4
BRANCH   1  24
HETATM   24  C9  UNL     1      -3.279   3.424  -0.470  1.00  0.00     0.237 C 
HETATM   25  N2  UNL     1      -4.110   4.577  -0.437  1.00  0.00    -0.369 N 
HETATM   26  H10 UNL     1      -5.066   4.747  -0.062  1.00  0.00     0.159 HD
HETATM   27  H11 UNL     1      -3.919   5.537  -0.800  1.00  0.00     0.159 HD
HETATM   28  O1  UNL     1      -2.442   3.476  -1.417  1.00  0.00    -0.272 OA
ENDBRANCH   1  24
TORSDOF 8
