REMARK  5 active torsions:
REMARK  status: ('A' for Active; 'I' for Inactive)
REMARK    1  A    between atoms: N1_7  and  C7_8 
REMARK    2  A    between atoms: C7_8  and  C8_9 
REMARK    3  A    between atoms: C10_12  and  C11_13 
REMARK    4  A    between atoms: C14_16  and  O1_17 
REMARK    5  A    between atoms: C15_18  and  O2_19 
ROOT
HETATM    1  C8  UNL     1      -0.092  -0.788  -0.580  1.00  0.00     0.041 C 
HETATM    2  C9  UNL     1       0.205  -0.165  -1.813  1.00  0.00     0.097 C 
HETATM    3  N2  UNL     1       0.456   0.337  -2.856  1.00  0.00    -0.192 NA
HETATM    4  C10 UNL     1       0.918  -0.837   0.271  1.00  0.00     0.031 C 
ENDROOT
BRANCH   1   5
HETATM    5  C7  UNL     1      -1.398  -1.367  -0.158  1.00  0.00     0.173 C 
BRANCH   5   6
HETATM    6  N1  UNL     1      -2.403  -0.326  -0.200  1.00  0.00    -0.378 N 
HETATM    7  C2  UNL     1      -3.045   0.281   0.937  1.00  0.00     0.103 A 
HETATM    8  C1  UNL     1      -3.595  -0.770   1.857  1.00  0.00     0.037 C 
HETATM    9  C3  UNL     1      -4.043   1.268   0.477  1.00  0.00    -0.002 A 
HETATM   10  C4  UNL     1      -4.366   1.637  -0.763  1.00  0.00    -0.001 A 
HETATM   11  C5  UNL     1      -3.621   0.956  -1.818  1.00  0.00     0.017 A 
HETATM   12  C6  UNL     1      -2.700   0.039  -1.564  1.00  0.00     0.086 A 
ENDBRANCH   5   6
ENDBRANCH   1   5
BRANCH   4  13
HETATM   13  C11 UNL     1       2.316  -0.426   0.319  1.00  0.00    -0.032 A 
HETATM   14  C12 UNL     1       3.009  -0.686  -0.867  1.00  0.00     0.014 A 
HETATM   15  C13 UNL     1       4.356  -0.351  -0.980  1.00  0.00     0.040 A 
HETATM   16  C14 UNL     1       4.976   0.241   0.111  1.00  0.00     0.098 A 
HETATM   17  C15 UNL     1       4.269   0.493   1.282  1.00  0.00     0.099 A 
HETATM   18  C16 UNL     1       2.931   0.160   1.395  1.00  0.00     0.051 A 
BRANCH  16  19
HETATM   19  O1  UNL     1       6.307   0.612   0.113  1.00  0.00    -0.358 OA
HETATM   20  H14 UNL     1       6.817   0.504  -0.783  1.00  0.00     0.217 HD
ENDBRANCH  16  19
BRANCH  17  21
HETATM   21  O2  UNL     1       4.815   1.086   2.420  1.00  0.00    -0.358 OA
HETATM   22  H15 UNL     1       5.440   1.891   2.301  1.00  0.00     0.217 HD
ENDBRANCH  17  21
ENDBRANCH   4  13
TORSDOF 5
