REMARK  8 active torsions:
REMARK  status: ('A' for Active; 'I' for Inactive)
REMARK    1  A    between atoms: C2_2  and  C3_3 
REMARK    2  A    between atoms: C3_3  and  S1_10 
REMARK    3  A    between atoms: C4_4  and  C5_5 
REMARK    4  A    between atoms: C6_6  and  O1_7 
REMARK    5  A    between atoms: C6_6  and  C7_8 
REMARK    6  A    between atoms: C7_8  and  O2_9 
REMARK    7  A    between atoms: S1_10  and  C8_11 
REMARK    8  A    between atoms: C8_11  and  C9_13 
ROOT
HETATM    1  C9  UNL     1      -2.114   1.384   0.238  1.00  0.00     0.042 A 
HETATM    2  C10 UNL     1      -2.388   0.593   1.348  1.00  0.00     0.018 A 
HETATM    3  C11 UNL     1      -3.428   0.685   2.240  1.00  0.00     0.008 A 
HETATM    4  C12 UNL     1      -4.317   1.700   1.997  1.00  0.00    -0.060 A 
HETATM    5  C13 UNL     1      -5.471   1.872   2.912  1.00  0.00     0.048 C 
HETATM    6  C14 UNL     1      -4.179   2.566   0.936  1.00  0.00     0.030 A 
HETATM    7  C15 UNL     1      -3.092   2.377   0.102  1.00  0.00     0.059 A 
HETATM    8  C16 UNL     1      -2.992   3.305  -0.989  1.00  0.00     0.100 C 
HETATM    9  N1  UNL     1      -2.892   4.050  -1.872  1.00  0.00    -0.191 NA
ENDROOT
BRANCH   1  10
HETATM   10  C8  UNL     1      -0.966   1.209  -0.669  1.00  0.00     0.221 C 
HETATM   11  O3  UNL     1      -1.070   2.126  -1.555  1.00  0.00    -0.280 OA
BRANCH  10  12
HETATM   12  S1  UNL     1       0.067  -0.151  -0.191  1.00  0.00    -0.074 SA
BRANCH  12  13
HETATM   13  C3  UNL     1       1.430  -0.343  -1.291  1.00  0.00     0.040 C 
HETATM   14  C4  UNL     1       2.108  -1.402  -0.810  1.00  0.00    -0.004 C 
BRANCH  13  15
HETATM   15  C2  UNL     1       2.032   0.230  -2.481  1.00  0.00    -0.016 C 
HETATM   16  C1  UNL     1       1.207   1.224  -2.748  1.00  0.00     0.065 C 
ENDBRANCH  13  15
BRANCH  14  17
HETATM   17  C5  UNL     1       3.289  -1.736  -1.587  1.00  0.00     0.031 C 
HETATM   18  C6  UNL     1       4.077  -2.745  -1.266  1.00  0.00     0.066 C 
BRANCH  18  19
HETATM   19  O1  UNL     1       3.436  -3.231  -0.130  1.00  0.00    -0.363 OA
HETATM   20  H6  UNL     1       3.794  -3.048   0.800  1.00  0.00     0.217 HD
ENDBRANCH  18  19
BRANCH  18  21
HETATM   21  C7  UNL     1       5.207  -3.652  -1.382  1.00  0.00     0.228 C 
BRANCH  21  22
HETATM   22  O2  UNL     1       6.010  -3.598  -0.267  1.00  0.00    -0.394 OA
HETATM   23  H9  UNL     1       5.834  -2.803   0.284  1.00  0.00     0.209 HD
ENDBRANCH  21  22
ENDBRANCH  18  21
ENDBRANCH  14  17
ENDBRANCH  12  13
ENDBRANCH  10  12
ENDBRANCH   1  10
TORSDOF 8
