REMARK  5 active torsions:
REMARK  status: ('A' for Active; 'I' for Inactive)
REMARK    1  A    between atoms: C3_3  and  O1_4 
REMARK    2  A    between atoms: C5_6  and  C6_7 
REMARK    3  A    between atoms: C7_8  and  C9_11 
REMARK       I    between atoms: C9_11  and  N2_13 
REMARK    4  A    between atoms: N2_13  and  C10_14 
REMARK    5  A    between atoms: C16_20  and  O3_21 
ROOT
HETATM    1  C6  UNL     1       1.141   0.225   0.234  1.00  0.00     0.042 C 
HETATM    2  C7  UNL     1       0.203  -0.682   0.386  1.00  0.00     0.113 C 
HETATM    3  C8  UNL     1       0.349  -2.092   0.459  1.00  0.00     0.105 C 
HETATM    4  N1  UNL     1       0.449  -3.257   0.521  1.00  0.00    -0.191 NA
ENDROOT
BRANCH   2   5
HETATM    5  C9  UNL     1      -1.173  -0.209   0.496  1.00  0.00     0.266 C 
HETATM    6  O2  UNL     1      -1.259   1.047   0.426  1.00  0.00    -0.267 OA
HETATM    7  N2  UNL     1      -2.295  -1.057   0.663  1.00  0.00    -0.322 N 
HETATM    8  H6  UNL     1      -2.079  -2.071   0.704  1.00  0.00     0.169 HD
BRANCH   7   9
HETATM    9  C10 UNL     1      -3.520  -0.295   0.740  1.00  0.00     0.035 A 
HETATM   10  C11 UNL     1      -4.224  -0.010  -0.433  1.00  0.00     0.029 A 
HETATM   11  C12 UNL     1      -5.408   0.718  -0.432  1.00  0.00     0.002 A 
HETATM   12  C13 UNL     1      -5.875   1.159   0.802  1.00  0.00     0.000 A 
HETATM   13  C14 UNL     1      -5.199   0.889   1.963  1.00  0.00     0.002 A 
HETATM   14  C15 UNL     1      -4.022   0.164   1.953  1.00  0.00     0.029 A 
ENDBRANCH   7   9
ENDBRANCH   2   5
BRANCH   1  15
HETATM   15  C5  UNL     1       2.571   0.037   0.100  1.00  0.00     0.002 A 
HETATM   16  C4  UNL     1       3.315  -1.212   0.102  1.00  0.00     0.051 A 
HETATM   17  C3  UNL     1       4.615  -1.057  -0.039  1.00  0.00     0.078 A 
HETATM   18  C2  UNL     1       4.811   0.373  -0.149  1.00  0.00     0.022 A 
HETATM   19  C1  UNL     1       5.958   1.022  -0.306  1.00  0.00     0.029 C 
HETATM   20  C16 UNL     1       3.502   0.993  -0.054  1.00  0.00     0.088 A 
BRANCH  17  21
HETATM   21  O1  UNL     1       5.662  -1.959  -0.089  1.00  0.00    -0.360 OA
HETATM   22  H3  UNL     1       5.530  -2.931   0.154  1.00  0.00     0.217 HD
ENDBRANCH  17  21
BRANCH  20  23
HETATM   23  O3  UNL     1       3.268   2.369  -0.116  1.00  0.00    -0.359 OA
HETATM   24  H12 UNL     1       2.588   2.776  -0.753  1.00  0.00     0.217 HD
ENDBRANCH  20  23
ENDBRANCH   1  15
TORSDOF 5
