REMARK  1 active torsions:
REMARK  status: ('A' for Active; 'I' for Inactive)
REMARK    1  A    between atoms: C11_14  and  O2_15 
ROOT
HETATM    1  C1  UNL     1      -1.121  -3.721   0.293  1.00  0.00     0.039 C 
HETATM    2  C2  UNL     1      -1.417  -2.440   0.303  1.00  0.00    -0.071 C 
HETATM    3  C3  UNL     1      -2.604  -1.521   0.425  1.00  0.00     0.036 C 
HETATM    4  C4  UNL     1      -2.877  -0.848  -0.877  1.00  0.00     0.024 C 
HETATM    5  C5  UNL     1      -3.686   0.422  -0.863  1.00  0.00     0.125 C 
HETATM    6  N1  UNL     1      -2.949   1.455  -0.177  1.00  0.00    -0.341 N 
HETATM    7  C6  UNL     1      -2.223   2.465   0.515  1.00  0.00     0.341 C 
HETATM    8  O1  UNL     1      -2.416   1.799   1.593  1.00  0.00    -0.245 OA
HETATM    9  N2  UNL     1      -1.515   3.677   0.442  1.00  0.00    -0.207 NA
HETATM   10  C7  UNL     1      -0.275   3.854   0.311  1.00  0.00     0.126 C 
HETATM   11  C8  UNL     1       0.855   2.957   0.189  1.00  0.00    -0.048 A 
HETATM   12  C9  UNL     1       2.169   2.686   0.055  1.00  0.00     0.050 A 
HETATM   13  C10 UNL     1       3.376   1.886  -0.074  1.00  0.00     0.021 A 
HETATM   14  C11 UNL     1       3.579   0.565  -0.112  1.00  0.00     0.110 A 
HETATM   15  C12 UNL     1       3.357  -0.943  -0.111  1.00  0.00     0.235 A 
HETATM   16  O3  UNL     1       2.089  -1.279   0.009  1.00  0.00    -0.380 OA
HETATM   17  C13 UNL     1       1.515  -2.493   0.037  1.00  0.00     0.206 A 
HETATM   18  C14 UNL     1       0.010  -2.317   0.176  1.00  0.00    -0.036 A 
HETATM   19  C15 UNL     1       0.127  -1.004   0.191  1.00  0.00     0.003 A 
HETATM   20  C16 UNL     1       0.161   0.435   0.217  1.00  0.00    -0.006 A 
HETATM   21  C17 UNL     1       0.920   1.553   0.157  1.00  0.00     0.056 A 
HETATM   22  H9  UNL     1      -2.751   2.111  -0.998  1.00  0.00     0.164 HD
ENDROOT
BRANCH  14  23
HETATM   23  O2  UNL     1       4.998   0.558  -0.251  1.00  0.00    -0.158 OA
HETATM   24  F1  UNL     1       5.777   0.821   0.811  1.00  0.00    -0.042 F 
ENDBRANCH  14  23
TORSDOF 1
