REMARK  5 active torsions:
REMARK  status: ('A' for Active; 'I' for Inactive)
REMARK    1  A    between atoms: C2_3  and  S1_13 
REMARK    2  A    between atoms: C3_4  and  C4_5 
REMARK    3  A    between atoms: C7_8  and  O1_9 
REMARK    4  A    between atoms: C8_10  and  O2_11 
REMARK    5  A    between atoms: S1_13  and  C10_15 
ROOT
HETATM    1  N1  UNL     1       2.306  -3.408  -1.583  1.00  0.00    -0.191 NA
HETATM    2  C1  UNL     1       1.526  -2.689  -1.069  1.00  0.00     0.109 C 
HETATM    3  C2  UNL     1       0.541  -1.812  -0.442  1.00  0.00     0.117 C 
HETATM    4  C3  UNL     1      -0.705  -1.821  -0.891  1.00  0.00     0.044 C 
ENDROOT
BRANCH   3   5
HETATM    5  S1  UNL     1       1.217  -0.856   0.874  1.00  0.00     0.095 S 
HETATM    6  O3  UNL     1       0.214  -0.331   1.833  1.00  0.00    -0.247 OA
BRANCH   5   7
HETATM    7  C10 UNL     1       2.486   0.219   0.373  1.00  0.00     0.037 A 
HETATM    8  C11 UNL     1       3.786  -0.294   0.416  1.00  0.00     0.021 A 
HETATM    9  C12 UNL     1       4.914   0.442   0.046  1.00  0.00     0.001 A 
HETATM   10  C13 UNL     1       4.720   1.729  -0.378  1.00  0.00     0.000 A 
HETATM   11  C14 UNL     1       3.446   2.256  -0.429  1.00  0.00     0.001 A 
HETATM   12  C15 UNL     1       2.325   1.534  -0.064  1.00  0.00     0.021 A 
ENDBRANCH   5   7
ENDBRANCH   3   5
BRANCH   4  13
HETATM   13  C4  UNL     1      -1.925  -1.124  -0.550  1.00  0.00    -0.031 A 
HETATM   14  C5  UNL     1      -3.177  -1.743  -0.476  1.00  0.00     0.014 A 
HETATM   15  C6  UNL     1      -4.294  -1.003  -0.156  1.00  0.00     0.040 A 
HETATM   16  C7  UNL     1      -4.176   0.344   0.092  1.00  0.00     0.098 A 
HETATM   17  C8  UNL     1      -2.965   0.979   0.027  1.00  0.00     0.099 A 
HETATM   18  C9  UNL     1      -1.852   0.232  -0.294  1.00  0.00     0.051 A 
BRANCH  16  19
HETATM   19  O1  UNL     1      -5.360   1.005   0.407  1.00  0.00    -0.358 OA
HETATM   20  H4  UNL     1      -6.175   0.989  -0.210  1.00  0.00     0.217 HD
ENDBRANCH  16  19
BRANCH  17  21
HETATM   21  O2  UNL     1      -2.931   2.326   0.288  1.00  0.00    -0.358 OA
HETATM   22  H5  UNL     1      -3.679   2.833   0.696  1.00  0.00     0.217 HD
ENDBRANCH  17  21
ENDBRANCH   4  13
TORSDOF 5
