REMARK  6 active torsions:
REMARK  status: ('A' for Active; 'I' for Inactive)
REMARK    1  A    between atoms: C7_7  and  C8_8 
REMARK    2  A    between atoms: C8_8  and  N1_9 
REMARK       I    between atoms: N1_9  and  C9_10 
REMARK    3  A    between atoms: C9_10  and  C10_12 
REMARK    4  A    between atoms: C10_12  and  C12_15 
REMARK    5  A    between atoms: C16_19  and  O2_20 
REMARK    6  A    between atoms: O2_20  and  O3_21 
ROOT
HETATM    1  C10 UNL     1       1.660   0.863   0.087  1.00  0.00     0.216 C 
HETATM    2  C11 UNL     1       1.675   1.882   1.164  1.00  0.00     0.078 C 
HETATM    3  N2  UNL     1       1.686   2.670   2.013  1.00  0.00    -0.196 NA
ENDROOT
BRANCH   1   4
HETATM    4  C9  UNL     1       0.351   0.159   0.178  1.00  0.00     0.239 C 
HETATM    5  N1  UNL     1      -0.092  -0.898  -0.657  1.00  0.00    -0.355 N 
HETATM    6  H10 UNL     1       0.589  -1.182  -1.391  1.00  0.00     0.162 HD
HETATM    7  O1  UNL     1      -0.141   0.799   1.169  1.00  0.00    -0.272 OA
BRANCH   5   8
HETATM    8  C8  UNL     1      -1.421  -1.305  -0.243  1.00  0.00     0.161 C 
BRANCH   8   9
HETATM    9  C7  UNL     1      -2.408  -0.228  -0.355  1.00  0.00    -0.035 A 
HETATM   10  C2  UNL     1      -3.652  -0.563   0.155  1.00  0.00    -0.054 A 
HETATM   11  C1  UNL     1      -4.013  -1.883   0.780  1.00  0.00     0.049 C 
HETATM   12  C3  UNL     1      -4.724   0.313   0.141  1.00  0.00     0.007 A 
HETATM   13  C4  UNL     1      -4.558   1.573  -0.401  1.00  0.00     0.001 A 
HETATM   14  C5  UNL     1      -3.316   1.937  -0.922  1.00  0.00     0.001 A 
HETATM   15  C6  UNL     1      -2.270   1.036  -0.890  1.00  0.00     0.009 A 
ENDBRANCH   8   9
ENDBRANCH   5   8
ENDBRANCH   1   4
BRANCH   1  16
HETATM   16  C12 UNL     1       2.799  -0.048   0.259  1.00  0.00    -0.018 A 
HETATM   17  C13 UNL     1       2.768  -1.356   0.448  1.00  0.00     0.007 A 
HETATM   18  C14 UNL     1       4.120  -1.893   0.572  1.00  0.00    -0.001 A 
HETATM   19  C15 UNL     1       4.949  -0.872   0.452  1.00  0.00     0.012 A 
HETATM   20  C16 UNL     1       4.215   0.406   0.241  1.00  0.00     0.214 A 
BRANCH  20  21
HETATM   21  O2  UNL     1       4.572   1.023  -0.943  1.00  0.00    -0.229 OA
BRANCH  21  22
HETATM   22  O3  UNL     1       5.069   2.232  -0.776  1.00  0.00    -0.250 OA
HETATM   23  H16 UNL     1       4.909   2.600   0.123  1.00  0.00     0.253 HD
ENDBRANCH  21  22
ENDBRANCH  20  21
ENDBRANCH   1  16
TORSDOF 6
