REMARK  8 active torsions:
REMARK  status: ('A' for Active; 'I' for Inactive)
REMARK    1  A    between atoms: B1_3  and  C2_4 
REMARK    2  A    between atoms: B1_3  and  C9_13 
REMARK    3  A    between atoms: C2_4  and  C3_5 
REMARK    4  A    between atoms: C6_8  and  O1_9 
REMARK    5  A    between atoms: C7_10  and  O2_11 
REMARK       I    between atoms: C9_13  and  N2_15 
REMARK    6  A    between atoms: N2_15  and  C10_16 
REMARK    7  A    between atoms: C10_16  and  C11_17 
REMARK    8  A    between atoms: C11_17  and  C12_18 
ROOT
HETATM    1  N1  UNL     1       2.749  -1.359   2.734  1.00  0.00    -0.213 NA
HETATM    2  C1  UNL     1       2.179  -0.939   1.823  1.00  0.00     0.005 C 
HETATM    3  B1  UNL     1       1.444  -0.381   0.599  1.00  0.00     0.413 B 
ENDROOT
BRANCH   3   4
HETATM    4  C2  UNL     1       2.141   0.102  -0.710  1.00  0.00     0.018 C 
BRANCH   4   5
HETATM    5  C3  UNL     1       3.602   0.026  -0.725  1.00  0.00    -0.062 A 
HETATM    6  C4  UNL     1       4.264  -1.115  -1.173  1.00  0.00     0.009 A 
HETATM    7  C5  UNL     1       5.650  -1.178  -1.185  1.00  0.00     0.040 A 
HETATM    8  C6  UNL     1       6.315  -0.061  -0.733  1.00  0.00     0.098 A 
HETATM    9  C7  UNL     1       5.745   1.110  -0.272  1.00  0.00     0.099 A 
HETATM   10  C8  UNL     1       4.345   1.112  -0.285  1.00  0.00     0.045 A 
BRANCH   8  11
HETATM   11  O1  UNL     1       7.722  -0.054  -0.716  1.00  0.00    -0.358 OA
HETATM   12  H5  UNL     1       8.188   0.067  -1.600  1.00  0.00     0.217 HD
ENDBRANCH   8  11
BRANCH   9  13
HETATM   13  O2  UNL     1       6.461   2.190   0.166  1.00  0.00    -0.358 OA
HETATM   14  H6  UNL     1       7.056   2.105   0.984  1.00  0.00     0.217 HD
ENDBRANCH   9  13
ENDBRANCH   4   5
ENDBRANCH   3   4
BRANCH   3  15
HETATM   15  C9  UNL     1      -0.091  -0.098   0.716  1.00  0.00     0.183 C 
HETATM   16  O3  UNL     1      -0.580   0.479   1.722  1.00  0.00    -0.287 OA
HETATM   17  N2  UNL     1      -0.890  -0.530  -0.375  1.00  0.00    -0.370 N 
HETATM   18  H8  UNL     1      -0.452  -1.016  -1.214  1.00  0.00     0.161 HD
BRANCH  17  19
HETATM   19  C10 UNL     1      -2.301  -0.314  -0.356  1.00  0.00     0.126 C 
BRANCH  19  20
HETATM   20  C11 UNL     1      -3.039  -0.953   0.774  1.00  0.00     0.058 C 
BRANCH  20  21
HETATM   21  C12 UNL     1      -4.502  -0.623   0.636  1.00  0.00    -0.057 A 
HETATM   22  C13 UNL     1      -5.133   0.475   1.181  1.00  0.00     0.007 A 
HETATM   23  C14 UNL     1      -6.476   0.666   0.984  1.00  0.00     0.001 A 
HETATM   24  C15 UNL     1      -7.218  -0.228   0.242  1.00  0.00     0.000 A 
HETATM   25  C16 UNL     1      -6.606  -1.326  -0.308  1.00  0.00     0.001 A 
HETATM   26  C17 UNL     1      -5.241  -1.540  -0.119  1.00  0.00     0.007 A 
ENDBRANCH  20  21
ENDBRANCH  19  20
ENDBRANCH  17  19
ENDBRANCH   3  15
TORSDOF 8
