REMARK  5 active torsions:
REMARK  status: ('A' for Active; 'I' for Inactive)
REMARK    1  A    between atoms: C4_5  and  N1_6 
REMARK    2  A    between atoms: N1_6  and  C5_7 
REMARK    3  A    between atoms: C8_12  and  N4_13 
REMARK    4  A    between atoms: N4_13  and  C9_14 
REMARK    5  A    between atoms: C9_14  and  C10_15 
ROOT
HETATM    1  C5  UNL     1       1.234  -0.764   0.310  1.00  0.00     0.157 A 
HETATM    2  N2  UNL     1       1.584  -1.182   1.533  1.00  0.00    -0.222 NA
HETATM    3  C6  UNL     1       0.783  -1.834   2.374  1.00  0.00     0.235 A 
HETATM    4  N3  UNL     1      -0.471  -2.098   1.980  1.00  0.00    -0.252 NA
HETATM    5  C7  UNL     1      -0.897  -1.710   0.766  1.00  0.00     0.151 A 
HETATM    6  C8  UNL     1      -0.061  -1.025  -0.123  1.00  0.00     0.092 A 
ENDROOT
BRANCH   6   7
HETATM    7  N4  UNL     1      -0.619  -0.673  -1.408  1.00  0.00    -0.380 N 
HETATM    8  H6  UNL     1      -0.087  -0.184  -2.156  1.00  0.00     0.160 HD
BRANCH   7   9
HETATM    9  C9  UNL     1      -1.973  -0.989  -1.729  1.00  0.00     0.185 C 
BRANCH   9  10
HETATM   10  C10 UNL     1      -3.001  -0.244  -0.992  1.00  0.00     0.071 A 
HETATM   11  C11 UNL     1      -2.851   0.708  -0.084  1.00  0.00     0.058 A 
HETATM   12  C12 UNL     1      -3.740   1.523   0.719  1.00  0.00     0.036 A 
HETATM   13 CL1  UNL     1      -2.919   2.630   1.764  1.00  0.00    -0.084 Cl
HETATM   14  C13 UNL     1      -5.058   1.463   0.690  1.00  0.00     0.026 A 
HETATM   15  C14 UNL     1      -5.900   0.593  -0.127  1.00  0.00     0.026 A 
HETATM   16  C15 UNL     1      -5.550  -0.335  -1.023  1.00  0.00     0.142 A 
HETATM   17  O1  UNL     1      -4.253  -0.719  -1.417  1.00  0.00    -0.325 OA
ENDBRANCH   9  10
ENDBRANCH   7   9
ENDBRANCH   6   7
BRANCH   1  18
HETATM   18  N1  UNL     1       2.088  -0.074  -0.575  1.00  0.00    -0.339 N 
HETATM   19  H3  UNL     1       1.739   0.219  -1.509  1.00  0.00     0.167 HD
BRANCH  18  20
HETATM   20  C4  UNL     1       3.440   0.327  -0.416  1.00  0.00     0.033 A 
HETATM   21  C3  UNL     1       4.174   1.014  -1.383  1.00  0.00     0.032 A 
HETATM   22  C2  UNL     1       5.479   1.395  -1.217  1.00  0.00     0.044 A 
HETATM   23  C1  UNL     1       6.145   1.107  -0.048  1.00  0.00     0.116 A 
HETATM   24  F1  UNL     1       7.425   1.512   0.045  1.00  0.00    -0.206 F 
HETATM   25  C17 UNL     1       5.469   0.433   0.934  1.00  0.00     0.044 A 
HETATM   26  C16 UNL     1       4.165   0.076   0.716  1.00  0.00     0.032 A 
ENDBRANCH  18  20
ENDBRANCH   1  18
TORSDOF 5
