REMARK  2 active torsions:
REMARK  status: ('A' for Active; 'I' for Inactive)
REMARK    1  A    between atoms: C5_6  and  O1_7 
REMARK    2  A    between atoms: C6_8  and  O2_9 
ROOT
HETATM    1  C1  UNL     1       4.862  -1.022   0.635  1.00  0.00     0.067 C 
HETATM    2  C2  UNL     1       3.640  -0.331   0.229  1.00  0.00     0.030 C 
HETATM    3  N1  UNL     1       3.688   0.888   0.548  1.00  0.00    -0.296 NA
HETATM    4  C3  UNL     1       2.808   1.877   0.379  1.00  0.00     0.161 C 
HETATM    5  C4  UNL     1       1.904   2.895   0.210  1.00  0.00     0.077 C 
HETATM    6  C5  UNL     1       0.582   3.155   0.133  1.00  0.00     0.082 C 
HETATM    7  C6  UNL     1      -0.814   2.727   0.184  1.00  0.00     0.091 C 
HETATM    8  C7  UNL     1      -1.492   1.663   0.416  1.00  0.00     0.017 C 
HETATM    9  C8  UNL     1      -2.754   0.950   0.531  1.00  0.00     0.069 C 
HETATM   10  C9  UNL     1      -2.824  -0.439   0.100  1.00  0.00    -0.048 A 
HETATM   11  C10 UNL     1      -4.134  -0.848   0.381  1.00  0.00     0.008 A 
HETATM   12  C11 UNL     1      -4.602  -2.134   0.155  1.00  0.00     0.001 A 
HETATM   13  C12 UNL     1      -3.742  -3.081  -0.378  1.00  0.00     0.001 A 
HETATM   14  C13 UNL     1      -2.474  -2.721  -0.662  1.00  0.00     0.007 A 
HETATM   15  C14 UNL     1      -2.048  -1.442  -0.423  1.00  0.00    -0.050 A 
HETATM   16  C15 UNL     1      -0.616  -1.101  -0.736  1.00  0.00     0.069 C 
HETATM   17  C16 UNL     1       0.261  -1.729   0.345  1.00  0.00     0.274 C 
HETATM   18  N2  UNL     1       1.507  -1.124   0.547  1.00  0.00     0.088 N 
HETATM   19  C17 UNL     1       2.510  -1.116  -0.448  1.00  0.00     0.323 C 
HETATM   20  H20 UNL     1       1.936  -1.590   1.418  1.00  0.00     0.316 HD
ENDROOT
BRANCH   6  21
HETATM   21  O1  UNL     1       0.806   4.501  -0.068  1.00  0.00    -0.362 OA
HETATM   22  H7  UNL     1       0.249   5.011  -0.784  1.00  0.00     0.217 HD
ENDBRANCH   6  21
BRANCH   7  23
HETATM   23  O2  UNL     1      -1.811   3.617  -0.077  1.00  0.00    -0.358 OA
HETATM   24  H8  UNL     1      -2.437   3.922   0.645  1.00  0.00     0.217 HD
ENDBRANCH   7  23
TORSDOF 2
