REMARK  5 active torsions:
REMARK  status: ('A' for Active; 'I' for Inactive)
REMARK    1  A    between atoms: C4_5  and  O1_6 
REMARK    2  A    between atoms: C7_9  and  C8_10 
REMARK    3  A    between atoms: N2_11  and  C9_12 
REMARK    4  A    between atoms: C10_13  and  C11_14 
REMARK    5  A    between atoms: C11_14  and  C12_16 
ROOT
HETATM    1  N1  UNL     1      -3.111  -0.411   3.484  1.00  0.00    -0.191 NA
HETATM    2  C1  UNL     1      -3.159  -0.469   2.331  1.00  0.00     0.100 C 
HETATM    3  C2  UNL     1      -3.209  -0.537   0.889  1.00  0.00     0.059 A 
HETATM    4  C3  UNL     1      -4.439  -0.847   0.346  1.00  0.00     0.060 A 
HETATM    5  C4  UNL     1      -4.541  -0.924  -1.027  1.00  0.00     0.067 A 
HETATM    6  C5  UNL     1      -3.443  -0.697  -1.834  1.00  0.00     0.037 A 
HETATM    7  C6  UNL     1      -2.228  -0.388  -1.221  1.00  0.00     0.017 A 
HETATM    8  C7  UNL     1      -2.082  -0.301   0.144  1.00  0.00     0.003 A 
ENDROOT
BRANCH   8   9
HETATM    9  C8  UNL     1      -0.788   0.027   0.762  1.00  0.00     0.140 C 
HETATM   10  N2  UNL     1       0.142   0.213  -0.082  1.00  0.00    -0.209 NA
BRANCH  10  11
HETATM   11  C9  UNL     1       1.467   0.537   0.235  1.00  0.00     0.041 C 
HETATM   12  C10 UNL     1       2.605   0.828   0.492  1.00  0.00    -0.024 C 
BRANCH  12  13
HETATM   13  C11 UNL     1       3.980   1.192   0.780  1.00  0.00     0.112 C 
HETATM   14  N3  UNL     1       4.294   2.433   1.033  1.00  0.00    -0.293 NA
HETATM   15  H6  UNL     1       3.510   3.145   1.017  1.00  0.00     0.187 HD
BRANCH  13  16
HETATM   16  C12 UNL     1       5.007   0.140   0.781  1.00  0.00     0.259 C 
HETATM   17  C13 UNL     1       6.313   0.745   1.096  1.00  0.00     0.085 C 
HETATM   18  N4  UNL     1       7.340   1.233   1.332  1.00  0.00    -0.195 NA
HETATM   19  C14 UNL     1       5.077  -0.551  -0.510  1.00  0.00     0.085 C 
HETATM   20  N5  UNL     1       5.148  -1.093  -1.510  1.00  0.00    -0.195 NA
ENDBRANCH  13  16
ENDBRANCH  12  13
ENDBRANCH  10  11
ENDBRANCH   8   9
BRANCH   5  21
HETATM   21  O1  UNL     1      -5.718  -1.227  -1.720  1.00  0.00    -0.361 OA
HETATM   22  H2  UNL     1      -6.049  -0.475  -2.323  1.00  0.00     0.217 HD
ENDBRANCH   5  21
TORSDOF 5
