REMARK  7 active torsions:
REMARK  status: ('A' for Active; 'I' for Inactive)
REMARK    1  A    between atoms: B1_1  and  C1_2 
REMARK    2  A    between atoms: C4_5  and  N1_6 
REMARK    3  A    between atoms: N1_6  and  C5_7 
REMARK    4  A    between atoms: C5_7  and  N2_8 
REMARK    5  A    between atoms: N2_8  and  P1_9 
REMARK    6  A    between atoms: P1_9  and  C6_10 
REMARK    7  A    between atoms: C6_10  and  N3_11 
ROOT
HETATM    1  C5  UNL     1      -0.192   0.374  -0.111  1.00  0.00     0.152 C 
HETATM    2  C7  UNL     1      -1.221  -0.343   0.318  1.00  0.00     0.076 C 
HETATM    3  C8  UNL     1      -2.148   0.323   1.273  1.00  0.00     0.236 C 
HETATM    4  O1  UNL     1      -3.401  -0.276   1.331  1.00  0.00    -0.349 OA
HETATM    5  C9  UNL     1      -4.169  -0.826   0.339  1.00  0.00     0.059 C 
HETATM    6  C10 UNL     1      -5.491  -0.582   0.298  1.00  0.00     0.116 C 
HETATM    7 CL1  UNL     1      -6.557  -1.225  -0.910  1.00  0.00    -0.094 Cl
HETATM    8  C11 UNL     1      -3.671  -1.698  -0.736  1.00  0.00     0.085 C 
HETATM    9  C12 UNL     1      -2.498  -2.547  -0.331  1.00  0.00     0.126 C 
HETATM   10  N4  UNL     1      -1.334  -1.672  -0.176  1.00  0.00    -0.388 N 
HETATM   11  H17 UNL     1      -0.412  -2.080  -0.476  1.00  0.00     0.159 HD
ENDROOT
BRANCH   1  12
HETATM   12  N1  UNL     1       0.724  -0.237  -1.035  1.00  0.00    -0.339 N 
HETATM   13  H5  UNL     1       0.361  -0.344  -2.008  1.00  0.00     0.167 HD
BRANCH  12  14
HETATM   14  C4  UNL     1       2.020  -0.657  -0.631  1.00  0.00     0.035 A 
HETATM   15  C3  UNL     1       2.375  -0.457   0.688  1.00  0.00     0.029 A 
HETATM   16  C2  UNL     1       3.636  -0.874   1.048  1.00  0.00    -0.002 A 
HETATM   17  C1  UNL     1       4.511  -1.462   0.151  1.00  0.00    -0.087 A 
HETATM   18  C14 UNL     1       4.080  -1.630  -1.165  1.00  0.00     0.030 A 
HETATM   19  C13 UNL     1       2.825  -1.231  -1.586  1.00  0.00     0.052 A 
HETATM   20 CL2  UNL     1       5.210  -2.373  -2.264  1.00  0.00    -0.085 Cl
BRANCH  17  21
HETATM   21  B1  UNL     1       5.922  -1.904   0.645  1.00  0.00     0.176 B 
HETATM   22  H1  UNL     1       6.097  -3.006   1.027  1.00  0.00    -0.026 HD
HETATM   23  H2  UNL     1       6.778  -1.095   0.713  1.00  0.00    -0.026 HD
ENDBRANCH  17  21
ENDBRANCH  12  14
ENDBRANCH   1  12
BRANCH   1  24
HETATM   24  N2  UNL     1      -0.038   1.703   0.353  1.00  0.00    -0.234 NA
BRANCH  24  25
HETATM   25  P1  UNL     1      -0.597   3.021  -0.407  1.00  0.00     0.092 P 
BRANCH  25  26
HETATM   26  C6  UNL     1      -0.350   4.731   0.273  1.00  0.00     0.331 C 
BRANCH  26  27
HETATM   27  N3  UNL     1       1.067   5.024   0.355  1.00  0.00     0.084 N 
HETATM   28  H8  UNL     1       1.241   5.751   1.085  1.00  0.00     0.313 HD
HETATM   29  H9  UNL     1       1.313   5.456  -0.579  1.00  0.00     0.313 HD
ENDBRANCH  26  27
ENDBRANCH  25  26
ENDBRANCH  24  25
ENDBRANCH   1  24
TORSDOF 7
