REMARK  4 active torsions:
REMARK  status: ('A' for Active; 'I' for Inactive)
REMARK    1  A    between atoms: C2_3  and  C3_4 
REMARK    2  A    between atoms: C3_4  and  C4_5 
REMARK    3  A    between atoms: C10_12  and  N2_13 
REMARK    4  A    between atoms: N2_13  and  C11_14 
ROOT
HETATM    1  N1  UNL     1      -0.432  -0.490  -3.018  1.00  0.00    -0.096 N 
HETATM    2  C1  UNL     1      -0.032   0.132  -2.055  1.00  0.00     0.017 C 
HETATM    3  C2  UNL     1       0.513   0.943  -0.815  1.00  0.00     0.027 C 
HETATM    4  C10 UNL     1      -0.663   1.653  -0.957  1.00  0.00     0.168 C 
ENDROOT
BRANCH   3   5
HETATM    5  C3  UNL     1       1.599   0.353  -0.594  1.00  0.00     0.030 C 
BRANCH   5   6
HETATM    6  C4  UNL     1       2.837  -0.236  -0.261  1.00  0.00    -0.033 C 
HETATM    7  C5  UNL     1       3.342   0.523   0.767  1.00  0.00     0.013 C 
HETATM    8  C6  UNL     1       4.581   0.520   1.633  1.00  0.00     0.025 C 
HETATM    9  C7  UNL     1       5.565  -0.142   1.059  1.00  0.00     0.141 C 
HETATM   10  O1  UNL     1       5.850  -0.846  -0.118  1.00  0.00    -0.335 OA
HETATM   11  C8  UNL     1       4.828  -1.750  -0.629  1.00  0.00     0.142 C 
HETATM   12  C9  UNL     1       3.570  -1.436  -0.655  1.00  0.00     0.036 C 
ENDBRANCH   5   6
ENDBRANCH   3   5
BRANCH   4  13
HETATM   13  N2  UNL     1      -1.959   1.058  -0.857  1.00  0.00    -0.387 N 
HETATM   14  H9  UNL     1      -2.201   1.062  -1.900  1.00  0.00     0.159 HD
BRANCH  13  15
HETATM   15  C11 UNL     1      -3.074   0.435  -0.103  1.00  0.00     0.031 C 
HETATM   16  C12 UNL     1      -2.774   0.742   1.154  1.00  0.00     0.056 C 
HETATM   17 CL1  UNL     1      -1.639   1.537   2.193  1.00  0.00    -0.082 Cl
HETATM   18  C13 UNL     1      -3.793  -0.148   1.798  1.00  0.00     0.026 C 
HETATM   19  C14 UNL     1      -4.697  -0.980   1.835  1.00  0.00     0.006 C 
HETATM   20  P1  UNL     1      -5.061  -1.436   0.076  1.00  0.00    -0.100 P 
HETATM   21  C15 UNL     1      -4.071  -0.209  -0.933  1.00  0.00     0.094 C 
HETATM   22  H12 UNL     1      -6.502  -1.378  -0.192  1.00  0.00     0.062 HD
ENDBRANCH  13  15
ENDBRANCH   4  13
TORSDOF 4
