REMARK  2 active torsions:
REMARK  status: ('A' for Active; 'I' for Inactive)
REMARK    1  A    between atoms: C5_5  and  N1_6 
REMARK    2  A    between atoms: C18_21  and  O2_22 
ROOT
HETATM    1  C1  UNL     1      -5.691  -0.013  -1.925  1.00  0.00     0.036 C 
HETATM    2  C2  UNL     1      -4.583  -0.825  -1.407  1.00  0.00    -0.027 C 
HETATM    3  C3  UNL     1      -3.437  -0.501  -0.762  1.00  0.00    -0.069 C 
HETATM    4  C4  UNL     1      -2.806  -1.857  -0.552  1.00  0.00     0.116 C 
HETATM    5  C5  UNL     1      -1.658  -2.137   0.030  1.00  0.00     0.042 C 
HETATM    6  C6  UNL     1      -0.287  -2.155   0.664  1.00  0.00     0.295 C 
HETATM    7  N2  UNL     1       0.506  -3.168   0.045  1.00  0.00     0.085 N 
HETATM    8  C7  UNL     1       1.889  -3.084   0.344  1.00  0.00     0.269 C 
HETATM    9  C8  UNL     1       2.486  -1.942  -0.510  1.00  0.00     0.030 C 
HETATM   10  C9  UNL     1       3.935  -1.837  -0.296  1.00  0.00     0.002 C 
HETATM   11  C10 UNL     1       4.534  -1.100   0.832  1.00  0.00     0.004 C 
HETATM   12  C11 UNL     1       4.638   0.353   0.692  1.00  0.00     0.027 C 
HETATM   13  C12 UNL     1       3.576   1.303   0.744  1.00  0.00    -0.027 C 
HETATM   14  C13 UNL     1       3.001   2.458   1.252  1.00  0.00    -0.004 C 
HETATM   15  C14 UNL     1       1.738   2.717   0.678  1.00  0.00    -0.002 C 
HETATM   16  C15 UNL     1       0.883   3.656   0.800  1.00  0.00    -0.001 C 
HETATM   17  C16 UNL     1      -0.323   4.430   0.612  1.00  0.00     0.195 C 
HETATM   18  O1  UNL     1      -1.262   3.803  -0.268  1.00  0.00    -0.384 OA
HETATM   19  C17 UNL     1      -1.822   2.777   0.498  1.00  0.00     0.209 C 
HETATM   20  C18 UNL     1      -2.820   1.932  -0.125  1.00  0.00     0.121 C 
HETATM   21  C19 UNL     1      -3.586   0.993  -0.643  1.00  0.00     0.066 C 
HETATM   22  H10 UNL     1       0.404  -3.021  -1.002  1.00  0.00     0.315 HD
ENDROOT
BRANCH   5  23
HETATM   23  N1  UNL     1      -2.092  -3.482  -0.300  1.00  0.00    -0.423 N 
HETATM   24  H6  UNL     1      -2.256  -4.512  -0.303  1.00  0.00     0.150 HD
HETATM   25  H7  UNL     1      -2.459  -4.427  -0.623  1.00  0.00     0.150 HD
ENDBRANCH   5  23
BRANCH  20  26
HETATM   26  O2  UNL     1      -3.847   2.812  -0.527  1.00  0.00    -0.384 OA
HETATM   27  H29 UNL     1      -3.731   3.475  -1.271  1.00  0.00     0.210 HD
ENDBRANCH  20  26
TORSDOF 2
