REMARK  6 active torsions:
REMARK  status: ('A' for Active; 'I' for Inactive)
REMARK    1  A    between atoms: O1_2  and  C2_3 
REMARK    2  A    between atoms: C3_5  and  C4_6 
REMARK    3  A    between atoms: C5_7  and  C7_10 
REMARK    4  A    between atoms: C7_10  and  C8_12 
REMARK    5  A    between atoms: C12_18  and  O2_19 
REMARK    6  A    between atoms: C13_20  and  O3_21 
ROOT
HETATM    1  C4  UNL     1       0.755   1.351   0.268  1.00  0.00     0.056 C 
HETATM    2  C5  UNL     1       1.821   0.619  -0.028  1.00  0.00     0.073 C 
HETATM    3  C6  UNL     1       1.613  -0.815  -0.189  1.00  0.00     0.101 C 
HETATM    4  N2  UNL     1       1.430  -1.946  -0.327  1.00  0.00    -0.191 NA
ENDROOT
BRANCH   2   5
HETATM    5  C7  UNL     1       3.186   1.178  -0.202  1.00  0.00     0.078 C 
HETATM    6  N3  UNL     1       3.309   2.450  -0.039  1.00  0.00    -0.301 NA
HETATM    7  H5  UNL     1       2.424   2.948   0.200  1.00  0.00     0.186 HD
BRANCH   5   8
HETATM    8  C8  UNL     1       4.248   0.206  -0.548  1.00  0.00     0.251 C 
HETATM    9  C9  UNL     1       3.891  -0.450  -1.817  1.00  0.00     0.085 C 
HETATM   10  N4  UNL     1       3.627  -0.974  -2.808  1.00  0.00    -0.195 NA
HETATM   11  C10 UNL     1       5.551   0.855  -0.638  1.00  0.00     0.085 C 
HETATM   12  N5  UNL     1       6.582   1.366  -0.690  1.00  0.00    -0.195 NA
ENDBRANCH   5   8
ENDBRANCH   2   5
BRANCH   1  13
HETATM   13  C3  UNL     1      -0.519   0.661   0.409  1.00  0.00     0.064 A 
HETATM   14  N1  UNL     1      -1.702   0.969  -0.208  1.00  0.00    -0.223 NA
HETATM   15  C2  UNL     1      -2.788   0.219   0.068  1.00  0.00     0.201 A 
HETATM   16  C13 UNL     1      -2.826  -0.850   0.930  1.00  0.00     0.152 A 
HETATM   17  C12 UNL     1      -1.625  -1.183   1.573  1.00  0.00     0.105 A 
HETATM   18  C11 UNL     1      -0.503  -0.408   1.288  1.00  0.00     0.071 A 
BRANCH  15  19
HETATM   19  O1  UNL     1      -3.992   0.504  -0.537  1.00  0.00    -0.337 OA
HETATM   20  C1  UNL     1      -4.229   1.541  -1.462  1.00  0.00     0.211 C 
ENDBRANCH  15  19
BRANCH  16  21
HETATM   21  O3  UNL     1      -3.973  -1.590   1.178  1.00  0.00    -0.354 OA
HETATM   22  H9  UNL     1      -4.341  -2.244   0.491  1.00  0.00     0.218 HD
ENDBRANCH  16  21
BRANCH  17  23
HETATM   23  O2  UNL     1      -1.649  -2.267   2.450  1.00  0.00    -0.358 OA
HETATM   24  H8  UNL     1      -2.380  -2.290   3.158  1.00  0.00     0.217 HD
ENDBRANCH  17  23
ENDBRANCH   1  13
TORSDOF 6
