REMARK  5 active torsions:
REMARK  status: ('A' for Active; 'I' for Inactive)
REMARK    1  A    between atoms: C6_7  and  O1_8 
REMARK    2  A    between atoms: C7_9  and  O2_10 
REMARK    3  A    between atoms: C8_11  and  C9_12 
REMARK    4  A    between atoms: C9_12  and  N2_15 
REMARK    5  A    between atoms: N2_15  and  C10_16 
ROOT
HETATM    1  C9  UNL     1      -0.894  -0.067   1.537  1.00  0.00     0.107 C 
HETATM    2  B1  UNL     1      -0.236  -1.258   2.665  1.00  0.00     0.400 B 
HETATM    3  O3  UNL     1       0.588  -2.378   3.676  1.00  0.00    -0.340 OA
ENDROOT
BRANCH   1   4
HETATM    4  C8  UNL     1      -1.202  -0.759   0.291  1.00  0.00     0.004 A 
HETATM    5  C3  UNL     1      -1.508  -0.187  -0.920  1.00  0.00    -0.019 A 
HETATM    6  C2  UNL     1      -1.554   1.257  -1.003  1.00  0.00    -0.040 A 
HETATM    7  C4  UNL     1      -1.794  -0.808  -2.097  1.00  0.00     0.015 A 
HETATM    8  C1  UNL     1      -1.825   1.970  -2.081  1.00  0.00     0.044 A 
HETATM    9  N1  UNL     1      -1.486   2.602  -0.605  1.00  0.00     0.000 N 
HETATM   10  H3  UNL     1      -1.846   3.020   0.297  1.00  0.00     0.000 HD
HETATM   11  H4  UNL     1      -1.847   3.019   0.299  1.00  0.00     0.000 HD
HETATM   12  C5  UNL     1      -1.785  -2.183  -2.110  1.00  0.00     0.040 A 
HETATM   13  C6  UNL     1      -1.486  -2.822  -0.928  1.00  0.00     0.099 A 
HETATM   14  C7  UNL     1      -1.203  -2.160   0.239  1.00  0.00     0.107 A 
BRANCH  13  15
HETATM   15  O1  UNL     1      -1.451  -4.205  -0.836  1.00  0.00    -0.358 OA
HETATM   16  H7  UNL     1      -0.610  -4.737  -0.644  1.00  0.00     0.217 HD
ENDBRANCH  13  15
BRANCH  14  17
HETATM   17  O2  UNL     1      -0.901  -2.839   1.431  1.00  0.00    -0.357 OA
HETATM   18  H8  UNL     1      -0.706  -3.826   1.448  1.00  0.00     0.217 HD
ENDBRANCH  14  17
ENDBRANCH   1   4
BRANCH   1  19
HETATM   19  N2  UNL     1       0.014   1.031   1.461  1.00  0.00    -0.386 N 
HETATM   20  H10 UNL     1      -0.331   1.970   1.821  1.00  0.00     0.159 HD
BRANCH  19  21
HETATM   21  C10 UNL     1       1.327   1.012   0.976  1.00  0.00     0.049 A 
HETATM   22  C11 UNL     1       1.970  -0.104   0.484  1.00  0.00     0.031 A 
HETATM   23  C12 UNL     1       3.260  -0.161   0.000  1.00  0.00     0.002 A 
HETATM   24  C13 UNL     1       3.984   1.012   0.007  1.00  0.00     0.002 A 
HETATM   25  C14 UNL     1       3.419   2.165   0.479  1.00  0.00     0.026 A 
HETATM   26  C15 UNL     1       2.138   2.152   0.943  1.00  0.00     0.060 A 
HETATM   27 CL1  UNL     1       1.480   3.664   1.531  1.00  0.00    -0.082 Cl
ENDBRANCH  19  21
ENDBRANCH   1  19
TORSDOF 5
