REMARK  7 active torsions:
REMARK  status: ('A' for Active; 'I' for Inactive)
REMARK    1  A    between atoms: C2_3  and  C9_11 
REMARK    2  A    between atoms: C3_4  and  C4_5 
REMARK    3  A    between atoms: C4_5  and  C5_6 
REMARK    4  A    between atoms: C6_7  and  C7_8 
REMARK    5  A    between atoms: C7_8  and  C8_9 
REMARK    6  A    between atoms: C8_9  and  O1_10 
REMARK       I    between atoms: C9_11  and  N2_13 
REMARK    7  A    between atoms: N2_13  and  C10_14 
ROOT
HETATM    1  N1  UNL     1      -0.104  -2.412  -3.475  1.00  0.00    -0.191 NA
HETATM    2  C1  UNL     1      -0.015  -1.961  -2.394  1.00  0.00     0.105 C 
HETATM    3  C2  UNL     1       0.113  -1.398  -1.080  1.00  0.00     0.109 C 
HETATM    4  C3  UNL     1      -0.970  -1.342  -0.322  1.00  0.00     0.014 C 
ENDROOT
BRANCH   3   5
HETATM    5  C9  UNL     1       1.417  -0.918  -0.646  1.00  0.00     0.266 C 
HETATM    6  O2  UNL     1       2.452  -0.974  -1.379  1.00  0.00    -0.267 OA
HETATM    7  N2  UNL     1       1.638  -0.350   0.628  1.00  0.00    -0.321 N 
HETATM    8  H9  UNL     1       0.850  -0.257   1.310  1.00  0.00     0.169 HD
BRANCH   7   9
HETATM    9  C10 UNL     1       3.018   0.035   0.783  1.00  0.00     0.056 A 
HETATM   10  C11 UNL     1       3.489   1.274   0.441  1.00  0.00     0.031 A 
HETATM   11  C12 UNL     1       4.846   1.549   0.631  1.00  0.00     0.002 A 
HETATM   12  C13 UNL     1       5.617   0.532   1.157  1.00  0.00     0.002 A 
HETATM   13  C14 UNL     1       5.174  -0.729   1.512  1.00  0.00     0.026 A 
HETATM   14  C15 UNL     1       3.814  -0.963   1.307  1.00  0.00     0.060 A 
HETATM   15 CL1  UNL     1       3.190  -2.557   1.743  1.00  0.00    -0.082 Cl
ENDBRANCH   7   9
ENDBRANCH   3   5
BRANCH   4  16
HETATM   16  C4  UNL     1      -2.243  -1.855  -0.854  1.00  0.00     0.122 C 
BRANCH  16  17
HETATM   17  C5  UNL     1      -3.199  -0.734  -0.858  1.00  0.00    -0.103 C 
HETATM   18  C6  UNL     1      -3.972   0.202  -0.861  1.00  0.00    -0.104 C 
BRANCH  18  19
HETATM   19  C7  UNL     1      -4.889   1.342  -0.850  1.00  0.00     0.119 C 
BRANCH  19  20
HETATM   20  C8  UNL     1      -5.135   1.765   0.585  1.00  0.00     0.176 C 
BRANCH  20  21
HETATM   21  O1  UNL     1      -3.976   2.142   1.234  1.00  0.00    -0.400 OA
HETATM   22  H8  UNL     1      -4.119   2.960   1.795  1.00  0.00     0.209 HD
ENDBRANCH  20  21
ENDBRANCH  19  20
ENDBRANCH  18  19
ENDBRANCH  16  17
ENDBRANCH   4  16
TORSDOF 7
