REMARK  6 active torsions:
REMARK  status: ('A' for Active; 'I' for Inactive)
REMARK    1  A    between atoms: C2_2  and  C3_3 
REMARK    2  A    between atoms: C9_10  and  C10_11 
REMARK    3  A    between atoms: C10_11  and  C11_12 
REMARK    4  A    between atoms: C10_11  and  O2_14 
REMARK    5  A    between atoms: C11_12  and  O1_13 
REMARK    6  A    between atoms: O2_14  and  C12_15 
ROOT
HETATM    1  C3  UNL     1       4.219   1.075  -1.079  1.00  0.00     0.013 C 
HETATM    2  C4  UNL     1       3.252   0.370  -1.657  1.00  0.00     0.006 C 
HETATM    3  C5  UNL     1       2.712  -0.539  -0.980  1.00  0.00     0.059 A 
HETATM    4  C6  UNL     1       3.044  -1.009   0.306  1.00  0.00     0.012 A 
HETATM    5  C7  UNL     1       1.940  -1.673   0.152  1.00  0.00     0.058 A 
HETATM    6  S1  UNL     1       0.867  -1.642  -1.256  1.00  0.00    -0.163 SA
HETATM    7  C8  UNL     1      -0.789  -2.229  -0.737  1.00  0.00     0.085 C 
HETATM    8  C9  UNL     1      -1.361  -1.328   0.326  1.00  0.00     0.056 C 
HETATM    9  C14 UNL     1      -0.905   0.050   0.414  1.00  0.00     0.016 C 
HETATM   10  C15 UNL     1      -1.463   1.291   0.574  1.00  0.00    -0.003 C 
HETATM   11  C16 UNL     1      -0.411   2.386   0.626  1.00  0.00     0.034 C 
HETATM   12  C17 UNL     1       0.831   2.551   0.501  1.00  0.00     0.226 A 
HETATM   13  C18 UNL     1       1.227   3.857   0.722  1.00  0.00     0.032 C 
HETATM   14  N1  UNL     1       1.581   5.016   0.935  1.00  0.00    -0.098 N 
HETATM   15  C19 UNL     1       2.142   2.137   0.033  1.00  0.00     0.174 A 
HETATM   16  O3  UNL     1       1.160   1.487  -0.305  1.00  0.00    -0.297 OA
HETATM   17  N2  UNL     1       3.458   1.915  -0.286  1.00  0.00    -0.340 N 
HETATM   18  H20 UNL     1       3.361   2.627   0.426  1.00  0.00     0.167 HD
ENDROOT
BRANCH   1  19
HETATM   19  C2  UNL     1       5.558   1.403  -0.632  1.00  0.00    -0.001 C 
HETATM   20  C1  UNL     1       6.150   2.470   0.060  1.00  0.00     0.033 C 
ENDBRANCH   1  19
BRANCH   8  21
HETATM   21  C10 UNL     1      -2.831  -1.581   0.466  1.00  0.00     0.072 C 
BRANCH  21  22
HETATM   22  C11 UNL     1      -3.266  -2.227   1.470  1.00  0.00     0.163 C 
BRANCH  22  23
HETATM   23  O1  UNL     1      -3.377  -2.942   2.656  1.00  0.00    -0.370 OA
HETATM   24  H11 UNL     1      -3.601  -3.984   2.586  1.00  0.00     0.216 HD
ENDBRANCH  22  23
ENDBRANCH  21  22
BRANCH  21  25
HETATM   25  O2  UNL     1      -3.516  -1.036  -0.594  1.00  0.00    -0.354 OA
BRANCH  25  26
HETATM   26  C12 UNL     1      -4.950  -1.022  -0.561  1.00  0.00     0.171 C 
HETATM   27  C13 UNL     1      -5.467  -0.162  -1.628  1.00  0.00     0.034 C 
ENDBRANCH  25  26
ENDBRANCH  21  25
ENDBRANCH   8  21
TORSDOF 6
