REMARK  6 active torsions:
REMARK  status: ('A' for Active; 'I' for Inactive)
REMARK    1  A    between atoms: O1_2  and  C2_3 
REMARK    2  A    between atoms: C4_5  and  C5_6 
REMARK    3  A    between atoms: C5_6  and  C6_7 
REMARK    4  A    between atoms: C6_7  and  C8_10 
REMARK    5  A    between atoms: C8_10  and  C9_12 
REMARK    6  A    between atoms: C14_19  and  O2_20 
ROOT
HETATM    1  C6  UNL     1      -1.938  -0.110  -0.384  1.00  0.00     0.071 C 
HETATM    2  C7  UNL     1      -2.310  -0.560  -1.727  1.00  0.00     0.101 C 
HETATM    3  N1  UNL     1      -2.620  -0.907  -2.824  1.00  0.00    -0.191 NA
ENDROOT
BRANCH   1   4
HETATM    4  C5  UNL     1      -0.693  -0.271  -0.214  1.00  0.00     0.036 C 
BRANCH   4   5
HETATM    5  C4  UNL     1       0.712  -0.516  -0.183  1.00  0.00    -0.032 A 
HETATM    6  C3  UNL     1       1.821   0.225   0.152  1.00  0.00     0.051 A 
HETATM    7  C2  UNL     1       3.091  -0.258   0.110  1.00  0.00     0.102 A 
HETATM    8  C14 UNL     1       3.200  -1.563  -0.298  1.00  0.00     0.099 A 
HETATM    9  C13 UNL     1       2.186  -2.418  -0.661  1.00  0.00     0.040 A 
HETATM   10  C12 UNL     1       0.904  -1.855  -0.595  1.00  0.00     0.014 A 
BRANCH   7  11
HETATM   11  O1  UNL     1       4.135   0.567   0.464  1.00  0.00    -0.353 OA
HETATM   12  C1  UNL     1       3.825   1.897   0.859  1.00  0.00     0.210 C 
ENDBRANCH   7  11
BRANCH   8  13
HETATM   13  O2  UNL     1       4.492  -2.114  -0.360  1.00  0.00    -0.358 OA
HETATM   14  H10 UNL     1       5.176  -1.786   0.328  1.00  0.00     0.217 HD
ENDBRANCH   8  13
ENDBRANCH   4   5
ENDBRANCH   1   4
BRANCH   1  15
HETATM   15  C8  UNL     1      -2.987   0.402   0.481  1.00  0.00     0.077 C 
HETATM   16  N2  UNL     1      -2.800   0.806   1.674  1.00  0.00    -0.301 NA
HETATM   17  H6  UNL     1      -1.933   0.843   2.213  1.00  0.00     0.186 HD
BRANCH  15  18
HETATM   18  C9  UNL     1      -4.356   0.454  -0.073  1.00  0.00     0.251 C 
HETATM   19  C10 UNL     1      -5.299   1.005   0.907  1.00  0.00     0.085 C 
HETATM   20  N3  UNL     1      -6.026   1.436   1.674  1.00  0.00    -0.195 NA
HETATM   21  C11 UNL     1      -4.277   1.313  -1.278  1.00  0.00     0.085 C 
HETATM   22  N4  UNL     1      -4.214   1.995  -2.201  1.00  0.00    -0.195 NA
ENDBRANCH  15  18
ENDBRANCH   1  15
TORSDOF 6
