REMARK  5 active torsions:
REMARK  status: ('A' for Active; 'I' for Inactive)
REMARK    1  A    between atoms: O1_2  and  C2_3 
REMARK    2  A    between atoms: C3_4  and  C4_5 
REMARK    3  A    between atoms: C5_6  and  O2_7 
REMARK    4  A    between atoms: O2_7  and  C6_8 
REMARK    5  A    between atoms: C16_19  and  N2_20 
ROOT
HETATM    1  C6  UNL     1       1.147   2.248   1.255  1.00  0.00     0.152 C 
HETATM    2  C7  UNL     1       1.752   3.014   0.361  1.00  0.00     0.118 C 
HETATM    3  C8  UNL     1       2.043   4.413   0.602  1.00  0.00     0.089 C 
HETATM    4  N1  UNL     1       2.286   5.529   0.804  1.00  0.00    -0.192 NA
ENDROOT
BRANCH   1   5
HETATM    5  O2  UNL     1       0.879   0.929   1.014  1.00  0.00    -0.326 OA
BRANCH   5   6
HETATM    6  C5  UNL     1       0.135   0.465  -0.089  1.00  0.00     0.059 C 
HETATM    7  C4  UNL     1       0.672  -0.711  -0.484  1.00  0.00    -0.023 C 
HETATM    8  C15 UNL     1       0.088  -1.862  -1.269  1.00  0.00     0.068 C 
HETATM    9  C14 UNL     1      -1.332  -1.507  -1.654  1.00  0.00    -0.013 C 
HETATM   10  C13 UNL     1      -2.196  -0.749  -0.988  1.00  0.00    -0.039 C 
HETATM   11  C12 UNL     1      -3.301   0.082  -1.551  1.00  0.00     0.005 C 
HETATM   12  C16 UNL     1      -2.373  -0.423   0.496  1.00  0.00     0.115 C 
HETATM   13  C11 UNL     1      -3.424   1.163  -0.733  1.00  0.00    -0.019 C 
HETATM   14  C10 UNL     1      -2.271   1.105   0.257  1.00  0.00     0.041 C 
HETATM   15  C9  UNL     1      -0.965   1.417  -0.428  1.00  0.00     0.076 C 
BRANCH   7  16
HETATM   16  C3  UNL     1       2.031  -0.910  -0.093  1.00  0.00     0.034 C 
HETATM   17  C2  UNL     1       2.700  -2.015  -0.405  1.00  0.00     0.134 C 
BRANCH  17  18
HETATM   18  O1  UNL     1       4.011  -2.173  -0.012  1.00  0.00    -0.368 OA
HETATM   19  C1  UNL     1       4.289  -2.422   1.352  1.00  0.00     0.208 C 
ENDBRANCH  17  18
ENDBRANCH   7  16
BRANCH  12  20
HETATM   20  N2  UNL     1      -3.714  -0.691   0.899  1.00  0.00    -0.422 N 
HETATM   21  H17 UNL     1      -3.859  -1.554   1.437  1.00  0.00     0.150 HD
HETATM   22  H18 UNL     1      -4.253   0.139   1.204  1.00  0.00     0.150 HD
ENDBRANCH  12  20
ENDBRANCH   5   6
ENDBRANCH   1   5
TORSDOF 5
