REMARK  9 active torsions:
REMARK  status: ('A' for Active; 'I' for Inactive)
REMARK    1  A    between atoms: C2_2  and  O1_3 
REMARK    2  A    between atoms: O1_3  and  C3_4 
REMARK    3  A    between atoms: C5_6  and  C6_7 
REMARK    4  A    between atoms: C7_8  and  N1_9 
REMARK    5  A    between atoms: C7_8  and  C8_10 
REMARK       I    between atoms: C8_10  and  N2_11 
REMARK    6  A    between atoms: C10_14  and  C11_15 
REMARK    7  A    between atoms: C11_15  and  S1_16 
REMARK    8  A    between atoms: S1_16  and  C12_17 
REMARK    9  A    between atoms: C18_24  and  O4_25 
ROOT
HETATM    1  C3  UNL     1      -1.142  -2.576  -0.380  1.00  0.00     0.103 A 
HETATM    2  C4  UNL     1      -2.265  -1.782  -0.294  1.00  0.00     0.051 A 
HETATM    3  C5  UNL     1      -2.221  -0.444   0.025  1.00  0.00    -0.030 A 
HETATM    4  C9  UNL     1      -0.970   0.076   0.260  1.00  0.00     0.022 A 
HETATM    5  C10 UNL     1       0.223  -0.628   0.201  1.00  0.00    -0.012 A 
HETATM    6  C18 UNL     1       0.100  -1.981  -0.129  1.00  0.00     0.106 A 
ENDROOT
BRANCH   3   7
HETATM    7  C6  UNL     1      -3.434   0.341   0.102  1.00  0.00     0.046 C 
HETATM    8  C7  UNL     1      -3.546   1.600  -0.285  1.00  0.00     0.095 C 
BRANCH   8   9
HETATM    9  N1  UNL     1      -2.427   2.289  -0.825  1.00  0.00    -0.395 N 
HETATM   10  H8  UNL     1      -1.752   2.381  -1.615  1.00  0.00     0.156 HD
HETATM   11  H9  UNL     1      -2.206   3.007  -0.097  1.00  0.00     0.156 HD
ENDBRANCH   8   9
BRANCH   8  12
HETATM   12  C8  UNL     1      -4.838   2.258  -0.144  1.00  0.00     0.265 C 
HETATM   13  N2  UNL     1      -4.964   3.609  -0.558  1.00  0.00    -0.365 N 
HETATM   14  H10 UNL     1      -5.060   4.602  -0.849  1.00  0.00     0.159 HD
HETATM   15  H11 UNL     1      -5.213   4.562  -0.238  1.00  0.00     0.159 HD
HETATM   16  O2  UNL     1      -5.836   1.662   0.331  1.00  0.00    -0.266 OA
ENDBRANCH   8  12
ENDBRANCH   3   7
BRANCH   1  17
HETATM   17  O1  UNL     1      -1.070  -3.922  -0.691  1.00  0.00    -0.349 OA
BRANCH  17  18
HETATM   18  C2  UNL     1      -2.222  -4.671  -0.975  1.00  0.00     0.171 C 
HETATM   19  C1  UNL     1      -2.984  -4.150  -2.171  1.00  0.00     0.034 C 
ENDBRANCH  17  18
ENDBRANCH   1  17
BRANCH   5  20
HETATM   20  C11 UNL     1       1.539  -0.012   0.463  1.00  0.00     0.116 C 
BRANCH  20  21
HETATM   21  S1  UNL     1       2.229  -0.422   2.072  1.00  0.00    -0.152 SA
BRANCH  21  22
HETATM   22  C12 UNL     1       3.853   0.419   2.217  1.00  0.00     0.094 C 
HETATM   23  C13 UNL     1       3.640   1.866   2.248  1.00  0.00    -0.010 C 
HETATM   24  C14 UNL     1       4.128   2.951   1.664  1.00  0.00    -0.003 C 
HETATM   25  C15 UNL     1       5.192   3.048   0.656  1.00  0.00     0.201 C 
HETATM   26  O3  UNL     1       5.049   1.985  -0.286  1.00  0.00    -0.360 OA
HETATM   27  C16 UNL     1       5.129   0.639   0.024  1.00  0.00     0.132 C 
HETATM   28  C17 UNL     1       4.645  -0.039   1.052  1.00  0.00     0.016 C 
ENDBRANCH  21  22
ENDBRANCH  20  21
ENDBRANCH   5  20
BRANCH   6  29
HETATM   29  O4  UNL     1       1.296  -2.709  -0.193  1.00  0.00    -0.357 OA
HETATM   30  H22 UNL     1       1.710  -2.953   0.713  1.00  0.00     0.217 HD
ENDBRANCH   6  29
TORSDOF 9
