REMARK  6 active torsions:
REMARK  status: ('A' for Active; 'I' for Inactive)
REMARK    1  A    between atoms: O1_2  and  C2_3 
REMARK    2  A    between atoms: C3_4  and  O2_5 
REMARK    3  A    between atoms: O2_5  and  N1_6 
REMARK    4  A    between atoms: C4_7  and  C5_8 
REMARK    5  A    between atoms: C6_9  and  C8_11 
REMARK    6  A    between atoms: C8_11  and  C9_13 
ROOT
HETATM    1  C9  UNL     1       3.389   1.371   2.433  1.00  0.00     0.250 C 
HETATM    2  C10 UNL     1       4.321   0.254   2.329  1.00  0.00     0.085 C 
HETATM    3  N3  UNL     1       5.043  -0.635   2.237  1.00  0.00    -0.195 NA
HETATM    4  C11 UNL     1       3.269   1.829   3.803  1.00  0.00     0.085 C 
HETATM    5  N4  UNL     1       3.179   2.195   4.900  1.00  0.00    -0.195 NA
ENDROOT
BRANCH   1   6
HETATM    6  C8  UNL     1       2.094   0.964   1.862  1.00  0.00     0.063 C 
HETATM    7  N2  UNL     1       1.061   0.914   2.631  1.00  0.00    -0.302 NA
HETATM    8  H10 UNL     1       1.084   1.160   3.655  1.00  0.00     0.186 HD
BRANCH   6   9
HETATM    9  C6  UNL     1       1.784   0.568   0.469  1.00  0.00    -0.035 C 
HETATM   10  C5  UNL     1       0.546   0.230   0.262  1.00  0.00     0.023 C 
HETATM   11  C7  UNL     1       2.942   0.630  -0.447  1.00  0.00     0.050 C 
BRANCH  10  12
HETATM   12  C4  UNL     1      -0.239  -0.211  -0.857  1.00  0.00     0.005 C 
HETATM   13  C3  UNL     1      -1.678  -0.499  -0.651  1.00  0.00     0.160 C 
HETATM   14  C2  UNL     1      -2.616  -1.175  -1.296  1.00  0.00     0.222 C 
HETATM   15  O3  UNL     1      -2.360  -1.846  -2.483  1.00  0.00    -0.298 OA
HETATM   16  C14 UNL     1      -1.477  -1.463  -3.512  1.00  0.00     0.145 C 
HETATM   17  C13 UNL     1      -0.312  -0.809  -3.369  1.00  0.00     0.026 C 
HETATM   18  C12 UNL     1       0.230  -0.386  -2.086  1.00  0.00     0.016 C 
BRANCH  13  19
HETATM   19  O2  UNL     1      -2.182   0.094   0.526  1.00  0.00    -0.261 OA
BRANCH  19  20
HETATM   20  N1  UNL     1      -2.236   1.464   0.648  1.00  0.00    -0.209 NA
HETATM   21  H4  UNL     1      -1.984   1.773   1.626  1.00  0.00     0.150 HD
HETATM   22  H5  UNL     1      -3.207   1.823   0.507  1.00  0.00     0.150 HD
ENDBRANCH  19  20
ENDBRANCH  13  19
BRANCH  14  23
HETATM   23  O1  UNL     1      -3.848  -1.121  -0.642  1.00  0.00    -0.333 OA
HETATM   24  C1  UNL     1      -4.830  -2.110  -0.685  1.00  0.00     0.212 C 
ENDBRANCH  14  23
ENDBRANCH  10  12
ENDBRANCH   6   9
ENDBRANCH   1   6
TORSDOF 6
