REMARK  10 active torsions:
REMARK  status: ('A' for Active; 'I' for Inactive)
REMARK    1  A    between atoms: C2_2  and  O1_3 
REMARK    2  A    between atoms: O1_3  and  C3_4 
REMARK    3  A    between atoms: C3_4  and  C4_5 
REMARK    4  A    between atoms: C5_6  and  O2_7 
REMARK    5  A    between atoms: O2_7  and  C6_8 
REMARK    6  A    between atoms: C8_10  and  C9_11 
REMARK    7  A    between atoms: C10_12  and  C12_15 
REMARK       I    between atoms: C12_15  and  N2_16 
REMARK    8  A    between atoms: C14_19  and  O4_20 
REMARK    9  A    between atoms: O4_20  and  C15_21 
REMARK   10  A    between atoms: C17_23  and  O5_24 
ROOT
HETATM    1  C9  UNL     1      -3.119  -1.232   0.437  1.00  0.00     0.040 C 
HETATM    2  C10 UNL     1      -3.277  -2.376  -0.185  1.00  0.00     0.112 C 
HETATM    3  C11 UNL     1      -2.532  -2.696  -1.376  1.00  0.00     0.105 C 
HETATM    4  N1  UNL     1      -1.934  -2.945  -2.331  1.00  0.00    -0.191 NA
ENDROOT
BRANCH   2   5
HETATM    5  C12 UNL     1      -4.221  -3.351   0.332  1.00  0.00     0.260 C 
HETATM    6  N2  UNL     1      -4.421  -4.594  -0.315  1.00  0.00    -0.365 N 
HETATM    7  H10 UNL     1      -4.430  -5.496  -0.838  1.00  0.00     0.159 HD
HETATM    8  H11 UNL     1      -5.311  -5.135  -0.269  1.00  0.00     0.159 HD
HETATM    9  O3  UNL     1      -4.906  -3.130   1.383  1.00  0.00    -0.267 OA
ENDBRANCH   2   5
BRANCH   1  10
HETATM   10  C8  UNL     1      -2.264  -0.103   0.147  1.00  0.00    -0.029 A 
HETATM   11  C7  UNL     1      -0.981  -0.339  -0.277  1.00  0.00     0.052 A 
HETATM   12  C6  UNL     1      -0.087   0.656  -0.592  1.00  0.00     0.113 A 
HETATM   13  C17 UNL     1      -0.533   1.981  -0.467  1.00  0.00     0.133 A 
HETATM   14  C14 UNL     1      -1.837   2.266  -0.038  1.00  0.00     0.105 A 
HETATM   15  C13 UNL     1      -2.657   1.208   0.254  1.00  0.00     0.051 A 
BRANCH  12  16
HETATM   16  O2  UNL     1       1.208   0.687  -1.022  1.00  0.00    -0.300 OA
BRANCH  16  17
HETATM   17  C5  UNL     1       1.950  -0.442  -1.241  1.00  0.00     0.118 A 
HETATM   18  C4  UNL     1       3.203  -0.657  -1.139  1.00  0.00    -0.006 A 
HETATM   19  C18 UNL     1       3.214  -2.018  -1.537  1.00  0.00     0.121 A 
HETATM   20  S1  UNL     1       1.450  -2.001  -1.747  1.00  0.00    -0.100 SA
BRANCH  18  21
HETATM   21  C3  UNL     1       4.281   0.260  -0.747  1.00  0.00     0.206 C 
BRANCH  21  22
HETATM   22  O1  UNL     1       5.017  -0.043   0.336  1.00  0.00    -0.387 OA
BRANCH  22  23
HETATM   23  C2  UNL     1       5.784  -1.161   0.391  1.00  0.00     0.163 C 
HETATM   24  C1  UNL     1       6.533  -1.132   1.734  1.00  0.00     0.033 C 
ENDBRANCH  22  23
ENDBRANCH  21  22
ENDBRANCH  18  21
ENDBRANCH  16  17
ENDBRANCH  12  16
BRANCH  13  25
HETATM   25  O5  UNL     1       0.198   3.156  -0.732  1.00  0.00    -0.356 OA
HETATM   26  H18 UNL     1      -0.229   3.930  -1.204  1.00  0.00     0.218 HD
ENDBRANCH  13  25
BRANCH  14  27
HETATM   27  O4  UNL     1      -2.332   3.560   0.104  1.00  0.00    -0.349 OA
BRANCH  27  28
HETATM   28  C15 UNL     1      -3.661   3.703   0.542  1.00  0.00     0.171 C 
HETATM   29  C16 UNL     1      -3.999   5.176   0.624  1.00  0.00     0.034 C 
ENDBRANCH  27  28
ENDBRANCH  14  27
ENDBRANCH   1  10
TORSDOF 10
