REMARK  3 active torsions:
REMARK  status: ('A' for Active; 'I' for Inactive)
REMARK    1  A    between atoms: C3_4  and  C4_5 
REMARK    2  A    between atoms: C8_10  and  O2_11 
REMARK    3  A    between atoms: C10_13  and  C11_15 
ROOT
HETATM    1  N1  UNL     1       2.014  -1.314  -3.914  1.00  0.00    -0.196 NA
HETATM    2  C1  UNL     1       1.565  -0.998  -2.912  1.00  0.00     0.073 C 
HETATM    3  C2  UNL     1       0.958  -0.591  -1.621  1.00  0.00     0.094 A 
HETATM    4  C3  UNL     1      -0.314  -0.510  -1.255  1.00  0.00     0.054 A 
HETATM    5  C10 UNL     1       2.070  -0.271  -0.745  1.00  0.00     0.041 A 
HETATM    6  O3  UNL     1       0.845  -0.242  -0.537  1.00  0.00     0.000 OA
ENDROOT
BRANCH   4   7
HETATM    7  C4  UNL     1      -1.635  -0.368  -0.700  1.00  0.00    -0.051 C 
HETATM    8  C5  UNL     1      -1.635   0.047   0.559  1.00  0.00     0.007 C 
HETATM    9  C6  UNL     1      -2.873   0.284   1.392  1.00  0.00     0.196 C 
HETATM   10  O1  UNL     1      -3.579   1.245   0.671  1.00  0.00    -0.381 OA
HETATM   11  C7  UNL     1      -4.517   0.757  -0.192  1.00  0.00     0.232 C 
HETATM   12  C8  UNL     1      -4.067  -0.158  -1.237  1.00  0.00     0.067 C 
HETATM   13  C9  UNL     1      -2.855  -0.663  -1.493  1.00  0.00     0.041 C 
BRANCH  12  14
HETATM   14  O2  UNL     1      -5.013  -0.596  -2.127  1.00  0.00    -0.363 OA
HETATM   15  H7  UNL     1      -5.029  -1.600  -2.348  1.00  0.00     0.217 HD
ENDBRANCH  12  14
ENDBRANCH   4   7
BRANCH   5  16
HETATM   16  C11 UNL     1       2.978   0.104   0.320  1.00  0.00    -0.024 A 
HETATM   17  C12 UNL     1       2.505   0.489   1.549  1.00  0.00     0.010 A 
HETATM   18  C13 UNL     1       3.458   0.823   2.483  1.00  0.00     0.001 A 
HETATM   19  C14 UNL     1       4.760   0.737   2.099  1.00  0.00     0.002 A 
HETATM   20  C15 UNL     1       5.248   0.347   0.858  1.00  0.00     0.024 A 
HETATM   21  C16 UNL     1       4.289   0.010  -0.087  1.00  0.00     0.041 A 
HETATM   22 CL1  UNL     1       4.845  -0.482  -1.649  1.00  0.00    -0.084 Cl
ENDBRANCH   5  16
TORSDOF 3
