REMARK  7 active torsions:
REMARK  status: ('A' for Active; 'I' for Inactive)
REMARK    1  A    between atoms: C2_2  and  C15_18 
REMARK    2  A    between atoms: C3_3  and  C4_4 
REMARK    3  A    between atoms: C5_5  and  C6_6 
REMARK    4  A    between atoms: C7_7  and  N1_8 
REMARK    5  A    between atoms: C7_7  and  C8_9 
REMARK       I    between atoms: C8_9  and  N2_11 
REMARK    6  A    between atoms: N2_11  and  C9_12 
REMARK    7  A    between atoms: C15_18  and  O2_20 
ROOT
HETATM    1  C6  UNL     1      -1.020   0.136  -0.258  1.00  0.00     0.029 C 
HETATM    2  C7  UNL     1       0.170   0.226  -0.825  1.00  0.00     0.074 C 
ENDROOT
BRANCH   2   3
HETATM    3  N1  UNL     1       0.311   0.435  -2.203  1.00  0.00    -0.298 NA
HETATM    4  H8  UNL     1       0.611  -0.349  -2.840  1.00  0.00     0.124 HD
HETATM    5  H9  UNL     1       0.615  -0.516  -2.563  1.00  0.00     0.124 HD
ENDBRANCH   2   3
BRANCH   2   6
HETATM    6  C8  UNL     1       1.355   0.117   0.016  1.00  0.00     0.262 C 
HETATM    7  O1  UNL     1       1.490  -0.053   1.254  1.00  0.00    -0.267 OA
HETATM    8  N2  UNL     1       2.646   0.208  -0.589  1.00  0.00    -0.351 N 
HETATM    9  H10 UNL     1       2.673   0.353  -1.642  1.00  0.00     0.163 HD
BRANCH   8  10
HETATM   10  C9  UNL     1       3.967   0.135   0.011  1.00  0.00     0.084 C 
HETATM   11  C10 UNL     1       4.710  -1.031  -0.605  1.00  0.00     0.025 C 
HETATM   12  C11 UNL     1       6.174  -0.999  -0.308  1.00  0.00     0.002 C 
HETATM   13  C12 UNL     1       6.823   0.308  -0.705  1.00  0.00     0.000 C 
HETATM   14  C13 UNL     1       6.125   1.442   0.015  1.00  0.00     0.002 C 
HETATM   15  C14 UNL     1       4.679   1.400  -0.370  1.00  0.00     0.025 C 
ENDBRANCH   8  10
ENDBRANCH   2   6
BRANCH   1  16
HETATM   16  C5  UNL     1      -1.680  -0.061   1.024  1.00  0.00     0.002 C 
HETATM   17  C4  UNL     1      -2.913  -0.126   1.442  1.00  0.00     0.000 C 
BRANCH  17  18
HETATM   18  C3  UNL     1      -4.042   0.005   0.568  1.00  0.00     0.005 C 
HETATM   19  C2  UNL     1      -5.310  -0.051   0.944  1.00  0.00    -0.056 C 
HETATM   20  C1  UNL     1      -5.623  -0.271   2.399  1.00  0.00     0.046 C 
BRANCH  19  21
HETATM   21  C15 UNL     1      -6.421   0.094  -0.008  1.00  0.00     0.142 C 
HETATM   22  C16 UNL     1      -7.322  -1.118  -0.052  1.00  0.00     0.044 C 
BRANCH  21  23
HETATM   23  O2  UNL     1      -7.221   1.191   0.242  1.00  0.00    -0.392 OA
HETATM   24  H26 UNL     1      -7.370   1.366   1.210  1.00  0.00     0.210 HD
ENDBRANCH  21  23
ENDBRANCH  19  21
ENDBRANCH  17  18
ENDBRANCH   1  16
TORSDOF 7
