REMARK  5 active torsions:
REMARK  status: ('A' for Active; 'I' for Inactive)
REMARK    1  A    between atoms: C2_3  and  C9_12 
REMARK    2  A    between atoms: C3_4  and  C4_5 
REMARK    3  A    between atoms: C7_9  and  O2_10 
REMARK       I    between atoms: C9_12  and  N2_14 
REMARK    4  A    between atoms: N2_14  and  C10_15 
REMARK    5  A    between atoms: C10_15  and  C11_16 
ROOT
HETATM    1  N1  UNL     1      -1.368   3.057   0.118  1.00  0.00    -0.191 NA
HETATM    2  C1  UNL     1      -1.158   1.916   0.307  1.00  0.00     0.105 C 
HETATM    3  C2  UNL     1      -0.886   0.524   0.519  1.00  0.00     0.109 C 
HETATM    4  C3  UNL     1      -1.885  -0.288   0.214  1.00  0.00     0.014 C 
ENDROOT
BRANCH   3   5
HETATM    5  C9  UNL     1       0.382   0.020   1.028  1.00  0.00     0.262 C 
HETATM    6  O3  UNL     1       0.511  -1.211   1.172  1.00  0.00    -0.267 OA
HETATM    7  N2  UNL     1       1.429   0.926   1.343  1.00  0.00    -0.352 N 
HETATM    8  H7  UNL     1       1.216   1.957   1.183  1.00  0.00     0.163 HD
BRANCH   7   9
HETATM    9  C10 UNL     1       2.742   0.554   1.855  1.00  0.00     0.161 C 
BRANCH   9  10
HETATM   10  C11 UNL     1       3.544   0.031   0.738  1.00  0.00    -0.041 A 
HETATM   11  C12 UNL     1       3.676  -1.267   0.297  1.00  0.00     0.009 A 
HETATM   12  C13 UNL     1       4.480  -1.570  -0.784  1.00  0.00     0.001 A 
HETATM   13  C14 UNL     1       5.188  -0.602  -1.474  1.00  0.00     0.000 A 
HETATM   14  C15 UNL     1       5.067   0.702  -1.046  1.00  0.00     0.001 A 
HETATM   15  C16 UNL     1       4.269   0.976   0.019  1.00  0.00     0.009 A 
ENDBRANCH   9  10
ENDBRANCH   7   9
ENDBRANCH   3   5
BRANCH   4  16
HETATM   16  C4  UNL     1      -3.157   0.230  -0.298  1.00  0.00     0.061 A 
HETATM   17  C5  UNL     1      -3.461  -0.297  -1.668  1.00  0.00     0.010 A 
HETATM   18  C6  UNL     1      -4.619  -0.917  -1.908  1.00  0.00     0.142 A 
HETATM   19  O1  UNL     1      -5.665  -1.164  -0.997  1.00  0.00    -0.301 OA
HETATM   20  C7  UNL     1      -5.468  -0.704   0.319  1.00  0.00     0.179 A 
HETATM   21  C8  UNL     1      -4.318  -0.093   0.537  1.00  0.00     0.049 A 
BRANCH  20  22
HETATM   22  O2  UNL     1      -6.334  -0.817   1.401  1.00  0.00    -0.341 OA
HETATM   23  H5  UNL     1      -6.460   0.047   1.947  1.00  0.00     0.220 HD
ENDBRANCH  20  22
ENDBRANCH   4  16
TORSDOF 5
