REMARK  5 active torsions:
REMARK  status: ('A' for Active; 'I' for Inactive)
REMARK    1  A    between atoms: C5_5  and  C6_6 
REMARK    2  A    between atoms: C7_7  and  N1_8 
REMARK    3  A    between atoms: C7_7  and  C8_9 
REMARK       I    between atoms: C8_9  and  N2_11 
REMARK    4  A    between atoms: N2_11  and  P1_12 
REMARK    5  A    between atoms: C14_18  and  O2_19 
ROOT
HETATM    1  C6  UNL     1      -1.500  -1.911   0.203  1.00  0.00     0.047 C 
HETATM    2  C7  UNL     1      -0.203  -1.871   0.326  1.00  0.00     0.095 C 
ENDROOT
BRANCH   2   3
HETATM    3  N1  UNL     1       0.396  -3.188   0.467  1.00  0.00    -0.395 N 
HETATM    4  H7  UNL     1       0.678  -3.892  -0.240  1.00  0.00     0.156 HD
HETATM    5  H8  UNL     1       0.818  -4.102   0.693  1.00  0.00     0.156 HD
ENDBRANCH   2   3
BRANCH   2   6
HETATM    6  C8  UNL     1       1.090  -1.232   0.417  1.00  0.00     0.271 C 
HETATM    7  O1  UNL     1       2.318  -1.539   0.552  1.00  0.00    -0.266 OA
HETATM    8  N2  UNL     1       1.351   0.140   0.369  1.00  0.00    -0.331 N 
HETATM    9  H9  UNL     1       0.644   0.897   0.262  1.00  0.00     0.167 HD
BRANCH   8  10
HETATM   10  P1  UNL     1       2.860   1.055   0.465  1.00  0.00    -0.015 P 
HETATM   11  C9  UNL     1       3.657   1.344  -1.191  1.00  0.00     0.056 C 
HETATM   12  C10 UNL     1       5.048   0.713  -1.047  1.00  0.00     0.006 C 
HETATM   13  C11 UNL     1       5.869   1.371   0.023  1.00  0.00     0.001 C 
HETATM   14  C12 UNL     1       5.379   1.159   1.422  1.00  0.00     0.006 C 
HETATM   15  C13 UNL     1       4.179   0.212   1.469  1.00  0.00     0.056 C 
ENDBRANCH   8  10
ENDBRANCH   2   6
BRANCH   1  16
HETATM   16  C5  UNL     1      -2.598  -0.981   0.037  1.00  0.00    -0.002 C 
HETATM   17  C4  UNL     1      -2.581   0.339  -0.045  1.00  0.00     0.012 C 
HETATM   18  C3  UNL     1      -3.582   1.415  -0.209  1.00  0.00     0.005 C 
HETATM   19  C2  UNL     1      -4.870   1.144  -0.036  1.00  0.00    -0.060 C 
HETATM   20  C1  UNL     1      -5.651   2.365  -0.254  1.00  0.00     0.045 C 
HETATM   21  C15 UNL     1      -5.606  -0.082   0.313  1.00  0.00     0.205 C 
HETATM   22  O3  UNL     1      -4.781  -1.072   0.843  1.00  0.00    -0.353 OA
HETATM   23  C14 UNL     1      -3.923  -1.649  -0.056  1.00  0.00     0.291 C 
BRANCH  23  24
HETATM   24  O2  UNL     1      -3.824  -3.024   0.149  1.00  0.00    -0.367 OA
HETATM   25  H21 UNL     1      -3.837  -3.542  -0.700  1.00  0.00     0.213 HD
ENDBRANCH  23  24
ENDBRANCH   1  16
TORSDOF 5
