REMARK  5 active torsions:
REMARK  status: ('A' for Active; 'I' for Inactive)
REMARK       I    between atoms: C1_2  and  N1_3 
REMARK    1  A    between atoms: C1_2  and  C8_10 
REMARK    2  A    between atoms: N1_3  and  C2_4 
REMARK    3  A    between atoms: C9_12  and  C10_13 
REMARK    4  A    between atoms: C13_16  and  O2_17 
REMARK    5  A    between atoms: C14_18  and  O3_19 
ROOT
HETATM    1  C8  UNL     1       0.763   0.229  -2.114  1.00  0.00     0.102 C 
HETATM    2 CL1  UNL     1      -0.179   0.565  -3.549  1.00  0.00    -0.078 Cl
HETATM    3  C9  UNL     1       2.072   0.184  -2.255  1.00  0.00     0.041 C 
ENDROOT
BRANCH   1   4
HETATM    4  C1  UNL     1       0.060   0.022  -0.860  1.00  0.00     0.263 C 
HETATM    5  O1  UNL     1       0.346  -0.236   0.338  1.00  0.00    -0.267 OA
HETATM    6  N1  UNL     1      -1.364   0.105  -0.838  1.00  0.00    -0.352 N 
HETATM    7  H1  UNL     1      -1.968   0.312  -1.694  1.00  0.00     0.163 HD
BRANCH   6   8
HETATM    8  C2  UNL     1      -2.228  -0.071   0.306  1.00  0.00     0.084 C 
HETATM    9  C3  UNL     1      -3.129  -1.274   0.082  1.00  0.00     0.025 C 
HETATM   10  C4  UNL     1      -4.075  -1.355   1.259  1.00  0.00     0.002 C 
HETATM   11  C5  UNL     1      -5.002  -0.158   1.123  1.00  0.00     0.000 C 
HETATM   12  C6  UNL     1      -4.232   1.118   1.291  1.00  0.00     0.002 C 
HETATM   13  C7  UNL     1      -2.962   1.207   0.524  1.00  0.00     0.025 C 
ENDBRANCH   6   8
ENDBRANCH   1   4
BRANCH   3  14
HETATM   14  C10 UNL     1       3.230  -0.045  -1.410  1.00  0.00    -0.032 A 
HETATM   15  C11 UNL     1       4.325  -0.871  -1.693  1.00  0.00     0.014 A 
HETATM   16  C12 UNL     1       5.366  -0.974  -0.799  1.00  0.00     0.040 A 
HETATM   17  C13 UNL     1       5.376  -0.280   0.393  1.00  0.00     0.098 A 
HETATM   18  C14 UNL     1       4.286   0.547   0.683  1.00  0.00     0.099 A 
HETATM   19  C15 UNL     1       3.234   0.654  -0.217  1.00  0.00     0.051 A 
BRANCH  17  20
HETATM   20  O2  UNL     1       6.468  -0.446   1.235  1.00  0.00    -0.358 OA
HETATM   21  H16 UNL     1       7.414  -0.390   0.882  1.00  0.00     0.217 HD
ENDBRANCH  17  20
BRANCH  18  22
HETATM   22  O3  UNL     1       4.413   1.189   1.906  1.00  0.00    -0.358 OA
HETATM   23  H17 UNL     1       3.908   2.073   2.059  1.00  0.00     0.217 HD
ENDBRANCH  18  22
ENDBRANCH   3  14
TORSDOF 5
