REMARK  1 active torsions:
REMARK  status: ('A' for Active; 'I' for Inactive)
REMARK    1  A    between atoms: C7_9  and  O2_10 
ROOT
HETATM    1  N1  UNL     1       3.189  -4.290   0.290  1.00  0.00    -0.196 NA
HETATM    2  C1  UNL     1       2.752  -3.347   0.810  1.00  0.00     0.077 C 
HETATM    3  C2  UNL     1       2.191  -2.138   1.452  1.00  0.00     0.207 C 
HETATM    4  C3  UNL     1       2.951  -0.943   1.043  1.00  0.00    -0.002 C 
HETATM    5  C4  UNL     1       2.855   0.241   0.500  1.00  0.00    -0.019 C 
HETATM    6  C5  UNL     1       2.310   1.432  -0.114  1.00  0.00     0.051 A 
HETATM    7  C6  UNL     1       1.464   2.303  -0.615  1.00  0.00    -0.036 A 
HETATM    8  O1  UNL     1       2.804   2.750  -0.683  1.00  0.00     0.000 OA
HETATM    9  C7  UNL     1       0.042   2.549  -0.869  1.00  0.00     0.072 C 
HETATM   10  C8  UNL     1      -0.469   1.457  -0.348  1.00  0.00     0.147 C 
HETATM   11  C9  UNL     1      -1.697   0.739  -0.083  1.00  0.00    -0.042 A 
HETATM   12  C10 UNL     1      -2.848   1.294   0.524  1.00  0.00     0.008 A 
HETATM   13  C11 UNL     1      -4.070   0.675   0.834  1.00  0.00     0.001 A 
HETATM   14  C12 UNL     1      -4.052  -0.642   0.462  1.00  0.00     0.001 A 
HETATM   15  C13 UNL     1      -2.961  -1.230  -0.130  1.00  0.00     0.009 A 
HETATM   16  C14 UNL     1      -1.749  -0.583  -0.428  1.00  0.00    -0.034 A 
HETATM   17  C15 UNL     1      -0.811  -1.529  -1.038  1.00  0.00     0.161 C 
HETATM   18  N2  UNL     1       0.459  -1.688  -0.355  1.00  0.00    -0.355 N 
HETATM   19  C16 UNL     1       0.742  -1.997   1.035  1.00  0.00     0.239 C 
HETATM   20  O3  UNL     1      -0.508  -1.923   0.906  1.00  0.00    -0.272 OA
HETATM   21  H5  UNL     1       3.031   3.665  -1.091  1.00  0.00     0.000 HD
HETATM   22  H14 UNL     1       1.344  -1.565  -0.945  1.00  0.00     0.162 HD
ENDROOT
BRANCH   9  23
HETATM   23  O2  UNL     1       0.372   3.752  -1.465  1.00  0.00    -0.390 OA
HETATM   24  H6  UNL     1      -0.231   4.063  -2.236  1.00  0.00     0.210 HD
ENDBRANCH   9  23
TORSDOF 1
