REMARK  8 active torsions:
REMARK  status: ('A' for Active; 'I' for Inactive)
REMARK    1  A    between atoms: C6_7  and  N1_8 
REMARK    2  A    between atoms: N1_8  and  C7_9 
REMARK    3  A    between atoms: C7_9  and  C8_10 
REMARK    4  A    between atoms: C9_11  and  O2_12 
REMARK    5  A    between atoms: O2_12  and  C10_13 
REMARK    6  A    between atoms: C10_13  and  C11_14 
REMARK    7  A    between atoms: C12_15  and  O3_16 
REMARK    8  A    between atoms: C15_19  and  S1_20 
ROOT
HETATM    1  C8  UNL     1       0.249   0.647   0.380  1.00  0.00     0.027 C 
HETATM    2  C9  UNL     1       1.420   0.064   0.557  1.00  0.00     0.132 C 
ENDROOT
BRANCH   1   3
HETATM    3  C7  UNL     1      -1.028   0.197   0.978  1.00  0.00     0.300 C 
BRANCH   3   4
HETATM    4  N1  UNL     1      -2.022  -0.138   0.003  1.00  0.00     0.098 N 
HETATM    5  H10 UNL     1      -1.708  -0.777  -0.753  1.00  0.00     0.317 HD
BRANCH   4   6
HETATM    6  C6  UNL     1      -3.243  -0.569   0.668  1.00  0.00     0.289 C 
HETATM    7  C1  UNL     1      -3.722   0.532   1.508  1.00  0.00     0.160 C 
HETATM    8  O1  UNL     1      -3.431   0.683   2.703  1.00  0.00    -0.296 OA
HETATM    9  C2  UNL     1      -4.613   1.558   0.947  1.00  0.00     0.080 C 
HETATM   10  C3  UNL     1      -5.276   1.115  -0.339  1.00  0.00     0.007 C 
HETATM   11  C4  UNL     1      -5.588  -0.362  -0.191  1.00  0.00     0.003 C 
HETATM   12  C5  UNL     1      -4.267  -1.089  -0.296  1.00  0.00     0.043 C 
ENDBRANCH   4   6
ENDBRANCH   3   4
ENDBRANCH   1   3
BRANCH   2  13
HETATM   13  O2  UNL     1       2.520   0.620  -0.081  1.00  0.00    -0.362 OA
BRANCH  13  14
HETATM   14  C10 UNL     1       3.335  -0.345  -0.788  1.00  0.00     0.199 C 
BRANCH  14  15
HETATM   15  C11 UNL     1       4.439   0.388  -1.395  1.00  0.00     0.083 A 
HETATM   16  C12 UNL     1       5.641  -0.425  -0.620  1.00  0.00     0.130 A 
HETATM   17  C13 UNL     1       7.353  -0.300  -0.659  1.00  0.00     0.107 A 
HETATM   18  S1  UNL     1       5.912   0.465  -1.398  1.00  0.00    -0.169 SA
HETATM   19  C14 UNL     1       8.446   0.531  -1.350  1.00  0.00     0.051 A 
HETATM   20  C15 UNL     1       7.226   0.510  -1.382  1.00  0.00    -0.035 A 
BRANCH  16  21
HETATM   21  O3  UNL     1       5.454  -1.579   0.403  1.00  0.00    -0.377 OA
HETATM   22  H17 UNL     1       5.183  -2.473   0.122  1.00  0.00     0.211 HD
ENDBRANCH  16  21
ENDBRANCH  14  15
ENDBRANCH  13  14
ENDBRANCH   2  13
TORSDOF 8
