REMARK  1 active torsions:
REMARK  status: ('A' for Active; 'I' for Inactive)
REMARK    1  A    between atoms: N2_19  and  O2_20 
ROOT
HETATM    1  N1  UNL     1      -1.358  -2.702  -2.268  1.00  0.00    -0.191 NA
HETATM    2  C1  UNL     1      -1.005  -2.289  -1.255  1.00  0.00     0.108 C 
HETATM    3  C2  UNL     1      -0.563  -1.753  -0.002  1.00  0.00     0.101 C 
HETATM    4  C3  UNL     1      -1.410  -1.022   0.766  1.00  0.00    -0.049 C 
HETATM    5  C4  UNL     1      -0.952  -0.445   2.105  1.00  0.00     0.042 C 
HETATM    6  C5  UNL     1      -0.726   1.032   1.799  1.00  0.00     0.040 C 
HETATM    7  C6  UNL     1      -0.440   1.789   0.654  1.00  0.00    -0.012 C 
HETATM    8  C7  UNL     1      -1.647   2.518   0.043  1.00  0.00     0.174 C 
HETATM    9  O1  UNL     1      -2.731   1.692   0.208  1.00  0.00    -0.390 OA
HETATM   10  C8  UNL     1      -2.876   0.573  -0.533  1.00  0.00     0.172 C 
HETATM   11  C9  UNL     1      -2.723  -0.771   0.161  1.00  0.00     0.062 C 
HETATM   12  C10 UNL     1       1.029   1.618   0.319  1.00  0.00    -0.004 A 
HETATM   13  C11 UNL     1       0.418   1.268  -0.838  1.00  0.00    -0.015 A 
HETATM   14  C12 UNL     1       1.222   0.328  -1.508  1.00  0.00     0.001 A 
HETATM   15  C13 UNL     1       2.176   0.346  -0.521  1.00  0.00    -0.058 A 
HETATM   16  C14 UNL     1       2.446   0.940   0.671  1.00  0.00     0.034 A 
HETATM   17  C15 UNL     1       1.763   1.857   1.417  1.00  0.00     0.014 A 
HETATM   18  C16 UNL     1       3.142  -0.822  -0.759  1.00  0.00     0.169 C 
HETATM   19  N2  UNL     1       2.340  -2.043  -0.580  1.00  0.00    -0.129 NA
HETATM   20  S1  UNL     1       1.113  -1.842   0.619  1.00  0.00    -0.004 SA
ENDROOT
BRANCH  19  21
HETATM   21  O2  UNL     1       3.010  -3.167  -0.530  1.00  0.00    -0.302 OA
HETATM   22  H16 UNL     1       2.876  -3.702  -1.356  1.00  0.00     0.238 HD
ENDBRANCH  19  21
TORSDOF 1
