REMARK  8 active torsions:
REMARK  status: ('A' for Active; 'I' for Inactive)
REMARK    1  A    between atoms: O1_2  and  C2_3 
REMARK    2  A    between atoms: C2_3  and  C10_13 
REMARK    3  A    between atoms: C3_4  and  C4_5 
REMARK    4  A    between atoms: C4_5  and  C5_6 
REMARK    5  A    between atoms: C6_7  and  O2_8 
REMARK    6  A    between atoms: C6_7  and  C7_9 
REMARK    7  A    between atoms: C10_13  and  N2_14 
REMARK    8  A    between atoms: N2_14  and  C11_15 
ROOT
HETATM    1  C2  UNL     1       0.867   0.161   0.084  1.00  0.00     0.070 C 
HETATM    2  C3  UNL     1       1.635   0.796   0.936  1.00  0.00     0.011 C 
ENDROOT
BRANCH   1   3
HETATM    3  O1  UNL     1       1.367  -0.944  -0.575  1.00  0.00    -0.359 OA
HETATM    4  C1  UNL     1       0.696  -2.182  -0.635  1.00  0.00     0.209 C 
ENDBRANCH   1   3
BRANCH   1   5
HETATM    5  C10 UNL     1      -0.534   0.599  -0.197  1.00  0.00     0.334 C 
BRANCH   5   6
HETATM    6  N2  UNL     1      -1.459  -0.456   0.137  1.00  0.00     0.094 N 
HETATM    7  H13 UNL     1      -1.373  -0.610   1.170  1.00  0.00     0.316 HD
BRANCH   6   8
HETATM    8  C11 UNL     1      -2.788  -0.065  -0.159  1.00  0.00     0.221 C 
HETATM    9  C12 UNL     1      -3.305   1.103   0.638  1.00  0.00     0.035 C 
HETATM   10  C13 UNL     1      -4.490   1.634  -0.185  1.00  0.00     0.002 C 
HETATM   11  C14 UNL     1      -5.558   0.593  -0.139  1.00  0.00     0.000 C 
HETATM   12  C15 UNL     1      -5.079  -0.751  -0.643  1.00  0.00     0.002 C 
HETATM   13  C16 UNL     1      -3.798  -1.182   0.018  1.00  0.00     0.035 C 
ENDBRANCH   6   8
ENDBRANCH   5   6
ENDBRANCH   1   5
BRANCH   2  14
HETATM   14  C4  UNL     1       3.015   0.547   1.357  1.00  0.00     0.059 C 
BRANCH  14  15
HETATM   15  C5  UNL     1       3.615  -0.634   0.696  1.00  0.00     0.016 C 
HETATM   16  C6  UNL     1       4.674  -0.845  -0.103  1.00  0.00     0.090 C 
BRANCH  16  17
HETATM   17  O2  UNL     1       5.039  -2.103  -0.611  1.00  0.00    -0.359 OA
HETATM   18  H8  UNL     1       6.038  -2.344  -0.555  1.00  0.00     0.217 HD
ENDBRANCH  16  17
BRANCH  16  19
HETATM   19  C7  UNL     1       5.544   0.280  -0.505  1.00  0.00     0.090 A 
HETATM   20  C8  UNL     1       6.642   0.470  -1.253  1.00  0.00     0.053 A 
HETATM   21  C9  UNL     1       6.624   1.897  -0.961  1.00  0.00     0.120 A 
HETATM   22  N1  UNL     1       5.570   1.695  -0.246  1.00  0.00    -0.258 NA
ENDBRANCH  16  19
ENDBRANCH  14  15
ENDBRANCH   2  14
TORSDOF 8
