REMARK  4 active torsions:
REMARK  status: ('A' for Active; 'I' for Inactive)
REMARK    1  A    between atoms: C3_4  and  C4_5 
REMARK    2  A    between atoms: C5_6  and  C6_7 
REMARK    3  A    between atoms: C5_6  and  N1_9 
REMARK    4  A    between atoms: N1_9  and  C7_10 
ROOT
HETATM    1  C7  UNL     1      -0.657   0.575  -0.918  1.00  0.00     0.160 A 
HETATM    2  N2  UNL     1      -1.171   1.796  -0.918  1.00  0.00    -0.222 NA
HETATM    3  C8  UNL     1      -0.398   2.898  -0.931  1.00  0.00     0.238 A 
HETATM    4  N3  UNL     1       0.952   2.790  -0.945  1.00  0.00    -0.215 NA
HETATM    5  C9  UNL     1       1.543   1.563  -0.946  1.00  0.00     0.202 A 
HETATM    6  C10 UNL     1       0.732   0.471  -0.933  1.00  0.00     0.129 A 
HETATM    7  N4  UNL     1       1.111  -0.898  -0.939  1.00  0.00    -0.379 N 
HETATM    8  C11 UNL     1       2.313  -1.579  -0.586  1.00  0.00     0.161 C 
HETATM    9  C12 UNL     1       3.400  -0.701  -0.087  1.00  0.00    -0.004 A 
HETATM   10  C13 UNL     1       4.265  -1.477   0.677  1.00  0.00     0.054 A 
HETATM   11  C14 UNL     1       5.378  -0.915   1.271  1.00  0.00     0.117 A 
HETATM   12  F2  UNL     1       6.224  -1.669   2.016  1.00  0.00    -0.206 F 
HETATM   13  C15 UNL     1       5.693   0.420   1.144  1.00  0.00     0.045 A 
HETATM   14  C16 UNL     1       4.839   1.197   0.385  1.00  0.00     0.041 A 
HETATM   15  C17 UNL     1       3.703   0.653  -0.227  1.00  0.00     0.086 A 
HETATM   16  O1  UNL     1       2.934   1.557  -0.961  1.00  0.00    -0.289 OA
HETATM   17  H10 UNL     1       0.378  -1.593  -1.271  1.00  0.00     0.160 HD
ENDROOT
BRANCH   1  18
HETATM   18  N1  UNL     1      -1.506  -0.570  -0.911  1.00  0.00    -0.341 N 
HETATM   19  H8  UNL     1      -1.731  -1.398  -1.507  1.00  0.00     0.167 HD
BRANCH  18  20
HETATM   20  C5  UNL     1      -2.279  -0.582   0.293  1.00  0.00     0.024 C 
HETATM   21  C4  UNL     1      -3.520  -0.093   0.436  1.00  0.00     0.029 C 
BRANCH  21  22
HETATM   22  C3  UNL     1      -4.047   0.503  -0.771  1.00  0.00     0.039 C 
HETATM   23  C2  UNL     1      -5.271   1.053  -0.852  1.00  0.00     0.090 C 
HETATM   24  C1  UNL     1      -5.844   0.871   0.528  1.00  0.00     0.082 C 
HETATM   25  F1  UNL     1      -5.851   1.626  -1.901  1.00  0.00    -0.211 F 
ENDBRANCH  21  22
BRANCH  20  26
HETATM   26  C6  UNL     1      -1.531  -1.237   1.391  1.00  0.00     0.171 C 
HETATM   27 CL1  UNL     1      -1.146  -2.918   0.935  1.00  0.00    -0.124 Cl
ENDBRANCH  20  26
ENDBRANCH  18  20
ENDBRANCH   1  18
TORSDOF 4
