REMARK  4 active torsions:
REMARK  status: ('A' for Active; 'I' for Inactive)
REMARK    1  A    between atoms: C2_2  and  C4_5 
REMARK    2  A    between atoms: C7_8  and  O1_9 
REMARK    3  A    between atoms: O1_9  and  C8_10 
REMARK    4  A    between atoms: C15_18  and  O2_19 
ROOT
HETATM    1  C1  UNL     1       4.744   1.574  -1.318  1.00  0.00     0.036 C 
HETATM    2  C2  UNL     1       4.498   0.567  -0.476  1.00  0.00     0.045 C 
HETATM    3  C3  UNL     1       5.572  -0.124   0.178  1.00  0.00     0.099 C 
HETATM    4  N1  UNL     1       6.438  -0.691   0.689  1.00  0.00    -0.191 NA
ENDROOT
BRANCH   2   5
HETATM    5  C4  UNL     1       3.113   0.205  -0.253  1.00  0.00    -0.013 A 
HETATM    6  C5  UNL     1       2.118   0.898  -0.903  1.00  0.00     0.016 A 
HETATM    7  C6  UNL     1       0.796   0.560  -0.696  1.00  0.00     0.041 A 
HETATM    8  C7  UNL     1       0.460  -0.470   0.160  1.00  0.00     0.108 A 
HETATM    9  C15 UNL     1       1.481  -1.167   0.815  1.00  0.00     0.100 A 
HETATM   10  C16 UNL     1       2.808  -0.842   0.620  1.00  0.00     0.052 A 
BRANCH   8  11
HETATM   11  O1  UNL     1      -0.788  -0.945   0.488  1.00  0.00    -0.312 OA
BRANCH  11  12
HETATM   12  C8  UNL     1      -1.992  -0.449  -0.008  1.00  0.00     0.057 C 
HETATM   13  C9  UNL     1      -2.193   0.796   0.389  1.00  0.00     0.036 C 
HETATM   14  C10 UNL     1      -3.362   1.594   0.038  1.00  0.00     0.044 C 
HETATM   15  C11 UNL     1      -4.562   1.242  -0.399  1.00  0.00     0.116 C 
HETATM   16  F1  UNL     1      -5.499   2.183  -0.660  1.00  0.00    -0.206 F 
HETATM   17  C12 UNL     1      -4.945  -0.148  -0.622  1.00  0.00     0.038 C 
HETATM   18  C13 UNL     1      -4.186  -1.215  -0.798  1.00  0.00    -0.017 C 
HETATM   19  C14 UNL     1      -2.719  -1.442  -0.842  1.00  0.00     0.092 C 
ENDBRANCH  11  12
ENDBRANCH   8  11
BRANCH   9  20
HETATM   20  O2  UNL     1       1.277  -2.229   1.707  1.00  0.00    -0.358 OA
HETATM   21  H11 UNL     1       1.307  -3.176   1.336  1.00  0.00     0.217 HD
ENDBRANCH   9  20
ENDBRANCH   2   5
TORSDOF 4
