REMARK  4 active torsions:
REMARK  status: ('A' for Active; 'I' for Inactive)
REMARK    1  A    between atoms: C2_2  and  C3_3 
REMARK    2  A    between atoms: C11_12  and  C12_13 
REMARK    3  A    between atoms: C12_13  and  C13_14 
REMARK    4  A    between atoms: C15_17  and  C17_20 
REMARK       I    between atoms: C17_20  and  N2_21 
ROOT
HETATM    1  C3  UNL     1      -2.290  -1.389   0.919  1.00  0.00    -0.040 C 
HETATM    2  C4  UNL     1      -2.660  -0.652  -0.086  1.00  0.00     0.018 C 
HETATM    3  C5  UNL     1      -2.403   0.104  -1.275  1.00  0.00    -0.052 C 
HETATM    4  C6  UNL     1      -3.535   0.619  -1.824  1.00  0.00    -0.023 C 
HETATM    5  C7  UNL     1      -4.923   0.476  -1.334  1.00  0.00     0.036 C 
HETATM    6  C8  UNL     1      -1.177   0.446  -2.078  1.00  0.00     0.112 C 
HETATM    7  S1  UNL     1      -0.193   1.571  -1.185  1.00  0.00    -0.158 SA
HETATM    8  C9  UNL     1       0.658   1.238   0.273  1.00  0.00     0.138 C 
HETATM    9  C10 UNL     1       1.853   0.362   0.236  1.00  0.00     0.059 C 
HETATM   10  C11 UNL     1       3.052   0.902   0.609  1.00  0.00     0.033 C 
HETATM   11  O1  UNL     1       2.278  -0.912  -0.051  1.00  0.00    -0.316 OA
HETATM   12  C15 UNL     1       1.579  -2.100  -0.022  1.00  0.00     0.253 C 
HETATM   13  C16 UNL     1       2.385  -3.080   0.750  1.00  0.00     0.113 C 
HETATM   14  N1  UNL     1       3.000  -3.847   1.352  1.00  0.00    -0.193 NA
HETATM   15  C18 UNL     1       0.213  -1.981   0.530  1.00  0.00     0.038 C 
HETATM   16  C19 UNL     1      -0.964  -1.950   1.124  1.00  0.00     0.011 C 
ENDROOT
BRANCH  12  17
HETATM   17  C17 UNL     1       1.579  -2.602  -1.453  1.00  0.00     0.269 C 
HETATM   18  N2  UNL     1       2.147  -1.901  -2.537  1.00  0.00    -0.366 N 
HETATM   19  H19 UNL     1       2.583  -1.428  -3.314  1.00  0.00     0.159 HD
HETATM   20  H20 UNL     1       1.812  -1.036  -3.002  1.00  0.00     0.159 HD
HETATM   21  O2  UNL     1       1.000  -3.711  -1.469  1.00  0.00    -0.269 OA
ENDBRANCH  12  17
BRANCH  10  22
HETATM   22  C12 UNL     1       2.952   2.326   1.000  1.00  0.00    -0.002 C 
BRANCH  22  23
HETATM   23  C13 UNL     1       3.022   3.583   1.374  1.00  0.00    -0.031 C 
HETATM   24  C14 UNL     1       3.817   4.746   1.855  1.00  0.00     0.036 C 
ENDBRANCH  22  23
ENDBRANCH  10  22
BRANCH   1  25
HETATM   25  C2  UNL     1      -2.999  -1.994   2.014  1.00  0.00    -0.015 C 
HETATM   26  C1  UNL     1      -2.715  -2.727   3.041  1.00  0.00     0.032 C 
ENDBRANCH   1  25
TORSDOF 4
