REMARK  2 active torsions:
REMARK  status: ('A' for Active; 'I' for Inactive)
REMARK    1  A    between atoms: C2_3  and  C17_20 
REMARK    2  A    between atoms: C3_4  and  C4_5 
REMARK       I    between atoms: C17_20  and  N2_21 
ROOT
HETATM    1  N1  UNL     1      -3.683   1.159   2.040  1.00  0.00    -0.191 NA
HETATM    2  C1  UNL     1      -3.507   1.882   1.109  1.00  0.00     0.105 C 
HETATM    3  C2  UNL     1      -3.278   2.754   0.018  1.00  0.00     0.112 C 
HETATM    4  C3  UNL     1      -2.170   2.559  -0.816  1.00  0.00     0.034 C 
ENDROOT
BRANCH   3   5
HETATM    5  C17 UNL     1      -4.083   3.906  -0.499  1.00  0.00     0.260 C 
HETATM    6  N2  UNL     1      -5.201   4.264   0.282  1.00  0.00    -0.365 N 
HETATM    7  H15 UNL     1      -6.024   4.559   0.875  1.00  0.00     0.159 HD
HETATM    8  H16 UNL     1      -4.630   5.100   0.647  1.00  0.00     0.159 HD
HETATM    9  O2  UNL     1      -3.669   4.376  -1.539  1.00  0.00    -0.267 OA
ENDBRANCH   3   5
BRANCH   4  10
HETATM   10  C4  UNL     1      -1.332   1.368  -0.407  1.00  0.00    -0.041 A 
HETATM   11  C5  UNL     1      -0.836   0.229   0.239  1.00  0.00     0.166 A 
HETATM   12  O1  UNL     1      -0.506  -0.923   1.037  1.00  0.00    -0.353 OA
HETATM   13  C16 UNL     1       0.151   1.139  -0.354  1.00  0.00     0.086 A 
HETATM   14  C6  UNL     1      -1.666  -1.840   0.925  1.00  0.00     0.132 C 
HETATM   15  C7  UNL     1      -1.080  -2.825   0.323  1.00  0.00     0.007 C 
HETATM   16  C8  UNL     1       0.152  -3.447  -0.286  1.00  0.00     0.044 C 
HETATM   17  C9  UNL     1       1.407  -3.284  -0.539  1.00  0.00    -0.017 C 
HETATM   18  C10 UNL     1       2.233  -4.214  -1.192  1.00  0.00     0.003 C 
HETATM   19  C11 UNL     1       3.205  -3.406  -1.015  1.00  0.00     0.045 C 
HETATM   20  S1  UNL     1       4.681  -2.343  -0.828  1.00  0.00    -0.138 SA
HETATM   21  C12 UNL     1       4.422  -1.047   0.419  1.00  0.00     0.105 C 
HETATM   22  C13 UNL     1       3.260  -0.144   0.066  1.00  0.00    -0.020 C 
HETATM   23  C14 UNL     1       2.517   0.923  -0.361  1.00  0.00    -0.029 C 
HETATM   24  C15 UNL     1       1.346   1.785  -0.692  1.00  0.00     0.005 C 
ENDBRANCH   4  10
TORSDOF 2
