REMARK  6 active torsions:
REMARK  status: ('A' for Active; 'I' for Inactive)
REMARK    1  A    between atoms: C2_2  and  C3_3 
REMARK    2  A    between atoms: C3_3  and  C4_4 
REMARK    3  A    between atoms: C9_12  and  N3_13 
REMARK    4  A    between atoms: N3_13  and  C10_14 
REMARK    5  A    between atoms: C19_25  and  C20_26 
REMARK    6  A    between atoms: C20_26  and  O3_27 
ROOT
HETATM    1  C4  UNL     1      -2.890  -0.337  -0.003  1.00  0.00     0.160 C 
HETATM    2  O1  UNL     1      -2.143  -1.508   0.200  1.00  0.00    -0.340 OA
HETATM    3  C5  UNL     1      -0.839  -1.485   0.619  1.00  0.00     0.105 A 
HETATM    4  C6  UNL     1      -0.179  -2.542   1.210  1.00  0.00     0.072 A 
HETATM    5  C7  UNL     1       1.140  -2.388   1.587  1.00  0.00     0.075 A 
HETATM    6  N1  UNL     1       1.790  -3.410   2.163  1.00  0.00    -0.241 NA
HETATM    7  C8  UNL     1       3.086  -3.212   2.517  1.00  0.00     0.236 A 
HETATM    8  N2  UNL     1       3.694  -2.032   2.296  1.00  0.00    -0.224 NA
HETATM    9  C9  UNL     1       3.063  -0.986   1.718  1.00  0.00     0.142 A 
HETATM   10  C16 UNL     1       1.744  -1.158   1.348  1.00  0.00     0.042 A 
HETATM   11  C17 UNL     1       1.121  -0.078   0.760  1.00  0.00     0.057 A 
HETATM   12  C18 UNL     1      -0.215  -0.276   0.393  1.00  0.00     0.103 A 
HETATM   13  O2  UNL     1      -0.851   0.805  -0.199  1.00  0.00    -0.338 OA
HETATM   14  C19 UNL     1      -2.126   0.655  -0.841  1.00  0.00     0.182 C 
ENDROOT
BRANCH   9  15
HETATM   15  N3  UNL     1       3.822   0.204   1.543  1.00  0.00    -0.340 N 
HETATM   16  H11 UNL     1       3.679   0.765   2.412  1.00  0.00     0.167 HD
BRANCH  15  17
HETATM   17  C10 UNL     1       4.634   0.632   0.457  1.00  0.00     0.035 A 
HETATM   18  C11 UNL     1       5.273   1.858   0.549  1.00  0.00     0.029 A 
HETATM   19  C12 UNL     1       6.045   2.199  -0.553  1.00  0.00     0.004 A 
HETATM   20  C13 UNL     1       6.181   1.395  -1.669  1.00  0.00     0.024 A 
HETATM   21  C14 UNL     1       5.517   0.185  -1.696  1.00  0.00     0.036 A 
HETATM   22 CL1  UNL     1       5.713  -0.803  -3.121  1.00  0.00    -0.084 Cl
HETATM   23  C15 UNL     1       4.734  -0.211  -0.631  1.00  0.00     0.053 A 
ENDBRANCH  15  17
ENDBRANCH   9  15
BRANCH  14  24
HETATM   24  C20 UNL     1      -2.778   2.020  -0.789  1.00  0.00     0.202 C 
BRANCH  24  25
HETATM   25  O3  UNL     1      -2.898   2.361   0.564  1.00  0.00    -0.393 OA
HETATM   26  C21 UNL     1      -3.498   3.622   0.693  1.00  0.00     0.201 C 
ENDBRANCH  24  25
ENDBRANCH  14  24
BRANCH   1  27
HETATM   27  C3  UNL     1      -4.251  -0.655  -0.573  1.00  0.00     0.035 C 
BRANCH  27  28
HETATM   28  C2  UNL     1      -4.156  -1.361  -1.894  1.00  0.00    -0.002 C 
HETATM   29  C1  UNL     1      -5.514  -1.662  -2.433  1.00  0.00     0.005 C 
ENDBRANCH  27  28
ENDBRANCH   1  27
TORSDOF 6
