REMARK  6 active torsions:
REMARK  status: ('A' for Active; 'I' for Inactive)
REMARK    1  A    between atoms: O1_2  and  C2_3 
REMARK    2  A    between atoms: C2_3  and  C3_4 
REMARK    3  A    between atoms: C7_9  and  N1_10 
REMARK    4  A    between atoms: N1_10  and  C8_11 
REMARK    5  A    between atoms: C18_24  and  C19_25 
REMARK    6  A    between atoms: C19_25  and  O4_26 
ROOT
HETATM    1  C3  UNL     1      -2.770   0.787   0.500  1.00  0.00     0.184 C 
HETATM    2  O2  UNL     1      -1.788   0.736  -0.548  1.00  0.00    -0.338 OA
HETATM    3  C4  UNL     1      -0.739  -0.150  -0.343  1.00  0.00     0.103 C 
HETATM    4  C5  UNL     1       0.426   0.032  -0.976  1.00  0.00     0.051 C 
HETATM    5  C6  UNL     1       1.439  -0.951  -0.620  1.00  0.00     0.003 A 
HETATM    6  C7  UNL     1       2.760  -0.936  -0.683  1.00  0.00     0.134 A 
HETATM    7  N2  UNL     1       3.312  -2.110  -0.100  1.00  0.00    -0.246 NA
HETATM    8  C14 UNL     1       2.352  -2.893   0.328  1.00  0.00     0.105 A 
HETATM    9  C15 UNL     1       1.128  -2.231  -0.002  1.00  0.00     0.088 A 
HETATM   10  C16 UNL     1      -0.075  -2.287   0.820  1.00  0.00     0.028 C 
HETATM   11  C17 UNL     1      -0.928  -1.263   0.580  1.00  0.00     0.100 C 
HETATM   12  O3  UNL     1      -2.154  -1.354   1.272  1.00  0.00    -0.339 OA
HETATM   13  C18 UNL     1      -3.237  -0.620   0.729  1.00  0.00     0.184 C 
ENDROOT
BRANCH   6  14
HETATM   14  N1  UNL     1       3.552   0.156  -1.175  1.00  0.00    -0.341 N 
HETATM   15  H8  UNL     1       3.198   0.599  -2.073  1.00  0.00     0.167 HD
BRANCH  14  16
HETATM   16  C8  UNL     1       4.735   0.707  -0.614  1.00  0.00     0.035 A 
HETATM   17  C9  UNL     1       5.407   1.773  -1.199  1.00  0.00     0.029 A 
HETATM   18  C10 UNL     1       6.533   2.226  -0.579  1.00  0.00     0.004 A 
HETATM   19  C11 UNL     1       7.066   1.709   0.591  1.00  0.00     0.024 A 
HETATM   20  C12 UNL     1       6.393   0.650   1.167  1.00  0.00     0.036 A 
HETATM   21 CL1  UNL     1       7.066   0.005   2.636  1.00  0.00    -0.084 Cl
HETATM   22  C13 UNL     1       5.235   0.171   0.546  1.00  0.00     0.053 A 
ENDBRANCH  14  16
ENDBRANCH   6  14
BRANCH   1  23
HETATM   23  C2  UNL     1      -3.894   1.724   0.131  1.00  0.00     0.202 C 
BRANCH  23  24
HETATM   24  O1  UNL     1      -3.298   2.993  -0.057  1.00  0.00    -0.393 OA
HETATM   25  C1  UNL     1      -4.362   3.846  -0.400  1.00  0.00     0.201 C 
ENDBRANCH  23  24
ENDBRANCH   1  23
BRANCH  13  26
HETATM   26  C19 UNL     1      -3.644  -1.255  -0.607  1.00  0.00     0.202 C 
BRANCH  26  27
HETATM   27  O4  UNL     1      -4.035  -2.563  -0.489  1.00  0.00    -0.393 OA
HETATM   28  C20 UNL     1      -5.119  -2.790   0.330  1.00  0.00     0.201 C 
ENDBRANCH  26  27
ENDBRANCH  13  26
TORSDOF 6
