REMARK  6 active torsions:
REMARK  status: ('A' for Active; 'I' for Inactive)
REMARK    1  A    between atoms: C2_2  and  C3_3 
REMARK    2  A    between atoms: C3_3  and  C4_4 
REMARK    3  A    between atoms: C4_4  and  C5_6 
REMARK    4  A    between atoms: C5_6  and  C6_7 
REMARK    5  A    between atoms: C7_8  and  C8_9 
REMARK    6  A    between atoms: C15_19  and  O3_20 
ROOT
HETATM    1  C3  UNL     1      -0.073  -0.581  -0.495  1.00  0.00    -0.007 C 
HETATM    2  C9  UNL     1      -1.221  -0.022  -0.325  1.00  0.00    -0.038 C 
HETATM    3  C10 UNL     1      -2.411  -0.557  -1.151  1.00  0.00     0.059 C 
HETATM    4  C11 UNL     1      -3.574  -0.054  -0.497  1.00  0.00     0.120 C 
HETATM    5  C12 UNL     1      -3.181  -0.627   0.841  1.00  0.00     0.066 C 
HETATM    6  N1  UNL     1      -2.868  -1.062   1.911  1.00  0.00    -0.197 NA
HETATM    7  C13 UNL     1      -4.491   0.879   0.050  1.00  0.00     0.187 C 
HETATM    8  O2  UNL     1      -3.790   1.615   1.078  1.00  0.00    -0.387 OA
HETATM    9  C14 UNL     1      -2.504   1.947   0.737  1.00  0.00     0.203 C 
HETATM   10  C15 UNL     1      -1.323   1.123   0.665  1.00  0.00     0.171 C 
ENDROOT
BRANCH   1  11
HETATM   11  C2  UNL     1       0.115  -1.701  -1.450  1.00  0.00     0.038 C 
HETATM   12  C1  UNL     1       0.523  -2.980  -0.753  1.00  0.00     0.010 C 
ENDBRANCH   1  11
BRANCH   1  13
HETATM   13  C4  UNL     1       1.103  -0.164   0.220  1.00  0.00     0.159 C 
HETATM   14  O1  UNL     1       1.671   0.560   1.037  1.00  0.00    -0.292 OA
BRANCH  13  15
HETATM   15  C5  UNL     1       2.472  -0.667   0.158  1.00  0.00     0.110 C 
BRANCH  15  16
HETATM   16  C6  UNL     1       3.310   0.132   1.110  1.00  0.00    -0.021 C 
HETATM   17  C7  UNL     1       4.348   0.837   0.682  1.00  0.00     0.000 C 
BRANCH  17  18
HETATM   18  C8  UNL     1       4.968   1.070  -0.634  1.00  0.00     0.249 C 
HETATM   19  F1  UNL     1       6.304   0.646  -0.660  1.00  0.00    -0.251 F 
ENDBRANCH  17  18
ENDBRANCH  15  16
ENDBRANCH  13  15
ENDBRANCH   1  13
BRANCH  10  20
HETATM   20  O3  UNL     1      -0.314   2.006   0.176  1.00  0.00    -0.389 OA
HETATM   21  H20 UNL     1      -0.335   2.090  -0.790  1.00  0.00     0.210 HD
ENDBRANCH  10  20
TORSDOF 6
