REMARK  5 active torsions:
REMARK  status: ('A' for Active; 'I' for Inactive)
REMARK    1  A    between atoms: O1_2  and  C2_3 
REMARK    2  A    between atoms: C7_9  and  C8_10 
REMARK    3  A    between atoms: C9_11  and  N1_12 
REMARK    4  A    between atoms: C9_11  and  C10_14 
REMARK    5  A    between atoms: C10_14  and  C11_16 
ROOT
HETATM    1  C8  UNL     1      -0.205  -0.271   1.047  1.00  0.00     0.048 C 
HETATM    2  C9  UNL     1       0.808  -0.071   0.243  1.00  0.00     0.109 C 
ENDROOT
BRANCH   2   3
HETATM    3  N1  UNL     1       0.692   0.118  -1.155  1.00  0.00    -0.237 N 
HETATM    4  F1  UNL     1       0.609   0.197  -2.485  1.00  0.00    -0.290 F 
HETATM    5  H11 UNL     1       0.789  -0.380  -2.091  1.00  0.00     0.406 HD
ENDBRANCH   2   3
BRANCH   2   6
HETATM    6  C10 UNL     1       2.130  -0.041   0.844  1.00  0.00     0.210 C 
HETATM    7  O3  UNL     1       1.886  -0.237   2.081  1.00  0.00    -0.285 OA
BRANCH   6   8
HETATM    8  C11 UNL     1       3.460   0.149   0.331  1.00  0.00     0.016 A 
HETATM    9  C12 UNL     1       3.882   0.371  -0.956  1.00  0.00     0.015 A 
HETATM   10  C13 UNL     1       5.183   0.539  -1.342  1.00  0.00     0.001 A 
HETATM   11  C14 UNL     1       6.117   0.475  -0.335  1.00  0.00     0.000 A 
HETATM   12  C15 UNL     1       5.773   0.257   0.967  1.00  0.00     0.001 A 
HETATM   13  C16 UNL     1       4.458   0.098   1.285  1.00  0.00     0.015 A 
ENDBRANCH   6   8
ENDBRANCH   2   6
BRANCH   1  14
HETATM   14  C7  UNL     1      -1.625  -0.350   0.766  1.00  0.00    -0.002 C 
HETATM   15  C2  UNL     1      -2.362  -0.228  -0.525  1.00  0.00     0.293 C 
HETATM   16  O2  UNL     1      -3.026  -1.464  -0.713  1.00  0.00    -0.353 OA
HETATM   17  C3  UNL     1      -4.391  -1.342  -0.443  1.00  0.00     0.198 C 
HETATM   18  C4  UNL     1      -4.650  -1.056   0.985  1.00  0.00    -0.001 C 
HETATM   19  C5  UNL     1      -3.863  -0.719   2.022  1.00  0.00    -0.001 C 
HETATM   20  C6  UNL     1      -2.424  -0.570   1.837  1.00  0.00     0.012 C 
BRANCH  15  21
HETATM   21  O1  UNL     1      -3.379   0.732  -0.429  1.00  0.00    -0.362 OA
HETATM   22  C1  UNL     1      -3.285   1.679  -1.441  1.00  0.00     0.205 C 
ENDBRANCH  15  21
ENDBRANCH   1  14
TORSDOF 5
