REMARK  6 active torsions:
REMARK  status: ('A' for Active; 'I' for Inactive)
REMARK    1  A    between atoms: O1_2  and  C2_3 
REMARK    2  A    between atoms: C2_3  and  C3_4 
REMARK    3  A    between atoms: C8_12  and  N3_13 
REMARK    4  A    between atoms: N3_13  and  C9_14 
REMARK    5  A    between atoms: C17_25  and  C18_26 
REMARK    6  A    between atoms: C18_26  and  O4_27 
ROOT
HETATM    1  C3  UNL     1      -3.634   0.947   0.204  1.00  0.00     0.184 C 
HETATM    2  O2  UNL     1      -2.849   0.901  -0.966  1.00  0.00    -0.338 OA
HETATM    3  C4  UNL     1      -1.486   0.686  -1.004  1.00  0.00     0.105 A 
HETATM    4  C5  UNL     1      -0.798   0.568  -2.193  1.00  0.00     0.072 A 
HETATM    5  C6  UNL     1       0.561   0.355  -2.182  1.00  0.00     0.075 A 
HETATM    6  N1  UNL     1       1.174   0.248  -3.389  1.00  0.00    -0.241 NA
HETATM    7  C7  UNL     1       2.521   0.036  -3.441  1.00  0.00     0.236 A 
HETATM    8  N2  UNL     1       3.205  -0.061  -2.299  1.00  0.00    -0.223 NA
HETATM    9  C8  UNL     1       2.684   0.031  -1.074  1.00  0.00     0.143 A 
HETATM   10  C14 UNL     1       1.327   0.244  -1.043  1.00  0.00     0.042 A 
HETATM   11  C15 UNL     1       0.585   0.370   0.109  1.00  0.00     0.057 A 
HETATM   12  C16 UNL     1      -0.775   0.585   0.169  1.00  0.00     0.103 A 
HETATM   13  O3  UNL     1      -1.501   0.708   1.329  1.00  0.00    -0.338 OA
HETATM   14  C17 UNL     1      -2.885   0.479   1.438  1.00  0.00     0.184 C 
ENDROOT
BRANCH   9  15
HETATM   15  N3  UNL     1       3.403  -0.073   0.136  1.00  0.00    -0.325 N 
HETATM   16  H9  UNL     1       2.917   0.010   1.044  1.00  0.00     0.169 HD
BRANCH  15  17
HETATM   17  C9  UNL     1       4.779  -0.286   0.348  1.00  0.00     0.130 A 
HETATM   18  C10 UNL     1       5.643  -0.426  -0.702  1.00  0.00     0.074 A 
HETATM   19  C11 UNL     1       7.008  -0.639  -0.573  1.00  0.00     0.039 A 
HETATM   20 CL1  UNL     1       8.110  -0.817  -1.931  1.00  0.00    -0.084 Cl
HETATM   21  C12 UNL     1       7.566  -0.720   0.703  1.00  0.00     0.043 A 
HETATM   22  C13 UNL     1       6.659  -0.573   1.704  1.00  0.00     0.120 A 
HETATM   23  N4  UNL     1       5.367  -0.372   1.532  1.00  0.00    -0.243 NA
ENDBRANCH  15  17
ENDBRANCH   9  15
BRANCH  14  24
HETATM   24  C18 UNL     1      -3.065  -0.992   1.673  1.00  0.00     0.202 C 
BRANCH  24  25
HETATM   25  O4  UNL     1      -2.411  -1.404   2.807  1.00  0.00    -0.393 OA
HETATM   26  C19 UNL     1      -2.847  -0.803   3.961  1.00  0.00     0.201 C 
ENDBRANCH  24  25
ENDBRANCH  14  24
BRANCH   1  27
HETATM   27  C2  UNL     1      -4.952   0.286   0.043  1.00  0.00     0.202 C 
BRANCH  27  28
HETATM   28  O1  UNL     1      -5.795   0.815  -0.907  1.00  0.00    -0.393 OA
HETATM   29  C1  UNL     1      -5.285   0.797  -2.191  1.00  0.00     0.201 C 
ENDBRANCH  27  28
ENDBRANCH   1  27
TORSDOF 6
