REMARK  5 active torsions:
REMARK  status: ('A' for Active; 'I' for Inactive)
REMARK    1  A    between atoms: O1_2  and  C2_3 
REMARK    2  A    between atoms: C2_3  and  C3_4 
REMARK    3  A    between atoms: C3_4  and  C4_5 
REMARK    4  A    between atoms: C15_18  and  C16_19 
REMARK    5  A    between atoms: C16_19  and  O2_20 
ROOT
HETATM    1  C4  UNL     1       0.771   0.053  -0.371  1.00  0.00    -0.002 C 
HETATM    2  C5  UNL     1      -0.279  -0.915  -0.044  1.00  0.00     0.039 C 
HETATM    3  C6  UNL     1      -1.624  -0.743  -0.696  1.00  0.00    -0.080 C 
HETATM    4  C7  UNL     1      -2.130  -0.003  -1.708  1.00  0.00    -0.005 C 
HETATM    5  C8  UNL     1      -1.639   1.011  -2.687  1.00  0.00     0.142 C 
HETATM    6  N1  UNL     1      -2.350   2.314  -2.293  1.00  0.00    -0.411 N 
HETATM    7  C9  UNL     1      -1.534   2.003  -1.132  1.00  0.00     0.112 C 
HETATM    8  C10 UNL     1      -1.149   1.480   0.036  1.00  0.00     0.024 C 
HETATM    9  C11 UNL     1      -0.970   0.737   1.399  1.00  0.00     0.140 C 
HETATM   10  N2  UNL     1      -1.691  -0.205   2.034  1.00  0.00    -0.317 NA
HETATM   11  C12 UNL     1      -2.926  -0.798   1.480  1.00  0.00     0.102 C 
HETATM   12  C13 UNL     1      -3.260  -1.942   2.408  1.00  0.00     0.034 C 
HETATM   13  C14 UNL     1      -2.666  -1.501   0.122  1.00  0.00     0.060 C 
HETATM   14  C15 UNL     1       0.399   1.500  -0.148  1.00  0.00     0.027 C 
HETATM   15  H14 UNL     1      -2.880   3.193  -2.126  1.00  0.00     0.153 HD
ENDROOT
BRANCH   1  16
HETATM   16  C3  UNL     1       2.055  -0.287   0.218  1.00  0.00     0.031 C 
BRANCH  16  17
HETATM   17  C2  UNL     1       2.560  -1.679  -0.250  1.00  0.00     0.167 C 
BRANCH  17  18
HETATM   18  O1  UNL     1       3.781  -1.846   0.396  1.00  0.00    -0.396 OA
HETATM   19  C1  UNL     1       4.402  -3.054   0.101  1.00  0.00     0.201 C 
ENDBRANCH  17  18
ENDBRANCH  16  17
ENDBRANCH   1  16
BRANCH  14  20
HETATM   20  C16 UNL     1       0.980   2.236   0.980  1.00  0.00     0.172 C 
BRANCH  20  21
HETATM   21  O2  UNL     1       2.336   2.411   1.012  1.00  0.00    -0.396 OA
HETATM   22  C17 UNL     1       2.818   3.177  -0.052  1.00  0.00     0.201 C 
ENDBRANCH  20  21
ENDBRANCH  14  20
TORSDOF 5
