REMARK  7 active torsions:
REMARK  status: ('A' for Active; 'I' for Inactive)
REMARK    1  A    between atoms: C3_4  and  C4_5 
REMARK    2  A    between atoms: C4_5  and  O2_6 
REMARK    3  A    between atoms: C6_8  and  C7_9 
REMARK    4  A    between atoms: C7_9  and  O3_10 
REMARK    5  A    between atoms: C9_13  and  C10_14 
REMARK    6  A    between atoms: C11_15  and  N1_16 
REMARK    7  A    between atoms: C17_22  and  N2_23 
ROOT
HETATM    1  C10 UNL     1      -0.043  -0.412   1.408  1.00  0.00     0.019 A 
HETATM    2  C11 UNL     1      -1.353  -0.279   1.508  1.00  0.00     0.044 A 
HETATM    3  C18 UNL     1      -1.829   0.137   2.820  1.00  0.00     0.154 A 
HETATM    4  C19 UNL     1      -2.710   1.330   2.895  1.00  0.00     0.041 C 
HETATM    5  N3  UNL     1      -0.610   0.259   3.568  1.00  0.00    -0.290 NA
HETATM    6  C20 UNL     1       0.355  -0.042   2.792  1.00  0.00     0.123 A 
ENDROOT
BRANCH   1   7
HETATM    7  C9  UNL     1       1.124  -0.741   0.598  1.00  0.00     0.214 C 
HETATM    8  C2  UNL     1       0.937  -1.172  -0.766  1.00  0.00     0.071 C 
HETATM    9  C1  UNL     1      -0.123  -1.277  -1.532  1.00  0.00     0.049 C 
HETATM   10  O1  UNL     1       2.108  -1.560  -1.423  1.00  0.00    -0.343 OA
HETATM   11  C3  UNL     1       3.327  -1.095  -0.774  1.00  0.00     0.183 C 
HETATM   12  C6  UNL     1       2.924   0.350  -0.437  1.00  0.00     0.178 C 
HETATM   13  O4  UNL     1       1.983   0.362   0.580  1.00  0.00    -0.364 OA
BRANCH  11  14
HETATM   14  C4  UNL     1       4.387  -1.088  -1.812  1.00  0.00     0.202 C 
BRANCH  14  15
HETATM   15  O2  UNL     1       5.629  -0.703  -1.370  1.00  0.00    -0.393 OA
HETATM   16  C5  UNL     1       6.138  -1.508  -0.385  1.00  0.00     0.201 C 
ENDBRANCH  14  15
ENDBRANCH  11  14
BRANCH  12  17
HETATM   17  C7  UNL     1       4.066   1.199   0.007  1.00  0.00     0.201 C 
BRANCH  17  18
HETATM   18  O3  UNL     1       3.592   2.475   0.283  1.00  0.00    -0.393 OA
HETATM   19  C8  UNL     1       3.010   3.140  -0.754  1.00  0.00     0.201 C 
ENDBRANCH  17  18
ENDBRANCH  12  17
ENDBRANCH   1   7
BRANCH   2  20
HETATM   20  N1  UNL     1      -2.312  -0.493   0.510  1.00  0.00    -0.348 N 
HETATM   21  C12 UNL     1      -2.964  -1.777   0.349  1.00  0.00     0.152 C 
HETATM   22  C13 UNL     1      -4.310  -1.607  -0.306  1.00  0.00    -0.005 C 
HETATM   23  C14 UNL     1      -4.911  -0.438  -0.617  1.00  0.00    -0.082 C 
HETATM   24  C15 UNL     1      -6.250  -0.393  -1.268  1.00  0.00     0.043 C 
HETATM   25  C16 UNL     1      -4.195   0.854  -0.293  1.00  0.00     0.090 C 
HETATM   26  C17 UNL     1      -2.742   0.549  -0.436  1.00  0.00     0.323 C 
BRANCH  26  27
HETATM   27  N2  UNL     1      -1.865   1.672  -0.480  1.00  0.00     0.101 N 
HETATM   28  H25 UNL     1      -1.281   1.717  -1.318  1.00  0.00     0.315 HD
HETATM   29  H26 UNL     1      -2.365   2.574  -0.287  1.00  0.00     0.315 HD
ENDBRANCH  26  27
ENDBRANCH   2  20
TORSDOF 7
