REMARK  2 active torsions:
REMARK  status: ('A' for Active; 'I' for Inactive)
REMARK    1  A    between atoms: O1_2  and  C2_3 
REMARK    2  A    between atoms: P1_8  and  O3_9 
ROOT
HETATM    1  C2  UNL     1      -2.571  -1.288   0.069  1.00  0.00     0.261 C 
HETATM    2  C3  UNL     1      -3.518  -0.131   0.096  1.00  0.00     0.087 C 
HETATM    3  C4  UNL     1      -3.055   0.910   1.072  1.00  0.00     0.173 C 
HETATM    4  O2  UNL     1      -1.893   1.443   0.730  1.00  0.00    -0.384 OA
HETATM    5  C5  UNL     1      -1.770   2.239  -0.404  1.00  0.00     0.239 C 
HETATM    6  P1  UNL     1      -0.144   2.766  -0.763  1.00  0.00     0.048 P 
HETATM    7  N1  UNL     1       0.626   2.140  -2.145  1.00  0.00    -0.346 N 
HETATM    8  C6  UNL     1       0.798   0.834  -2.681  1.00  0.00     0.203 C 
HETATM    9  N2  UNL     1       0.709  -0.393  -2.253  1.00  0.00    -0.256 NA
HETATM   10  C7  UNL     1       0.685  -1.215  -1.090  1.00  0.00     0.239 C 
HETATM   11  C8  UNL     1      -0.144  -0.550   0.040  1.00  0.00     0.094 C 
HETATM   12  C9  UNL     1       0.298   0.371   0.973  1.00  0.00     0.149 C 
HETATM   13  C10 UNL     1       0.622   1.768   0.357  1.00  0.00    -0.017 C 
HETATM   14  C11 UNL     1       1.783   2.194   0.935  1.00  0.00    -0.010 C 
HETATM   15  C12 UNL     1       2.598   1.447   1.929  1.00  0.00     0.081 C 
HETATM   16  C13 UNL     1       2.771   0.000   1.748  1.00  0.00     0.037 C 
HETATM   17 CL1  UNL     1       3.596  -0.556   3.223  1.00  0.00    -0.087 Cl
HETATM   18  C14 UNL     1       2.566  -1.057   0.907  1.00  0.00     0.022 C 
HETATM   19  C15 UNL     1       2.972  -2.476   1.244  1.00  0.00     0.069 C 
HETATM   20  N3  UNL     1       2.019  -1.270  -0.432  1.00  0.00    -0.362 N 
HETATM   21  C16 UNL     1       2.958  -1.638  -1.470  1.00  0.00     0.152 C 
HETATM   22  O4  UNL     1      -1.266  -1.116  -0.197  1.00  0.00    -0.351 OA
HETATM   23  H11 UNL     1      -0.578   3.723  -1.436  1.00  0.00     0.102 HD
HETATM   24  H13 UNL     1       1.139   2.755  -2.853  1.00  0.00     0.166 HD
ENDROOT
BRANCH   6  25
HETATM   25  O3  UNL     1       0.559   4.059  -0.018  1.00  0.00    -0.363 OA
HETATM   26  H12 UNL     1       0.130   4.270   0.812  1.00  0.00     0.216 HD
ENDBRANCH   6  25
BRANCH   1  27
HETATM   27  O1  UNL     1      -3.108  -2.295  -0.797  1.00  0.00    -0.366 OA
HETATM   28  C1  UNL     1      -3.496  -3.375   0.011  1.00  0.00     0.204 C 
ENDBRANCH   1  27
TORSDOF 2
