REMARK  4 active torsions:
REMARK  status: ('A' for Active; 'I' for Inactive)
REMARK    1  A    between atoms: O1_2  and  C2_3 
REMARK    2  A    between atoms: C2_3  and  C3_4 
REMARK    3  A    between atoms: C15_21  and  C16_22 
REMARK    4  A    between atoms: C16_22  and  O4_23 
ROOT
HETATM    1  C3  UNL     1      -1.256  -0.938   0.282  1.00  0.00     0.182 C 
HETATM    2  O2  UNL     1      -0.361  -1.525   1.283  1.00  0.00    -0.351 OA
HETATM    3  C4  UNL     1       0.227  -0.582   2.162  1.00  0.00     0.160 C 
HETATM    4  C5  UNL     1       1.319  -0.004   2.633  1.00  0.00     0.037 C 
HETATM    5  C6  UNL     1       1.205   1.015   3.643  1.00  0.00     0.114 C 
HETATM    6  P1  UNL     1       1.784   2.724   3.173  1.00  0.00     0.004 P 
HETATM    7  N1  UNL     1       2.787   2.625   1.665  1.00  0.00    -0.269 NA
HETATM    8  C7  UNL     1       2.345   2.031   0.664  1.00  0.00     0.053 A 
HETATM    9  C8  UNL     1       2.567   1.607  -0.687  1.00  0.00     0.059 A 
HETATM   10  C9  UNL     1       2.843   0.644  -1.668  1.00  0.00     0.067 A 
HETATM   11  C10 UNL     1       2.951  -0.743  -1.786  1.00  0.00     0.020 A 
HETATM   12 CL1  UNL     1       3.332  -1.734  -3.196  1.00  0.00    -0.088 Cl
HETATM   13  C11 UNL     1       2.735  -1.508  -0.629  1.00  0.00     0.045 A 
HETATM   14  C12 UNL     1       2.434  -0.899   0.543  1.00  0.00     0.024 A 
HETATM   15  C13 UNL     1       2.490   0.309  -0.015  1.00  0.00     0.058 A 
HETATM   16  C14 UNL     1       1.453   1.322  -0.139  1.00  0.00     0.172 A 
HETATM   17  O3  UNL     1       0.172   0.965   0.324  1.00  0.00    -0.370 OA
HETATM   18  C15 UNL     1      -0.468   0.047  -0.495  1.00  0.00     0.177 C 
HETATM   19  N2  UNL     1       2.141  -0.786   1.856  1.00  0.00    -0.360 N 
HETATM   20  H10 UNL     1       0.710   3.667   3.046  1.00  0.00     0.082 HD
HETATM   21  H20 UNL     1       2.800  -1.560   2.144  1.00  0.00     0.165 HD
ENDROOT
BRANCH   1  22
HETATM   22  C2  UNL     1      -1.738  -2.123  -0.503  1.00  0.00     0.202 C 
BRANCH  22  23
HETATM   23  O1  UNL     1      -2.615  -1.839  -1.516  1.00  0.00    -0.393 OA
HETATM   24  C1  UNL     1      -2.953  -3.051  -2.130  1.00  0.00     0.201 C 
ENDBRANCH  22  23
ENDBRANCH   1  22
BRANCH  18  25
HETATM   25  C16 UNL     1      -1.510   0.963  -1.270  1.00  0.00     0.201 C 
BRANCH  25  26
HETATM   26  O4  UNL     1      -2.366   1.554  -0.376  1.00  0.00    -0.393 OA
HETATM   27  C17 UNL     1      -3.324   2.382  -0.966  1.00  0.00     0.201 C 
ENDBRANCH  25  26
ENDBRANCH  18  25
TORSDOF 4
