REMARK  2 active torsions:
REMARK  status: ('A' for Active; 'I' for Inactive)
REMARK    1  A    between atoms: O1_2  and  C2_3 
REMARK    2  A    between atoms: C2_3  and  C3_4 
ROOT
HETATM    1  C3  UNL     1       2.156  -1.007  -0.270  1.00  0.00     0.169 C 
HETATM    2  C4  UNL     1       2.693   0.369  -0.499  1.00  0.00     0.021 C 
HETATM    3  C5  UNL     1       2.183   1.554  -0.251  1.00  0.00    -0.009 A 
HETATM    4  I1  UNL     1       3.045   3.470  -0.612  1.00  0.00    -0.108 I 
HETATM    5  C6  UNL     1       1.144   2.444   0.145  1.00  0.00     0.109 A 
HETATM    6  C7  UNL     1       0.084   3.102   0.527  1.00  0.00    -0.006 C 
HETATM    7  C8  UNL     1      -1.280   3.237   0.952  1.00  0.00     0.009 C 
HETATM    8  C9  UNL     1      -2.372   2.545   1.196  1.00  0.00     0.059 C 
HETATM    9  N1  UNL     1      -2.501   1.140   1.059  1.00  0.00    -0.276 NA
HETATM   10  C10 UNL     1      -2.697  -0.251   0.714  1.00  0.00     0.212 C 
HETATM   11  N2  UNL     1      -4.092  -0.462   0.460  1.00  0.00    -0.281 NA
HETATM   12  C11 UNL     1      -4.492  -0.245  -0.724  1.00  0.00     0.086 C 
HETATM   13  C12 UNL     1      -3.807   0.199  -1.960  1.00  0.00     0.051 C 
HETATM   14  C13 UNL     1      -2.398  -0.318  -1.958  1.00  0.00     0.042 C 
HETATM   15  C14 UNL     1      -1.965  -0.570  -0.566  1.00  0.00    -0.043 C 
HETATM   16  C15 UNL     1      -0.789  -1.152  -0.438  1.00  0.00     0.005 C 
HETATM   17  C16 UNL     1       0.082  -1.624   0.658  1.00  0.00     0.196 C 
HETATM   18  O2  UNL     1       1.302  -1.052   0.765  1.00  0.00    -0.376 OA
HETATM   19  H12 UNL     1      -2.802   1.490   0.087  1.00  0.00     0.129 HD
ENDROOT
BRANCH   1  20
HETATM   20  C2  UNL     1       3.335  -1.936   0.125  1.00  0.00     0.203 C 
BRANCH  20  21
HETATM   21  O1  UNL     1       3.917  -1.455   1.289  1.00  0.00    -0.393 OA
HETATM   22  C1  UNL     1       4.996  -2.286   1.667  1.00  0.00     0.201 C 
ENDBRANCH  20  21
ENDBRANCH   1  20
TORSDOF 2
