REMARK  3 active torsions:
REMARK  status: ('A' for Active; 'I' for Inactive)
REMARK       I    between atoms: N1_1  and  C1_2 
REMARK    1  A    between atoms: C1_2  and  C2_4 
REMARK    2  A    between atoms: N2_7  and  C5_8 
REMARK    3  A    between atoms: C5_8  and  C6_9 
ROOT
HETATM    1  C6  UNL     1      -0.647  -1.273   0.262  1.00  0.00     0.083 C 
HETATM    2  C7  UNL     1      -1.328  -0.271  -0.249  1.00  0.00     0.050 C 
HETATM    3  C8  UNL     1      -2.676   0.241  -0.391  1.00  0.00     0.012 C 
HETATM    4  C9  UNL     1      -2.859   1.493  -0.722  1.00  0.00    -0.015 C 
HETATM    5  C10 UNL     1      -4.081   1.975  -0.529  1.00  0.00    -0.006 C 
HETATM    6  C11 UNL     1      -5.181   1.072  -0.021  1.00  0.00     0.100 C 
HETATM    7  P1  UNL     1      -4.290  -0.531  -0.192  1.00  0.00     0.097 P 
HETATM    8  F1  UNL     1      -4.790  -1.335  -1.543  1.00  0.00    -0.222 F 
HETATM    9  C12 UNL     1      -4.377  -1.420   1.133  1.00  0.00     0.156 C 
HETATM   10  N3  UNL     1      -3.467  -2.237   1.814  1.00  0.00    -0.246 NA
HETATM   11  C13 UNL     1      -2.255  -2.604   1.765  1.00  0.00     0.258 C 
HETATM   12  O2  UNL     1      -1.154  -2.363   0.961  1.00  0.00    -0.307 OA
ENDROOT
BRANCH   1  13
HETATM   13  C5  UNL     1       0.798  -1.394   0.166  1.00  0.00     0.337 C 
BRANCH  13  14
HETATM   14  N2  UNL     1       1.418  -0.289  -0.481  1.00  0.00     0.095 N 
HETATM   15  C4  UNL     1       1.432   0.938   0.250  1.00  0.00     0.273 C 
HETATM   16  C3  UNL     1       2.911   1.135   0.639  1.00  0.00     0.046 C 
HETATM   17  C2  UNL     1       3.556   0.623  -0.660  1.00  0.00     0.107 C 
HETATM   18  C14 UNL     1       2.743  -0.602  -0.941  1.00  0.00     0.286 C 
BRANCH  17  19
HETATM   19  C1  UNL     1       4.986   0.298  -0.435  1.00  0.00     0.221 C 
HETATM   20  N1  UNL     1       5.531   1.557  -0.016  1.00  0.00    -0.370 N 
HETATM   21  H1  UNL     1       5.723   1.773   0.996  1.00  0.00     0.159 HD
HETATM   22  H2  UNL     1       5.762   2.320  -0.708  1.00  0.00     0.159 HD
HETATM   23  O1  UNL     1       5.743  -0.703  -0.514  1.00  0.00    -0.273 OA
ENDBRANCH  17  19
ENDBRANCH  13  14
ENDBRANCH   1  13
TORSDOF 3
