REMARK  5 active torsions:
REMARK  status: ('A' for Active; 'I' for Inactive)
REMARK    1  A    between atoms: C2_2  and  C3_3 
REMARK    2  A    between atoms: C3_3  and  N1_4 
REMARK    3  A    between atoms: C6_7  and  C7_8 
REMARK       I    between atoms: C7_8  and  N2_9 
REMARK    4  A    between atoms: C12_17  and  N5_18 
REMARK    5  A    between atoms: N5_18  and  C13_19 
ROOT
HETATM    1  C1  UNL     1      -1.487  -2.781   0.346  1.00  0.00     0.046 C 
HETATM    2  C2  UNL     1      -0.797  -1.524  -0.048  1.00  0.00    -0.048 C 
HETATM    3  C9  UNL     1       0.535  -1.554  -0.301  1.00  0.00    -0.015 C 
HETATM    4  C10 UNL     1       1.413  -2.751  -0.226  1.00  0.00     0.159 C 
HETATM    5  N3  UNL     1       2.517  -2.591  -1.193  1.00  0.00    -0.381 N 
HETATM    6  C11 UNL     1       2.394  -1.800  -2.390  1.00  0.00     0.199 C 
HETATM    7  N4  UNL     1       1.812  -0.665  -2.089  1.00  0.00    -0.255 NA
HETATM    8  C12 UNL     1       1.431  -0.443  -0.688  1.00  0.00     0.239 C 
HETATM    9  H17 UNL     1       3.404  -3.121  -0.920  1.00  0.00     0.160 HD
ENDROOT
BRANCH   2  10
HETATM   10  C3  UNL     1      -1.611  -0.321  -0.165  1.00  0.00     0.306 C 
BRANCH  10  11
HETATM   11  N1  UNL     1      -2.264   0.191   0.968  1.00  0.00     0.093 NA
HETATM   12  C4  UNL     1      -3.336  -0.470   1.578  1.00  0.00     0.273 C 
HETATM   13  C5  UNL     1      -4.624   0.152   1.032  1.00  0.00     0.046 C 
HETATM   14  C6  UNL     1      -4.189   1.588   0.883  1.00  0.00     0.107 C 
HETATM   15  C8  UNL     1      -2.676   1.580   0.832  1.00  0.00     0.286 C 
BRANCH  14  16
HETATM   16  C7  UNL     1      -4.701   2.204  -0.372  1.00  0.00     0.221 C 
HETATM   17  N2  UNL     1      -4.306   1.603  -1.606  1.00  0.00    -0.370 N 
HETATM   18  H11 UNL     1      -3.587   1.716  -2.378  1.00  0.00     0.159 HD
HETATM   19  H12 UNL     1      -4.715   0.767  -2.107  1.00  0.00     0.159 HD
HETATM   20  O1  UNL     1      -5.448   3.194  -0.592  1.00  0.00    -0.273 OA
ENDBRANCH  14  16
ENDBRANCH  10  11
ENDBRANCH   2  10
BRANCH   8  21
HETATM   21  N5  UNL     1       2.652  -0.397   0.138  1.00  0.00    -0.364 N 
HETATM   22  H20 UNL     1       2.839  -1.086   0.899  1.00  0.00     0.162 HD
BRANCH  21  23
HETATM   23  C13 UNL     1       3.658   0.616  -0.072  1.00  0.00     0.031 A 
HETATM   24  C14 UNL     1       4.813   0.650   0.713  1.00  0.00     0.032 A 
HETATM   25  C15 UNL     1       5.735   1.630   0.476  1.00  0.00     0.046 A 
HETATM   26  C16 UNL     1       5.597   2.593  -0.492  1.00  0.00     0.138 A 
HETATM   27  F1  UNL     1       6.598   3.499  -0.604  1.00  0.00    -0.204 F 
HETATM   28  C17 UNL     1       4.465   2.563  -1.263  1.00  0.00     0.074 A 
HETATM   29 CL1  UNL     1       4.289   3.786  -2.493  1.00  0.00    -0.081 Cl
HETATM   30  C18 UNL     1       3.499   1.581  -1.057  1.00  0.00     0.056 A 
ENDBRANCH  21  23
ENDBRANCH   8  21
TORSDOF 5
