REMARK  7 active torsions:
REMARK  status: ('A' for Active; 'I' for Inactive)
REMARK    1  A    between atoms: N1_1  and  O1_2 
REMARK    2  A    between atoms: O1_2  and  C1_3 
REMARK    3  A    between atoms: C3_5  and  N2_6 
REMARK    4  A    between atoms: C5_9  and  C6_10 
REMARK    5  A    between atoms: C14_20  and  C15_21 
REMARK    6  A    between atoms: C15_21  and  N4_22 
REMARK    7  A    between atoms: C18_25  and  C19_26 
REMARK       I    between atoms: C19_26  and  N5_27 
ROOT
HETATM    1  C1  UNL     1       0.341  -1.992   0.577  1.00  0.00     0.099 C 
HETATM    2  C2  UNL     1      -0.592  -2.926   0.306  1.00  0.00     0.064 C 
HETATM    3  C3  UNL     1      -1.942  -2.435   0.503  1.00  0.00     0.238 A 
HETATM    4  C4  UNL     1      -3.095  -2.950  -0.164  1.00  0.00     0.141 A 
HETATM    5  N3  UNL     1      -3.822  -1.930  -0.474  1.00  0.00    -0.260 NA
HETATM    6  C5  UNL     1      -3.199  -0.703  -0.055  1.00  0.00     0.076 A 
HETATM    7  C12 UNL     1      -2.020  -0.988   0.543  1.00  0.00     0.019 A 
HETATM    8  C13 UNL     1      -1.017  -0.026   0.943  1.00  0.00     0.024 C 
HETATM    9  C14 UNL     1       0.222  -0.564   0.928  1.00  0.00     0.006 C 
ENDROOT
BRANCH   9  10
HETATM   10  C15 UNL     1       1.386   0.251   1.276  1.00  0.00     0.314 C 
BRANCH  10  11
HETATM   11  N4  UNL     1       2.389   0.390   0.276  1.00  0.00     0.093 N 
HETATM   12  C16 UNL     1       2.037   1.160  -0.872  1.00  0.00     0.273 C 
HETATM   13  C17 UNL     1       3.307   1.860  -1.330  1.00  0.00     0.046 C 
HETATM   14  C18 UNL     1       4.095   2.003  -0.049  1.00  0.00     0.107 C 
HETATM   15  C20 UNL     1       3.571   0.938   0.880  1.00  0.00     0.286 C 
BRANCH  14  16
HETATM   16  C19 UNL     1       5.552   1.845  -0.298  1.00  0.00     0.221 C 
HETATM   17  N5  UNL     1       6.002   0.596  -0.853  1.00  0.00    -0.370 N 
HETATM   18  H18 UNL     1       5.791  -0.383  -0.578  1.00  0.00     0.159 HD
HETATM   19  H19 UNL     1       6.576   0.112  -1.574  1.00  0.00     0.159 HD
HETATM   20  O2  UNL     1       6.692   2.376  -0.231  1.00  0.00    -0.273 OA
ENDBRANCH  14  16
ENDBRANCH  10  11
ENDBRANCH   9  10
BRANCH   1  21
HETATM   21  O1  UNL     1       1.677  -2.360   0.472  1.00  0.00    -0.266 OA
BRANCH  21  22
HETATM   22  N1  UNL     1       2.022  -3.594   0.055  1.00  0.00    -0.209 NA
HETATM   23  H1  UNL     1       1.660  -4.293   0.735  1.00  0.00     0.150 HD
HETATM   24  H2  UNL     1       1.642  -3.808  -0.915  1.00  0.00     0.150 HD
ENDBRANCH  21  22
ENDBRANCH   1  21
BRANCH   3  25
HETATM   25  N2  UNL     1      -2.190  -2.783   2.022  1.00  0.00     0.101 N 
HETATM   26  H4  UNL     1      -1.324  -2.341   2.435  1.00  0.00     0.315 HD
HETATM   27  H5  UNL     1      -2.050  -3.827   1.995  1.00  0.00     0.315 HD
ENDBRANCH   3  25
BRANCH   6  28
HETATM   28  C6  UNL     1      -3.888   0.580  -0.340  1.00  0.00    -0.005 A 
HETATM   29  C7  UNL     1      -3.261   1.709  -0.814  1.00  0.00     0.017 A 
HETATM   30  C8  UNL     1      -4.036   2.854  -1.035  1.00  0.00     0.045 A 
HETATM   31  C9  UNL     1      -5.395   2.853  -0.784  1.00  0.00     0.138 A 
HETATM   32  F1  UNL     1      -6.154   3.975  -1.001  1.00  0.00    -0.204 F 
HETATM   33  C10 UNL     1      -6.043   1.731  -0.306  1.00  0.00     0.073 A 
HETATM   34 CL1  UNL     1      -7.770   1.741   0.016  1.00  0.00    -0.081 Cl
HETATM   35  C11 UNL     1      -5.253   0.614  -0.098  1.00  0.00     0.040 A 
ENDBRANCH   6  28
TORSDOF 7
