REMARK  2 active torsions:
REMARK  status: ('A' for Active; 'I' for Inactive)
REMARK    1  A    between atoms: N1_1  and  N2_2 
REMARK    2  A    between atoms: C9_14  and  C10_15 
ROOT
HETATM    1  N2  UNL     1      -3.551   1.281  -1.187  1.00  0.00    -0.231 NA
HETATM    2  C1  UNL     1      -2.762   2.187  -0.340  1.00  0.00     0.137 C 
HETATM    3  C2  UNL     1      -1.448   1.503  -0.056  1.00  0.00    -0.006 C 
HETATM    4  C3  UNL     1      -1.231   1.303   1.236  1.00  0.00     0.073 C 
HETATM    5  C4  UNL     1      -0.638   0.909   2.503  1.00  0.00     0.266 C 
HETATM    6  O1  UNL     1      -0.288   0.663   3.682  1.00  0.00    -0.266 OA
HETATM    7  N3  UNL     1       0.494   0.191   2.004  1.00  0.00    -0.212 NA
HETATM    8  C5  UNL     1       0.317  -0.890   1.282  1.00  0.00     0.080 A 
HETATM    9  C6  UNL     1      -0.902  -1.610   0.815  1.00  0.00     0.099 A 
HETATM   10  N4  UNL     1      -0.771  -2.691   0.144  1.00  0.00    -0.258 NA
HETATM   11  C7  UNL     1       0.475  -3.275  -0.207  1.00  0.00     0.114 A 
HETATM   12  C8  UNL     1       1.577  -2.660   0.182  1.00  0.00     0.008 A 
HETATM   13  C9  UNL     1       1.639  -1.401   0.958  1.00  0.00     0.097 A 
HETATM   14  C16 UNL     1      -2.341  -1.279   0.967  1.00  0.00     0.145 C 
HETATM   15  N5  UNL     1      -2.630  -0.519  -0.025  1.00  0.00    -0.284 NA
HETATM   16  C17 UNL     1      -3.861   0.097  -0.379  1.00  0.00     0.256 C 
ENDROOT
BRANCH  13  17
HETATM   17  C10 UNL     1       2.487  -0.462   0.191  1.00  0.00    -0.043 A 
HETATM   18  C11 UNL     1       2.068  -0.001  -1.043  1.00  0.00     0.008 A 
HETATM   19  C12 UNL     1       2.814   0.886  -1.825  1.00  0.00     0.002 A 
HETATM   20  C13 UNL     1       4.025   1.327  -1.353  1.00  0.00     0.019 A 
HETATM   21  C14 UNL     1       4.479   0.895  -0.132  1.00  0.00     0.011 A 
HETATM   22 BR1  UNL     1       6.168   1.505   0.536  1.00  0.00    -0.051 Br
HETATM   23  C15 UNL     1       3.726   0.007   0.644  1.00  0.00     0.027 A 
ENDBRANCH  13  17
BRANCH   1  24
HETATM   24  N1  UNL     1      -2.850   0.944  -2.344  1.00  0.00    -0.267 NA
HETATM   25  H1  UNL     1      -2.906  -0.108  -2.477  1.00  0.00     0.137 HD
HETATM   26  H2  UNL     1      -1.870   1.279  -2.232  1.00  0.00     0.137 HD
ENDBRANCH   1  24
TORSDOF 2
