REMARK  6 active torsions:
REMARK  status: ('A' for Active; 'I' for Inactive)
REMARK    1  A    between atoms: O1_2  and  C2_3 
REMARK    2  A    between atoms: C2_3  and  C3_4 
REMARK    3  A    between atoms: C3_4  and  C4_5 
REMARK    4  A    between atoms: C4_5  and  O2_6 
REMARK    5  A    between atoms: C10_15  and  N3_16 
REMARK    6  A    between atoms: N3_16  and  C11_17 
ROOT
HETATM    1  C3  UNL     1      -2.595  -0.766  -0.827  1.00  0.00     0.216 C 
HETATM    2  O3  UNL     1      -2.997  -1.385   0.336  1.00  0.00    -0.321 OA
HETATM    3  C6  UNL     1      -2.764  -1.308   1.719  1.00  0.00     0.141 C 
HETATM    4  C7  UNL     1      -1.632  -1.167   2.394  1.00  0.00     0.056 C 
HETATM    5  C8  UNL     1      -0.245  -1.042   1.958  1.00  0.00     0.071 A 
HETATM    6  N1  UNL     1       0.461  -1.074   3.060  1.00  0.00    -0.242 NA
HETATM    7  C9  UNL     1       1.875  -0.970   2.945  1.00  0.00     0.230 A 
HETATM    8  N2  UNL     1       2.537  -0.847   1.849  1.00  0.00    -0.252 NA
HETATM    9  C10 UNL     1       1.917  -0.794   0.530  1.00  0.00     0.245 A 
HETATM   10  C17 UNL     1       0.440  -0.904   0.668  1.00  0.00     0.036 A 
HETATM   11  C18 UNL     1       0.028  -0.844  -0.567  1.00  0.00     0.152 C 
HETATM   12  O4  UNL     1      -1.226  -0.889  -1.130  1.00  0.00    -0.321 OA
ENDROOT
BRANCH   9  13
HETATM   13  N3  UNL     1       2.312   0.453  -0.077  1.00  0.00    -0.363 N 
HETATM   14  H15 UNL     1       1.628   1.181  -0.366  1.00  0.00     0.162 HD
BRANCH  13  15
HETATM   15  C11 UNL     1       3.691   0.716  -0.298  1.00  0.00     0.031 A 
HETATM   16  C12 UNL     1       4.693  -0.168   0.038  1.00  0.00     0.029 A 
HETATM   17  C13 UNL     1       6.039   0.075  -0.171  1.00  0.00     0.003 A 
HETATM   18  C14 UNL     1       6.430   1.267  -0.749  1.00  0.00     0.018 A 
HETATM   19  C15 UNL     1       5.465   2.188  -1.104  1.00  0.00     0.008 A 
HETATM   20  I1  UNL     1       6.012   4.033  -1.994  1.00  0.00    -0.045 I 
HETATM   21  C16 UNL     1       4.127   1.895  -0.873  1.00  0.00     0.047 A 
ENDBRANCH  13  15
ENDBRANCH   9  13
BRANCH   1  22
HETATM   22  C2  UNL     1      -3.338  -1.310  -2.008  1.00  0.00     0.238 C 
BRANCH  22  23
HETATM   23  O1  UNL     1      -4.659  -1.091  -1.971  1.00  0.00    -0.391 OA
HETATM   24  C1  UNL     1      -5.381  -1.608  -0.938  1.00  0.00     0.201 C 
ENDBRANCH  22  23
ENDBRANCH   1  22
BRANCH   1  25
HETATM   25  C4  UNL     1      -2.904   0.741  -0.819  1.00  0.00     0.238 C 
BRANCH  25  26
HETATM   26  O2  UNL     1      -2.270   1.384   0.216  1.00  0.00    -0.391 OA
HETATM   27  C5  UNL     1      -2.570   2.761   0.200  1.00  0.00     0.201 C 
ENDBRANCH  25  26
ENDBRANCH   1  25
TORSDOF 6
