REMARK  6 active torsions:
REMARK  status: ('A' for Active; 'I' for Inactive)
REMARK    1  A    between atoms: O1_2  and  C2_3 
REMARK    2  A    between atoms: C6_9  and  N3_10 
REMARK    3  A    between atoms: N3_10  and  C7_11 
REMARK    4  A    between atoms: C14_20  and  C15_21 
REMARK    5  A    between atoms: C15_21  and  N4_22 
REMARK    6  A    between atoms: C18_25  and  C19_26 
REMARK       I    between atoms: C19_26  and  N5_27 
ROOT
HETATM    1  C2  UNL     1       0.894  -2.165  -1.568  1.00  0.00     0.079 A 
HETATM    2  C3  UNL     1       0.173  -2.795  -2.474  1.00  0.00     0.069 A 
HETATM    3  C4  UNL     1      -1.194  -2.488  -2.096  1.00  0.00     0.071 A 
HETATM    4  N1  UNL     1      -2.364  -2.804  -2.581  1.00  0.00    -0.242 NA
HETATM    5  C5  UNL     1      -3.561  -2.327  -1.961  1.00  0.00     0.230 A 
HETATM    6  N2  UNL     1      -3.542  -1.583  -0.924  1.00  0.00    -0.252 NA
HETATM    7  C6  UNL     1      -2.367  -1.131  -0.249  1.00  0.00     0.244 A 
HETATM    8  C13 UNL     1      -1.143  -1.642  -0.914  1.00  0.00     0.025 A 
HETATM    9  C14 UNL     1       0.143  -1.429  -0.570  1.00  0.00     0.016 A 
ENDROOT
BRANCH   9  10
HETATM   10  C15 UNL     1       0.547  -0.640   0.604  1.00  0.00     0.314 C 
BRANCH  10  11
HETATM   11  N4  UNL     1       1.289   0.548   0.329  1.00  0.00     0.093 N 
HETATM   12  C16 UNL     1       1.464   1.251   1.599  1.00  0.00     0.273 C 
HETATM   13  C17 UNL     1       2.853   1.775   1.671  1.00  0.00     0.046 C 
HETATM   14  C18 UNL     1       3.440   1.515   0.305  1.00  0.00     0.107 C 
HETATM   15  C20 UNL     1       2.596   0.336  -0.191  1.00  0.00     0.286 C 
BRANCH  14  16
HETATM   16  C19 UNL     1       4.852   1.135   0.350  1.00  0.00     0.221 C 
HETATM   17  N5  UNL     1       5.958   1.845   0.849  1.00  0.00    -0.370 N 
HETATM   18  H18 UNL     1       6.535   2.673   0.555  1.00  0.00     0.159 HD
HETATM   19  H19 UNL     1       6.513   1.683   1.728  1.00  0.00     0.159 HD
HETATM   20  O2  UNL     1       5.241   0.025  -0.100  1.00  0.00    -0.273 OA
ENDBRANCH  14  16
ENDBRANCH  10  11
ENDBRANCH   9  10
BRANCH   1  21
HETATM   21  O1  UNL     1       2.263  -2.269  -1.658  1.00  0.00    -0.355 OA
HETATM   22  C1  UNL     1       2.982  -3.200  -2.427  1.00  0.00     0.210 C 
ENDBRANCH   1  21
BRANCH   7  23
HETATM   23  N3  UNL     1      -2.334   0.343  -0.225  1.00  0.00    -0.363 N 
HETATM   24  H7  UNL     1      -1.589   0.912  -0.682  1.00  0.00     0.162 HD
BRANCH  23  25
HETATM   25  C7  UNL     1      -3.378   1.024   0.462  1.00  0.00     0.031 A 
HETATM   26  C8  UNL     1      -4.393   0.337   1.095  1.00  0.00     0.032 A 
HETATM   27  C9  UNL     1      -5.420   0.967   1.773  1.00  0.00     0.046 A 
HETATM   28  C10 UNL     1      -5.394   2.345   1.796  1.00  0.00     0.138 A 
HETATM   29  F1  UNL     1      -6.364   3.051   2.440  1.00  0.00    -0.204 F 
HETATM   30  C11 UNL     1      -4.407   3.121   1.184  1.00  0.00     0.074 A 
HETATM   31 CL1  UNL     1      -4.408   4.872   1.234  1.00  0.00    -0.081 Cl
HETATM   32  C12 UNL     1      -3.421   2.391   0.529  1.00  0.00     0.056 A 
ENDBRANCH  23  25
ENDBRANCH   7  23
TORSDOF 6
