REMARK  8 active torsions:
REMARK  status: ('A' for Active; 'I' for Inactive)
REMARK    1  A    between atoms: C2_2  and  C3_3 
REMARK    2  A    between atoms: C3_3  and  P1_4 
REMARK    3  A    between atoms: P1_4  and  N1_5 
REMARK    4  A    between atoms: N1_5  and  C4_6 
REMARK    5  A    between atoms: C7_9  and  N2_10 
REMARK    6  A    between atoms: N2_10  and  C8_11 
REMARK    7  A    between atoms: C12_17  and  N5_18 
REMARK    8  A    between atoms: N5_18  and  C13_19 
ROOT
HETATM    1  C8  UNL     1      -2.074   0.055   0.492  1.00  0.00     0.132 C 
HETATM    2  C9  UNL     1      -3.065  -0.488  -0.438  1.00  0.00     0.054 C 
HETATM    3  C10 UNL     1      -2.654  -1.885  -1.081  1.00  0.00     0.215 C 
HETATM    4  N3  UNL     1      -3.469  -2.799  -0.082  1.00  0.00    -0.099 NA
HETATM    5  C11 UNL     1      -4.070  -1.806   0.700  1.00  0.00     0.738 C 
HETATM    6  N4  UNL     1      -4.655  -0.407   0.567  1.00  0.00    -0.044 NA
HETATM    7  C12 UNL     1      -4.518   0.036  -0.697  1.00  0.00     0.154 C 
HETATM    8  N6  UNL     1      -3.504  -1.713   2.110  1.00  0.00    -0.127 N 
HETATM    9  N7  UNL     1      -2.277  -0.801   1.797  1.00  0.00    -0.270 N 
HETATM   10  H19 UNL     1      -3.385  -1.859   3.164  1.00  0.00     0.206 HD
HETATM   11  H20 UNL     1      -1.441  -0.687   2.500  1.00  0.00     0.189 HD
ENDROOT
BRANCH   1  12
HETATM   12  N2  UNL     1      -1.031   1.091   0.599  1.00  0.00    -0.341 N 
HETATM   13  H10 UNL     1      -1.375   2.070   0.616  1.00  0.00     0.167 HD
BRANCH  12  14
HETATM   14  C7  UNL     1       0.289   0.591   0.666  1.00  0.00     0.033 A 
HETATM   15  C6  UNL     1       1.212   1.613   0.702  1.00  0.00     0.032 A 
HETATM   16  C5  UNL     1       2.582   1.328   0.783  1.00  0.00     0.034 A 
HETATM   17  C4  UNL     1       2.976  -0.016   0.826  1.00  0.00     0.056 A 
HETATM   18  C16 UNL     1       2.003  -0.989   0.786  1.00  0.00     0.034 A 
HETATM   19  C15 UNL     1       0.656  -0.708   0.706  1.00  0.00     0.032 A 
BRANCH  17  20
HETATM   20  N1  UNL     1       4.365  -0.144   0.913  1.00  0.00    -0.255 NA
BRANCH  20  21
HETATM   21  P1  UNL     1       5.335  -0.913  -0.112  1.00  0.00     0.060 P 
BRANCH  21  22
HETATM   22  C3  UNL     1       7.164  -1.011   0.118  1.00  0.00     0.064 C 
BRANCH  22  23
HETATM   23  C2  UNL     1       7.922  -0.041  -0.764  1.00  0.00     0.002 C 
HETATM   24  C1  UNL     1       7.500   1.376  -0.450  1.00  0.00     0.005 C 
ENDBRANCH  22  23
ENDBRANCH  21  22
ENDBRANCH  20  21
ENDBRANCH  17  20
ENDBRANCH  12  14
ENDBRANCH   1  12
BRANCH   7  25
HETATM   25  N5  UNL     1      -5.437   0.694  -1.540  1.00  0.00    -0.374 N 
HETATM   26  H13 UNL     1      -4.856   1.110  -2.306  1.00  0.00     0.161 HD
BRANCH  25  27
HETATM   27  C13 UNL     1      -6.806   0.606  -1.101  1.00  0.00     0.116 C 
HETATM   28  C14 UNL     1      -7.097   1.356   0.148  1.00  0.00     0.026 C 
ENDBRANCH  25  27
ENDBRANCH   7  25
TORSDOF 8
