REMARK  4 active torsions:
REMARK  status: ('A' for Active; 'I' for Inactive)
REMARK    1  A    between atoms: O1_2  and  C2_3 
REMARK    2  A    between atoms: C8_11  and  C9_12 
REMARK    3  A    between atoms: C9_12  and  N3_13 
REMARK    4  A    between atoms: N3_13  and  C10_14 
ROOT
HETATM    1  C2  UNL     1       1.696  -1.066   0.000  1.00  0.00     0.077 A 
HETATM    2  C3  UNL     1       2.678  -0.588  -0.739  1.00  0.00     0.065 A 
HETATM    3  C4  UNL     1       3.256   0.745  -0.570  1.00  0.00     0.053 A 
HETATM    4  N1  UNL     1       4.213   1.064  -1.376  1.00  0.00    -0.178 NA
HETATM    5  C5  UNL     1       4.765   2.353  -1.206  1.00  0.00     0.206 C 
HETATM    6  N2  UNL     1       5.216   3.406  -1.065  1.00  0.00    -0.170 NA
HETATM    7  C6  UNL     1       2.740   1.657   0.485  1.00  0.00     0.088 A 
HETATM    8  C7  UNL     1       1.655   0.946   1.195  1.00  0.00    -0.009 A 
HETATM    9  C8  UNL     1       1.120  -0.260   1.055  1.00  0.00    -0.011 A 
ENDROOT
BRANCH   1  10
HETATM   10  O1  UNL     1       1.204  -2.330  -0.218  1.00  0.00    -0.355 OA
HETATM   11  C1  UNL     1       2.011  -3.410   0.279  1.00  0.00     0.210 C 
ENDBRANCH   1  10
BRANCH   9  12
HETATM   12  C9  UNL     1       0.041  -0.760   1.891  1.00  0.00     0.160 C 
BRANCH  12  13
HETATM   13  N3  UNL     1      -1.191  -1.120   1.185  1.00  0.00    -0.390 N 
HETATM   14  H10 UNL     1      -1.333  -2.179   1.216  1.00  0.00     0.159 HD
BRANCH  13  15
HETATM   15  C10 UNL     1      -2.068  -0.152   0.550  1.00  0.00     0.011 A 
HETATM   16  C11 UNL     1      -3.069   0.616   0.260  1.00  0.00     0.031 A 
HETATM   17  C12 UNL     1      -2.894   1.984   0.814  1.00  0.00     0.020 C 
HETATM   18  C16 UNL     1      -3.895  -0.027  -0.798  1.00  0.00     0.107 C 
HETATM   19  C14 UNL     1      -1.636   0.593  -0.700  1.00  0.00     0.098 A 
HETATM   20  C13 UNL     1      -1.695   2.064  -0.285  1.00  0.00     0.026 C 
HETATM   21  N4  UNL     1      -2.635   0.166  -1.698  1.00  0.00    -0.309 N 
HETATM   22  C15 UNL     1      -2.277  -1.189  -2.037  1.00  0.00     0.111 C 
ENDBRANCH  13  15
ENDBRANCH  12  13
ENDBRANCH   9  12
TORSDOF 4
