REMARK  7 active torsions:
REMARK  status: ('A' for Active; 'I' for Inactive)
REMARK    1  A    between atoms: O1_2  and  C2_3 
REMARK    2  A    between atoms: C2_3  and  N4_21 
REMARK    3  A    between atoms: C3_4  and  C4_5 
REMARK    4  A    between atoms: C6_9  and  N3_10 
REMARK    5  A    between atoms: N3_10  and  C7_11 
REMARK    6  A    between atoms: C17_24  and  C18_25 
REMARK    7  A    between atoms: C18_25  and  C19_26 
ROOT
HETATM    1  C4  UNL     1       0.632   0.721   0.853  1.00  0.00     0.072 A 
HETATM    2  N1  UNL     1       1.043   1.955   1.270  1.00  0.00    -0.241 NA
HETATM    3  C5  UNL     1       2.343   2.292   1.255  1.00  0.00     0.235 A 
HETATM    4  N2  UNL     1       3.258   1.419   0.829  1.00  0.00    -0.224 NA
HETATM    5  C6  UNL     1       2.910   0.201   0.411  1.00  0.00     0.137 A 
HETATM    6  C13 UNL     1       1.584  -0.175   0.415  1.00  0.00     0.013 A 
HETATM    7  C14 UNL     1       1.044  -1.493   0.005  1.00  0.00     0.055 C 
ENDROOT
BRANCH   1   8
HETATM    8  C3  UNL     1      -0.794   0.531   0.931  1.00  0.00     0.088 C 
HETATM    9  C2  UNL     1      -1.599  -0.051   0.061  1.00  0.00     0.141 C 
BRANCH   9  10
HETATM   10  O1  UNL     1      -1.667  -0.697  -1.166  1.00  0.00    -0.341 OA
HETATM   11  C1  UNL     1      -1.237  -0.057  -2.335  1.00  0.00     0.211 C 
ENDBRANCH   9  10
BRANCH   9  12
HETATM   12  N4  UNL     1      -3.005  -0.181   0.249  1.00  0.00    -0.361 N 
HETATM   13  C15 UNL     1      -3.674  -1.312   0.914  1.00  0.00     0.125 C 
HETATM   14  C16 UNL     1      -5.069  -1.220   0.333  1.00  0.00     0.026 C 
HETATM   15  C17 UNL     1      -5.286   0.294   0.474  1.00  0.00     0.011 C 
HETATM   16  C20 UNL     1      -4.021   0.793  -0.185  1.00  0.00     0.130 C 
BRANCH  15  17
HETATM   17  C18 UNL     1      -6.526   0.773  -0.194  1.00  0.00     0.075 C 
BRANCH  17  18
HETATM   18  C19 UNL     1      -6.619   2.261   0.018  1.00  0.00     0.231 C 
HETATM   19  O2  UNL     1      -6.078   3.234   0.523  1.00  0.00    -0.307 OA
ENDBRANCH  17  18
ENDBRANCH  15  17
ENDBRANCH   9  12
ENDBRANCH   1   8
BRANCH   5  20
HETATM   20  N3  UNL     1       3.846  -0.752  -0.059  1.00  0.00    -0.340 N 
HETATM   21  H6  UNL     1       3.503  -1.694  -0.390  1.00  0.00     0.167 HD
BRANCH  20  22
HETATM   22  C7  UNL     1       5.255  -0.694  -0.191  1.00  0.00     0.035 A 
HETATM   23  C8  UNL     1       6.047  -1.693  -0.691  1.00  0.00     0.032 A 
HETATM   24  C9  UNL     1       7.410  -1.627  -0.816  1.00  0.00     0.046 A 
HETATM   25  C10 UNL     1       8.080  -0.492  -0.422  1.00  0.00     0.138 A 
HETATM   26  F1  UNL     1       9.423  -0.516  -0.582  1.00  0.00    -0.204 F 
HETATM   27  C11 UNL     1       7.331   0.538   0.086  1.00  0.00     0.074 A 
HETATM   28 CL1  UNL     1       8.252   1.959   0.568  1.00  0.00    -0.081 Cl
HETATM   29  C12 UNL     1       5.959   0.432   0.195  1.00  0.00     0.056 A 
ENDBRANCH  20  22
ENDBRANCH   5  20
TORSDOF 7
