REMARK  7 active torsions:
REMARK  status: ('A' for Active; 'I' for Inactive)
REMARK    1  A    between atoms: C2_2  and  N1_3 
REMARK    2  A    between atoms: N1_3  and  C3_4 
REMARK    3  A    between atoms: C3_4  and  C4_5 
REMARK    4  A    between atoms: C7_8  and  N2_9 
REMARK    5  A    between atoms: N2_9  and  C8_10 
REMARK    6  A    between atoms: C17_23  and  O1_24 
REMARK    7  A    between atoms: N5_29  and  C22_30 
ROOT
HETATM    1  C4  UNL     1       0.084  -0.106   0.076  1.00  0.00     0.003 C 
HETATM    2  C5  UNL     1       0.936   0.178  -0.948  1.00  0.00     0.015 C 
HETATM    3  C6  UNL     1       2.286  -0.015  -1.155  1.00  0.00     0.051 C 
HETATM    4  C7  UNL     1       3.289   0.926  -1.261  1.00  0.00     0.129 C 
HETATM    5  N3  UNL     1       2.942   2.141  -0.800  1.00  0.00    -0.225 NA
HETATM    6  C14 UNL     1       2.778   2.361   0.525  1.00  0.00     0.234 C 
HETATM    7  N4  UNL     1       2.555   2.083   1.822  1.00  0.00    -0.254 NA
HETATM    8  C15 UNL     1       2.371   0.877   2.337  1.00  0.00     0.120 C 
HETATM    9  C16 UNL     1       1.167   0.249   2.539  1.00  0.00     0.056 C 
HETATM   10  C17 UNL     1       0.533   0.199   1.340  1.00  0.00     0.075 C 
ENDROOT
BRANCH   1  11
HETATM   11  C3  UNL     1      -1.255  -0.711  -0.149  1.00  0.00     0.314 C 
BRANCH  11  12
HETATM   12  N1  UNL     1      -2.232   0.329   0.000  1.00  0.00     0.116 N 
HETATM   13  H4  UNL     1      -1.948   1.132  -0.580  1.00  0.00     0.319 HD
BRANCH  12  14
HETATM   14  C2  UNL     1      -3.591  -0.070  -0.188  1.00  0.00     0.230 C 
HETATM   15  C1  UNL     1      -3.708  -0.609  -1.598  1.00  0.00     0.074 C 
HETATM   16  C18 UNL     1      -4.006  -1.136   0.788  1.00  0.00     0.064 C 
HETATM   17  C19 UNL     1      -5.506  -1.291   0.869  1.00  0.00     0.006 C 
HETATM   18  C20 UNL     1      -6.228   0.005   1.001  1.00  0.00     0.020 C 
HETATM   19  C21 UNL     1      -5.840   0.937  -0.134  1.00  0.00     0.128 C 
HETATM   20  N5  UNL     1      -4.421   1.111  -0.095  1.00  0.00    -0.324 N 
BRANCH  20  21
HETATM   21  C22 UNL     1      -3.921   2.435   0.033  1.00  0.00     0.352 C 
HETATM   22  O2  UNL     1      -4.870   3.274   0.095  1.00  0.00    -0.283 OA
ENDBRANCH  20  21
ENDBRANCH  12  14
ENDBRANCH  11  12
ENDBRANCH   1  11
BRANCH  10  23
HETATM   23  O1  UNL     1      -0.304   1.284   1.531  1.00  0.00    -0.360 OA
HETATM   24  H16 UNL     1      -0.025   2.216   1.277  1.00  0.00     0.217 HD
ENDBRANCH  10  23
BRANCH   4  25
HETATM   25  N2  UNL     1       4.359   0.198  -1.853  1.00  0.00    -0.341 N 
HETATM   26  H9  UNL     1       4.258   0.286  -2.893  1.00  0.00     0.167 HD
BRANCH  25  27
HETATM   27  C8  UNL     1       5.423  -0.547  -1.261  1.00  0.00     0.035 A 
HETATM   28  C9  UNL     1       6.314  -1.177  -2.107  1.00  0.00     0.032 A 
HETATM   29  C10 UNL     1       7.330  -1.887  -1.487  1.00  0.00     0.046 A 
HETATM   30  C11 UNL     1       7.433  -1.950  -0.112  1.00  0.00     0.138 A 
HETATM   31  F1  UNL     1       8.455  -2.664   0.432  1.00  0.00    -0.204 F 
HETATM   32  C12 UNL     1       6.515  -1.301   0.704  1.00  0.00     0.074 A 
HETATM   33 CL1  UNL     1       6.650  -1.385   2.456  1.00  0.00    -0.081 Cl
HETATM   34  C13 UNL     1       5.490  -0.585   0.122  1.00  0.00     0.056 A 
ENDBRANCH  25  27
ENDBRANCH   4  25
TORSDOF 7
