REMARK  5 active torsions:
REMARK  status: ('A' for Active; 'I' for Inactive)
REMARK    1  A    between atoms: N1_2  and  O1_3 
REMARK    2  A    between atoms: O1_3  and  C2_4 
REMARK    3  A    between atoms: C2_4  and  C3_5 
REMARK    4  A    between atoms: C8_12  and  N4_13 
REMARK    5  A    between atoms: N4_13  and  C9_14 
ROOT
HETATM    1  C3  UNL     1      -0.940   0.808   0.192  1.00  0.00    -0.026 C 
HETATM    2  C4  UNL     1       0.209   0.161   0.096  1.00  0.00     0.024 C 
HETATM    3  C5  UNL     1       0.673  -1.200  -0.067  1.00  0.00     0.041 A 
HETATM    4  C6  UNL     1       0.254  -2.386   0.546  1.00  0.00     0.089 A 
HETATM    5  N2  UNL     1       0.810  -3.532   0.168  1.00  0.00    -0.240 NA
HETATM    6  C7  UNL     1       1.755  -3.649  -0.767  1.00  0.00     0.236 A 
HETATM    7  N3  UNL     1       2.242  -2.557  -1.431  1.00  0.00    -0.224 NA
HETATM    8  C8  UNL     1       1.666  -1.383  -1.038  1.00  0.00     0.142 A 
HETATM    9  C15 UNL     1      -0.751  -2.553   1.588  1.00  0.00     0.153 C 
HETATM   10  N5  UNL     1      -1.833  -3.034   1.092  1.00  0.00    -0.224 NA
HETATM   11  C16 UNL     1      -2.039  -3.357  -0.247  1.00  0.00     0.248 C 
HETATM   12  O2  UNL     1      -1.446  -4.022  -1.134  1.00  0.00    -0.271 OA
HETATM   13  C17 UNL     1      -3.296  -2.760  -0.794  1.00  0.00     0.110 C 
HETATM   14  C18 UNL     1      -4.290  -2.479   0.345  1.00  0.00     0.046 C 
HETATM   15  C19 UNL     1      -3.981  -1.087   0.813  1.00  0.00     0.273 C 
HETATM   16  N6  UNL     1      -2.664  -0.825   0.184  1.00  0.00     0.093 N 
HETATM   17  C20 UNL     1      -2.386   0.593   0.241  1.00  0.00     0.308 C 
HETATM   18  C21 UNL     1      -2.945  -1.317  -1.151  1.00  0.00     0.286 C 
ENDROOT
BRANCH   8  19
HETATM   19  N4  UNL     1       2.178  -0.229  -1.732  1.00  0.00    -0.340 N 
HETATM   20  H9  UNL     1       1.589   0.024  -2.533  1.00  0.00     0.167 HD
BRANCH  19  21
HETATM   21  C9  UNL     1       3.351   0.499  -1.382  1.00  0.00     0.035 A 
HETATM   22  C10 UNL     1       3.667   1.682  -2.044  1.00  0.00     0.032 A 
HETATM   23  C11 UNL     1       4.832   2.312  -1.639  1.00  0.00     0.046 A 
HETATM   24  C12 UNL     1       5.646   1.815  -0.640  1.00  0.00     0.138 A 
HETATM   25  F1  UNL     1       6.779   2.453  -0.264  1.00  0.00    -0.204 F 
HETATM   26  C13 UNL     1       5.340   0.654   0.012  1.00  0.00     0.074 A 
HETATM   27 CL1  UNL     1       6.325  -0.021   1.274  1.00  0.00    -0.081 Cl
HETATM   28  C14 UNL     1       4.169   0.008  -0.385  1.00  0.00     0.056 A 
ENDBRANCH  19  21
ENDBRANCH   8  19
BRANCH   1  29
HETATM   29  C2  UNL     1      -0.852   2.288   0.351  1.00  0.00     0.230 C 
BRANCH  29  30
HETATM   30  O1  UNL     1      -1.426   2.761   1.509  1.00  0.00    -0.302 OA
BRANCH  30  31
HETATM   31  N1  UNL     1      -1.286   4.100   1.543  1.00  0.00    -0.210 NA
HETATM   32  C1  UNL     1      -0.412   4.526   2.641  1.00  0.00     0.140 C 
HETATM   33  H4  UNL     1      -0.807   4.435   0.675  1.00  0.00     0.153 HD
ENDBRANCH  30  31
ENDBRANCH  29  30
ENDBRANCH   1  29
TORSDOF 5
