REMARK  1 active torsions:
REMARK  status: ('A' for Active; 'I' for Inactive)
REMARK    1  A    between atoms: N4_16  and  C12_17 
ROOT
HETATM    1  C1  UNL     1      -2.970   1.350  -1.823  1.00  0.00     0.052 C 
HETATM    2  C2  UNL     1      -3.237   0.665  -0.541  1.00  0.00    -0.013 A 
HETATM    3  C3  UNL     1      -4.470   0.397   0.013  1.00  0.00     0.123 A 
HETATM    4  F1  UNL     1      -5.540   0.812  -0.707  1.00  0.00    -0.206 F 
HETATM    5  C4  UNL     1      -4.623  -0.249   1.215  1.00  0.00     0.045 A 
HETATM    6  C5  UNL     1      -3.475  -0.651   1.907  1.00  0.00     0.041 A 
HETATM    7  C6  UNL     1      -2.207  -0.399   1.380  1.00  0.00     0.086 A 
HETATM    8  C7  UNL     1      -2.122   0.257   0.162  1.00  0.00     0.013 A 
HETATM    9  C8  UNL     1      -0.768   0.545  -0.435  1.00  0.00     0.315 C 
HETATM   10  N1  UNL     1       0.197   1.001   0.485  1.00  0.00     0.119 NA
HETATM   11  C9  UNL     1       0.946   0.085   1.249  1.00  0.00     0.402 C 
HETATM   12  C10 UNL     1       0.129  -0.915   2.021  1.00  0.00     0.218 C 
HETATM   13  N2  UNL     1       0.711  -1.924   2.540  1.00  0.00    -0.152 NA
HETATM   14  N3  UNL     1       2.089  -2.116   2.405  1.00  0.00    -0.294 N 
HETATM   15  C11 UNL     1       2.325  -2.019   0.958  1.00  0.00     0.268 C 
HETATM   16  N4  UNL     1       1.928  -0.668   0.534  1.00  0.00    -0.330 N 
HETATM   17  O1  UNL     1      -1.261  -0.904   2.271  1.00  0.00    -0.290 OA
HETATM   18  H8  UNL     1      -0.315   1.623   1.180  1.00  0.00     0.319 HD
HETATM   19  H10 UNL     1       2.831  -2.292   3.124  1.00  0.00     0.184 HD
ENDROOT
BRANCH  16  20
HETATM   20  C12 UNL     1       2.538  -0.091  -0.622  1.00  0.00     0.017 A 
HETATM   21  C13 UNL     1       3.459   0.819  -0.269  1.00  0.00     0.028 A 
HETATM   22  C14 UNL     1       4.037   1.362  -1.499  1.00  0.00     0.040 A 
HETATM   23  C15 UNL     1       3.457   0.773  -2.546  1.00  0.00     0.099 A 
HETATM   24  F2  UNL     1       3.648   0.935  -3.898  1.00  0.00    -0.210 F 
HETATM   25  C16 UNL     1       2.446  -0.209  -2.078  1.00  0.00     0.127 A 
ENDBRANCH  16  20
TORSDOF 1
