REMARK  9 active torsions:
REMARK  status: ('A' for Active; 'I' for Inactive)
REMARK    1  A    between atoms: O1_2  and  C2_3 
REMARK    2  A    between atoms: C2_3  and  C3_4 
REMARK    3  A    between atoms: C2_3  and  C14_20 
REMARK    4  A    between atoms: C3_4  and  C4_5 
REMARK    5  A    between atoms: C7_10  and  N3_11 
REMARK    6  A    between atoms: N3_11  and  C8_12 
REMARK    7  A    between atoms: C14_20  and  C15_21 
REMARK    8  A    between atoms: C15_21  and  N4_22 
REMARK       I    between atoms: N4_22  and  C16_23 
REMARK    9  A    between atoms: C16_23  and  C17_25 
ROOT
HETATM    1  C3  UNL     1       1.671   2.188   1.932  1.00  0.00     0.066 C 
ENDROOT
BRANCH   1   2
HETATM    2  C2  UNL     1       0.452   1.709   1.846  1.00  0.00     0.049 C 
BRANCH   2   3
HETATM    3  O1  UNL     1       0.947   0.444   1.710  1.00  0.00    -0.360 OA
HETATM    4  C1  UNL     1       0.250  -0.725   1.380  1.00  0.00     0.209 C 
ENDBRANCH   2   3
BRANCH   2   5
HETATM    5  C14 UNL     1      -0.760   2.560   1.918  1.00  0.00     0.084 C 
BRANCH   5   6
HETATM    6  C15 UNL     1      -1.640   2.540   0.721  1.00  0.00     0.129 C 
BRANCH   6   7
HETATM    7  N4  UNL     1      -2.182   1.236   0.500  1.00  0.00    -0.359 N 
HETATM    8  C16 UNL     1      -3.010   1.340  -0.677  1.00  0.00     0.251 C 
HETATM    9  O2  UNL     1      -3.188   2.409  -1.355  1.00  0.00    -0.271 OA
HETATM   10  H15 UNL     1      -2.314   0.233   0.727  1.00  0.00     0.162 HD
BRANCH   8  11
HETATM   11  C17 UNL     1      -3.839   0.377  -1.422  1.00  0.00     0.313 C 
HETATM   12  C18 UNL     1      -5.285   0.789  -1.563  1.00  0.00     0.046 C 
HETATM   13  C19 UNL     1      -5.886  -0.191  -2.542  1.00  0.00     0.004 C 
HETATM   14  C20 UNL     1      -5.686  -1.631  -2.192  1.00  0.00     0.030 C 
HETATM   15  C21 UNL     1      -4.400  -1.957  -1.513  1.00  0.00     0.273 C 
HETATM   16  N5  UNL     1      -3.846  -0.890  -0.726  1.00  0.00     0.098 N 
HETATM   17  C22 UNL     1      -4.569  -0.806   0.524  1.00  0.00     0.310 C 
ENDBRANCH   8  11
ENDBRANCH   6   7
ENDBRANCH   5   6
ENDBRANCH   2   5
ENDBRANCH   1   2
BRANCH   1  18
HETATM   18  C4  UNL     1       3.111   2.318   1.982  1.00  0.00     0.090 A 
HETATM   19  N1  UNL     1       3.999   3.259   2.114  1.00  0.00    -0.240 NA
HETATM   20  C5  UNL     1       5.297   2.724   2.082  1.00  0.00     0.234 A 
HETATM   21  N2  UNL     1       5.253   1.454   1.931  1.00  0.00    -0.238 NA
HETATM   22  C6  UNL     1       3.870   1.056   1.851  1.00  0.00     0.102 A 
HETATM   23  C7  UNL     1       3.792  -0.252   1.697  1.00  0.00     0.122 C 
BRANCH  23  24
HETATM   24  N3  UNL     1       4.822  -1.256   1.602  1.00  0.00    -0.364 N 
HETATM   25  H7  UNL     1       5.263  -1.744   2.445  1.00  0.00     0.165 HD
BRANCH  24  26
HETATM   26  C8  UNL     1       5.321  -1.650   0.306  1.00  0.00     0.033 A 
HETATM   27  C9  UNL     1       4.760  -1.023  -0.783  1.00  0.00     0.032 A 
HETATM   28  C10 UNL     1       5.164  -1.326  -2.065  1.00  0.00     0.046 A 
HETATM   29  C11 UNL     1       6.151  -2.281  -2.198  1.00  0.00     0.138 A 
HETATM   30  F1  UNL     1       6.673  -2.708  -3.373  1.00  0.00    -0.204 F 
HETATM   31  C12 UNL     1       6.722  -2.918  -1.098  1.00  0.00     0.074 A 
HETATM   32 CL1  UNL     1       7.974  -4.135  -1.201  1.00  0.00    -0.081 Cl
HETATM   33  C13 UNL     1       6.303  -2.600   0.183  1.00  0.00     0.056 A 
ENDBRANCH  24  26
ENDBRANCH  23  24
ENDBRANCH   1  18
TORSDOF 9
