REMARK  7 active torsions:
REMARK  status: ('A' for Active; 'I' for Inactive)
REMARK       I    between atoms: C1_2  and  N1_3 
REMARK    1  A    between atoms: C1_2  and  C17_25 
REMARK    2  A    between atoms: N1_3  and  C2_4 
REMARK    3  A    between atoms: C2_4  and  C3_5 
REMARK    4  A    between atoms: C3_5  and  O2_6 
REMARK    5  A    between atoms: O2_6  and  C4_7 
REMARK    6  A    between atoms: C8_13  and  N4_14 
REMARK    7  A    between atoms: N4_14  and  C9_15 
ROOT
HETATM    1  C4  UNL     1      -0.568  -1.241  -0.629  1.00  0.00     0.051 C 
HETATM    2  C5  UNL     1      -0.368  -2.040   0.405  1.00  0.00     0.051 C 
HETATM    3  C6  UNL     1      -1.479  -2.703   1.076  1.00  0.00     0.120 C 
HETATM    4  N2  UNL     1      -2.609  -3.126   1.462  1.00  0.00    -0.254 NA
HETATM    5  C7  UNL     1      -3.790  -2.679   0.830  1.00  0.00     0.234 C 
HETATM    6  N3  UNL     1      -4.273  -1.620   0.331  1.00  0.00    -0.225 NA
HETATM    7  C8  UNL     1      -3.694  -0.335   0.229  1.00  0.00     0.125 C 
HETATM    8  C15 UNL     1      -2.588   0.077  -0.434  1.00  0.00     0.030 C 
HETATM    9  C16 UNL     1      -1.985  -1.073  -1.107  1.00  0.00     0.095 C 
ENDROOT
BRANCH   1  10
HETATM   10  O2  UNL     1       0.521  -0.620  -1.223  1.00  0.00    -0.353 OA
BRANCH  10  11
HETATM   11  C3  UNL     1       0.611   0.779  -1.106  1.00  0.00     0.195 C 
BRANCH  11  12
HETATM   12  C2  UNL     1       1.854   1.214  -1.819  1.00  0.00     0.149 C 
BRANCH  12  13
HETATM   13  N1  UNL     1       3.070   0.658  -1.315  1.00  0.00    -0.357 N 
HETATM   14  C1  UNL     1       3.554   0.827   0.011  1.00  0.00     0.251 C 
HETATM   15  O1  UNL     1       2.871   1.522   0.835  1.00  0.00    -0.271 OA
HETATM   16  H1  UNL     1       3.724   0.062  -1.903  1.00  0.00     0.162 HD
BRANCH  14  17
HETATM   17  C17 UNL     1       4.838   0.226   0.501  1.00  0.00     0.311 C 
HETATM   18  C18 UNL     1       5.775   1.386   0.787  1.00  0.00     0.045 C 
HETATM   19  C19 UNL     1       7.178   0.967   1.088  1.00  0.00     0.004 C 
HETATM   20  C20 UNL     1       7.716  -0.114   0.205  1.00  0.00     0.030 C 
HETATM   21  C21 UNL     1       6.666  -1.132  -0.174  1.00  0.00     0.270 C 
HETATM   22  N5  UNL     1       5.430  -0.510  -0.597  1.00  0.00     0.097 N 
HETATM   23  H25 UNL     1       5.687   0.203  -1.323  1.00  0.00     0.317 HD
ENDBRANCH  14  17
ENDBRANCH  12  13
ENDBRANCH  11  12
ENDBRANCH  10  11
ENDBRANCH   1  10
BRANCH   7  24
HETATM   24  N4  UNL     1      -4.542   0.479   0.995  1.00  0.00    -0.341 N 
HETATM   25  H9  UNL     1      -4.233   0.928   1.884  1.00  0.00     0.167 HD
BRANCH  24  26
HETATM   26  C9  UNL     1      -5.889   0.743   0.596  1.00  0.00     0.035 A 
HETATM   27  C10 UNL     1      -6.774   1.541   1.315  1.00  0.00     0.032 A 
HETATM   28  C11 UNL     1      -8.064   1.753   0.869  1.00  0.00     0.046 A 
HETATM   29  C12 UNL     1      -8.500   1.172  -0.305  1.00  0.00     0.138 A 
HETATM   30  F1  UNL     1      -9.764   1.375  -0.749  1.00  0.00    -0.204 F 
HETATM   31  C13 UNL     1      -7.669   0.367  -1.068  1.00  0.00     0.074 A 
HETATM   32 CL1  UNL     1      -8.172  -0.390  -2.558  1.00  0.00    -0.081 Cl
HETATM   33  C14 UNL     1      -6.387   0.183  -0.582  1.00  0.00     0.056 A 
ENDBRANCH  24  26
ENDBRANCH   7  24
TORSDOF 7
