REMARK  6 active torsions:
REMARK  status: ('A' for Active; 'I' for Inactive)
REMARK    1  A    between atoms: C2_2  and  C3_3 
REMARK    2  A    between atoms: C3_3  and  C4_4 
REMARK    3  A    between atoms: C4_4  and  N1_5 
REMARK    4  A    between atoms: C10_13  and  O2_14 
REMARK    5  A    between atoms: C15_21  and  N5_22 
REMARK    6  A    between atoms: N5_22  and  C16_23 
ROOT
HETATM    1  N1  UNL     1      -2.513  -0.546  -1.552  1.00  0.00    -0.328 N 
HETATM    2  C5  UNL     1      -2.452   0.785  -2.238  1.00  0.00     0.209 C 
HETATM    3  C6  UNL     1      -1.086   1.426  -2.105  1.00  0.00     0.178 C 
HETATM    4  O1  UNL     1      -0.788   2.232  -3.006  1.00  0.00    -0.291 OA
HETATM    5  C7  UNL     1       0.003   1.240  -1.022  1.00  0.00     0.068 C 
HETATM    6  C8  UNL     1       0.422   2.594  -1.303  1.00  0.00     0.009 C 
HETATM    7  C9  UNL     1       1.507   3.196  -0.495  1.00  0.00     0.149 C 
HETATM    8  N2  UNL     1       1.266   3.526   0.867  1.00  0.00    -0.367 N 
HETATM    9  C10 UNL     1       0.525   2.721   1.768  1.00  0.00     0.139 C 
HETATM   10  C12 UNL     1       0.013   1.522   2.117  1.00  0.00     0.097 C 
HETATM   11  C13 UNL     1      -0.230   0.649   0.970  1.00  0.00     0.245 A 
HETATM   12  N3  UNL     1      -0.289  -0.166  -0.051  1.00  0.00     0.263 N 
HETATM   13  C14 UNL     1      -1.387  -0.351  -0.788  1.00  0.00     0.468 A 
HETATM   14  N4  UNL     1      -0.206  -0.865  -0.874  1.00  0.00     0.276 N 
HETATM   15  C15 UNL     1       0.892  -1.306  -0.908  1.00  0.00     0.312 A 
HETATM   16  C22 UNL     1       0.325  -0.291   0.074  1.00  0.00     0.463 A 
HETATM   17  H15 UNL     1       1.534   4.340   1.445  1.00  0.00     0.161 HD
ENDROOT
BRANCH  15  18
HETATM   18  N5  UNL     1       2.222  -1.844  -0.954  1.00  0.00    -0.333 N 
HETATM   19  H20 UNL     1       2.012  -2.556  -1.644  1.00  0.00     0.167 HD
BRANCH  18  20
HETATM   20  C16 UNL     1       3.311  -1.434  -0.255  1.00  0.00     0.035 A 
HETATM   21  C17 UNL     1       3.596  -0.242   0.466  1.00  0.00     0.032 A 
HETATM   22  C18 UNL     1       4.820  -0.082   1.101  1.00  0.00     0.046 A 
HETATM   23  C19 UNL     1       5.797  -1.068   1.061  1.00  0.00     0.138 A 
HETATM   24  F1  UNL     1       6.976  -0.786   1.718  1.00  0.00    -0.204 F 
HETATM   25  C20 UNL     1       5.620  -2.333   0.361  1.00  0.00     0.074 A 
HETATM   26 CL1  UNL     1       6.864  -3.520   0.347  1.00  0.00    -0.081 Cl
HETATM   27  C21 UNL     1       4.388  -2.196  -0.137  1.00  0.00     0.056 A 
ENDBRANCH  18  20
ENDBRANCH  15  18
BRANCH   1  28
HETATM   28  C4  UNL     1      -3.539  -1.460  -1.856  1.00  0.00     0.126 C 
BRANCH  28  29
HETATM   29  C3  UNL     1      -3.531  -2.722  -1.027  1.00  0.00     0.020 C 
BRANCH  29  30
HETATM   30  C2  UNL     1      -3.726  -2.495   0.431  1.00  0.00    -0.003 C 
HETATM   31  C1  UNL     1      -3.734  -3.815   1.168  1.00  0.00     0.005 C 
ENDBRANCH  29  30
ENDBRANCH  28  29
ENDBRANCH   1  28
BRANCH   9  32
HETATM   32  O2  UNL     1      -0.045   3.285   2.951  1.00  0.00    -0.341 OA
HETATM   33  C11 UNL     1      -1.040   4.286   2.604  1.00  0.00     0.211 C 
ENDBRANCH   9  32
TORSDOF 6
