REMARK  4 active torsions:
REMARK  status: ('A' for Active; 'I' for Inactive)
REMARK    1  A    between atoms: C7_9  and  N2_10 
REMARK    2  A    between atoms: N2_10  and  C8_11 
REMARK    3  A    between atoms: C8_11  and  C9_12 
REMARK    4  A    between atoms: C10_13  and  C11_14 
ROOT
HETATM    1  O1  UNL     1       4.197  -1.797  -1.991  1.00  0.00    -0.274 OA
HETATM    2  C1  UNL     1       3.737  -2.166  -0.892  1.00  0.00     0.217 C 
HETATM    3  C2  UNL     1       2.945  -2.739   0.271  1.00  0.00     0.103 C 
HETATM    4  C3  UNL     1       1.511  -2.700  -0.219  1.00  0.00     0.011 C 
HETATM    5  C4  UNL     1       0.547  -2.975   0.919  1.00  0.00     0.020 C 
HETATM    6  C5  UNL     1      -0.835  -2.679   0.320  1.00  0.00     0.119 C 
HETATM    7  N1  UNL     1      -1.836  -2.653   1.334  1.00  0.00    -0.396 N 
HETATM    8  C6  UNL     1      -3.206  -2.310   1.392  1.00  0.00     0.133 C 
HETATM    9  C7  UNL     1      -3.159  -0.961   1.434  1.00  0.00     0.140 C 
HETATM   10  N3  UNL     1      -2.634   0.349   1.456  1.00  0.00    -0.223 NA
HETATM   11  C12 UNL     1      -1.413   0.651   1.237  1.00  0.00     0.234 C 
HETATM   12  N4  UNL     1      -0.177   1.335   1.051  1.00  0.00    -0.258 NA
HETATM   13  C13 UNL     1      -0.103   2.628   1.125  1.00  0.00     0.094 C 
HETATM   14  C14 UNL     1       1.034   3.559   0.973  1.00  0.00     0.073 C 
HETATM   15  C15 UNL     1       2.150   2.866   0.275  1.00  0.00    -0.024 C 
HETATM   16  C16 UNL     1       2.906   2.898  -0.810  1.00  0.00    -0.005 C 
HETATM   17  C17 UNL     1       4.008   2.328  -1.635  1.00  0.00     0.194 C 
HETATM   18  O2  UNL     1       4.587   1.229  -1.072  1.00  0.00    -0.386 OA
HETATM   19  C18 UNL     1       5.477   0.534  -1.876  1.00  0.00     0.187 C 
HETATM   20  C19 UNL     1       6.059  -0.657  -1.100  1.00  0.00     0.148 C 
HETATM   21  N5  UNL     1       4.922  -1.437  -0.573  1.00  0.00    -0.359 N 
HETATM   22  H9  UNL     1      -1.738  -2.919   2.350  1.00  0.00     0.158 HD
HETATM   23  H30 UNL     1       5.060  -1.456   0.492  1.00  0.00     0.162 HD
ENDROOT
BRANCH   9  24
HETATM   24  N2  UNL     1      -4.485  -0.374   1.499  1.00  0.00    -0.370 N 
HETATM   25  H11 UNL     1      -5.087  -0.037   2.314  1.00  0.00     0.161 HD
BRANCH  24  26
HETATM   26  C8  UNL     1      -5.085  -0.238   0.172  1.00  0.00     0.148 C 
BRANCH  26  27
HETATM   27  C9  UNL     1      -6.432   0.362   0.245  1.00  0.00    -0.009 C 
HETATM   28  C10 UNL     1      -7.027   1.446  -0.232  1.00  0.00     0.002 C 
BRANCH  28  29
HETATM   29  C11 UNL     1      -6.285   2.411  -1.078  1.00  0.00     0.249 C 
HETATM   30  F1  UNL     1      -6.268   3.676  -0.488  1.00  0.00    -0.251 F 
ENDBRANCH  28  29
ENDBRANCH  26  27
ENDBRANCH  24  26
ENDBRANCH   9  24
TORSDOF 4
