REMARK  2 active torsions:
REMARK  status: ('A' for Active; 'I' for Inactive)
REMARK    1  A    between atoms: C9_11  and  N2_12 
REMARK    2  A    between atoms: N2_12  and  C10_13 
ROOT
HETATM    1  F1  UNL     1      -5.921   1.958   1.507  1.00  0.00    -0.206 F 
HETATM    2  C1  UNL     1      -4.986   1.278   0.796  1.00  0.00     0.117 A 
HETATM    3  C2  UNL     1      -5.277   0.007   0.375  1.00  0.00     0.045 A 
HETATM    4  C3  UNL     1      -4.306  -0.656  -0.345  1.00  0.00     0.041 A 
HETATM    5  C4  UNL     1      -3.072  -0.132  -0.669  1.00  0.00     0.085 A 
HETATM    6  C5  UNL     1      -2.789   1.149  -0.240  1.00  0.00    -0.002 A 
HETATM    7  C6  UNL     1      -3.755   1.821   0.482  1.00  0.00     0.054 A 
HETATM    8  C7  UNL     1      -1.496   1.816  -0.529  1.00  0.00     0.191 C 
HETATM    9  N1  UNL     1      -0.794   2.329   0.606  1.00  0.00    -0.279 NA
HETATM   10  C8  UNL     1       0.121   1.644   1.200  1.00  0.00     0.129 C 
HETATM   11  C9  UNL     1       0.700   0.783   0.390  1.00  0.00     0.160 C 
HETATM   12  N3  UNL     1      -0.379  -0.146   0.167  1.00  0.00    -0.222 NA
HETATM   13  C16 UNL     1      -0.022  -1.368  -0.075  1.00  0.00     0.237 C 
HETATM   14  N4  UNL     1      -0.969  -2.421  -0.320  1.00  0.00    -0.230 NA
HETATM   15  C17 UNL     1      -2.054  -2.233  -0.962  1.00  0.00     0.260 C 
HETATM   16  O1  UNL     1      -2.214  -0.915  -1.391  1.00  0.00    -0.303 OA
ENDROOT
BRANCH  11  17
HETATM   17  N2  UNL     1       2.061   0.943  -0.020  1.00  0.00    -0.339 N 
HETATM   18  H6  UNL     1       2.041   1.851  -0.548  1.00  0.00     0.167 HD
BRANCH  17  19
HETATM   19  C10 UNL     1       3.307   0.244   0.100  1.00  0.00     0.035 A 
HETATM   20  C11 UNL     1       3.571  -0.672  -0.919  1.00  0.00     0.032 A 
HETATM   21  C12 UNL     1       4.769  -1.377  -0.849  1.00  0.00     0.046 A 
HETATM   22  C13 UNL     1       5.640  -1.165   0.187  1.00  0.00     0.138 A 
HETATM   23  F2  UNL     1       6.787  -1.846   0.246  1.00  0.00    -0.204 F 
HETATM   24  C14 UNL     1       5.377  -0.250   1.205  1.00  0.00     0.074 A 
HETATM   25 CL1  UNL     1       6.464   0.053   2.550  1.00  0.00    -0.081 Cl
HETATM   26  C15 UNL     1       4.183   0.453   1.137  1.00  0.00     0.056 A 
ENDBRANCH  17  19
ENDBRANCH  11  17
TORSDOF 2
