REMARK  6 active torsions:
REMARK  status: ('A' for Active; 'I' for Inactive)
REMARK    1  A    between atoms: C2_2  and  C3_3 
REMARK    2  A    between atoms: C3_3  and  O1_4 
REMARK    3  A    between atoms: C6_9  and  N3_10 
REMARK    4  A    between atoms: N3_10  and  C7_11 
REMARK    5  A    between atoms: C16_22  and  N4_23 
REMARK       I    between atoms: N4_23  and  C17_24 
REMARK    6  A    between atoms: C17_24  and  C18_26 
ROOT
HETATM    1  C3  UNL     1       0.208  -1.303   1.090  1.00  0.00     0.126 A 
HETATM    2  C4  UNL     1       1.691  -1.290   1.148  1.00  0.00     0.086 A 
HETATM    3  N1  UNL     1       2.116  -1.670   2.369  1.00  0.00    -0.242 NA
HETATM    4  C5  UNL     1       3.454  -1.736   2.638  1.00  0.00     0.235 A 
HETATM    5  N2  UNL     1       4.337  -1.411   1.647  1.00  0.00    -0.224 NA
HETATM    6  C6  UNL     1       3.883  -1.037   0.439  1.00  0.00     0.141 A 
HETATM    7  C13 UNL     1       2.541  -0.962   0.144  1.00  0.00     0.038 A 
HETATM    8  C14 UNL     1       1.996  -0.578  -1.150  1.00  0.00     0.015 A 
HETATM    9  C15 UNL     1       0.680  -0.578  -1.258  1.00  0.00     0.003 A 
HETATM   10  C16 UNL     1      -0.355  -0.918  -0.248  1.00  0.00     0.148 A 
ENDROOT
BRANCH  10  11
HETATM   11  N4  UNL     1      -1.276   0.207  -0.162  1.00  0.00    -0.348 N 
HETATM   12  C17 UNL     1      -2.561  -0.073  -0.713  1.00  0.00     0.252 C 
HETATM   13  O2  UNL     1      -2.943  -1.146  -1.237  1.00  0.00    -0.271 OA
HETATM   14  H15 UNL     1      -1.081   1.141   0.245  1.00  0.00     0.163 HD
BRANCH  12  15
HETATM   15  C18 UNL     1      -3.679   0.916  -0.741  1.00  0.00     0.313 C 
HETATM   16  C19 UNL     1      -4.121   1.225   0.672  1.00  0.00     0.046 C 
HETATM   17  C20 UNL     1      -5.304   2.114   0.745  1.00  0.00     0.004 C 
HETATM   18  C21 UNL     1      -6.276   2.042  -0.370  1.00  0.00     0.030 C 
HETATM   19  C22 UNL     1      -5.729   1.474  -1.655  1.00  0.00     0.273 C 
HETATM   20  N5  UNL     1      -4.829   0.357  -1.410  1.00  0.00     0.098 N 
HETATM   21  C23 UNL     1      -5.568  -0.597  -0.643  1.00  0.00     0.310 C 
ENDBRANCH  12  15
ENDBRANCH  10  11
BRANCH   1  22
HETATM   22  C2  UNL     1      -0.201  -2.703   1.524  1.00  0.00     0.042 C 
HETATM   23  C1  UNL     1       0.262  -3.777   0.568  1.00  0.00     0.009 C 
ENDBRANCH   1  22
BRANCH   1  24
HETATM   24  O1  UNL     1      -0.237  -0.354   2.038  1.00  0.00    -0.381 OA
HETATM   25  H6  UNL     1       0.377   0.417   1.953  1.00  0.00     0.211 HD
ENDBRANCH   1  24
BRANCH   6  26
HETATM   26  N3  UNL     1       4.842  -0.730  -0.566  1.00  0.00    -0.340 N 
HETATM   27  H8  UNL     1       5.037  -1.329  -1.411  1.00  0.00     0.167 HD
BRANCH  26  28
HETATM   28  C7  UNL     1       5.605   0.458  -0.462  1.00  0.00     0.035 A 
HETATM   29  C8  UNL     1       5.386   1.312   0.603  1.00  0.00     0.032 A 
HETATM   30  C9  UNL     1       6.103   2.476   0.778  1.00  0.00     0.046 A 
HETATM   31  C10 UNL     1       7.095   2.841  -0.131  1.00  0.00     0.138 A 
HETATM   32  F1  UNL     1       7.792   3.990   0.056  1.00  0.00    -0.204 F 
HETATM   33  C11 UNL     1       7.308   1.971  -1.201  1.00  0.00     0.074 A 
HETATM   34 CL1  UNL     1       8.558   2.439  -2.327  1.00  0.00    -0.081 Cl
HETATM   35  C12 UNL     1       6.577   0.819  -1.348  1.00  0.00     0.056 A 
ENDBRANCH  26  28
ENDBRANCH   6  26
TORSDOF 6
