REMARK  7 active torsions:
REMARK  status: ('A' for Active; 'I' for Inactive)
REMARK    1  A    between atoms: C5_6  and  N1_7 
REMARK    2  A    between atoms: N1_7  and  C6_8 
REMARK    3  A    between atoms: N2_13  and  O1_14 
REMARK    4  A    between atoms: C11_15  and  C12_16 
REMARK    5  A    between atoms: C12_16  and  C13_17 
REMARK    6  A    between atoms: C13_17  and  N3_18 
REMARK    7  A    between atoms: C18_25  and  O2_26 
ROOT
HETATM    1  C6  UNL     1       1.818   0.116   1.870  1.00  0.00     0.136 C 
HETATM    2  C7  UNL     1       0.930   0.981   1.408  1.00  0.00     0.002 C 
HETATM    3  C8  UNL     1       0.808   1.813   0.230  1.00  0.00     0.023 C 
HETATM    4  C9  UNL     1      -0.464   2.009  -0.319  1.00  0.00    -0.009 C 
HETATM    5  C10 UNL     1      -0.867   1.309  -1.626  1.00  0.00     0.162 C 
HETATM    6  N2  UNL     1      -1.147  -0.116  -1.172  1.00  0.00    -0.185 NA
HETATM    7  C11 UNL     1      -1.913  -0.155   0.032  1.00  0.00     0.136 C 
HETATM    8  C14 UNL     1      -1.149   0.137   1.259  1.00  0.00     0.046 C 
HETATM    9  N4  UNL     1      -1.001  -1.027   1.863  1.00  0.00    -0.248 NA
HETATM   10  C15 UNL     1       0.215  -1.613   2.442  1.00  0.00     0.235 C 
HETATM   11  N5  UNL     1       1.356  -0.967   2.749  1.00  0.00    -0.224 NA
HETATM   12  C16 UNL     1      -0.445   1.233   2.079  1.00  0.00     0.097 C 
HETATM   13  C17 UNL     1      -0.796   2.664   1.706  1.00  0.00     0.026 C 
HETATM   14  C18 UNL     1      -1.545   2.612   0.582  1.00  0.00     0.073 C 
ENDROOT
BRANCH   1  15
HETATM   15  N1  UNL     1       2.968   0.657   1.214  1.00  0.00    -0.338 N 
HETATM   16  H4  UNL     1       3.410   1.515   1.613  1.00  0.00     0.167 HD
BRANCH  15  17
HETATM   17  C5  UNL     1       3.474  -0.011   0.032  1.00  0.00     0.075 A 
HETATM   18  C4  UNL     1       3.301   0.043  -1.390  1.00  0.00     0.057 A 
HETATM   19  C3  UNL     1       4.064  -0.849  -1.973  1.00  0.00     0.048 A 
HETATM   20  C2  UNL     1       4.819  -1.582  -0.957  1.00  0.00     0.017 A 
HETATM   21 CL1  UNL     1       4.138  -1.097  -3.704  1.00  0.00    -0.083 Cl
HETATM   22  C1  UNL     1       5.701  -2.567  -1.141  1.00  0.00     0.028 C 
HETATM   23  C20 UNL     1       4.374  -0.971   0.314  1.00  0.00     0.154 A 
HETATM   24  F1  UNL     1       4.912  -1.451   1.483  1.00  0.00    -0.203 F 
ENDBRANCH  15  17
ENDBRANCH   1  15
BRANCH  14  25
HETATM   25  O2  UNL     1      -2.779   3.162   1.072  1.00  0.00    -0.356 OA
HETATM   26  C19 UNL     1      -3.523   4.046   0.268  1.00  0.00     0.210 C 
ENDBRANCH  14  25
BRANCH   7  27
HETATM   27  C12 UNL     1      -2.853  -1.317   0.114  1.00  0.00     0.058 C 
BRANCH  27  28
HETATM   28  C13 UNL     1      -2.329  -2.683   0.044  1.00  0.00     0.269 C 
BRANCH  28  29
HETATM   29  N3  UNL     1      -3.510  -3.579   0.136  1.00  0.00     0.078 N 
HETATM   30  H14 UNL     1      -3.181  -4.574   0.274  1.00  0.00     0.312 HD
HETATM   31  H15 UNL     1      -3.985  -3.351   1.061  1.00  0.00     0.312 HD
ENDBRANCH  28  29
ENDBRANCH  27  28
ENDBRANCH   7  27
BRANCH   6  32
HETATM   32  O1  UNL     1      -1.788  -0.673  -2.210  1.00  0.00    -0.312 OA
HETATM   33  H8  UNL     1      -2.704  -0.312  -2.361  1.00  0.00     0.237 HD
ENDBRANCH   6  32
TORSDOF 7
