REMARK  8 active torsions:
REMARK  status: ('A' for Active; 'I' for Inactive)
REMARK    1  A    between atoms: B1_1  and  C1_2 
REMARK    2  A    between atoms: C3_4  and  N1_5 
REMARK    3  A    between atoms: N1_5  and  C4_6 
REMARK    4  A    between atoms: C8_12  and  O1_13 
REMARK    5  A    between atoms: C10_15  and  C11_16 
REMARK    6  A    between atoms: C11_16  and  N4_17 
REMARK    7  A    between atoms: N4_17  and  C13_19 
REMARK    8  A    between atoms: C13_19  and  C15_21 
REMARK       I    between atoms: C15_21  and  N5_22 
ROOT
HETATM    1  C4  UNL     1       2.142  -1.431  -0.152  1.00  0.00     0.142 A 
HETATM    2  N2  UNL     1       3.042  -2.419  -0.214  1.00  0.00    -0.224 NA
HETATM    3  C5  UNL     1       2.781  -3.724  -0.197  1.00  0.00     0.236 A 
HETATM    4  N3  UNL     1       1.481  -4.138  -0.110  1.00  0.00    -0.241 NA
HETATM    5  C6  UNL     1       0.529  -3.194  -0.045  1.00  0.00     0.074 A 
HETATM    6  C7  UNL     1      -0.758  -3.676   0.040  1.00  0.00     0.070 A 
HETATM    7  C8  UNL     1      -1.821  -2.793   0.109  1.00  0.00     0.078 A 
HETATM    8  C10 UNL     1      -1.549  -1.424   0.091  1.00  0.00     0.004 A 
HETATM    9  C16 UNL     1      -0.256  -1.018   0.007  1.00  0.00     0.029 A 
HETATM   10  C17 UNL     1       0.837  -1.850  -0.064  1.00  0.00     0.039 A 
ENDROOT
BRANCH   1  11
HETATM   11  N1  UNL     1       2.427  -0.046  -0.165  1.00  0.00    -0.340 N 
HETATM   12  H4  UNL     1       1.712   0.694  -0.074  1.00  0.00     0.167 HD
BRANCH  11  13
HETATM   13  C3  UNL     1       3.701   0.562  -0.299  1.00  0.00     0.033 A 
HETATM   14  C2  UNL     1       3.997   1.891   0.008  1.00  0.00     0.026 A 
HETATM   15  C1  UNL     1       5.204   2.495  -0.123  1.00  0.00    -0.069 A 
HETATM   16  C20 UNL     1       6.259   1.755  -0.600  1.00  0.00     0.111 A 
HETATM   17  C19 UNL     1       6.057   0.436  -0.928  1.00  0.00     0.044 A 
HETATM   18  F1  UNL     1       7.454   2.365  -0.726  1.00  0.00    -0.207 F 
HETATM   19  C18 UNL     1       4.803  -0.109  -0.769  1.00  0.00     0.032 A 
BRANCH  15  20
HETATM   20  B1  UNL     1       5.358   3.993   0.273  1.00  0.00     0.178 B 
HETATM   21  H1  UNL     1       6.032   4.176   1.252  1.00  0.00    -0.026 HD
HETATM   22  H2  UNL     1       5.632   4.746  -0.621  1.00  0.00    -0.026 HD
ENDBRANCH  15  20
ENDBRANCH  11  13
ENDBRANCH   1  11
BRANCH   8  23
HETATM   23  C11 UNL     1      -2.726  -0.531   0.170  1.00  0.00     0.314 C 
BRANCH  23  24
HETATM   24  N4  UNL     1      -2.453   0.849  -0.037  1.00  0.00     0.101 N 
HETATM   25  C12 UNL     1      -1.953   1.109  -1.357  1.00  0.00     0.311 C 
BRANCH  24  26
HETATM   26  C13 UNL     1      -3.441   1.752   0.423  1.00  0.00     0.309 C 
HETATM   27  C14 UNL     1      -4.796   1.590  -0.200  1.00  0.00     0.053 C 
BRANCH  26  28
HETATM   28  C15 UNL     1      -3.050   3.176   0.311  1.00  0.00     0.248 C 
HETATM   29  N5  UNL     1      -4.107   4.008   0.794  1.00  0.00    -0.368 N 
HETATM   30  H19 UNL     1      -4.867   4.611   1.172  1.00  0.00     0.159 HD
HETATM   31  H20 UNL     1      -4.589   4.485   1.612  1.00  0.00     0.159 HD
HETATM   32  O2  UNL     1      -2.494   4.296   0.116  1.00  0.00    -0.271 OA
ENDBRANCH  26  28
ENDBRANCH  24  26
ENDBRANCH  23  24
ENDBRANCH   8  23
BRANCH   7  33
HETATM   33  O1  UNL     1      -3.133  -3.253   0.196  1.00  0.00    -0.355 OA
HETATM   34  C9  UNL     1      -3.354  -4.658   0.212  1.00  0.00     0.210 C 
ENDBRANCH   7  33
TORSDOF 8
