REMARK  6 active torsions:
REMARK  status: ('A' for Active; 'I' for Inactive)
REMARK    1  A    between atoms: N1_3  and  C3_4 
REMARK    2  A    between atoms: C3_4  and  C4_5 
REMARK    3  A    between atoms: C7_8  and  N2_9 
REMARK    4  A    between atoms: N2_9  and  C8_10 
REMARK    5  A    between atoms: C17_23  and  C18_24 
REMARK    6  A    between atoms: C18_24  and  O1_25 
ROOT
HETATM    1  C4  UNL     1       2.020  -0.580  -0.694  1.00  0.00    -0.029 A 
HETATM    2  C5  UNL     1       0.674  -0.358  -0.498  1.00  0.00     0.027 A 
HETATM    3  C6  UNL     1      -0.186  -1.191   0.179  1.00  0.00     0.039 A 
HETATM    4  C7  UNL     1      -1.527  -0.934   0.354  1.00  0.00     0.142 A 
HETATM    5  N3  UNL     1      -2.150  -1.887   1.043  1.00  0.00    -0.224 NA
HETATM    6  C14 UNL     1      -1.591  -2.993   1.536  1.00  0.00     0.236 A 
HETATM    7  N4  UNL     1      -0.282  -3.233   1.359  1.00  0.00    -0.241 NA
HETATM    8  C15 UNL     1       0.426  -2.320   0.673  1.00  0.00     0.072 A 
HETATM    9  C16 UNL     1       1.764  -2.603   0.513  1.00  0.00     0.042 A 
HETATM   10  C17 UNL     1       2.578  -1.729  -0.176  1.00  0.00    -0.025 A 
ENDROOT
BRANCH   4  11
HETATM   11  N2  UNL     1      -2.097   0.243  -0.176  1.00  0.00    -0.339 N 
HETATM   12  H8  UNL     1      -1.523   0.928  -0.702  1.00  0.00     0.167 HD
BRANCH  11  13
HETATM   13  C8  UNL     1      -3.438   0.666  -0.093  1.00  0.00     0.058 A 
HETATM   14  C9  UNL     1      -4.410  -0.057   0.550  1.00  0.00     0.031 A 
HETATM   15  C10 UNL     1      -5.723   0.337   0.644  1.00  0.00     0.005 A 
HETATM   16  C11 UNL     1      -6.148   1.520   0.077  1.00  0.00     0.044 A 
HETATM   17  C12 UNL     1      -5.205   2.277  -0.579  1.00  0.00     0.140 A 
HETATM   18  F1  UNL     1      -5.558   3.449  -1.157  1.00  0.00    -0.204 F 
HETATM   19  C13 UNL     1      -3.905   1.836  -0.643  1.00  0.00     0.099 A 
HETATM   20 CL1  UNL     1      -2.754   2.869  -1.504  1.00  0.00    -0.079 Cl
ENDBRANCH  11  13
ENDBRANCH   4  11
BRANCH   1  21
HETATM   21  C3  UNL     1       2.897   0.358  -1.433  1.00  0.00     0.187 C 
BRANCH  21  22
HETATM   22  N1  UNL     1       3.723   1.127  -0.541  1.00  0.00    -0.302 NA
HETATM   23  C2  UNL     1       3.378   2.320  -0.271  1.00  0.00     0.079 C 
HETATM   24  C1  UNL     1       4.082   3.275   0.616  1.00  0.00     0.056 C 
ENDBRANCH  21  22
ENDBRANCH   1  21
BRANCH  10  25
HETATM   25  C18 UNL     1       4.026  -1.998  -0.370  1.00  0.00     0.203 C 
BRANCH  25  26
HETATM   26  O1  UNL     1       4.379  -3.216   0.237  1.00  0.00    -0.396 OA
HETATM   27  H16 UNL     1       4.203  -3.108   1.204  1.00  0.00     0.209 HD
ENDBRANCH  25  26
ENDBRANCH  10  25
TORSDOF 6
