REMARK  3 active torsions:
REMARK  status: ('A' for Active; 'I' for Inactive)
REMARK    1  A    between atoms: O1_2  and  C2_3 
REMARK    2  A    between atoms: C10_13  and  C12_15 
REMARK    3  A    between atoms: C12_15  and  C14_17 
REMARK       I    between atoms: C14_17  and  N3_18 
ROOT
HETATM    1  C2  UNL     1       0.021  -1.941  -0.013  1.00  0.00     0.077 A 
HETATM    2  C3  UNL     1       1.149  -2.559   0.543  1.00  0.00     0.070 A 
HETATM    3  C4  UNL     1       2.250  -1.797   0.951  1.00  0.00     0.074 A 
HETATM    4  N1  UNL     1       3.383  -2.331   1.473  1.00  0.00    -0.241 NA
HETATM    5  C5  UNL     1       4.378  -1.453   1.799  1.00  0.00     0.235 A 
HETATM    6  N2  UNL     1       4.345  -0.088   1.651  1.00  0.00    -0.224 NA
HETATM    7  C6  UNL     1       3.247   0.479   1.141  1.00  0.00     0.138 A 
HETATM    8  C7  UNL     1       2.295  -0.430   0.838  1.00  0.00     0.039 A 
HETATM    9  C8  UNL     1       1.121  -0.101   0.295  1.00  0.00     0.028 A 
HETATM   10  C9  UNL     1      -0.069  -0.559  -0.186  1.00  0.00    -0.008 A 
HETATM   11  C10 UNL     1      -1.213   0.175  -0.851  1.00  0.00     0.051 C 
HETATM   12  C11 UNL     1      -1.646  -0.614  -2.080  1.00  0.00     0.029 C 
HETATM   13  C15 UNL     1      -0.651   1.471  -1.304  1.00  0.00     0.104 C 
HETATM   14  F1  UNL     1      -1.735   1.833  -2.029  1.00  0.00    -0.210 F 
HETATM   15  C16 UNL     1       0.190   2.528  -1.432  1.00  0.00     0.015 C 
HETATM   16  C17 UNL     1       1.528   2.985  -0.862  1.00  0.00     0.024 C 
HETATM   17  C18 UNL     1       2.659   2.885  -0.063  1.00  0.00     0.141 C 
HETATM   18  N4  UNL     1       3.082   1.872   0.879  1.00  0.00    -0.367 N 
HETATM   19  H19 UNL     1       3.437   2.303   1.785  1.00  0.00     0.161 HD
ENDROOT
BRANCH  11  20
HETATM   20  C12 UNL     1      -2.308   0.282   0.134  1.00  0.00     0.093 C 
HETATM   21  C13 UNL     1      -3.538   0.994  -0.371  1.00  0.00     0.021 C 
BRANCH  20  22
HETATM   22  C14 UNL     1      -1.893   0.932   1.405  1.00  0.00     0.220 C 
HETATM   23  N3  UNL     1      -1.381   2.278   1.412  1.00  0.00    -0.370 N 
HETATM   24  H14 UNL     1      -1.758   3.258   1.252  1.00  0.00     0.159 HD
HETATM   25  H15 UNL     1      -0.363   2.315   1.632  1.00  0.00     0.159 HD
HETATM   26  O2  UNL     1      -1.945   0.403   2.525  1.00  0.00    -0.273 OA
ENDBRANCH  20  22
ENDBRANCH  11  20
BRANCH   1  27
HETATM   27  O1  UNL     1      -1.090  -2.677  -0.431  1.00  0.00    -0.355 OA
HETATM   28  C1  UNL     1      -1.181  -4.061  -0.338  1.00  0.00     0.210 C 
ENDBRANCH   1  27
TORSDOF 3
