REMARK  5 active torsions:
REMARK  status: ('A' for Active; 'I' for Inactive)
REMARK    1  A    between atoms: C2_2  and  C3_3 
REMARK    2  A    between atoms: N3_10  and  C8_11 
REMARK    3  A    between atoms: C14_19  and  C15_20 
REMARK       I    between atoms: C15_20  and  N4_22 
REMARK    4  A    between atoms: N4_22  and  C16_23 
REMARK    5  A    between atoms: C16_23  and  O2_24 
ROOT
HETATM    1  C3  UNL     1      -0.521   0.087   1.991  1.00  0.00    -0.046 C 
HETATM    2  C4  UNL     1       0.734   0.489   2.347  1.00  0.00     0.010 C 
HETATM    3  C5  UNL     1       2.118   0.979   2.057  1.00  0.00     0.327 C 
HETATM    4  N1  UNL     1       2.023   1.083   0.776  1.00  0.00    -0.400 NA
HETATM    5  C6  UNL     1       2.985   1.502  -0.164  1.00  0.00     0.188 C 
HETATM    6  N2  UNL     1       2.400   1.448  -1.339  1.00  0.00    -0.256 NA
HETATM    7  C7  UNL     1       1.021   1.005  -1.371  1.00  0.00     0.422 C 
HETATM    8  N3  UNL     1       0.971  -0.306  -0.819  1.00  0.00     0.120 NA
HETATM    9  C13 UNL     1      -0.308  -0.725  -0.434  1.00  0.00     0.294 C 
HETATM   10  C14 UNL     1      -1.069  -0.117   0.647  1.00  0.00     0.139 C 
ENDROOT
BRANCH   8  11
HETATM   11  C8  UNL     1       1.636  -1.236  -1.689  1.00  0.00     0.275 A 
HETATM   12  C9  UNL     1       1.706  -2.623  -1.154  1.00  0.00     0.056 A 
HETATM   13  C10 UNL     1       2.989  -3.045  -1.167  1.00  0.00     0.136 A 
HETATM   14  F1  UNL     1       3.441  -4.276  -0.746  1.00  0.00    -0.205 F 
HETATM   15  C11 UNL     1       3.818  -1.961  -1.715  1.00  0.00     0.070 A 
HETATM   16 CL1  UNL     1       5.575  -2.215  -1.866  1.00  0.00    -0.081 Cl
HETATM   17  C12 UNL     1       3.036  -0.907  -2.022  1.00  0.00     0.040 A 
ENDBRANCH   8  11
BRANCH  10  18
HETATM   18  C15 UNL     1      -2.096   0.874   0.252  1.00  0.00     0.229 C 
HETATM   19  O1  UNL     1      -2.127   1.603   1.278  1.00  0.00    -0.273 OA
HETATM   20  N4  UNL     1      -2.880   1.056  -0.905  1.00  0.00    -0.340 N 
HETATM   21  H15 UNL     1      -2.659   0.315  -1.602  1.00  0.00     0.164 HD
BRANCH  20  22
HETATM   22  C16 UNL     1      -3.816   2.159  -0.970  1.00  0.00     0.290 C 
BRANCH  22  23
HETATM   23  O2  UNL     1      -4.738   2.003   0.080  1.00  0.00    -0.382 OA
HETATM   24  H18 UNL     1      -5.211   2.876   0.255  1.00  0.00     0.211 HD
ENDBRANCH  22  23
ENDBRANCH  20  22
ENDBRANCH  10  18
BRANCH   1  25
HETATM   25  C2  UNL     1      -1.309  -0.247   3.199  1.00  0.00    -0.003 C 
HETATM   26  C1  UNL     1      -2.527  -0.643   2.965  1.00  0.00     0.012 C 
ENDBRANCH   1  25
TORSDOF 5
