REMARK  8 active torsions:
REMARK  status: ('A' for Active; 'I' for Inactive)
REMARK    1  A    between atoms: C2_2  and  C3_3 
REMARK    2  A    between atoms: C2_2  and  N1_6 
REMARK    3  A    between atoms: C3_3  and  C4_4 
REMARK    4  A    between atoms: N1_6  and  C6_8 
REMARK    5  A    between atoms: C6_8  and  C7_9 
REMARK    6  A    between atoms: C8_10  and  C9_11 
REMARK    7  A    between atoms: C12_16  and  B1_17 
REMARK    8  A    between atoms: B1_17  and  C13_18 
ROOT
HETATM    1  C9  UNL     1       0.937  -0.707   0.035  1.00  0.00    -0.006 A 
HETATM    2  C10 UNL     1       0.244  -1.887   0.015  1.00  0.00     0.130 A 
HETATM    3  N2  UNL     1       0.801  -3.118   0.117  1.00  0.00    -0.253 NA
HETATM    4  C11 UNL     1       2.133  -3.250   0.249  1.00  0.00     0.231 A 
HETATM    5  N3  UNL     1       2.840  -2.106   0.273  1.00  0.00    -0.258 NA
HETATM    6  C12 UNL     1       2.289  -0.901   0.172  1.00  0.00     0.004 A 
ENDROOT
BRANCH   1   7
HETATM    7  C8  UNL     1       0.305   0.567  -0.088  1.00  0.00     0.011 C 
HETATM    8  C7  UNL     1      -0.942   0.968  -0.207  1.00  0.00     0.004 C 
BRANCH   8   9
HETATM    9  C6  UNL     1      -2.316   0.516  -0.284  1.00  0.00     0.300 C 
BRANCH   9  10
HETATM   10  N1  UNL     1      -3.152   1.115   0.798  1.00  0.00     0.092 N 
HETATM   11  C5  UNL     1      -3.307   2.540   0.512  1.00  0.00     0.310 C 
BRANCH  10  12
HETATM   12  C2  UNL     1      -4.452   0.452   0.753  1.00  0.00     0.225 C 
HETATM   13  C1  UNL     1      -4.209  -0.995   1.136  1.00  0.00     0.043 C 
BRANCH  12  14
HETATM   14  C3  UNL     1      -5.143   0.545  -0.561  1.00  0.00     0.104 C 
BRANCH  14  15
HETATM   15  C4  UNL     1      -6.456  -0.185  -0.408  1.00  0.00     0.233 C 
HETATM   16  O1  UNL     1      -7.138  -0.801   0.398  1.00  0.00    -0.307 OA
ENDBRANCH  14  15
ENDBRANCH  12  14
ENDBRANCH  10  12
ENDBRANCH   9  10
ENDBRANCH   8   9
ENDBRANCH   1   7
BRANCH   6  17
HETATM   17  B1  UNL     1       3.152   0.423   0.216  1.00  0.00     0.255 B 
HETATM   18  H17 UNL     1       2.841   1.282   0.967  1.00  0.00    -0.014 HD
BRANCH  17  19
HETATM   19  C13 UNL     1       4.692   0.258  -0.010  1.00  0.00    -0.092 A 
HETATM   20  C14 UNL     1       5.169  -0.752  -0.833  1.00  0.00    -0.002 A 
HETATM   21  C15 UNL     1       6.521  -0.940  -1.065  1.00  0.00     0.043 A 
HETATM   22  C16 UNL     1       7.434  -0.089  -0.453  1.00  0.00     0.138 A 
HETATM   23  F1  UNL     1       8.783  -0.188  -0.617  1.00  0.00    -0.204 F 
HETATM   24  C17 UNL     1       6.970   0.918   0.366  1.00  0.00     0.072 A 
HETATM   25 CL1  UNL     1       8.105   2.002   1.144  1.00  0.00    -0.081 Cl
HETATM   26  C18 UNL     1       5.625   1.106   0.597  1.00  0.00     0.022 A 
ENDBRANCH  17  19
ENDBRANCH   6  17
TORSDOF 8
