REMARK  7 active torsions:
REMARK  status: ('A' for Active; 'I' for Inactive)
REMARK    1  A    between atoms: O1_2  and  C2_3 
REMARK    2  A    between atoms: C6_9  and  N3_10 
REMARK    3  A    between atoms: N3_10  and  C7_11 
REMARK    4  A    between atoms: C15_21  and  C16_22 
REMARK    5  A    between atoms: C16_22  and  N4_23 
REMARK    6  A    between atoms: N4_23  and  C18_25 
REMARK    7  A    between atoms: C18_25  and  C20_27 
REMARK       I    between atoms: C20_27  and  N5_28 
ROOT
HETATM    1  C2  UNL     1      -1.072  -1.794  -1.807  1.00  0.00     0.078 A 
HETATM    2  C3  UNL     1       0.020  -1.992  -2.661  1.00  0.00     0.070 A 
HETATM    3  C4  UNL     1       1.183  -1.265  -2.509  1.00  0.00     0.074 A 
HETATM    4  N1  UNL     1       2.254  -1.404  -3.307  1.00  0.00    -0.241 NA
HETATM    5  C5  UNL     1       3.381  -0.656  -3.134  1.00  0.00     0.236 A 
HETATM    6  N2  UNL     1       3.434   0.265  -2.121  1.00  0.00    -0.224 NA
HETATM    7  C6  UNL     1       2.355   0.410  -1.312  1.00  0.00     0.142 A 
HETATM    8  C13 UNL     1       1.217  -0.346  -1.487  1.00  0.00     0.039 A 
HETATM    9  C14 UNL     1       0.187  -0.093  -0.606  1.00  0.00     0.029 A 
HETATM   10  C15 UNL     1      -0.958  -0.836  -0.789  1.00  0.00     0.004 A 
ENDROOT
BRANCH   7  11
HETATM   11  N3  UNL     1       2.599   1.420  -0.341  1.00  0.00    -0.340 N 
HETATM   12  H6  UNL     1       2.132   2.343  -0.369  1.00  0.00     0.167 HD
BRANCH  11  13
HETATM   13  C7  UNL     1       3.531   1.143   0.732  1.00  0.00     0.035 A 
HETATM   14  C8  UNL     1       4.112  -0.096   0.874  1.00  0.00     0.032 A 
HETATM   15  C9  UNL     1       5.028  -0.342   1.903  1.00  0.00     0.046 A 
HETATM   16  C10 UNL     1       5.344   0.690   2.786  1.00  0.00     0.138 A 
HETATM   17  F1  UNL     1       6.235   0.439   3.779  1.00  0.00    -0.204 F 
HETATM   18  C11 UNL     1       4.763   1.961   2.660  1.00  0.00     0.074 A 
HETATM   19 CL1  UNL     1       5.184   3.255   3.791  1.00  0.00    -0.081 Cl
HETATM   20  C12 UNL     1       3.847   2.179   1.619  1.00  0.00     0.056 A 
ENDBRANCH  11  13
ENDBRANCH   7  11
BRANCH  10  21
HETATM   21  C16 UNL     1      -2.168  -0.726   0.026  1.00  0.00     0.314 C 
BRANCH  21  22
HETATM   22  N4  UNL     1      -2.159   0.249   1.064  1.00  0.00     0.101 N 
HETATM   23  C17 UNL     1      -1.992   1.605   0.603  1.00  0.00     0.311 C 
BRANCH  22  24
HETATM   24  C18 UNL     1      -3.449   0.198   1.744  1.00  0.00     0.309 C 
HETATM   25  C19 UNL     1      -4.598   0.521   0.825  1.00  0.00     0.053 C 
BRANCH  24  26
HETATM   26  C20 UNL     1      -3.467   0.961   2.988  1.00  0.00     0.248 C 
HETATM   27  N5  UNL     1      -2.889   1.782   3.992  1.00  0.00    -0.368 N 
HETATM   28  H20 UNL     1      -2.354   1.112   4.625  1.00  0.00     0.159 HD
HETATM   29  H21 UNL     1      -3.037   2.824   3.995  1.00  0.00     0.159 HD
HETATM   30  O2  UNL     1      -4.642   0.859   3.477  1.00  0.00    -0.271 OA
ENDBRANCH  24  26
ENDBRANCH  22  24
ENDBRANCH  21  22
ENDBRANCH  10  21
BRANCH   1  31
HETATM   31  O1  UNL     1      -2.207  -2.560  -2.025  1.00  0.00    -0.355 OA
HETATM   32  C1  UNL     1      -2.257  -3.510  -3.068  1.00  0.00     0.210 C 
ENDBRANCH   1  31
TORSDOF 7
