REMARK  5 active torsions:
REMARK  status: ('A' for Active; 'I' for Inactive)
REMARK    1  A    between atoms: O1_2  and  C2_3 
REMARK    2  A    between atoms: C6_9  and  B1_10 
REMARK    3  A    between atoms: B1_10  and  N3_11 
REMARK    4  A    between atoms: N3_11  and  C7_12 
REMARK    5  A    between atoms: C15_21  and  C16_22 
ROOT
HETATM    1  C2  UNL     1      -3.370   0.885  -0.204  1.00  0.00     0.079 A 
HETATM    2  C3  UNL     1      -2.433   1.800   0.240  1.00  0.00     0.070 A 
HETATM    3  C4  UNL     1      -1.186   1.329   0.560  1.00  0.00     0.072 A 
HETATM    4  N1  UNL     1      -0.243   2.200   0.999  1.00  0.00    -0.241 NA
HETATM    5  C5  UNL     1       0.998   1.727   1.317  1.00  0.00     0.232 A 
HETATM    6  N2  UNL     1       1.350   0.437   1.221  1.00  0.00    -0.256 NA
HETATM    7  C6  UNL     1       0.445  -0.481   0.786  1.00  0.00     0.028 A 
HETATM    8  C13 UNL     1      -0.804   0.008   0.468  1.00  0.00     0.009 A 
HETATM    9  C14 UNL     1      -1.755  -0.880   0.024  1.00  0.00     0.027 A 
HETATM   10  C15 UNL     1      -3.047  -0.467  -0.319  1.00  0.00     0.004 A 
ENDROOT
BRANCH   7  11
HETATM   11  B1  UNL     1       0.823  -1.980   0.663  1.00  0.00     0.328 B 
HETATM   12  H6  UNL     1       0.033  -2.819   0.860  1.00  0.00     0.007 HD
BRANCH  11  13
HETATM   13  N3  UNL     1       2.228  -2.368   0.259  1.00  0.00    -0.437 N 
HETATM   14  H7  UNL     1       2.525  -3.360   0.129  1.00  0.00     0.138 HD
BRANCH  13  15
HETATM   15  C7  UNL     1       3.301  -1.472   0.007  1.00  0.00     0.015 A 
HETATM   16  C8  UNL     1       4.106  -1.110   1.076  1.00  0.00     0.028 A 
HETATM   17  C9  UNL     1       5.159  -0.234   0.824  1.00  0.00     0.004 A 
HETATM   18  C10 UNL     1       5.470   0.305  -0.401  1.00  0.00     0.024 A 
HETATM   19  C11 UNL     1       4.624  -0.098  -1.423  1.00  0.00     0.036 A 
HETATM   20 CL1  UNL     1       4.892   0.510  -3.062  1.00  0.00    -0.084 Cl
HETATM   21  C12 UNL     1       3.560  -0.965  -1.247  1.00  0.00     0.051 A 
ENDBRANCH  13  15
ENDBRANCH  11  13
ENDBRANCH   7  11
BRANCH  10  22
HETATM   22  C16 UNL     1      -4.031  -1.472  -0.791  1.00  0.00     0.263 C 
HETATM   23  F1  UNL     1      -4.911  -1.737   0.236  1.00  0.00    -0.250 F 
ENDBRANCH  10  22
BRANCH   1  24
HETATM   24  O1  UNL     1      -4.663   1.203  -0.562  1.00  0.00    -0.355 OA
HETATM   25  C1  UNL     1      -5.235   2.475  -0.540  1.00  0.00     0.210 C 
ENDBRANCH   1  24
TORSDOF 5
