REMARK  7 active torsions:
REMARK  status: ('A' for Active; 'I' for Inactive)
REMARK    1  A    between atoms: O1_2  and  C2_3 
REMARK    2  A    between atoms: C6_9  and  N3_10 
REMARK    3  A    between atoms: N3_10  and  C7_11 
REMARK    4  A    between atoms: C15_20  and  C16_21 
REMARK    5  A    between atoms: C16_21  and  N4_22 
REMARK    6  A    between atoms: N4_22  and  C18_24 
REMARK    7  A    between atoms: C18_24  and  C20_26 
REMARK       I    between atoms: C20_26  and  N5_27 
ROOT
HETATM    1  C2  UNL     1      -1.050  -2.083   0.892  1.00  0.00     0.078 A 
HETATM    2  C3  UNL     1      -0.309  -3.097   0.325  1.00  0.00     0.070 A 
HETATM    3  C4  UNL     1       0.835  -2.856  -0.412  1.00  0.00     0.074 A 
HETATM    4  N1  UNL     1       1.593  -3.821  -0.980  1.00  0.00    -0.241 NA
HETATM    5  C5  UNL     1       2.707  -3.501  -1.685  1.00  0.00     0.236 A 
HETATM    6  N2  UNL     1       3.078  -2.196  -1.832  1.00  0.00    -0.224 NA
HETATM    7  C6  UNL     1       2.337  -1.215  -1.274  1.00  0.00     0.142 A 
HETATM    8  C13 UNL     1       1.202  -1.532  -0.554  1.00  0.00     0.039 A 
HETATM    9  C14 UNL     1       0.531  -0.460  -0.030  1.00  0.00     0.029 A 
HETATM   10  C15 UNL     1      -0.609  -0.765   0.701  1.00  0.00     0.004 A 
ENDROOT
BRANCH  10  11
HETATM   11  C16 UNL     1      -1.450   0.261   1.345  1.00  0.00     0.314 C 
BRANCH  11  12
HETATM   12  N4  UNL     1      -2.683   0.553   0.717  1.00  0.00     0.101 N 
HETATM   13  C17 UNL     1      -3.405   1.545   1.499  1.00  0.00     0.311 C 
BRANCH  12  14
HETATM   14  C18 UNL     1      -2.654   0.979  -0.638  1.00  0.00     0.309 C 
HETATM   15  C19 UNL     1      -1.890   2.245  -0.906  1.00  0.00     0.053 C 
BRANCH  14  16
HETATM   16  C20 UNL     1      -4.067   1.245  -1.037  1.00  0.00     0.248 C 
HETATM   17  N5  UNL     1      -5.307   1.136  -0.381  1.00  0.00    -0.368 N 
HETATM   18  H21 UNL     1      -5.922   1.709   0.269  1.00  0.00     0.159 HD
HETATM   19  H22 UNL     1      -6.053   0.400  -0.332  1.00  0.00     0.159 HD
HETATM   20  O2  UNL     1      -4.227   1.660  -2.209  1.00  0.00    -0.271 OA
ENDBRANCH  14  16
ENDBRANCH  12  14
ENDBRANCH  11  12
ENDBRANCH  10  11
BRANCH   1  21
HETATM   21  O1  UNL     1      -2.196  -2.345   1.630  1.00  0.00    -0.355 OA
HETATM   22  C1  UNL     1      -2.603  -3.676   1.797  1.00  0.00     0.210 C 
ENDBRANCH   1  21
BRANCH   7  23
HETATM   23  N3  UNL     1       2.884   0.065  -1.536  1.00  0.00    -0.340 N 
HETATM   24  H6  UNL     1       2.531   0.332  -2.457  1.00  0.00     0.167 HD
BRANCH  23  25
HETATM   25  C7  UNL     1       3.744   0.897  -0.777  1.00  0.00     0.036 A 
HETATM   26  C8  UNL     1       4.127   0.616   0.515  1.00  0.00     0.029 A 
HETATM   27  C9  UNL     1       4.964   1.447   1.218  1.00  0.00     0.005 A 
HETATM   28  C10 UNL     1       5.462   2.615   0.650  1.00  0.00     0.042 A 
HETATM   29  C11 UNL     1       5.055   2.874  -0.664  1.00  0.00     0.118 A 
HETATM   30  F1  UNL     1       5.514   4.012  -1.283  1.00  0.00    -0.206 F 
HETATM   31  C12 UNL     1       4.218   2.046  -1.374  1.00  0.00     0.071 A 
ENDBRANCH  23  25
ENDBRANCH   7  23
TORSDOF 7
