REMARK  6 active torsions:
REMARK  status: ('A' for Active; 'I' for Inactive)
REMARK    1  A    between atoms: O1_2  and  C2_3 
REMARK    2  A    between atoms: C6_9  and  N3_10 
REMARK    3  A    between atoms: C14_19  and  C15_20 
REMARK    4  A    between atoms: C15_20  and  N4_21 
REMARK    5  A    between atoms: N4_21  and  C17_23 
REMARK    6  A    between atoms: C17_23  and  C19_25 
REMARK       I    between atoms: C19_25  and  N5_26 
ROOT
HETATM    1  C2  UNL     1      -0.897  -2.128  -0.561  1.00  0.00     0.078 A 
HETATM    2  C3  UNL     1       0.046  -3.103  -0.381  1.00  0.00     0.070 A 
HETATM    3  C4  UNL     1       1.335  -2.734  -0.085  1.00  0.00     0.074 A 
HETATM    4  N1  UNL     1       2.277  -3.674   0.095  1.00  0.00    -0.241 NA
HETATM    5  C5  UNL     1       3.537  -3.331   0.383  1.00  0.00     0.236 A 
HETATM    6  N2  UNL     1       3.835  -2.024   0.487  1.00  0.00    -0.224 NA
HETATM    7  C6  UNL     1       2.914  -1.064   0.312  1.00  0.00     0.142 A 
HETATM    8  C12 UNL     1       1.635  -1.406   0.019  1.00  0.00     0.039 A 
HETATM    9  C13 UNL     1       0.662  -0.467  -0.169  1.00  0.00     0.029 A 
HETATM   10  C14 UNL     1      -0.674  -0.770  -0.472  1.00  0.00     0.004 A 
ENDROOT
BRANCH  10  11
HETATM   11  C15 UNL     1      -1.656   0.300  -0.643  1.00  0.00     0.314 C 
BRANCH  11  12
HETATM   12  N4  UNL     1      -2.500   0.566   0.466  1.00  0.00     0.101 N 
HETATM   13  C16 UNL     1      -3.309  -0.495   0.953  1.00  0.00     0.311 C 
BRANCH  12  14
HETATM   14  C17 UNL     1      -3.206   1.813   0.302  1.00  0.00     0.309 C 
HETATM   15  C18 UNL     1      -4.067   2.089   1.511  1.00  0.00     0.053 C 
BRANCH  14  16
HETATM   16  C19 UNL     1      -4.027   1.835  -0.943  1.00  0.00     0.248 C 
HETATM   17  N5  UNL     1      -4.694   3.087  -1.073  1.00  0.00    -0.368 N 
HETATM   18  H23 UNL     1      -4.964   4.090  -1.190  1.00  0.00     0.159 HD
HETATM   19  H24 UNL     1      -5.533   3.680  -1.111  1.00  0.00     0.159 HD
HETATM   20  O2  UNL     1      -4.386   1.167  -1.972  1.00  0.00    -0.271 OA
ENDBRANCH  14  16
ENDBRANCH  12  14
ENDBRANCH  11  12
ENDBRANCH  10  11
BRANCH   1  21
HETATM   21  O1  UNL     1      -2.173  -2.554  -0.857  1.00  0.00    -0.355 OA
HETATM   22  C1  UNL     1      -2.553  -3.898  -0.980  1.00  0.00     0.210 C 
ENDBRANCH   1  21
BRANCH   7  23
HETATM   23  N3  UNL     1       3.332   0.289   0.446  1.00  0.00    -0.331 N 
HETATM   24  C7  UNL     1       3.034   1.455   1.277  1.00  0.00     0.154 C 
HETATM   25  C8  UNL     1       4.329   1.878   1.925  1.00  0.00    -0.011 C 
HETATM   26  C9  UNL     1       5.307   2.129   1.040  1.00  0.00    -0.024 C 
HETATM   27  C10 UNL     1       4.953   1.951  -0.402  1.00  0.00     0.086 C 
HETATM   28  C11 UNL     1       4.367   0.568  -0.554  1.00  0.00     0.276 C 
HETATM   29  F1  UNL     1       5.388  -0.339  -0.307  1.00  0.00    -0.226 F 
ENDBRANCH   7  23
TORSDOF 6
