REMARK  8 active torsions:
REMARK  status: ('A' for Active; 'I' for Inactive)
REMARK    1  A    between atoms: O1_2  and  C2_3 
REMARK    2  A    between atoms: C6_9  and  N3_10 
REMARK    3  A    between atoms: N3_10  and  C7_11 
REMARK    4  A    between atoms: C15_21  and  C16_22 
REMARK    5  A    between atoms: C16_22  and  N4_23 
REMARK    6  A    between atoms: N4_23  and  C17_24 
REMARK    7  A    between atoms: C17_24  and  C19_26 
REMARK    8  A    between atoms: C19_26  and  N5_28 
ROOT
HETATM    1  C2  UNL     1      -1.241  -1.190  -1.323  1.00  0.00     0.078 A 
HETATM    2  C3  UNL     1      -0.466  -1.064  -2.458  1.00  0.00     0.070 A 
HETATM    3  C4  UNL     1       0.834  -0.646  -2.316  1.00  0.00     0.074 A 
HETATM    4  N1  UNL     1       1.543  -0.545  -3.459  1.00  0.00    -0.241 NA
HETATM    5  C5  UNL     1       2.824  -0.143  -3.373  1.00  0.00     0.236 A 
HETATM    6  N2  UNL     1       3.379   0.148  -2.192  1.00  0.00    -0.224 NA
HETATM    7  C6  UNL     1       2.733   0.068  -1.032  1.00  0.00     0.142 A 
HETATM    8  C13 UNL     1       1.430  -0.340  -1.107  1.00  0.00     0.039 A 
HETATM    9  C14 UNL     1       0.581  -0.495  -0.037  1.00  0.00     0.029 A 
HETATM   10  C15 UNL     1      -0.759  -0.910  -0.037  1.00  0.00    -0.006 A 
ENDROOT
BRANCH   7  11
HETATM   11  N3  UNL     1       3.287   0.366   0.234  1.00  0.00    -0.340 N 
HETATM   12  H6  UNL     1       2.742   0.318   1.092  1.00  0.00     0.167 HD
BRANCH  11  13
HETATM   13  C7  UNL     1       4.619   0.761   0.521  1.00  0.00     0.035 A 
HETATM   14  C8  UNL     1       5.637   0.741  -0.404  1.00  0.00     0.032 A 
HETATM   15  C9  UNL     1       6.934   1.128  -0.142  1.00  0.00     0.046 A 
HETATM   16  C10 UNL     1       7.280   1.570   1.108  1.00  0.00     0.138 A 
HETATM   17  F1  UNL     1       8.522   1.970   1.465  1.00  0.00    -0.204 F 
HETATM   18  C11 UNL     1       6.308   1.614   2.079  1.00  0.00     0.074 A 
HETATM   19 CL1  UNL     1       6.676   2.161   3.680  1.00  0.00    -0.081 Cl
HETATM   20  C12 UNL     1       5.034   1.214   1.754  1.00  0.00     0.056 A 
ENDBRANCH  11  13
ENDBRANCH   7  11
BRANCH  10  21
HETATM   21  C16 UNL     1      -1.528  -0.982   1.215  1.00  0.00     0.156 C 
BRANCH  21  22
HETATM   22  N4  UNL     1      -2.308   0.070   1.622  1.00  0.00    -0.411 N 
HETATM   23  H13 UNL     1      -1.692   0.774   2.138  1.00  0.00     0.153 HD
BRANCH  22  24
HETATM   24  C17 UNL     1      -3.372   0.700   1.011  1.00  0.00     0.105 C 
HETATM   25  C18 UNL     1      -3.122   1.337  -0.348  1.00  0.00     0.034 C 
BRANCH  24  26
HETATM   26  C19 UNL     1      -4.745   0.119   1.120  1.00  0.00     0.235 C 
HETATM   27  C20 UNL     1      -5.001  -1.227   0.603  1.00  0.00     0.044 C 
BRANCH  26  28
HETATM   28  N5  UNL     1      -5.178   0.243   2.510  1.00  0.00     0.084 N 
HETATM   29  H22 UNL     1      -4.320   0.138   3.123  1.00  0.00     0.313 HD
HETATM   30  H23 UNL     1      -5.488   1.246   2.684  1.00  0.00     0.313 HD
ENDBRANCH  26  28
ENDBRANCH  24  26
ENDBRANCH  22  24
ENDBRANCH  21  22
ENDBRANCH  10  21
BRANCH   1  31
HETATM   31  O1  UNL     1      -2.531  -1.610  -1.453  1.00  0.00    -0.355 OA
HETATM   32  C1  UNL     1      -3.210  -1.938  -2.637  1.00  0.00     0.210 C 
ENDBRANCH   1  31
TORSDOF 8
