REMARK  9 active torsions:
REMARK  status: ('A' for Active; 'I' for Inactive)
REMARK    1  A    between atoms: O1_2  and  C2_3 
REMARK    2  A    between atoms: C2_3  and  C15_21 
REMARK    3  A    between atoms: C3_4  and  C4_5 
REMARK    4  A    between atoms: C6_9  and  N3_10 
REMARK    5  A    between atoms: N3_10  and  C7_11 
REMARK    6  A    between atoms: C15_21  and  C16_22 
REMARK    7  A    between atoms: C16_22  and  N4_23 
REMARK    8  A    between atoms: N4_23  and  C18_25 
REMARK    9  A    between atoms: C18_25  and  C20_27 
REMARK       I    between atoms: C20_27  and  N5_28 
ROOT
HETATM    1  C4  UNL     1       1.068  -0.788   1.143  1.00  0.00     0.070 A 
HETATM    2  N1  UNL     1       1.376  -0.642   2.472  1.00  0.00    -0.241 NA
HETATM    3  C5  UNL     1       2.630  -0.400   2.875  1.00  0.00     0.235 A 
HETATM    4  N2  UNL     1       3.574  -0.305   1.963  1.00  0.00    -0.224 NA
HETATM    5  C6  UNL     1       3.424  -0.425   0.636  1.00  0.00     0.137 A 
HETATM    6  C13 UNL     1       2.129  -0.671   0.279  1.00  0.00     0.013 A 
HETATM    7  C14 UNL     1       1.835  -0.860  -1.163  1.00  0.00     0.055 C 
ENDROOT
BRANCH   1   8
HETATM    8  C3  UNL     1      -0.316  -1.055   0.809  1.00  0.00     0.064 C 
HETATM    9  C2  UNL     1      -1.313  -0.629   0.010  1.00  0.00     0.049 C 
BRANCH   9  10
HETATM   10  O1  UNL     1      -1.510   0.344  -0.946  1.00  0.00    -0.360 OA
HETATM   11  C1  UNL     1      -1.339   0.279  -2.316  1.00  0.00     0.209 C 
ENDBRANCH   9  10
BRANCH   9  12
HETATM   12  C15 UNL     1      -2.620  -1.265   0.027  1.00  0.00     0.095 C 
BRANCH  12  13
HETATM   13  C16 UNL     1      -3.786  -0.583   0.600  1.00  0.00     0.279 C 
BRANCH  13  14
HETATM   14  N4  UNL     1      -4.239   0.661   0.154  1.00  0.00     0.097 N 
HETATM   15  C17 UNL     1      -3.395   1.741   0.568  1.00  0.00     0.310 C 
BRANCH  14  16
HETATM   16  C18 UNL     1      -5.603   0.877   0.529  1.00  0.00     0.309 C 
HETATM   17  C19 UNL     1      -6.102   2.253   0.146  1.00  0.00     0.053 C 
BRANCH  16  18
HETATM   18  C20 UNL     1      -6.530  -0.087  -0.122  1.00  0.00     0.248 C 
HETATM   19  N5  UNL     1      -6.299  -1.117  -1.076  1.00  0.00    -0.368 N 
HETATM   20  H24 UNL     1      -6.270  -2.160  -1.009  1.00  0.00     0.159 HD
HETATM   21  H25 UNL     1      -6.088  -1.256  -2.111  1.00  0.00     0.159 HD
HETATM   22  O2  UNL     1      -7.771  -0.237   0.006  1.00  0.00    -0.271 OA
ENDBRANCH  16  18
ENDBRANCH  14  16
ENDBRANCH  13  14
ENDBRANCH  12  13
ENDBRANCH   9  12
ENDBRANCH   1   8
BRANCH   5  23
HETATM   23  N3  UNL     1       4.434  -0.325  -0.347  1.00  0.00    -0.340 N 
HETATM   24  H6  UNL     1       4.158  -0.431  -1.345  1.00  0.00     0.167 HD
BRANCH  23  25
HETATM   25  C7  UNL     1       5.810  -0.091  -0.131  1.00  0.00     0.035 A 
HETATM   26  C8  UNL     1       6.714  -0.109  -1.186  1.00  0.00     0.032 A 
HETATM   27  C9  UNL     1       8.061   0.112  -1.050  1.00  0.00     0.046 A 
HETATM   28  C10 UNL     1       8.595   0.372   0.191  1.00  0.00     0.138 A 
HETATM   29  F1  UNL     1       9.923   0.583   0.284  1.00  0.00    -0.204 F 
HETATM   30  C11 UNL     1       7.756   0.405   1.279  1.00  0.00     0.074 A 
HETATM   31 CL1  UNL     1       8.444   0.734   2.832  1.00  0.00    -0.081 Cl
HETATM   32  C12 UNL     1       6.417   0.175   1.075  1.00  0.00     0.056 A 
ENDBRANCH  23  25
ENDBRANCH   5  23
TORSDOF 9
