REMARK  4 active torsions:
REMARK  status: ('A' for Active; 'I' for Inactive)
REMARK    1  A    between atoms: O1_2  and  C2_3 
REMARK    2  A    between atoms: C5_6  and  C6_7 
REMARK    3  A    between atoms: C6_7  and  C7_9 
REMARK    4  A    between atoms: C14_17  and  C15_18 
REMARK       I    between atoms: C15_18  and  N1_19 
ROOT
HETATM    1  C2  UNL     1      -2.300   2.084   0.470  1.00  0.00     0.043 C 
HETATM    2  C3  UNL     1      -0.987   1.899   0.562  1.00  0.00     0.010 C 
HETATM    3  C4  UNL     1       0.009   1.129   1.232  1.00  0.00     0.065 C 
HETATM    4  C5  UNL     1       0.947   0.210   0.674  1.00  0.00    -0.051 C 
HETATM    5  C13 UNL     1       0.338  -1.020  -0.037  1.00  0.00     0.070 C 
HETATM    6  C14 UNL     1      -1.127  -0.702  -0.451  1.00  0.00     0.173 C 
HETATM    7  N2  UNL     1      -2.054  -0.965   0.583  1.00  0.00    -0.409 N 
HETATM    8  C16 UNL     1      -3.231  -0.246   0.859  1.00  0.00     0.121 C 
HETATM    9  C17 UNL     1      -2.967   1.155   1.415  1.00  0.00     0.083 C 
HETATM   10  H16 UNL     1      -2.019  -1.934   0.958  1.00  0.00     0.154 HD
ENDROOT
BRANCH   4  11
HETATM   11  C6  UNL     1       2.243   0.439   0.708  1.00  0.00     0.047 C 
HETATM   12 CL1  UNL     1       2.636   1.973   1.511  1.00  0.00    -0.083 Cl
BRANCH  11  13
HETATM   13  C7  UNL     1       3.482  -0.152   0.255  1.00  0.00    -0.014 A 
HETATM   14  C8  UNL     1       3.615  -0.591  -1.038  1.00  0.00     0.016 A 
HETATM   15  C9  UNL     1       4.777  -1.188  -1.501  1.00  0.00     0.043 A 
HETATM   16  C10 UNL     1       5.839  -1.350  -0.645  1.00  0.00     0.116 A 
HETATM   17  F1  UNL     1       7.007  -1.924  -1.028  1.00  0.00    -0.206 F 
HETATM   18  C11 UNL     1       5.718  -0.913   0.654  1.00  0.00     0.043 A 
HETATM   19  C12 UNL     1       4.543  -0.311   1.116  1.00  0.00     0.016 A 
ENDBRANCH  11  13
ENDBRANCH   4  11
BRANCH   6  20
HETATM   20  C15 UNL     1      -1.379  -1.916  -1.371  1.00  0.00     0.238 C 
HETATM   21  N1  UNL     1      -2.284  -3.011  -1.232  1.00  0.00    -0.368 N 
HETATM   22  H14 UNL     1      -3.307  -3.123  -1.461  1.00  0.00     0.159 HD
HETATM   23  H15 UNL     1      -1.941  -3.905  -0.837  1.00  0.00     0.159 HD
HETATM   24  O2  UNL     1      -0.814  -2.193  -2.473  1.00  0.00    -0.271 OA
ENDBRANCH   6  20
BRANCH   1  25
HETATM   25  O1  UNL     1      -2.865   3.012  -0.385  1.00  0.00    -0.360 OA
HETATM   26  C1  UNL     1      -4.221   3.255  -0.517  1.00  0.00     0.209 C 
ENDBRANCH   1  25
TORSDOF 4
