REMARK  7 active torsions:
REMARK  status: ('A' for Active; 'I' for Inactive)
REMARK    1  A    between atoms: C2_2  and  O1_3 
REMARK    2  A    between atoms: O1_3  and  C3_4 
REMARK    3  A    between atoms: C3_4  and  N1_5 
REMARK    4  A    between atoms: C3_4  and  N2_6 
REMARK    5  A    between atoms: N2_6  and  C4_7 
REMARK    6  A    between atoms: C4_7  and  N3_8 
REMARK    7  A    between atoms: C7_11  and  O2_12 
ROOT
HETATM    1  N3  UNL     1      -0.903  -1.012  -1.273  1.00  0.00    -0.339 N 
HETATM    2  C5  UNL     1      -1.352   0.305  -1.686  1.00  0.00     0.135 C 
HETATM    3  C6  UNL     1      -1.747   1.207  -0.566  1.00  0.00     0.127 C 
HETATM    4  C7  UNL     1      -1.956   1.088   0.782  1.00  0.00     0.065 C 
HETATM    5  C9  UNL     1      -2.031   0.315   2.077  1.00  0.00     0.007 C 
HETATM    6  C10 UNL     1      -1.829  -0.991   2.159  1.00  0.00     0.018 C 
HETATM    7  C11 UNL     1      -1.510  -2.001   1.154  1.00  0.00     0.118 C 
HETATM    8  N4  UNL     1      -1.230  -2.845   0.226  1.00  0.00    -0.243 NA
HETATM    9  C12 UNL     1      -1.090  -2.406  -1.106  1.00  0.00     0.133 C 
HETATM   10  C13 UNL     1      -1.067  -2.929  -2.272  1.00  0.00     0.106 C 
HETATM   11 BR1  UNL     1      -1.314  -4.804  -2.104  1.00  0.00    -0.060 Br
ENDROOT
BRANCH   1  12
HETATM   12  C4  UNL     1       0.411  -0.807  -0.689  1.00  0.00     0.402 C 
BRANCH  12  13
HETATM   13  N2  UNL     1       1.325  -0.206  -1.650  1.00  0.00     0.159 N 
HETATM   14  H9  UNL     1       1.380  -0.864  -2.452  1.00  0.00     0.323 HD
BRANCH  13  15
HETATM   15  C3  UNL     1       2.651  -0.004  -1.045  1.00  0.00     0.593 C 
BRANCH  15  16
HETATM   16  O1  UNL     1       2.576   0.833   0.043  1.00  0.00    -0.336 OA
BRANCH  16  17
HETATM   17  C2  UNL     1       3.018   0.210   1.217  1.00  0.00     0.168 C 
HETATM   18  C1  UNL     1       2.889   1.219   2.340  1.00  0.00     0.033 C 
ENDBRANCH  16  17
ENDBRANCH  15  16
BRANCH  15  19
HETATM   19  N1  UNL     1       3.491   0.604  -2.060  1.00  0.00     0.137 N 
HETATM   20  H7  UNL     1       3.075   1.532  -2.290  1.00  0.00     0.318 HD
HETATM   21  H8  UNL     1       4.492   0.630  -1.796  1.00  0.00     0.318 HD
ENDBRANCH  15  19
ENDBRANCH  13  15
ENDBRANCH  12  13
ENDBRANCH   1  12
BRANCH   4  22
HETATM   22  O2  UNL     1      -2.259   2.452   0.878  1.00  0.00    -0.386 OA
HETATM   23  C8  UNL     1      -3.541   2.963   1.116  1.00  0.00     0.202 C 
ENDBRANCH   4  22
TORSDOF 7
