REMARK  5 active torsions:
REMARK  status: ('A' for Active; 'I' for Inactive)
REMARK    1  A    between atoms: C4_5  and  O1_6 
REMARK    2  A    between atoms: C6_8  and  C7_9 
REMARK    3  A    between atoms: C7_9  and  N2_10 
REMARK    4  A    between atoms: N2_10  and  C9_12 
REMARK    5  A    between atoms: C9_12  and  C11_14 
REMARK       I    between atoms: C11_14  and  N3_15 
ROOT
HETATM    1  C1  UNL     1      -4.698  -1.538   0.335  1.00  0.00     0.178 C 
HETATM    2  N1  UNL     1      -3.355  -1.806   0.149  1.00  0.00    -0.293 NA
HETATM    3  C2  UNL     1      -2.280  -1.329  -0.065  1.00  0.00     0.066 A 
HETATM    4  C3  UNL     1      -1.186  -2.302  -0.147  1.00  0.00     0.069 A 
HETATM    5  C4  UNL     1       0.092  -2.025  -0.374  1.00  0.00     0.078 A 
HETATM    6  C6  UNL     1       0.526  -0.651  -0.570  1.00  0.00    -0.006 A 
HETATM    7  C12 UNL     1      -0.433   0.255  -0.504  1.00  0.00     0.028 A 
HETATM    8  C13 UNL     1      -1.853   0.041  -0.260  1.00  0.00     0.032 A 
HETATM    9  C14 UNL     1      -2.713   1.067  -0.199  1.00  0.00     0.103 C 
HETATM   10  N4  UNL     1      -2.624   2.545  -0.345  1.00  0.00    -0.326 N 
HETATM   11  C15 UNL     1      -3.805   2.303  -1.053  1.00  0.00     0.286 A 
HETATM   12  F1  UNL     1      -3.600   1.571  -2.252  1.00  0.00    -0.193 F 
HETATM   13  C16 UNL     1      -5.153   2.642  -0.798  1.00  0.00     0.099 A 
HETATM   14 CL1  UNL     1      -6.307   3.776  -1.450  1.00  0.00    -0.081 Cl
HETATM   15  C17 UNL     1      -5.426   1.809   0.180  1.00  0.00     0.098 A 
HETATM   16  N5  UNL     1      -4.096   1.364   0.072  1.00  0.00    -0.183 NA
HETATM   17  H20 UNL     1      -1.834   3.114   0.071  1.00  0.00     0.165 HD
ENDROOT
BRANCH   6  18
HETATM   18  C7  UNL     1       1.873  -0.100  -0.858  1.00  0.00     0.159 C 
BRANCH  18  19
HETATM   19  N2  UNL     1       2.871  -0.250   0.095  1.00  0.00    -0.401 N 
HETATM   20  C8  UNL     1       3.452  -1.496   0.376  1.00  0.00     0.144 C 
BRANCH  19  21
HETATM   21  C9  UNL     1       3.696   0.843   0.447  1.00  0.00     0.167 C 
HETATM   22  C10 UNL     1       4.493   1.434  -0.693  1.00  0.00     0.042 C 
BRANCH  21  23
HETATM   23  C11 UNL     1       2.970   1.925   1.175  1.00  0.00     0.237 C 
HETATM   24  N3  UNL     1       3.759   3.063   1.555  1.00  0.00    -0.368 N 
HETATM   25  H17 UNL     1       4.732   3.027   1.979  1.00  0.00     0.159 HD
HETATM   26  H18 UNL     1       3.562   4.099   1.500  1.00  0.00     0.159 HD
HETATM   27  O2  UNL     1       1.749   1.938   1.484  1.00  0.00    -0.271 OA
ENDBRANCH  21  23
ENDBRANCH  19  21
ENDBRANCH  18  19
ENDBRANCH   6  18
BRANCH   5  28
HETATM   28  O1  UNL     1       1.073  -2.999  -0.440  1.00  0.00    -0.355 OA
HETATM   29  C5  UNL     1       1.016  -4.069   0.480  1.00  0.00     0.210 C 
ENDBRANCH   5  28
TORSDOF 5
