REMARK  5 active torsions:
REMARK  status: ('A' for Active; 'I' for Inactive)
REMARK    1  A    between atoms: C3_3  and  C4_4 
REMARK       I    between atoms: C4_4  and  N1_6 
REMARK    2  A    between atoms: N1_6  and  C5_7 
REMARK    3  A    between atoms: C10_14  and  N4_15 
REMARK    4  A    between atoms: N4_15  and  S1_16 
REMARK    5  A    between atoms: S1_16  and  C11_17 
ROOT
HETATM    1  C1  UNL     1       6.290   3.702   0.220  1.00  0.00     0.112 C 
HETATM    2  C2  UNL     1       5.436   2.519   0.442  1.00  0.00    -0.101 C 
HETATM    3  C3  UNL     1       4.723   1.557   0.632  1.00  0.00    -0.006 C 
ENDROOT
BRANCH   3   4
HETATM    4  C4  UNL     1       3.896   0.400   0.852  1.00  0.00     0.300 C 
HETATM    5  O1  UNL     1       3.828  -0.119   1.997  1.00  0.00    -0.258 OA
HETATM    6  N1  UNL     1       3.183  -0.097  -0.279  1.00  0.00    -0.316 N 
HETATM    7  H4  UNL     1       3.238   0.332  -1.228  1.00  0.00     0.170 HD
BRANCH   6   8
HETATM    8  C5  UNL     1       2.306  -1.213  -0.338  1.00  0.00     0.036 A 
HETATM    9  C6  UNL     1       2.908  -2.436  -0.646  1.00  0.00     0.032 A 
HETATM   10  C7  UNL     1       2.210  -3.619  -0.745  1.00  0.00     0.035 A 
HETATM   11  C8  UNL     1       0.835  -3.620  -0.531  1.00  0.00     0.072 A 
HETATM   12  N2  UNL     1       0.067  -4.713  -0.602  1.00  0.00    -0.241 NA
HETATM   13  C17 UNL     1       0.253  -2.408  -0.227  1.00  0.00     0.043 A 
HETATM   14  C9  UNL     1      -1.262  -4.590  -0.374  1.00  0.00     0.236 A 
HETATM   15  N3  UNL     1      -1.864  -3.414  -0.074  1.00  0.00    -0.221 NA
HETATM   16  C10 UNL     1      -1.102  -2.290   0.005  1.00  0.00     0.170 A 
HETATM   17  C18 UNL     1       0.943  -1.230  -0.129  1.00  0.00     0.047 A 
BRANCH  16  18
HETATM   18  N4  UNL     1      -1.828  -1.122   0.323  1.00  0.00    -0.205 NA
BRANCH  18  19
HETATM   19  S1  UNL     1      -2.870  -0.439  -0.732  1.00  0.00    -0.075 SA
HETATM   20  H8  UNL     1      -2.502  -0.628  -2.112  1.00  0.00     0.120 HD
BRANCH  19  21
HETATM   21  C11 UNL     1      -3.774   1.059  -0.266  1.00  0.00     0.010 A 
HETATM   22  C12 UNL     1      -3.287   2.333  -0.063  1.00  0.00     0.019 A 
HETATM   23  C13 UNL     1      -4.171   3.321   0.288  1.00  0.00     0.003 A 
HETATM   24  C14 UNL     1      -5.521   3.080   0.444  1.00  0.00     0.019 A 
HETATM   25  C15 UNL     1      -6.017   1.809   0.243  1.00  0.00     0.012 A 
HETATM   26 BR1  UNL     1      -7.892   1.530   0.470  1.00  0.00    -0.051 Br
HETATM   27  C16 UNL     1      -5.137   0.810  -0.110  1.00  0.00     0.038 A 
ENDBRANCH  19  21
ENDBRANCH  18  19
ENDBRANCH  16  18
ENDBRANCH   6   8
ENDBRANCH   3   4
TORSDOF 5
