REMARK  8 active torsions:
REMARK  status: ('A' for Active; 'I' for Inactive)
REMARK    1  A    between atoms: C2_2  and  C3_4 
REMARK    2  A    between atoms: C3_4  and  C4_5 
REMARK    3  A    between atoms: C4_5  and  C5_6 
REMARK    4  A    between atoms: C5_6  and  C6_7 
REMARK    5  A    between atoms: C6_7  and  N1_8 
REMARK    6  A    between atoms: N1_8  and  C7_9 
REMARK    7  A    between atoms: C12_16  and  N4_17 
REMARK       I    between atoms: N4_17  and  C13_18 
REMARK    8  A    between atoms: C13_18  and  C14_20 
ROOT
HETATM    1  C14 UNL     1      -5.806   0.214   0.123  1.00  0.00    -0.006 C 
HETATM    2  C15 UNL     1      -6.884   0.697   0.367  1.00  0.00    -0.101 C 
HETATM    3  C16 UNL     1      -8.211   1.291   0.667  1.00  0.00     0.112 C 
ENDROOT
BRANCH   1   4
HETATM    4  C13 UNL     1      -4.515  -0.349  -0.185  1.00  0.00     0.300 C 
HETATM    5  N4  UNL     1      -3.532  -0.374   0.876  1.00  0.00    -0.316 N 
HETATM    6  H11 UNL     1      -3.809   0.019   1.803  1.00  0.00     0.170 HD
HETATM    7  O1  UNL     1      -4.375  -0.766  -1.363  1.00  0.00    -0.258 OA
BRANCH   5   8
HETATM    8  C12 UNL     1      -2.316  -0.963   0.423  1.00  0.00     0.036 A 
HETATM    9  C11 UNL     1      -2.397  -2.342   0.657  1.00  0.00     0.032 A 
HETATM   10  C10 UNL     1      -1.345  -3.193   0.302  1.00  0.00     0.035 A 
HETATM   11  C9  UNL     1      -0.214  -2.651  -0.288  1.00  0.00     0.072 A 
HETATM   12  N3  UNL     1       0.843  -3.427  -0.666  1.00  0.00    -0.241 NA
HETATM   13  C18 UNL     1      -0.166  -1.297  -0.503  1.00  0.00     0.041 A 
HETATM   14  C8  UNL     1       1.913  -2.853  -1.243  1.00  0.00     0.236 A 
HETATM   15  N2  UNL     1       1.942  -1.524  -1.445  1.00  0.00    -0.224 NA
HETATM   16  C7  UNL     1       0.944  -0.709  -1.099  1.00  0.00     0.141 A 
HETATM   17  C17 UNL     1      -1.193  -0.451  -0.159  1.00  0.00     0.047 A 
BRANCH  16  18
HETATM   18  N1  UNL     1       1.030   0.718  -1.324  1.00  0.00    -0.350 N 
HETATM   19  H7  UNL     1       0.488   1.378  -1.941  1.00  0.00     0.166 HD
BRANCH  18  20
HETATM   20  C6  UNL     1       2.081   1.126  -0.494  1.00  0.00     0.090 C 
BRANCH  20  21
HETATM   21  C5  UNL     1       2.971   1.517   0.346  1.00  0.00     0.017 C 
BRANCH  21  22
HETATM   22  C4  UNL     1       4.236   1.435  -0.395  1.00  0.00     0.002 C 
BRANCH  22  23
HETATM   23  C3  UNL     1       5.491   1.668  -0.137  1.00  0.00     0.015 C 
BRANCH  23  24
HETATM   24  C2  UNL     1       6.933   1.860  -0.079  1.00  0.00    -0.011 C 
HETATM   25  C1  UNL     1       7.899   2.234   0.760  1.00  0.00     0.051 C 
HETATM   26 BR1  UNL     1       7.551   1.423  -1.825  1.00  0.00    -0.056 Br
ENDBRANCH  23  24
ENDBRANCH  22  23
ENDBRANCH  21  22
ENDBRANCH  20  21
ENDBRANCH  18  20
ENDBRANCH  16  18
ENDBRANCH   5   8
ENDBRANCH   1   4
TORSDOF 8
