REMARK  4 active torsions:
REMARK  status: ('A' for Active; 'I' for Inactive)
REMARK    1  A    between atoms: N1_2  and  C3_4 
REMARK    2  A    between atoms: C3_4  and  C4_5 
REMARK    3  A    between atoms: C5_6  and  C6_7 
REMARK       I    between atoms: C6_7  and  N2_9 
REMARK    4  A    between atoms: N2_9  and  C7_10 
ROOT
HETATM    1  C7  UNL     1       0.319  -0.751  -0.724  1.00  0.00     0.018 C 
HETATM    2  C8  UNL     1       0.077  -1.410  -1.875  1.00  0.00     0.021 C 
HETATM    3  C9  UNL     1      -1.086  -2.171  -2.272  1.00  0.00     0.164 A 
HETATM    4  C10 UNL     1      -2.272  -2.684  -1.969  1.00  0.00     0.029 A 
HETATM    5  C11 UNL     1      -3.614  -3.176  -1.370  1.00  0.00     0.053 C 
HETATM    6  C12 UNL     1      -4.358  -1.965  -0.991  1.00  0.00     0.132 C 
HETATM    7  C13 UNL     1      -5.440  -1.963  -0.061  1.00  0.00     0.012 C 
HETATM    8 BR1  UNL     1      -6.651  -3.411  -0.071  1.00  0.00    -0.053 Br
HETATM    9  C14 UNL     1      -5.671  -1.009   0.830  1.00  0.00     0.018 C 
HETATM   10  C15 UNL     1      -4.820   0.165   0.984  1.00  0.00     0.018 C 
HETATM   11  C16 UNL     1      -3.728   0.285   0.218  1.00  0.00     0.093 C 
HETATM   12  N3  UNL     1      -3.491  -0.798  -0.669  1.00  0.00    -0.335 N 
HETATM   13  C17 UNL     1      -2.124  -0.327  -1.062  1.00  0.00     0.113 C 
HETATM   14  N4  UNL     1      -2.326   0.206  -2.282  1.00  0.00    -0.235 NA
HETATM   15  C18 UNL     1      -2.487  -0.768  -3.433  1.00  0.00     0.181 C 
HETATM   16  N5  UNL     1      -2.141  -2.149  -3.400  1.00  0.00    -0.260 NA
HETATM   17  C19 UNL     1      -1.013  -0.558  -0.042  1.00  0.00     0.135 C 
ENDROOT
BRANCH   1  18
HETATM   18  N2  UNL     1       1.336   0.018  -0.096  1.00  0.00    -0.320 N 
HETATM   19  C6  UNL     1       1.262   1.372   0.315  1.00  0.00     0.300 C 
HETATM   20  O1  UNL     1       0.335   2.195   0.236  1.00  0.00    -0.258 OA
HETATM   21  H9  UNL     1       2.180  -0.581   0.023  1.00  0.00     0.169 HD
BRANCH  19  22
HETATM   22  C5  UNL     1       2.465   1.865   0.925  1.00  0.00    -0.004 C 
HETATM   23  C4  UNL     1       3.500   2.287   1.426  1.00  0.00    -0.066 C 
BRANCH  23  24
HETATM   24  C3  UNL     1       4.733   2.805   2.026  1.00  0.00     0.365 C 
BRANCH  24  25
HETATM   25  N1  UNL     1       5.787   2.644   1.056  1.00  0.00     0.090 N 
HETATM   26  C1  UNL     1       7.006   3.150   1.636  1.00  0.00     0.310 C 
HETATM   27  C2  UNL     1       5.897   1.269   0.647  1.00  0.00     0.310 C 
ENDBRANCH  24  25
ENDBRANCH  23  24
ENDBRANCH  19  22
ENDBRANCH   1  18
TORSDOF 4
