REMARK  5 active torsions:
REMARK  status: ('A' for Active; 'I' for Inactive)
REMARK    1  A    between atoms: C4_4  and  N1_5 
REMARK    2  A    between atoms: N1_5  and  C5_6 
REMARK    3  A    between atoms: C9_10  and  C10_11 
REMARK    4  A    between atoms: C10_11  and  N2_12 
REMARK    5  A    between atoms: N2_12  and  C11_13 
ROOT
HETATM    1  C1  UNL     1       5.980   1.455   0.095  1.00  0.00     0.017 C 
HETATM    2  C2  UNL     1       5.780   0.407  -0.493  1.00  0.00    -0.088 C 
HETATM    3  C3  UNL     1       5.548  -0.846  -1.170  1.00  0.00     0.080 C 
HETATM    4  C4  UNL     1       4.308  -1.024  -1.600  1.00  0.00     0.093 C 
ENDROOT
BRANCH   4   5
HETATM    5  N1  UNL     1       3.548   0.127  -1.248  1.00  0.00    -0.376 N 
HETATM    6  H4  UNL     1       3.745   1.109  -1.562  1.00  0.00     0.161 HD
BRANCH   5   7
HETATM    7  C5  UNL     1       2.411  -0.240  -0.356  1.00  0.00     0.206 C 
HETATM    8  C6  UNL     1       1.702   1.035  -0.061  1.00  0.00     0.055 C 
HETATM    9  C7  UNL     1       0.464   0.992   0.749  1.00  0.00     0.068 C 
HETATM   10  C8  UNL     1      -0.594   0.183   0.045  1.00  0.00     0.052 C 
HETATM   11  C9  UNL     1      -1.772   0.667  -0.364  1.00  0.00     0.036 C 
HETATM   12  O1  UNL     1      -0.308  -1.183  -0.191  1.00  0.00    -0.309 OA
HETATM   13  C13 UNL     1       0.063  -1.892   0.976  1.00  0.00     0.259 C 
HETATM   14  N3  UNL     1       1.245  -1.434   0.773  1.00  0.00    -0.230 NA
HETATM   15  C14 UNL     1       2.335  -1.700   1.585  1.00  0.00     0.231 C 
HETATM   16  N4  UNL     1       2.922  -0.928   0.788  1.00  0.00    -0.257 NA
BRANCH  11  17
HETATM   17  C10 UNL     1      -3.027   0.257  -1.051  1.00  0.00     0.303 C 
BRANCH  17  18
HETATM   18  N2  UNL     1      -4.142   0.485  -0.152  1.00  0.00     0.120 N 
HETATM   19  H13 UNL     1      -3.968   0.143   0.800  1.00  0.00     0.319 HD
BRANCH  18  20
HETATM   20  C11 UNL     1      -5.390   0.111  -0.748  1.00  0.00     0.398 C 
HETATM   21  C12 UNL     1      -6.492   0.378   0.246  1.00  0.00     0.079 C 
HETATM   22  F1  UNL     1      -5.354  -1.229  -1.025  1.00  0.00    -0.217 F 
ENDBRANCH  18  20
ENDBRANCH  17  18
ENDBRANCH  11  17
ENDBRANCH   5   7
ENDBRANCH   4   5
TORSDOF 5
