REMARK  0 active torsions:
REMARK  status: ('A' for Active; 'I' for Inactive)
ROOT
HETATM    1  C1  UNL     1       0.434  -0.659  -4.718  1.00  0.00     0.046 C 
HETATM    2  C2  UNL     1       0.987  -0.863  -3.322  1.00  0.00     0.157 C 
HETATM    3  C3  UNL     1       0.707   0.224  -2.456  1.00  0.00    -0.068 C 
HETATM    4  C4  UNL     1       0.491   1.097  -1.739  1.00  0.00    -0.013 C 
HETATM    5  O1  UNL     1       0.247   2.092  -0.892  1.00  0.00     0.000 OA
HETATM    6  C5  UNL     1       0.658   2.055   0.456  1.00  0.00    -0.002 A 
HETATM    7  C6  UNL     1       0.602   2.258   1.733  1.00  0.00     0.080 A 
HETATM    8 BR1  UNL     1      -0.812   2.854   0.544  1.00  0.00    -0.074 Br
HETATM    9  C7  UNL     1      -0.209   2.853   2.759  1.00  0.00     0.034 C 
HETATM   10  C8  UNL     1       0.770   2.547   3.579  1.00  0.00     0.085 C 
HETATM   11  N1  UNL     1       0.764   1.332   3.987  1.00  0.00    -0.231 NA
HETATM   12  C9  UNL     1      -0.156   0.392   3.355  1.00  0.00     0.133 C 
HETATM   13  N2  UNL     1      -1.366   0.799   3.545  1.00  0.00    -0.226 NA
HETATM   14  C10 UNL     1      -2.479   0.433   2.770  1.00  0.00     0.235 C 
HETATM   15  N3  UNL     1      -2.368  -0.383   1.750  1.00  0.00    -0.246 NA
HETATM   16  C11 UNL     1      -1.063  -0.847   1.487  1.00  0.00     0.040 C 
HETATM   17  C12 UNL     1      -0.836  -1.163   0.229  1.00  0.00     0.012 C 
HETATM   18  C13 UNL     1       0.071  -1.644  -0.759  1.00  0.00     0.061 C 
HETATM   19  C14 UNL     1       1.096  -2.104  -1.413  1.00  0.00     0.066 C 
HETATM   20  N4  UNL     1       0.552  -2.159  -2.759  1.00  0.00    -0.387 N 
HETATM   21  C15 UNL     1      -0.077  -0.910   2.582  1.00  0.00     0.139 C 
HETATM   22  H11 UNL     1       0.044  -3.056  -2.914  1.00  0.00     0.159 HD
ENDROOT
TORSDOF 0
