REMARK  4 active torsions:
REMARK  status: ('A' for Active; 'I' for Inactive)
REMARK    1  A    between atoms: C1_2  and  N1_3 
REMARK    2  A    between atoms: N1_3  and  C2_4 
REMARK    3  A    between atoms: C6_8  and  N2_9 
REMARK    4  A    between atoms: N2_9  and  C7_10 
ROOT
HETATM    1  C2  UNL     1       2.208  -0.418   0.353  1.00  0.00     0.074 C 
HETATM    2  C3  UNL     1       2.727   0.613   1.192  1.00  0.00     0.042 C 
HETATM    3  C4  UNL     1       2.223   1.818   1.257  1.00  0.00    -0.020 C 
HETATM    4  C5  UNL     1       1.266   2.299   0.512  1.00  0.00     0.062 C 
HETATM    5  C6  UNL     1       0.797   1.334  -0.517  1.00  0.00     0.126 C 
HETATM    6  N3  UNL     1       0.696   0.808  -1.823  1.00  0.00    -0.233 NA
HETATM    7  C13 UNL     1      -0.091  -0.369  -1.780  1.00  0.00     0.402 C 
HETATM    8  N4  UNL     1       1.218  -0.965  -1.333  1.00  0.00     0.139 N 
HETATM    9  C14 UNL     1       0.736  -2.311  -1.106  1.00  0.00     0.302 A 
HETATM   10  C15 UNL     1       1.432  -1.619  -0.134  1.00  0.00     0.313 A 
ENDROOT
BRANCH   5  11
HETATM   11  N2  UNL     1      -0.237   0.897   0.462  1.00  0.00    -0.341 N 
HETATM   12  H4  UNL     1      -0.344   0.972   1.526  1.00  0.00     0.167 HD
BRANCH  11  13
HETATM   13  C7  UNL     1      -1.515   0.198   0.288  1.00  0.00     0.034 A 
HETATM   14  C8  UNL     1      -2.546   0.893  -0.382  1.00  0.00     0.029 A 
HETATM   15  C9  UNL     1      -3.785   0.342  -0.592  1.00  0.00     0.004 A 
HETATM   16  C10 UNL     1      -4.039  -0.926  -0.136  1.00  0.00     0.019 A 
HETATM   17  C11 UNL     1      -3.051  -1.621   0.521  1.00  0.00     0.013 A 
HETATM   18 BR1  UNL     1      -3.431  -3.381   1.141  1.00  0.00    -0.051 Br
HETATM   19  C12 UNL     1      -1.792  -1.079   0.739  1.00  0.00     0.048 A 
ENDBRANCH  11  13
ENDBRANCH   5  11
BRANCH   1  20
HETATM   20  N1  UNL     1       2.876   0.170  -0.618  1.00  0.00    -0.224 NA
BRANCH  20  21
HETATM   21  C1  UNL     1       3.688   1.281  -0.621  1.00  0.00     0.376 C 
HETATM   22  O1  UNL     1       3.789   2.295  -1.340  1.00  0.00    -0.281 OA
ENDBRANCH  20  21
ENDBRANCH   1  20
TORSDOF 4
