REMARK  4 active torsions:
REMARK  status: ('A' for Active; 'I' for Inactive)
REMARK    1  A    between atoms: C3_3  and  C4_4 
REMARK       I    between atoms: C4_4  and  N1_6 
REMARK    2  A    between atoms: N2_7  and  C5_8 
REMARK    3  A    between atoms: C9_13  and  N4_14 
REMARK    4  A    between atoms: N4_14  and  C10_15 
ROOT
HETATM    1  C1  UNL     1       8.051   1.445   0.387  1.00  0.00     0.112 C 
HETATM    2  C2  UNL     1       6.889   0.584   0.173  1.00  0.00    -0.101 C 
HETATM    3  C3  UNL     1       5.920  -0.133  -0.025  1.00  0.00    -0.002 C 
ENDROOT
BRANCH   3   4
HETATM    4  C4  UNL     1       4.754  -0.966  -0.256  1.00  0.00     0.339 C 
HETATM    5  O1  UNL     1       4.737  -2.013   0.476  1.00  0.00    -0.254 OA
HETATM    6  N1  UNL     1       3.857  -0.472  -1.242  1.00  0.00    -0.103 NA
HETATM    7  N2  UNL     1       2.597  -0.555  -1.116  1.00  0.00    -0.175 NA
BRANCH   7   8
HETATM    8  C5  UNL     1       2.022  -1.170   0.065  1.00  0.00     0.188 A 
HETATM    9  C6  UNL     1       1.389  -2.476  -0.261  1.00  0.00     0.016 A 
HETATM   10  C7  UNL     1       0.113  -2.155  -0.128  1.00  0.00    -0.031 A 
HETATM   11  C8  UNL     1      -1.359  -2.357  -0.127  1.00  0.00     0.190 A 
HETATM   12  C17 UNL     1       0.573  -0.811   0.218  1.00  0.00    -0.017 A 
HETATM   13  N3  UNL     1      -2.083  -1.181   0.220  1.00  0.00    -0.268 NA
HETATM   14  C9  UNL     1      -1.634  -0.032   0.513  1.00  0.00     0.123 A 
HETATM   15  C16 UNL     1      -0.217   0.206   0.523  1.00  0.00     0.060 A 
BRANCH  14  16
HETATM   16  N4  UNL     1      -2.569   1.018   0.834  1.00  0.00    -0.341 N 
HETATM   17  H8  UNL     1      -2.251   1.754   1.533  1.00  0.00     0.167 HD
BRANCH  16  18
HETATM   18  C10 UNL     1      -3.869   1.030   0.209  1.00  0.00     0.034 A 
HETATM   19  C11 UNL     1      -5.027   0.427   0.652  1.00  0.00     0.029 A 
HETATM   20  C12 UNL     1      -6.160   0.579  -0.121  1.00  0.00     0.004 A 
HETATM   21  C13 UNL     1      -6.144   1.307  -1.296  1.00  0.00     0.019 A 
HETATM   22  C14 UNL     1      -4.985   1.910  -1.738  1.00  0.00     0.013 A 
HETATM   23 BR1  UNL     1      -5.006   2.910  -3.372  1.00  0.00    -0.051 Br
HETATM   24  C15 UNL     1      -3.832   1.771  -0.977  1.00  0.00     0.048 A 
ENDBRANCH  16  18
ENDBRANCH  14  16
ENDBRANCH   7   8
ENDBRANCH   3   4
TORSDOF 4
