REMARK  6 active torsions:
REMARK  status: ('A' for Active; 'I' for Inactive)
REMARK    1  A    between atoms: N1_2  and  C2_3 
REMARK    2  A    between atoms: C2_3  and  C3_4 
REMARK    3  A    between atoms: C4_5  and  C5_6 
REMARK    4  A    between atoms: C5_6  and  C6_7 
REMARK       I    between atoms: C6_7  and  N2_9 
REMARK    5  A    between atoms: C11_16  and  N5_17 
REMARK    6  A    between atoms: N5_17  and  C12_18 
ROOT
HETATM    1  C6  UNL     1       1.756   1.576  -0.013  1.00  0.00     0.238 C 
HETATM    2  O1  UNL     1       1.156   2.694  -0.069  1.00  0.00    -0.272 OA
HETATM    3  N2  UNL     1       0.904   0.459   0.143  1.00  0.00    -0.302 N 
HETATM    4  C7  UNL     1       1.415  -0.853   0.237  1.00  0.00     0.098 A 
HETATM    5  C8  UNL     1       0.641  -1.898   0.366  1.00  0.00     0.023 A 
HETATM    6  C9  UNL     1      -0.804  -1.743   0.409  1.00  0.00     0.171 A 
HETATM    7  N3  UNL     1      -1.499  -2.568   1.363  1.00  0.00    -0.269 NA
HETATM    8  C10 UNL     1      -2.712  -2.144   1.687  1.00  0.00     0.230 C 
HETATM    9  N4  UNL     1      -3.387  -0.980   1.228  1.00  0.00    -0.224 NA
HETATM   10  C11 UNL     1      -2.817  -0.137   0.403  1.00  0.00     0.139 C 
HETATM   11  C18 UNL     1      -1.350  -0.397   0.336  1.00  0.00     0.032 A 
HETATM   12  C19 UNL     1      -0.486   0.598   0.203  1.00  0.00     0.113 A 
ENDROOT
BRANCH   1  13
HETATM   13  C5  UNL     1       3.122   2.011  -0.144  1.00  0.00     0.197 C 
BRANCH  13  14
HETATM   14  C4  UNL     1       4.122   0.916  -0.220  1.00  0.00    -0.096 C 
HETATM   15  C3  UNL     1       4.956   0.033  -0.288  1.00  0.00    -0.076 C 
BRANCH  15  16
HETATM   16  C2  UNL     1       5.965  -1.026  -0.344  1.00  0.00     0.362 C 
BRANCH  16  17
HETATM   17  N1  UNL     1       7.094  -0.598   0.479  1.00  0.00     0.089 N 
HETATM   18  C1  UNL     1       8.142  -1.624   0.454  1.00  0.00     0.307 C 
HETATM   19  H4  UNL     1       7.440   0.324   0.147  1.00  0.00     0.316 HD
ENDBRANCH  16  17
ENDBRANCH  15  16
ENDBRANCH  13  14
ENDBRANCH   1  13
BRANCH  10  20
HETATM   20  N5  UNL     1      -3.257   1.057  -0.216  1.00  0.00    -0.340 N 
HETATM   21  H13 UNL     1      -2.653   1.733  -0.718  1.00  0.00     0.167 HD
BRANCH  20  22
HETATM   22  C12 UNL     1      -4.665   1.231  -0.072  1.00  0.00     0.035 A 
HETATM   23  C13 UNL     1      -5.418   1.858   0.895  1.00  0.00     0.029 A 
HETATM   24  C14 UNL     1      -6.785   1.873   0.778  1.00  0.00     0.004 A 
HETATM   25  C15 UNL     1      -7.436   1.278  -0.282  1.00  0.00     0.019 A 
HETATM   26  C16 UNL     1      -6.701   0.642  -1.266  1.00  0.00     0.013 A 
HETATM   27 BR1  UNL     1      -7.659  -0.155  -2.696  1.00  0.00    -0.051 Br
HETATM   28  C17 UNL     1      -5.314   0.627  -1.148  1.00  0.00     0.048 A 
ENDBRANCH  20  22
ENDBRANCH  10  20
TORSDOF 6
