REMARK  0 active torsions:
REMARK  status: ('A' for Active; 'I' for Inactive)
ROOT
HETATM    1  C1  UNL     1      -4.932  -0.361  -0.376  1.00  0.00     0.159 C 
HETATM    2  N1  UNL     1      -3.727  -0.188   0.410  1.00  0.00    -0.352 N 
HETATM    3  C2  UNL     1      -2.834  -1.095   0.018  1.00  0.00    -0.033 C 
HETATM    4  C3  UNL     1      -2.053  -1.861  -0.327  1.00  0.00     0.068 A 
HETATM    5  C4  UNL     1      -1.090  -2.773  -0.753  1.00  0.00     0.288 A 
HETATM    6  O1  UNL     1      -0.450  -1.893  -0.053  1.00  0.00     0.000 OA
HETATM    7  N2  UNL     1       0.315  -2.856  -0.548  1.00  0.00     0.140 N 
HETATM    8  C5  UNL     1       1.579  -2.395  -0.011  1.00  0.00     0.169 A 
HETATM    9  C6  UNL     1       2.205  -3.047   1.015  1.00  0.00     0.042 A 
HETATM   10  C7  UNL     1       3.370  -2.459   1.445  1.00  0.00     0.035 A 
HETATM   11  C8  UNL     1       3.864  -1.309   0.885  1.00  0.00     0.072 A 
HETATM   12  N3  UNL     1       5.019  -0.904   1.474  1.00  0.00    -0.241 NA
HETATM   13  C9  UNL     1       5.597   0.240   1.002  1.00  0.00     0.236 A 
HETATM   14  N4  UNL     1       4.997   0.914  -0.025  1.00  0.00    -0.222 NA
HETATM   15  C10 UNL     1       3.865   0.504  -0.591  1.00  0.00     0.163 A 
HETATM   16  C11 UNL     1       3.247  -0.644  -0.146  1.00  0.00     0.043 A 
HETATM   17  C12 UNL     1       2.103  -1.251  -0.544  1.00  0.00     0.057 A 
HETATM   18  N5  UNL     1       3.471   1.380  -1.643  1.00  0.00    -0.241 NA
HETATM   19  C13 UNL     1       2.265   1.869  -1.729  1.00  0.00     0.115 C 
HETATM   20  C14 UNL     1       0.837   2.111  -1.340  1.00  0.00    -0.000 C 
HETATM   21  C15 UNL     1      -0.278   2.808  -1.801  1.00  0.00     0.084 C 
HETATM   22  C16 UNL     1      -1.066   2.288  -0.621  1.00  0.00     0.017 A 
HETATM   23 BR1  UNL     1      -0.818   1.364   1.073  1.00  0.00    -0.155 Br
HETATM   24  C17 UNL     1      -2.304   2.334  -0.080  1.00  0.00     0.064 A 
HETATM   25  C18 UNL     1      -3.567   2.236   0.687  1.00  0.00     0.036 C 
HETATM   26  C19 UNL     1      -3.654   0.893   1.398  1.00  0.00     0.133 C 
HETATM   27  H4  UNL     1       0.639  -3.726  -1.084  1.00  0.00     0.325 HD
ENDROOT
TORSDOF 0
