REMARK  0 active torsions:
REMARK  status: ('A' for Active; 'I' for Inactive)
ROOT
HETATM    1  C1  UNL     1       2.840   0.016   1.331  1.00  0.00     0.019 C 
HETATM    2  C2  UNL     1       1.843   0.657   0.262  1.00  0.00     0.041 C 
HETATM    3  C3  UNL     1       2.802   1.352  -0.507  1.00  0.00    -0.005 C 
HETATM    4  C4  UNL     1       2.366   1.988  -1.593  1.00  0.00    -0.024 C 
HETATM    5  C5  UNL     1       2.024   3.184  -1.261  1.00  0.00     0.086 C 
HETATM    6  C6  UNL     1       0.792   2.931  -0.546  1.00  0.00     0.246 C 
HETATM    7  O1  UNL     1       0.344   3.349   0.553  1.00  0.00    -0.268 OA
HETATM    8  N1  UNL     1      -0.338   2.146  -0.804  1.00  0.00    -0.327 N 
HETATM    9  C7  UNL     1      -1.574   1.714  -0.340  1.00  0.00     0.014 C 
HETATM   10  C8  UNL     1      -2.694   1.496  -0.976  1.00  0.00     0.027 C 
HETATM   11  C9  UNL     1      -3.525   0.405  -0.408  1.00  0.00     0.031 C 
HETATM   12  C10 UNL     1      -3.185  -0.297   0.632  1.00  0.00     0.061 C 
HETATM   13  N2  UNL     1      -3.846  -1.399   1.235  1.00  0.00    -0.245 NA
HETATM   14  C11 UNL     1      -3.047  -2.386   1.652  1.00  0.00     0.223 C 
HETATM   15  N3  UNL     1      -1.590  -2.239   1.461  1.00  0.00    -0.291 N 
HETATM   16  N4  UNL     1      -1.025  -1.032   0.841  1.00  0.00    -0.280 N 
HETATM   17  C12 UNL     1       0.086  -1.277  -0.012  1.00  0.00     0.060 A 
HETATM   18  C13 UNL     1      -0.091  -2.467  -0.754  1.00  0.00     0.032 A 
HETATM   19  C14 UNL     1       0.731  -3.071  -1.691  1.00  0.00     0.004 A 
HETATM   20  C15 UNL     1       1.891  -2.339  -1.880  1.00  0.00     0.020 A 
HETATM   21  C16 UNL     1       2.150  -1.163  -1.199  1.00  0.00     0.020 A 
HETATM   22 BR1  UNL     1       3.861  -0.565  -1.792  1.00  0.00    -0.050 Br
HETATM   23  C17 UNL     1       1.273  -0.632  -0.281  1.00  0.00    -0.005 A 
HETATM   24  C18 UNL     1      -1.848   0.006   1.316  1.00  0.00     0.166 C 
HETATM   25  C19 UNL     1      -1.546   1.443   1.094  1.00  0.00     0.090 C 
HETATM   26  H7  UNL     1      -0.176   1.762  -1.725  1.00  0.00     0.169 HD
HETATM   27  H11 UNL     1      -0.941  -3.043   1.732  1.00  0.00     0.188 HD
ENDROOT
TORSDOF 0
