REMARK  8 active torsions:
REMARK  status: ('A' for Active; 'I' for Inactive)
REMARK    1  A    between atoms: N1_2  and  C3_4 
REMARK    2  A    between atoms: C3_4  and  C4_5 
REMARK    3  A    between atoms: C5_6  and  C6_7 
REMARK    4  A    between atoms: C6_7  and  N2_8 
REMARK    5  A    between atoms: N2_8  and  C7_9 
REMARK    6  A    between atoms: C11_13  and  C19_24 
REMARK    7  A    between atoms: N3_15  and  N4_16 
REMARK    8  A    between atoms: N4_16  and  C13_17 
ROOT
HETATM    1  C7  UNL     1      -0.706  -0.234  -1.357  1.00  0.00     0.049 A 
HETATM    2  C8  UNL     1      -0.115   0.032  -2.602  1.00  0.00     0.024 A 
HETATM    3  C9  UNL     1      -0.825  -0.967  -3.226  1.00  0.00    -0.010 A 
HETATM    4  C10 UNL     1      -1.741  -1.824  -2.688  1.00  0.00     0.045 A 
HETATM    5  C11 UNL     1      -2.460  -2.393  -1.941  1.00  0.00     0.089 A 
HETATM    6  C12 UNL     1      -1.693  -1.315  -1.269  1.00  0.00     0.247 A 
HETATM    7  N3  UNL     1      -2.146  -1.387   0.107  1.00  0.00     0.220 N 
HETATM    8  C19 UNL     1      -2.927  -2.452  -0.468  1.00  0.00     0.297 A 
HETATM    9  N5  UNL     1      -2.178  -1.888  -1.343  1.00  0.00     0.000 N 
ENDROOT
BRANCH   1  10
HETATM   10  N2  UNL     1      -0.381   0.525  -0.206  1.00  0.00    -0.381 N 
HETATM   11  H11 UNL     1      -0.521   0.694   0.760  1.00  0.00     0.160 HD
BRANCH  10  12
HETATM   12  C6  UNL     1       0.604   1.508  -0.568  1.00  0.00     0.214 C 
BRANCH  12  13
HETATM   13  C5  UNL     1       1.848   0.769  -0.844  1.00  0.00    -0.085 C 
HETATM   14  C4  UNL     1       2.872   0.168  -1.057  1.00  0.00    -0.075 C 
BRANCH  14  15
HETATM   15  C3  UNL     1       4.119  -0.563  -1.290  1.00  0.00     0.364 C 
BRANCH  15  16
HETATM   16  N1  UNL     1       5.099  -0.174  -0.267  1.00  0.00     0.090 N 
HETATM   17  C1  UNL     1       6.339  -0.889  -0.484  1.00  0.00     0.310 C 
HETATM   18  C2  UNL     1       5.267   1.246  -0.211  1.00  0.00     0.310 C 
ENDBRANCH  15  16
ENDBRANCH  14  15
ENDBRANCH  12  13
ENDBRANCH  10  12
ENDBRANCH   1  10
BRANCH   7  19
HETATM   19  N4  UNL     1      -1.993  -0.799   1.394  1.00  0.00    -0.188 N 
HETATM   20  H15 UNL     1      -1.222  -0.988   2.096  1.00  0.00     0.196 HD
BRANCH  19  21
HETATM   21  C13 UNL     1      -2.991   0.151   1.878  1.00  0.00     0.058 A 
HETATM   22  C14 UNL     1      -2.940   0.771   3.085  1.00  0.00     0.031 A 
HETATM   23  C15 UNL     1      -3.901   1.658   3.498  1.00  0.00     0.004 A 
HETATM   24  C16 UNL     1      -4.959   1.929   2.652  1.00  0.00     0.019 A 
HETATM   25  C17 UNL     1      -5.041   1.316   1.419  1.00  0.00     0.013 A 
HETATM   26 BR1  UNL     1      -6.560   1.781   0.340  1.00  0.00    -0.051 Br
HETATM   27  C18 UNL     1      -4.063   0.424   1.019  1.00  0.00     0.050 A 
ENDBRANCH  19  21
ENDBRANCH   7  19
TORSDOF 8
