REMARK  7 active torsions:
REMARK  status: ('A' for Active; 'I' for Inactive)
REMARK    1  A    between atoms: N1_2  and  C3_4 
REMARK    2  A    between atoms: C3_4  and  C4_5 
REMARK    3  A    between atoms: C5_6  and  C6_7 
REMARK       I    between atoms: C6_7  and  N2_9 
REMARK    4  A    between atoms: N2_9  and  C7_10 
REMARK    5  A    between atoms: C13_16  and  N3_17 
REMARK    6  A    between atoms: N3_17  and  C14_18 
REMARK    7  A    between atoms: N4_25  and  P1_26 
ROOT
HETATM    1  C7  UNL     1       0.407  -0.964  -1.480  1.00  0.00     0.036 A 
HETATM    2  C8  UNL     1       0.387  -1.445  -2.772  1.00  0.00     0.032 A 
HETATM    3  C9  UNL     1      -0.801  -1.970  -3.238  1.00  0.00     0.034 A 
HETATM    4  C10 UNL     1      -1.939  -2.025  -2.471  1.00  0.00     0.068 A 
HETATM    5  C11 UNL     1      -1.946  -1.553  -1.182  1.00  0.00     0.015 A 
HETATM    6  C12 UNL     1      -0.746  -1.015  -0.690  1.00  0.00     0.043 A 
HETATM    7  C13 UNL     1      -2.940  -1.447  -0.082  1.00  0.00     0.225 A 
HETATM    8  N4  UNL     1      -4.179  -2.013  -0.650  1.00  0.00    -0.329 N 
HETATM    9  C20 UNL     1      -4.203  -2.517  -1.997  1.00  0.00     0.211 A 
HETATM   10  N5  UNL     1      -3.214  -2.533  -2.831  1.00  0.00    -0.243 NA
ENDROOT
BRANCH   1  11
HETATM   11  N2  UNL     1       1.668  -0.441  -1.079  1.00  0.00    -0.316 N 
HETATM   12  C6  UNL     1       2.340   0.815  -1.104  1.00  0.00     0.301 C 
HETATM   13  O1  UNL     1       1.793   1.853  -1.587  1.00  0.00    -0.258 OA
HETATM   14  H9  UNL     1       2.131  -1.304  -0.674  1.00  0.00     0.170 HD
BRANCH  12  15
HETATM   15  C5  UNL     1       3.667   0.826  -0.550  1.00  0.00    -0.004 C 
HETATM   16  C4  UNL     1       4.792   0.852  -0.086  1.00  0.00    -0.066 C 
BRANCH  16  17
HETATM   17  C3  UNL     1       6.156   0.899   0.479  1.00  0.00     0.365 C 
BRANCH  17  18
HETATM   18  N1  UNL     1       7.123   0.803  -0.601  1.00  0.00     0.090 N 
HETATM   19  C1  UNL     1       8.459   0.847  -0.076  1.00  0.00     0.310 C 
HETATM   20  C2  UNL     1       6.840   1.875  -1.524  1.00  0.00     0.310 C 
ENDBRANCH  17  18
ENDBRANCH  16  17
ENDBRANCH  12  15
ENDBRANCH   1  11
BRANCH   7  21
HETATM   21  N3  UNL     1      -3.265  -0.023   0.090  1.00  0.00    -0.364 N 
HETATM   22  H14 UNL     1      -2.937   0.653  -0.664  1.00  0.00     0.162 HD
BRANCH  21  23
HETATM   23  C14 UNL     1      -3.970   0.668   1.122  1.00  0.00     0.031 A 
HETATM   24  C15 UNL     1      -4.254   2.022   1.119  1.00  0.00     0.029 A 
HETATM   25  C16 UNL     1      -4.921   2.551   2.195  1.00  0.00     0.004 A 
HETATM   26  C17 UNL     1      -5.339   1.846   3.294  1.00  0.00     0.019 A 
HETATM   27  C18 UNL     1      -5.053   0.486   3.295  1.00  0.00     0.013 A 
HETATM   28 BR1  UNL     1      -5.640  -0.483   4.829  1.00  0.00    -0.051 Br
HETATM   29  C19 UNL     1      -4.384  -0.071   2.226  1.00  0.00     0.048 A 
ENDBRANCH  21  23
ENDBRANCH   7  21
BRANCH   8  30
HETATM   30  P1  UNL     1      -5.830  -2.240   0.010  1.00  0.00    -0.035 P 
HETATM   31  H19 UNL     1      -6.598  -1.030   0.063  1.00  0.00     0.077 HD
HETATM   32  H20 UNL     1      -5.703  -2.772   1.356  1.00  0.00     0.077 HD
ENDBRANCH   8  30
TORSDOF 7
