REMARK  7 active torsions:
REMARK  status: ('A' for Active; 'I' for Inactive)
REMARK    1  A    between atoms: N1_2  and  C2_3 
REMARK    2  A    between atoms: C2_3  and  C3_4 
REMARK    3  A    between atoms: C4_5  and  C5_6 
REMARK       I    between atoms: C5_6  and  N2_8 
REMARK    4  A    between atoms: N2_8  and  C6_9 
REMARK    5  A    between atoms: C10_14  and  C11_15 
REMARK    6  A    between atoms: C11_15  and  N3_16 
REMARK    7  A    between atoms: N3_16  and  C12_17 
ROOT
HETATM    1  C6  UNL     1       1.507   0.506  -0.822  1.00  0.00     0.036 A 
HETATM    2  C7  UNL     1       1.443   0.756  -2.199  1.00  0.00     0.031 A 
HETATM    3  C8  UNL     1       0.245   0.586  -2.904  1.00  0.00     0.022 A 
HETATM    4  C9  UNL     1      -0.850   0.163  -2.171  1.00  0.00     0.019 A 
HETATM    5 BR1  UNL     1      -2.489  -0.067  -3.144  1.00  0.00    -0.051 Br
HETATM    6  C10 UNL     1      -0.769  -0.083  -0.793  1.00  0.00    -0.021 A 
HETATM    7  C19 UNL     1       0.415   0.089  -0.115  1.00  0.00     0.039 A 
ENDROOT
BRANCH   6   8
HETATM    8  C11 UNL     1      -2.038  -0.548  -0.176  1.00  0.00     0.155 C 
BRANCH   8   9
HETATM    9  N3  UNL     1      -3.015   0.475   0.003  1.00  0.00    -0.407 N 
HETATM   10  H12 UNL     1      -3.101   1.177  -0.734  1.00  0.00     0.154 HD
BRANCH   9  11
HETATM   11  C12 UNL     1      -4.222  -0.026   0.569  1.00  0.00     0.124 C 
HETATM   12  C13 UNL     1      -5.164   1.118   0.791  1.00  0.00     0.002 C 
HETATM   13  C14 UNL     1      -6.485   1.253   0.987  1.00  0.00    -0.002 C 
HETATM   14  C15 UNL     1      -7.398   0.095   1.026  1.00  0.00     0.001 C 
HETATM   15  C16 UNL     1      -7.274  -1.120   0.462  1.00  0.00     0.019 C 
HETATM   16  C17 UNL     1      -6.107  -1.524  -0.354  1.00  0.00     0.009 C 
HETATM   17 BR2  UNL     1      -6.564  -2.899  -1.625  1.00  0.00    -0.051 Br
HETATM   18  C18 UNL     1      -4.866  -1.062  -0.294  1.00  0.00     0.021 C 
ENDBRANCH   9  11
ENDBRANCH   8   9
ENDBRANCH   6   8
BRANCH   1  19
HETATM   19  N2  UNL     1       2.804   0.728  -0.282  1.00  0.00    -0.316 N 
HETATM   20  C5  UNL     1       3.547  -0.489  -0.359  1.00  0.00     0.301 C 
HETATM   21  O1  UNL     1       3.008  -1.510  -0.845  1.00  0.00    -0.258 OA
HETATM   22  H7  UNL     1       3.337   1.535   0.145  1.00  0.00     0.170 HD
BRANCH  20  23
HETATM   23  C4  UNL     1       4.903  -0.656   0.085  1.00  0.00    -0.004 C 
HETATM   24  C3  UNL     1       6.050  -0.798   0.439  1.00  0.00    -0.066 C 
BRANCH  24  25
HETATM   25  C2  UNL     1       7.431  -0.981   0.882  1.00  0.00     0.362 C 
BRANCH  25  26
HETATM   26  N1  UNL     1       7.981   0.179   1.551  1.00  0.00     0.089 N 
HETATM   27  C1  UNL     1       8.107   1.203   0.510  1.00  0.00     0.307 C 
HETATM   28  H4  UNL     1       7.240   0.527   2.196  1.00  0.00     0.316 HD
ENDBRANCH  25  26
ENDBRANCH  24  25
ENDBRANCH  20  23
ENDBRANCH   1  19
TORSDOF 7
