REMARK  6 active torsions:
REMARK  status: ('A' for Active; 'I' for Inactive)
REMARK    1  A    between atoms: N1_2  and  C3_4 
REMARK    2  A    between atoms: C3_4  and  C4_5 
REMARK    3  A    between atoms: C5_6  and  C6_7 
REMARK       I    between atoms: C6_7  and  N2_9 
REMARK    4  A    between atoms: N2_9  and  C7_10 
REMARK    5  A    between atoms: C10_15  and  N5_16 
REMARK    6  A    between atoms: N5_16  and  C11_17 
ROOT
HETATM    1  C7  UNL     1      -0.002   0.001  -0.504  1.00  0.00     0.133 C 
HETATM    2  C8  UNL     1       0.485   1.389  -0.596  1.00  0.00     0.021 C 
HETATM    3  C9  UNL     1       1.454   2.253  -0.299  1.00  0.00     0.107 C 
HETATM    4  N3  UNL     1       2.670   1.980   0.418  1.00  0.00    -0.288 N 
HETATM    5  N4  UNL     1       3.344   0.808   0.847  1.00  0.00    -0.157 NA
HETATM    6  C10 UNL     1       2.920  -0.357   1.191  1.00  0.00     0.147 C 
HETATM    7  C17 UNL     1       1.617  -0.991   1.297  1.00  0.00     0.050 C 
HETATM    8  C18 UNL     1       0.484  -0.809   0.593  1.00  0.00     0.006 C 
HETATM    9  H13 UNL     1       3.143   2.898   0.665  1.00  0.00     0.188 HD
ENDROOT
BRANCH   1  10
HETATM   10  N2  UNL     1      -1.445  -0.053  -0.631  1.00  0.00    -0.339 N 
HETATM   11  C6  UNL     1      -2.282  -0.599  -1.625  1.00  0.00     0.297 C 
HETATM   12  O1  UNL     1      -1.811  -1.191  -2.658  1.00  0.00    -0.258 OA
HETATM   13  H9  UNL     1      -1.814   0.430   0.228  1.00  0.00     0.164 HD
BRANCH  11  14
HETATM   14  C5  UNL     1      -3.704  -0.516  -1.526  1.00  0.00    -0.004 C 
HETATM   15  C4  UNL     1      -4.905  -0.431  -1.458  1.00  0.00    -0.066 C 
BRANCH  15  16
HETATM   16  C3  UNL     1      -6.365  -0.303  -1.381  1.00  0.00     0.365 C 
BRANCH  16  17
HETATM   17  N1  UNL     1      -6.661   0.598  -0.291  1.00  0.00     0.090 N 
HETATM   18  C1  UNL     1      -6.344  -0.026   0.944  1.00  0.00     0.310 C 
HETATM   19  C2  UNL     1      -8.022   1.050  -0.396  1.00  0.00     0.310 C 
ENDBRANCH  16  17
ENDBRANCH  15  16
ENDBRANCH  11  14
ENDBRANCH   1  10
BRANCH   6  20
HETATM   20  N5  UNL     1       4.031  -1.206   1.550  1.00  0.00    -0.340 N 
HETATM   21  H14 UNL     1       3.809  -1.953   2.276  1.00  0.00     0.167 HD
BRANCH  20  22
HETATM   22  C11 UNL     1       5.291  -0.935   0.881  1.00  0.00     0.035 A 
HETATM   23  C12 UNL     1       5.636  -1.564  -0.315  1.00  0.00     0.029 A 
HETATM   24  C13 UNL     1       6.837  -1.266  -0.921  1.00  0.00     0.004 A 
HETATM   25  C14 UNL     1       7.670  -0.353  -0.330  1.00  0.00     0.019 A 
HETATM   26  C15 UNL     1       7.346   0.290   0.870  1.00  0.00     0.013 A 
HETATM   27 BR1  UNL     1       8.614   1.535   1.555  1.00  0.00    -0.051 Br
HETATM   28  C16 UNL     1       6.128  -0.026   1.465  1.00  0.00     0.048 A 
ENDBRANCH  20  22
ENDBRANCH   6  20
TORSDOF 6
