REMARK  6 active torsions:
REMARK  status: ('A' for Active; 'I' for Inactive)
REMARK    1  A    between atoms: C2_2  and  C3_3 
REMARK    2  A    between atoms: C4_4  and  C5_5 
REMARK    3  A    between atoms: C5_5  and  C6_7 
REMARK    4  A    between atoms: C11_14  and  N3_15 
REMARK    5  A    between atoms: N3_15  and  C12_16 
REMARK    6  A    between atoms: C12_16  and  C13_17 
ROOT
HETATM    1  C6  UNL     1       2.178  -1.628   1.596  1.00  0.00    -0.031 A 
HETATM    2  C7  UNL     1       2.314  -2.980   1.360  1.00  0.00     0.011 A 
HETATM    3  C8  UNL     1       1.188  -3.636   0.926  1.00  0.00     0.033 A 
HETATM    4  C9  UNL     1       0.000  -2.973   0.741  1.00  0.00     0.072 A 
HETATM    5  N1  UNL     1      -1.098  -3.624   0.315  1.00  0.00    -0.241 NA
HETATM    6  C10 UNL     1      -2.272  -2.950   0.136  1.00  0.00     0.235 A 
HETATM    7  N2  UNL     1      -2.350  -1.633   0.381  1.00  0.00    -0.224 NA
HETATM    8  C11 UNL     1      -1.310  -0.909   0.806  1.00  0.00     0.137 A 
HETATM    9  C18 UNL     1      -0.143  -1.623   0.975  1.00  0.00     0.039 A 
HETATM   10  C19 UNL     1       0.985  -0.963   1.411  1.00  0.00     0.027 A 
ENDROOT
BRANCH   8  11
HETATM   11  N3  UNL     1      -1.449   0.490   1.072  1.00  0.00    -0.370 N 
HETATM   12  H10 UNL     1      -0.677   1.089   1.425  1.00  0.00     0.161 HD
BRANCH  11  13
HETATM   13  C12 UNL     1      -2.743   1.118   0.835  1.00  0.00     0.155 C 
BRANCH  13  14
HETATM   14  C13 UNL     1      -3.083   1.220  -0.610  1.00  0.00    -0.059 A 
HETATM   15  C14 UNL     1      -3.320   2.414  -1.188  1.00  0.00     0.004 A 
HETATM   16  C15 UNL     1      -3.640   2.356  -2.606  1.00  0.00    -0.003 A 
HETATM   17  C16 UNL     1      -3.594   1.087  -2.893  1.00  0.00    -0.022 A 
HETATM   18  C17 UNL     1      -3.242   0.243  -1.696  1.00  0.00     0.063 A 
ENDBRANCH  13  14
ENDBRANCH  11  13
ENDBRANCH   8  11
BRANCH   1  19
HETATM   19  C5  UNL     1       3.396  -0.890   2.072  1.00  0.00     0.169 C 
HETATM   20 BR1  UNL     1       3.128  -0.041   3.771  1.00  0.00    -0.072 Br
BRANCH  19  21
HETATM   21  C4  UNL     1       3.693   0.146   1.052  1.00  0.00    -0.086 C 
HETATM   22  C3  UNL     1       3.943   0.970   0.216  1.00  0.00    -0.105 C 
BRANCH  22  23
HETATM   23  C2  UNL     1       4.273   1.977  -0.809  1.00  0.00     0.089 C 
HETATM   24  C1  UNL     1       2.982   2.525  -1.320  1.00  0.00     0.018 C 
ENDBRANCH  22  23
ENDBRANCH  19  21
ENDBRANCH   1  19
TORSDOF 6
