REMARK  2 active torsions:
REMARK  status: ('A' for Active; 'I' for Inactive)
REMARK    1  A    between atoms: C4_5  and  N1_6 
REMARK    2  A    between atoms: N1_6  and  C5_7 
ROOT
HETATM    1  C5  UNL     1       0.196   0.734  -0.842  1.00  0.00     0.237 C 
HETATM    2  N2  UNL     1      -0.943   1.531  -0.928  1.00  0.00    -0.253 NA
HETATM    3  C6  UNL     1      -1.441   2.626  -0.823  1.00  0.00     0.232 C 
HETATM    4  N3  UNL     1      -2.710   2.080  -1.189  1.00  0.00    -0.220 NA
HETATM    5  C7  UNL     1      -3.383   1.208  -0.473  1.00  0.00     0.164 C 
HETATM    6  C8  UNL     1      -4.628   0.360  -0.349  1.00  0.00     0.206 C 
HETATM    7  N4  UNL     1      -4.045  -1.007  -0.290  1.00  0.00    -0.383 N 
HETATM    8  C9  UNL     1      -2.604  -0.983  -0.458  1.00  0.00     0.043 C 
HETATM    9  C10 UNL     1      -2.153  -0.399   0.684  1.00  0.00     0.115 C 
HETATM   10  O1  UNL     1      -2.620   0.932   0.699  1.00  0.00    -0.293 OA
HETATM   11  C11 UNL     1      -1.324  -1.357   1.507  1.00  0.00     0.252 C 
HETATM   12  F2  UNL     1      -1.951  -2.574   1.477  1.00  0.00    -0.238 F 
HETATM   13  C12 UNL     1       0.005  -1.531   0.741  1.00  0.00     0.024 C 
HETATM   14  C13 UNL     1      -0.190  -0.639  -0.272  1.00  0.00    -0.031 C 
HETATM   15  C14 UNL     1      -1.269  -1.222  -1.154  1.00  0.00     0.097 C 
HETATM   16  H8  UNL     1      -3.975  -2.056  -0.202  1.00  0.00     0.160 HD
ENDROOT
BRANCH   1  17
HETATM   17  N1  UNL     1       1.247   1.260  -0.019  1.00  0.00    -0.364 N 
HETATM   18  H3  UNL     1       1.039   2.159   0.449  1.00  0.00     0.162 HD
BRANCH  17  19
HETATM   19  C4  UNL     1       2.511   0.648   0.189  1.00  0.00     0.031 A 
HETATM   20  C3  UNL     1       2.884  -0.542  -0.397  1.00  0.00     0.032 A 
HETATM   21  C2  UNL     1       4.115  -1.124  -0.182  1.00  0.00     0.046 A 
HETATM   22  C1  UNL     1       5.021  -0.519   0.640  1.00  0.00     0.138 A 
HETATM   23  F1  UNL     1       6.238  -1.059   0.876  1.00  0.00    -0.204 F 
HETATM   24  C16 UNL     1       4.683   0.666   1.240  1.00  0.00     0.074 A 
HETATM   25  C15 UNL     1       3.444   1.227   1.008  1.00  0.00     0.056 A 
HETATM   26 CL1  UNL     1       5.825   1.470   2.303  1.00  0.00    -0.081 Cl
ENDBRANCH  17  19
ENDBRANCH   1  17
TORSDOF 2
