REMARK  1 active torsions:
REMARK  status: ('A' for Active; 'I' for Inactive)
REMARK    1  A    between atoms: C9_12  and  N3_13 
ROOT
HETATM    1  O1  UNL     1      -1.665  -2.035   0.456  1.00  0.00    -0.125 OA
HETATM    2  C1  UNL     1      -2.581  -1.440   1.056  1.00  0.00     0.307 A 
HETATM    3  C2  UNL     1      -3.859  -1.108   1.626  1.00  0.00     0.081 C 
HETATM    4  C3  UNL     1      -3.999   0.182   1.350  1.00  0.00    -0.021 C 
HETATM    5  C4  UNL     1      -4.423   0.446   0.121  1.00  0.00     0.014 C 
HETATM    6  C5  UNL     1      -3.609  -0.204  -0.898  1.00  0.00     0.020 C 
HETATM    7  C6  UNL     1      -2.726   0.483  -1.645  1.00  0.00     0.118 C 
HETATM    8  N1  UNL     1      -2.455   1.853  -1.579  1.00  0.00    -0.254 NA
HETATM    9  C7  UNL     1      -1.507   2.431  -0.932  1.00  0.00     0.231 C 
HETATM   10  N2  UNL     1      -0.775   1.405  -0.288  1.00  0.00    -0.256 NA
HETATM   11  C8  UNL     1       0.343   1.511   0.295  1.00  0.00     0.118 C 
HETATM   12  C9  UNL     1       0.890   0.270   0.889  1.00  0.00     0.154 C 
HETATM   13  C15 UNL     1      -0.004  -0.912   0.556  1.00  0.00     0.311 C 
HETATM   14  N4  UNL     1      -1.349  -0.711   1.071  1.00  0.00     0.107 N 
HETATM   15  H15 UNL     1      -1.520   0.194   1.609  1.00  0.00     0.328 HD
ENDROOT
BRANCH  12  16
HETATM   16  N3  UNL     1       2.198  -0.070   0.437  1.00  0.00    -0.374 N 
HETATM   17  C10 UNL     1       2.859  -1.226   0.908  1.00  0.00     0.086 A 
HETATM   18  C11 UNL     1       4.075  -1.526   0.476  1.00  0.00     0.018 A 
HETATM   19  C12 UNL     1       4.799  -0.710  -0.491  1.00  0.00     0.018 A 
HETATM   20  C13 UNL     1       4.168   0.375  -0.928  1.00  0.00     0.006 A 
HETATM   21 BR1  UNL     1       4.943   1.582  -2.201  1.00  0.00    -0.054 Br
HETATM   22  C14 UNL     1       2.820   0.813  -0.524  1.00  0.00     0.169 A 
ENDBRANCH  12  16
TORSDOF 1
