REMARK  7 active torsions:
REMARK  status: ('A' for Active; 'I' for Inactive)
REMARK    1  A    between atoms: C2_2  and  C3_3 
REMARK    2  A    between atoms: C3_3  and  P1_4 
REMARK    3  A    between atoms: C3_3  and  N1_5 
REMARK    4  A    between atoms: N1_5  and  C4_6 
REMARK    5  A    between atoms: C9_13  and  N4_14 
REMARK    6  A    between atoms: N4_14  and  B1_15 
REMARK    7  A    between atoms: B1_15  and  C10_16 
ROOT
HETATM    1  C4  UNL     1       2.846   0.146  -0.252  1.00  0.00     0.033 A 
HETATM    2  C5  UNL     1       3.245   1.404   0.128  1.00  0.00     0.032 A 
HETATM    3  C6  UNL     1       2.340   2.239   0.752  1.00  0.00     0.035 A 
HETATM    4  C7  UNL     1       1.034   1.842   1.009  1.00  0.00     0.072 A 
HETATM    5  N2  UNL     1       0.138   2.646   1.618  1.00  0.00    -0.241 NA
HETATM    6  C8  UNL     1      -1.130   2.237   1.857  1.00  0.00     0.236 A 
HETATM    7  N3  UNL     1      -1.477   0.996   1.468  1.00  0.00    -0.223 NA
HETATM    8  C9  UNL     1      -0.629   0.149   0.856  1.00  0.00     0.142 A 
HETATM    9  C16 UNL     1       0.679   0.554   0.603  1.00  0.00     0.041 A 
HETATM   10  C17 UNL     1       1.571  -0.286  -0.019  1.00  0.00     0.047 A 
ENDROOT
BRANCH   8  11
HETATM   11  N4  UNL     1      -1.054  -1.168   0.461  1.00  0.00    -0.339 NA
BRANCH  11  12
HETATM   12  B1  UNL     1      -2.764  -1.316   0.057  1.00  0.00     0.347 B 
BRANCH  12  13
HETATM   13  C10 UNL     1      -4.468  -0.873  -0.210  1.00  0.00    -0.077 A 
HETATM   14  C11 UNL     1      -4.873  -0.857  -1.546  1.00  0.00    -0.003 A 
HETATM   15  C12 UNL     1      -6.191  -0.519  -1.823  1.00  0.00    -0.000 A 
HETATM   16  C13 UNL     1      -7.041  -0.215  -0.783  1.00  0.00     0.000 A 
HETATM   17  C14 UNL     1      -6.606  -0.239   0.541  1.00  0.00    -0.000 A 
HETATM   18  C15 UNL     1      -5.301  -0.572   0.843  1.00  0.00    -0.003 A 
ENDBRANCH  12  13
ENDBRANCH  11  12
ENDBRANCH   8  11
BRANCH   1  19
HETATM   19  N1  UNL     1       3.786  -0.707  -0.894  1.00  0.00    -0.356 N 
HETATM   20  H5  UNL     1       3.551  -1.671  -1.208  1.00  0.00     0.166 HD
BRANCH  19  21
HETATM   21  C3  UNL     1       5.114  -0.262  -1.138  1.00  0.00     0.037 C 
BRANCH  21  22
HETATM   22  C2  UNL     1       6.136  -1.135  -0.573  1.00  0.00     0.020 C 
HETATM   23  C1  UNL     1       5.942  -2.249   0.112  1.00  0.00     0.013 C 
ENDBRANCH  21  22
BRANCH  21  24
HETATM   24  P1  UNL     1       5.989   0.934  -1.857  1.00  0.00    -0.045 P 
HETATM   25  H4  UNL     1       5.424   2.056  -2.566  1.00  0.00     0.069 HD
ENDBRANCH  21  24
ENDBRANCH  19  21
ENDBRANCH   1  19
TORSDOF 7
