REMARK  3 active torsions:
REMARK  status: ('A' for Active; 'I' for Inactive)
REMARK    1  A    between atoms: C2_2  and  C3_3 
REMARK       I    between atoms: C3_3  and  N1_5 
REMARK    2  A    between atoms: N1_5  and  C4_6 
REMARK    3  A    between atoms: C9_13  and  N4_14 
ROOT
HETATM    1  C4  UNL     1       1.717  -0.217  -0.127  1.00  0.00     0.036 A 
HETATM    2  C5  UNL     1       2.651  -1.251  -0.186  1.00  0.00     0.032 A 
HETATM    3  C6  UNL     1       2.138  -2.525  -0.374  1.00  0.00     0.035 A 
HETATM    4  C7  UNL     1       0.780  -2.780  -0.498  1.00  0.00     0.072 A 
HETATM    5  N2  UNL     1       0.274  -4.010  -0.681  1.00  0.00    -0.241 NA
HETATM    6  C8  UNL     1      -1.047  -4.228  -0.799  1.00  0.00     0.236 A 
HETATM    7  N3  UNL     1      -1.884  -3.178  -0.730  1.00  0.00    -0.223 NA
HETATM    8  C9  UNL     1      -1.464  -1.897  -0.547  1.00  0.00     0.142 A 
HETATM    9  C14 UNL     1      -0.108  -1.758  -0.437  1.00  0.00     0.041 A 
HETATM   10  C15 UNL     1       0.370  -0.482  -0.251  1.00  0.00     0.047 A 
ENDROOT
BRANCH   8  11
HETATM   11  N4  UNL     1      -2.458  -0.853  -0.483  1.00  0.00    -0.351 N 
HETATM   12  C10 UNL     1      -3.116  -0.875  -1.743  1.00  0.00     0.006 C 
HETATM   13  B1  UNL     1      -3.741   0.919  -2.461  1.00  0.00     0.220 B 
HETATM   14  C11 UNL     1      -3.174   2.087  -1.072  1.00  0.00    -0.064 C 
HETATM   15  C12 UNL     1      -2.878   1.517   0.073  1.00  0.00    -0.007 C 
HETATM   16 BR1  UNL     1      -2.320   2.820   1.383  1.00  0.00    -0.055 Br
HETATM   17  C13 UNL     1      -2.919   0.116   0.449  1.00  0.00     0.173 C 
ENDBRANCH   8  11
BRANCH   1  18
HETATM   18  N1  UNL     1       2.219   1.098   0.066  1.00  0.00    -0.324 N 
HETATM   19  C3  UNL     1       2.446   1.760   1.305  1.00  0.00     0.244 C 
HETATM   20  O1  UNL     1       2.254   1.330   2.459  1.00  0.00    -0.268 OA
HETATM   21  H4  UNL     1       2.427   1.586  -0.836  1.00  0.00     0.169 HD
BRANCH  19  22
HETATM   22  C2  UNL     1       2.971   3.120   1.247  1.00  0.00     0.064 C 
HETATM   23  C1  UNL     1       3.159   3.677   2.415  1.00  0.00     0.017 C 
ENDBRANCH  19  22
ENDBRANCH   1  18
TORSDOF 3
