REMARK  3 active torsions:
REMARK  status: ('A' for Active; 'I' for Inactive)
REMARK    1  A    between atoms: C2_2  and  C3_3 
REMARK       I    between atoms: C3_3  and  N1_5 
REMARK    2  A    between atoms: N1_5  and  C4_6 
REMARK    3  A    between atoms: C9_13  and  N4_14 
ROOT
HETATM    1  C4  UNL     1       1.794  -0.594   0.569  1.00  0.00     0.036 A 
HETATM    2  C5  UNL     1       2.240  -1.865   0.943  1.00  0.00     0.032 A 
HETATM    3  C6  UNL     1       1.346  -2.917   1.139  1.00  0.00     0.035 A 
HETATM    4  C7  UNL     1      -0.018  -2.752   0.973  1.00  0.00     0.072 A 
HETATM    5  N2  UNL     1      -0.943  -3.696   1.146  1.00  0.00    -0.241 NA
HETATM    6  C8  UNL     1      -2.265  -3.422   0.963  1.00  0.00     0.236 A 
HETATM    7  N3  UNL     1      -2.647  -2.177   0.600  1.00  0.00    -0.223 NA
HETATM    8  C9  UNL     1      -1.726  -1.188   0.415  1.00  0.00     0.143 A 
HETATM    9  C15 UNL     1      -0.421  -1.510   0.610  1.00  0.00     0.041 A 
HETATM   10  C16 UNL     1       0.431  -0.453   0.410  1.00  0.00     0.047 A 
ENDROOT
BRANCH   1  11
HETATM   11  N1  UNL     1       2.765   0.405   0.394  1.00  0.00    -0.324 N 
HETATM   12  C3  UNL     1       3.527   0.835  -0.723  1.00  0.00     0.244 C 
HETATM   13  O1  UNL     1       3.544   0.428  -1.904  1.00  0.00    -0.268 OA
HETATM   14  H4  UNL     1       2.882   0.865   1.314  1.00  0.00     0.169 HD
BRANCH  12  15
HETATM   15  C2  UNL     1       4.460   1.933  -0.509  1.00  0.00     0.064 C 
HETATM   16  C1  UNL     1       5.074   2.188  -1.666  1.00  0.00     0.017 C 
ENDBRANCH  12  15
ENDBRANCH   1  11
BRANCH   8  17
HETATM   17  N4  UNL     1      -2.373   0.014   0.008  1.00  0.00    -0.338 N 
HETATM   18  C10 UNL     1      -3.093   0.555   1.140  1.00  0.00     0.093 A 
HETATM   19  C11 UNL     1      -3.800   1.683   1.096  1.00  0.00     0.017 A 
HETATM   20  C12 UNL     1      -3.879   2.448  -0.144  1.00  0.00    -0.001 A 
HETATM   21  C13 UNL     1      -3.205   1.906  -1.143  1.00  0.00    -0.007 A 
HETATM   22  C14 UNL     1      -2.378   0.679  -1.281  1.00  0.00     0.157 A 
ENDBRANCH   8  17
TORSDOF 3
