REMARK  1 active torsions:
REMARK  status: ('A' for Active; 'I' for Inactive)
REMARK    1  A    between atoms: O1_1  and  N1_2 
ROOT
HETATM    1  N1  UNL     1      -1.799  -1.055   1.137  1.00  0.00    -0.235 N 
HETATM    2  C1  UNL     1      -2.587  -0.386   2.088  1.00  0.00     0.135 C 
HETATM    3  C2  UNL     1      -3.631   0.344   1.718  1.00  0.00    -0.006 C 
HETATM    4  C3  UNL     1      -3.689   0.585   0.414  1.00  0.00     0.013 C 
HETATM    5  C4  UNL     1      -2.560   1.235  -0.175  1.00  0.00    -0.003 C 
HETATM    6  C5  UNL     1      -1.810   1.955  -0.993  1.00  0.00    -0.026 C 
HETATM    7  C6  UNL     1      -0.438   2.470  -1.311  1.00  0.00     0.000 C 
HETATM    8  C7  UNL     1       0.832   2.475  -0.928  1.00  0.00     0.047 C 
HETATM    9  C8  UNL     1       2.003   2.102  -0.037  1.00  0.00     0.116 C 
HETATM   10 BR1  UNL     1       1.560   2.361   1.807  1.00  0.00    -0.084 Br
HETATM   11  C9  UNL     1       2.462   0.732  -0.251  1.00  0.00     0.063 A 
HETATM   12  N2  UNL     1       3.699   0.498  -0.765  1.00  0.00    -0.244 NA
HETATM   13  C10 UNL     1       4.115  -0.773  -1.048  1.00  0.00     0.234 A 
HETATM   14  N3  UNL     1       3.392  -1.918  -0.866  1.00  0.00    -0.241 NA
HETATM   15  C11 UNL     1       2.141  -1.720  -0.348  1.00  0.00     0.070 A 
HETATM   16  C12 UNL     1       1.266  -2.797  -0.133  1.00  0.00     0.035 A 
HETATM   17  C13 UNL     1      -0.033  -2.629   0.367  1.00  0.00     0.034 A 
HETATM   18  C14 UNL     1      -0.505  -1.376   0.674  1.00  0.00     0.063 A 
HETATM   19  C15 UNL     1       0.522  -0.540   0.380  1.00  0.00     0.048 A 
HETATM   20  C16 UNL     1       1.782  -0.419  -0.083  1.00  0.00     0.021 A 
ENDROOT
BRANCH   1  21
HETATM   21  O1  UNL     1      -2.604  -1.710   0.271  1.00  0.00    -0.283 OA
HETATM   22  H1  UNL     1      -2.639  -2.686   0.440  1.00  0.00     0.245 HD
ENDBRANCH   1  21
TORSDOF 1
