REMARK  5 active torsions:
REMARK  status: ('A' for Active; 'I' for Inactive)
REMARK    1  A    between atoms: C2_2  and  C3_3 
REMARK    2  A    between atoms: C3_3  and  N1_8 
REMARK    3  A    between atoms: C4_4  and  C5_5 
REMARK    4  A    between atoms: N1_8  and  C7_9 
REMARK    5  A    between atoms: C12_16  and  N4_17 
REMARK       I    between atoms: N4_17  and  C13_18 
REMARK       I    between atoms: C13_18  and  N5_20 
ROOT
HETATM    1  C7  UNL     1      -0.942  -0.669   1.004  1.00  0.00     0.142 A 
HETATM    2  N2  UNL     1      -1.574  -1.590   1.719  1.00  0.00    -0.224 NA
HETATM    3  C8  UNL     1      -0.881  -2.404   2.567  1.00  0.00     0.236 A 
HETATM    4  N3  UNL     1       0.462  -2.339   2.741  1.00  0.00    -0.241 NA
HETATM    5  C9  UNL     1       1.122  -1.406   2.021  1.00  0.00     0.072 A 
HETATM    6  C10 UNL     1       2.490  -1.313   2.173  1.00  0.00     0.035 A 
HETATM    7  C11 UNL     1       3.166  -0.351   1.430  1.00  0.00     0.032 A 
HETATM    8  C12 UNL     1       2.473   0.480   0.567  1.00  0.00     0.037 A 
HETATM    9  C15 UNL     1       1.091   0.364   0.432  1.00  0.00     0.047 A 
HETATM   10  C16 UNL     1       0.421  -0.585   1.165  1.00  0.00     0.041 A 
ENDROOT
BRANCH   1  11
HETATM   11  N1  UNL     1      -1.717   0.152   0.134  1.00  0.00    -0.340 N 
HETATM   12  H7  UNL     1      -1.368   0.938  -0.490  1.00  0.00     0.167 HD
BRANCH  11  13
HETATM   13  C3  UNL     1      -3.151  -0.110   0.108  1.00  0.00     0.032 C 
HETATM   14  C4  UNL     1      -3.515   0.756   1.016  1.00  0.00     0.030 C 
BRANCH  13  15
HETATM   15  C2  UNL     1      -2.959  -1.109  -0.905  1.00  0.00     0.019 C 
HETATM   16  C1  UNL     1      -2.170  -1.793  -1.704  1.00  0.00     0.013 C 
ENDBRANCH  13  15
BRANCH  14  17
HETATM   17  C5  UNL     1      -4.973   0.731   1.229  1.00  0.00     0.010 C 
HETATM   18  C6  UNL     1      -5.902   1.321   1.959  1.00  0.00     0.056 C 
HETATM   19 BR1  UNL     1      -7.804   1.304   2.250  1.00  0.00    -0.064 Br
ENDBRANCH  14  17
ENDBRANCH  11  13
ENDBRANCH   1  11
BRANCH   8  20
HETATM   20  N4  UNL     1       3.180   1.464  -0.188  1.00  0.00    -0.309 N 
HETATM   21  C13 UNL     1       3.612   0.949  -1.431  1.00  0.00     0.320 C 
HETATM   22  O1  UNL     1       3.292  -0.270  -1.632  1.00  0.00    -0.247 OA
HETATM   23  N5  UNL     1       4.340   1.696  -2.395  1.00  0.00    -0.347 N 
HETATM   24  C14 UNL     1       4.784   1.162  -3.671  1.00  0.00     0.151 C 
HETATM   25  H12 UNL     1       4.554   2.688  -2.140  1.00  0.00     0.163 HD
HETATM   26  H11 UNL     1       3.404   2.464   0.055  1.00  0.00     0.170 HD
ENDBRANCH   8  20
TORSDOF 5
