REMARK  5 active torsions:
REMARK  status: ('A' for Active; 'I' for Inactive)
REMARK    1  A    between atoms: C2_2  and  C3_3 
REMARK       I    between atoms: C3_3  and  N1_5 
REMARK    2  A    between atoms: N1_5  and  C4_6 
REMARK    3  A    between atoms: C5_7  and  C6_8 
REMARK    4  A    between atoms: C8_12  and  N4_13 
REMARK    5  A    between atoms: N4_13  and  C9_14 
ROOT
HETATM    1  C6  UNL     1       0.879   0.161   0.494  1.00  0.00    -0.008 A 
HETATM    2  C7  UNL     1       0.885   1.464   0.718  1.00  0.00     0.121 A 
HETATM    3  N2  UNL     1      -0.355   2.106   0.435  1.00  0.00    -0.287 N 
HETATM    4  N3  UNL     1      -1.519   1.495  -0.038  1.00  0.00    -0.156 NA
HETATM    5  C8  UNL     1      -1.526   0.237  -0.254  1.00  0.00     0.155 A 
HETATM    6  C15 UNL     1      -0.309  -0.521   0.002  1.00  0.00     0.002 A 
HETATM    7  C16 UNL     1      -0.390  -1.811  -0.248  1.00  0.00     0.048 C 
HETATM    8  H8  UNL     1      -0.400   3.144   0.597  1.00  0.00     0.188 HD
ENDROOT
BRANCH   5   9
HETATM    9  N4  UNL     1      -2.717  -0.332  -0.728  1.00  0.00    -0.339 N 
HETATM   10  H9  UNL     1      -2.586  -1.257  -1.236  1.00  0.00     0.167 HD
BRANCH   9  11
HETATM   11  C9  UNL     1      -4.032   0.174  -0.604  1.00  0.00     0.035 A 
HETATM   12  C10 UNL     1      -4.452   1.305   0.024  1.00  0.00     0.029 A 
HETATM   13  C11 UNL     1      -5.746   1.758   0.111  1.00  0.00     0.004 A 
HETATM   14  C12 UNL     1      -6.746   1.019  -0.484  1.00  0.00     0.019 A 
HETATM   15  C13 UNL     1      -6.386  -0.140  -1.137  1.00  0.00     0.013 A 
HETATM   16 BR1  UNL     1      -7.759  -1.174  -1.966  1.00  0.00    -0.051 Br
HETATM   17  C14 UNL     1      -5.071  -0.532  -1.184  1.00  0.00     0.048 A 
ENDBRANCH   9  11
ENDBRANCH   5   9
BRANCH   1  18
HETATM   18  C5  UNL     1       2.082  -0.619   0.742  1.00  0.00     0.030 C 
HETATM   19  C4  UNL     1       3.254  -0.198   1.184  1.00  0.00     0.092 C 
BRANCH  19  20
HETATM   20  N1  UNL     1       4.408  -1.036   1.407  1.00  0.00    -0.334 N 
HETATM   21  C3  UNL     1       5.482  -0.609   0.580  1.00  0.00     0.244 C 
HETATM   22  O1  UNL     1       5.417   0.363  -0.226  1.00  0.00    -0.268 OA
HETATM   23  H4  UNL     1       4.726  -1.844   1.969  1.00  0.00     0.168 HD
BRANCH  21  24
HETATM   24  C2  UNL     1       6.843  -1.135   0.448  1.00  0.00     0.064 C 
HETATM   25  C1  UNL     1       7.460  -0.396  -0.449  1.00  0.00     0.017 C 
ENDBRANCH  21  24
ENDBRANCH  19  20
ENDBRANCH   1  18
TORSDOF 5
