REMARK  8 active torsions:
REMARK  status: ('A' for Active; 'I' for Inactive)
REMARK    1  A    between atoms: O1_2  and  C2_3 
REMARK    2  A    between atoms: C3_4  and  O2_5 
REMARK    3  A    between atoms: C5_7  and  O3_8 
REMARK    4  A    between atoms: C8_11  and  C9_12 
REMARK    5  A    between atoms: C9_12  and  C10_13 
REMARK    6  A    between atoms: C13_16  and  N1_17 
REMARK    7  A    between atoms: C13_16  and  N2_18 
REMARK    8  A    between atoms: N2_18  and  C14_19 
ROOT
HETATM    1  C10 UNL     1       0.128   1.850   0.506  1.00  0.00     0.009 C 
HETATM    2  C11 UNL     1       1.382   1.428   0.327  1.00  0.00     0.037 C 
HETATM    3  C12 UNL     1       1.754   1.710  -1.076  1.00  0.00     0.005 C 
HETATM    4  C13 UNL     1       2.668   1.166  -1.862  1.00  0.00     0.107 C 
HETATM    5  C20 UNL     1       0.828   2.809  -1.460  1.00  0.00     0.162 C 
HETATM    6  N3  UNL     1      -0.369   2.406  -0.704  1.00  0.00    -0.389 N 
HETATM    7  H25 UNL     1      -1.397   2.449  -0.873  1.00  0.00     0.159 HD
ENDROOT
BRANCH   1   8
HETATM    8  C9  UNL     1      -0.574   1.726   1.801  1.00  0.00     0.090 C 
BRANCH   8   9
HETATM    9  C8  UNL     1      -1.808   0.875   1.679  1.00  0.00    -0.069 A 
HETATM   10  C7  UNL     1      -1.363  -0.459   1.218  1.00  0.00     0.073 A 
HETATM   11  C5  UNL     1      -2.506  -1.421   1.054  1.00  0.00     0.184 A 
HETATM   12  C3  UNL     1      -3.761  -0.761   1.405  1.00  0.00     0.108 A 
HETATM   13  C2  UNL     1      -4.108   0.455   1.819  1.00  0.00     0.100 A 
HETATM   14  C21 UNL     1      -2.988   1.374   1.970  1.00  0.00     0.042 A 
BRANCH  11  15
HETATM   15  O3  UNL     1      -2.283  -2.608   1.746  1.00  0.00    -0.384 OA
HETATM   16  C6  UNL     1      -2.151  -3.723   0.965  1.00  0.00     0.202 C 
ENDBRANCH  11  15
BRANCH  12  17
HETATM   17  O2  UNL     1      -4.879  -1.608   1.278  1.00  0.00    -0.355 OA
HETATM   18  C4  UNL     1      -5.325  -1.898  -0.020  1.00  0.00     0.209 C 
ENDBRANCH  12  17
BRANCH  13  19
HETATM   19  O1  UNL     1      -5.419   0.810   2.082  1.00  0.00    -0.353 OA
HETATM   20  C1  UNL     1      -6.173   1.756   1.388  1.00  0.00     0.210 C 
ENDBRANCH  13  19
ENDBRANCH   8   9
ENDBRANCH   1   8
BRANCH   4  21
HETATM   21  N1  UNL     1       2.910   1.559  -3.223  1.00  0.00    -0.385 N 
HETATM   22  H16 UNL     1       3.320   2.502  -3.014  1.00  0.00     0.157 HD
HETATM   23  H17 UNL     1       2.673   0.940  -4.021  1.00  0.00     0.157 HD
ENDBRANCH   4  21
BRANCH   4  24
HETATM   24  N2  UNL     1       3.412   0.140  -1.247  1.00  0.00    -0.342 N 
HETATM   25  H18 UNL     1       2.998  -0.516  -0.519  1.00  0.00     0.167 HD
BRANCH  24  26
HETATM   26  C14 UNL     1       4.709  -0.440  -1.233  1.00  0.00     0.034 A 
HETATM   27  C15 UNL     1       4.995  -1.481  -2.085  1.00  0.00     0.029 A 
HETATM   28  C16 UNL     1       6.231  -2.091  -2.125  1.00  0.00     0.004 A 
HETATM   29  C17 UNL     1       7.186  -1.592  -1.245  1.00  0.00     0.019 A 
HETATM   30  C18 UNL     1       6.979  -0.545  -0.353  1.00  0.00     0.013 A 
HETATM   31 BR1  UNL     1       8.349   0.058   0.804  1.00  0.00    -0.051 Br
HETATM   32  C19 UNL     1       5.694   0.007  -0.390  1.00  0.00     0.048 A 
ENDBRANCH  24  26
ENDBRANCH   4  24
TORSDOF 8
