REMARK  6 active torsions:
REMARK  status: ('A' for Active; 'I' for Inactive)
REMARK    1  A    between atoms: C3_3  and  C4_4 
REMARK    2  A    between atoms: C7_8  and  C8_9 
REMARK    3  A    between atoms: C8_9  and  C9_10 
REMARK    4  A    between atoms: C9_10  and  P1_11 
REMARK    5  A    between atoms: C13_16  and  N3_17 
REMARK    6  A    between atoms: C17_22  and  O1_23 
ROOT
HETATM    1  C4  UNL     1       2.685   0.449   0.143  1.00  0.00     0.163 C 
HETATM    2  C5  UNL     1       1.715   1.480   0.662  1.00  0.00     0.157 C 
HETATM    3  N1  UNL     1       0.360   1.293   0.255  1.00  0.00    -0.371 N 
HETATM    4  C6  UNL     1      -1.020   1.314   0.357  1.00  0.00     0.145 C 
HETATM    5  C7  UNL     1      -1.699   0.303  -0.256  1.00  0.00    -0.028 C 
HETATM    6  C10 UNL     1      -1.825  -0.961   0.704  1.00  0.00     0.033 C 
HETATM    7  C11 UNL     1      -3.209  -1.367   0.391  1.00  0.00     0.057 C 
HETATM    8  C12 UNL     1      -4.149  -0.251   0.834  1.00  0.00     0.110 C 
HETATM    9  N2  UNL     1      -3.958   0.750   1.652  1.00  0.00    -0.080 NA
HETATM   10  C13 UNL     1      -2.989   1.775   1.805  1.00  0.00     0.723 C 
HETATM   11  N4  UNL     1      -1.924   2.169   1.052  1.00  0.00    -0.045 NA
HETATM   12  C15 UNL     1      -0.622  -1.717   0.442  1.00  0.00    -0.009 A 
HETATM   13  C16 UNL     1      -0.495  -2.487  -0.646  1.00  0.00     0.045 A 
HETATM   14  C17 UNL     1       0.849  -2.556  -1.099  1.00  0.00     0.135 A 
HETATM   15  C19 UNL     1       1.695  -1.748  -0.251  1.00  0.00     0.141 A 
HETATM   16  C20 UNL     1       0.819  -1.342   0.560  1.00  0.00     0.023 A 
HETATM   17  O2  UNL     1       1.921  -1.980  -0.234  1.00  0.00     0.000 OA
HETATM   18  C21 UNL     1       2.549  -3.133   0.501  1.00  0.00     0.000 C 
HETATM   19  C22 UNL     1      -0.134  -0.909   1.431  1.00  0.00     0.015 A 
HETATM   20  O3  UNL     1       2.531  -0.884   0.676  1.00  0.00    -0.362 OA
HETATM   21  H9  UNL     1       0.554   1.030  -0.767  1.00  0.00     0.161 HD
ENDROOT
BRANCH   5  22
HETATM   22  C8  UNL     1      -2.334   0.115  -1.586  1.00  0.00     0.042 C 
BRANCH  22  23
HETATM   23  C9  UNL     1      -2.101   1.412  -2.381  1.00  0.00     0.033 C 
BRANCH  23  24
HETATM   24  P1  UNL     1      -2.887   1.194  -4.054  1.00  0.00    -0.141 P 
HETATM   25  H14 UNL     1      -4.299   0.834  -3.883  1.00  0.00     0.054 HD
HETATM   26  H15 UNL     1      -2.174   0.150  -4.781  1.00  0.00     0.054 HD
ENDBRANCH  23  24
ENDBRANCH  22  23
ENDBRANCH   5  22
BRANCH  10  27
HETATM   27  N3  UNL     1      -3.164   2.569   3.013  1.00  0.00    -0.227 N 
HETATM   28  C14 UNL     1      -2.550   3.891   3.044  1.00  0.00     0.165 C 
HETATM   29  H20 UNL     1      -3.730   2.161   3.817  1.00  0.00     0.177 HD
ENDBRANCH  10  27
BRANCH   1  30
HETATM   30  C3  UNL     1       4.044   0.892   0.304  1.00  0.00     0.002 C 
HETATM   31  C2  UNL     1       4.529   1.980   0.875  1.00  0.00    -0.032 C 
HETATM   32  C1  UNL     1       6.019   2.051   0.822  1.00  0.00     0.036 C 
ENDBRANCH   1  30
BRANCH  14  33
HETATM   33  O1  UNL     1       1.598  -3.187  -2.149  1.00  0.00    -0.378 OA
HETATM   34  C18 UNL     1       0.795  -3.939  -3.073  1.00  0.00     0.202 C 
ENDBRANCH  14  33
TORSDOF 6
