REMARK  4 active torsions:
REMARK  status: ('A' for Active; 'I' for Inactive)
REMARK    1  A    between atoms: C2_2  and  C3_3 
REMARK       I    between atoms: C3_3  and  N1_5 
REMARK    2  A    between atoms: N1_5  and  C4_6 
REMARK    3  A    between atoms: C9_13  and  N4_14 
REMARK    4  A    between atoms: N4_14  and  C10_15 
ROOT
HETATM    1  C4  UNL     1      -2.369   0.283   0.093  1.00  0.00     0.036 A 
HETATM    2  C5  UNL     1      -2.750   1.026   1.186  1.00  0.00     0.032 A 
HETATM    3  C6  UNL     1      -1.892   1.594   2.069  1.00  0.00     0.035 A 
HETATM    4  C7  UNL     1      -0.549   1.453   1.913  1.00  0.00     0.072 A 
HETATM    5  N2  UNL     1       0.361   1.990   2.750  1.00  0.00    -0.241 NA
HETATM    6  C8  UNL     1       1.676   1.806   2.531  1.00  0.00     0.236 A 
HETATM    7  N3  UNL     1       2.081   1.078   1.461  1.00  0.00    -0.224 NA
HETATM    8  C9  UNL     1       1.223   0.530   0.608  1.00  0.00     0.142 A 
HETATM    9  C16 UNL     1      -0.119   0.718   0.833  1.00  0.00     0.041 A 
HETATM   10  C17 UNL     1      -1.010   0.150  -0.050  1.00  0.00     0.047 A 
ENDROOT
BRANCH   8  11
HETATM   11  N4  UNL     1       1.765  -0.208  -0.471  1.00  0.00    -0.339 N 
HETATM   12  H8  UNL     1       1.345  -0.717  -1.271  1.00  0.00     0.167 HD
BRANCH  11  13
HETATM   13  C10 UNL     1       3.173  -0.354  -0.592  1.00  0.00     0.051 A 
HETATM   14  C11 UNL     1       3.938   0.080  -1.655  1.00  0.00     0.031 A 
HETATM   15  C12 UNL     1       5.306  -0.107  -1.694  1.00  0.00     0.002 A 
HETATM   16  C13 UNL     1       5.923  -0.748  -0.637  1.00  0.00     0.002 A 
HETATM   17  C14 UNL     1       5.169  -1.187   0.433  1.00  0.00     0.021 A 
HETATM   18  C15 UNL     1       3.793  -0.993   0.461  1.00  0.00     0.037 A 
HETATM   19 BR1  UNL     1       2.965  -1.688   2.031  1.00  0.00    -0.049 Br
ENDBRANCH  11  13
ENDBRANCH   8  11
BRANCH   1  20
HETATM   20  N1  UNL     1      -3.206  -0.336  -0.865  1.00  0.00    -0.324 N 
HETATM   21  C3  UNL     1      -4.602  -0.349  -0.943  1.00  0.00     0.241 C 
HETATM   22  O1  UNL     1      -5.282   0.248  -0.083  1.00  0.00    -0.269 OA
HETATM   23  H4  UNL     1      -2.792  -0.874  -1.649  1.00  0.00     0.169 HD
BRANCH  21  24
HETATM   24  C2  UNL     1      -5.403  -1.010  -1.961  1.00  0.00     0.048 C 
HETATM   25  C1  UNL     1      -6.386  -0.498  -1.240  1.00  0.00     0.037 C 
ENDBRANCH  21  24
ENDBRANCH   1  20
TORSDOF 4
