REMARK  1 active torsions:
REMARK  status: ('A' for Active; 'I' for Inactive)
REMARK    1  A    between atoms: C4_5  and  N1_6 
ROOT
HETATM    1  N1  UNL     1       1.819   0.335  -0.165  1.00  0.00    -0.243 N 
HETATM    2  C5  UNL     1       1.064  -0.644   0.415  1.00  0.00     0.136 C 
HETATM    3  C6  UNL     1      -0.306  -0.937   0.497  1.00  0.00     0.115 C 
HETATM    4  N2  UNL     1      -1.350  -0.176   0.186  1.00  0.00    -0.304 N 
HETATM    5  C7  UNL     1      -1.584   0.999  -0.357  1.00  0.00     0.252 C 
HETATM    6  N3  UNL     1      -0.861   1.846  -1.072  1.00  0.00    -0.200 NA
HETATM    7  C8  UNL     1       0.440   2.154  -1.193  1.00  0.00     0.259 C 
HETATM    8  N4  UNL     1       1.549   1.451  -0.824  1.00  0.00    -0.161 NA
HETATM    9  O1  UNL     1      -2.846   1.643  -0.244  1.00  0.00    -0.294 OA
HETATM   10  C9  UNL     1      -4.156   1.133  -0.697  1.00  0.00     0.157 A 
HETATM   11  C10 UNL     1      -4.895   2.499  -0.901  1.00  0.00     0.104 A 
HETATM   12  S1  UNL     1      -5.271   1.119  -1.070  1.00  0.00    -0.151 SA
HETATM   13  C11 UNL     1      -5.570  -0.083  -1.209  1.00  0.00    -0.009 A 
HETATM   14  C12 UNL     1      -5.818  -1.182  -1.328  1.00  0.00     0.078 A 
HETATM   15  C13 UNL     1      -4.480  -0.536  -0.857  1.00  0.00     0.111 A 
HETATM   16  N5  UNL     1      -3.258  -1.420  -0.425  1.00  0.00    -0.384 N 
HETATM   17  C14 UNL     1      -2.250  -1.184   0.683  1.00  0.00     0.251 C 
HETATM   18  H8  UNL     1      -3.283  -2.237  -1.081  1.00  0.00     0.156 HD
ENDROOT
BRANCH   1  19
HETATM   19  C4  UNL     1       3.205   0.060  -0.004  1.00  0.00     0.059 A 
HETATM   20  C3  UNL     1       3.682  -0.298   1.248  1.00  0.00     0.034 A 
HETATM   21  C2  UNL     1       5.022  -0.577   1.459  1.00  0.00     0.046 A 
HETATM   22  C1  UNL     1       5.917  -0.498   0.398  1.00  0.00     0.138 A 
HETATM   23  F1  UNL     1       7.246  -0.759   0.538  1.00  0.00    -0.204 F 
HETATM   24  C16 UNL     1       5.442  -0.139  -0.861  1.00  0.00     0.074 A 
HETATM   25  C15 UNL     1       4.090   0.142  -1.073  1.00  0.00     0.058 A 
HETATM   26 CL1  UNL     1       6.561  -0.042  -2.181  1.00  0.00    -0.081 Cl
ENDBRANCH   1  19
TORSDOF 1
