REMARK  3 active torsions:
REMARK  status: ('A' for Active; 'I' for Inactive)
REMARK    1  A    between atoms: N1_1  and  C1_2 
REMARK    2  A    between atoms: C4_6  and  N3_7 
REMARK    3  A    between atoms: N3_7  and  C5_8 
ROOT
HETATM    1  C1  UNL     1       0.726   2.930   0.504  1.00  0.00     0.722 A 
HETATM    2  N2  UNL     1      -0.537   2.710   0.232  1.00  0.00    -0.067 NA
HETATM    3  C2  UNL     1      -1.257   1.571   0.319  1.00  0.00     0.065 A 
HETATM    4  C3  UNL     1      -0.438   0.533   0.778  1.00  0.00     0.026 A 
HETATM    5  C4  UNL     1       0.895   0.697   1.082  1.00  0.00     0.156 A 
HETATM    6  N4  UNL     1       1.439   1.902   0.935  1.00  0.00    -0.045 NA
HETATM    7  C11 UNL     1      -0.612  -0.936   1.074  1.00  0.00     0.076 C 
HETATM    8  C12 UNL     1      -0.032  -1.498  -0.244  1.00  0.00    -0.012 C 
HETATM    9  C13 UNL     1      -0.681  -1.345  -1.421  1.00  0.00     0.003 C 
HETATM   10  C14 UNL     1      -2.056  -0.861  -1.574  1.00  0.00     0.030 C 
HETATM   11  S1  UNL     1      -3.305  -0.376  -0.691  1.00  0.00    -0.200 SA
HETATM   12  C15 UNL     1      -4.134  -1.653  -0.827  1.00  0.00     0.002 C 
HETATM   13  C16 UNL     1      -3.619  -2.645  -0.072  1.00  0.00     0.019 C 
HETATM   14  C17 UNL     1      -2.363  -2.645   0.754  1.00  0.00     0.006 C 
HETATM   15  C18 UNL     1      -1.980  -1.406   1.013  1.00  0.00    -0.059 C 
HETATM   16  C19 UNL     1      -3.110  -0.424   1.097  1.00  0.00     0.098 C 
HETATM   17  C20 UNL     1      -3.442   1.196  -1.036  1.00  0.00     0.069 C 
HETATM   18  C21 UNL     1      -2.569   1.977  -0.083  1.00  0.00     0.070 C 
ENDROOT
BRANCH   5  19
HETATM   19  N3  UNL     1       1.846  -0.252   1.547  1.00  0.00    -0.340 N 
HETATM   20  H3  UNL     1       1.889  -0.837   2.437  1.00  0.00     0.167 HD
BRANCH  19  21
HETATM   21  C5  UNL     1       2.972  -0.480   0.671  1.00  0.00     0.035 A 
HETATM   22  C6  UNL     1       4.053  -1.264   1.009  1.00  0.00     0.029 A 
HETATM   23  C7  UNL     1       5.126  -1.477   0.173  1.00  0.00     0.004 A 
HETATM   24  C8  UNL     1       5.159  -0.899  -1.067  1.00  0.00     0.019 A 
HETATM   25  C9  UNL     1       4.098  -0.106  -1.447  1.00  0.00     0.013 A 
HETATM   26 BR1  UNL     1       4.155   0.693  -3.177  1.00  0.00    -0.051 Br
HETATM   27  C10 UNL     1       3.047   0.088  -0.597  1.00  0.00     0.048 A 
ENDBRANCH  19  21
ENDBRANCH   5  19
BRANCH   1  28
HETATM   28  N1  UNL     1       1.320   4.239   0.343  1.00  0.00    -0.231 N 
HETATM   29  H1  UNL     1       1.203   4.479  -0.663  1.00  0.00     0.174 HD
HETATM   30  H2  UNL     1       1.764   4.790   1.111  1.00  0.00     0.174 HD
ENDBRANCH   1  28
TORSDOF 3
