REMARK  2 active torsions:
REMARK  status: ('A' for Active; 'I' for Inactive)
REMARK    1  A    between atoms: C15_19  and  N3_20 
REMARK    2  A    between atoms: N3_20  and  C16_21 
ROOT
HETATM    1  O1  UNL     1      -1.879   1.196   0.819  1.00  0.00    -0.291 OA
HETATM    2  C1  UNL     1      -2.049   0.567  -0.254  1.00  0.00     0.175 C 
HETATM    3  C2  UNL     1      -1.288   1.607  -0.938  1.00  0.00     0.050 C 
HETATM    4  C3  UNL     1      -0.818   2.635  -0.230  1.00  0.00     0.006 C 
HETATM    5  C4  UNL     1      -0.015   3.760  -0.847  1.00  0.00     0.297 C 
HETATM    6  N1  UNL     1       1.305   3.769  -0.177  1.00  0.00     0.088 N 
HETATM    7  C5  UNL     1       1.933   2.541  -0.569  1.00  0.00     0.295 C 
HETATM    8  C6  UNL     1       3.250   2.250   0.074  1.00  0.00     0.197 C 
HETATM    9  O2  UNL     1       3.696   1.034  -0.392  1.00  0.00    -0.389 OA
HETATM   10  C7  UNL     1       4.888   0.638   0.201  1.00  0.00     0.172 C 
HETATM   11  C8  UNL     1       5.258  -0.752  -0.373  1.00  0.00     0.064 C 
HETATM   12  C9  UNL     1       4.080  -1.618  -0.086  1.00  0.00    -0.059 C 
HETATM   13  C10 UNL     1       3.698  -2.637  -0.834  1.00  0.00    -0.014 C 
HETATM   14  C11 UNL     1       2.332  -3.213  -0.837  1.00  0.00     0.086 C 
HETATM   15  C12 UNL     1       1.473  -2.294  -0.011  1.00  0.00     0.037 C 
HETATM   16  N2  UNL     1       0.340  -1.669  -0.218  1.00  0.00    -0.265 NA
HETATM   17  C13 UNL     1      -0.349  -1.790  -1.454  1.00  0.00     0.115 C 
HETATM   18  C14 UNL     1      -1.548  -1.337  -1.749  1.00  0.00     0.025 C 
HETATM   19  C15 UNL     1      -2.594  -0.591  -1.030  1.00  0.00     0.180 C 
HETATM   20  C22 UNL     1       2.166  -2.158   1.269  1.00  0.00     0.028 C 
HETATM   21  C23 UNL     1       3.217  -1.381   1.063  1.00  0.00     0.009 C 
HETATM   22  H5  UNL     1       1.838   4.601  -0.480  1.00  0.00     0.316 HD
ENDROOT
BRANCH  19  23
HETATM   23  N3  UNL     1      -3.216  -1.465  -0.075  1.00  0.00    -0.375 N 
HETATM   24  H20 UNL     1      -2.877  -2.464   0.061  1.00  0.00     0.160 HD
BRANCH  23  25
HETATM   25  C16 UNL     1      -4.318  -1.084   0.759  1.00  0.00     0.030 A 
HETATM   26  C17 UNL     1      -4.898  -1.948   1.685  1.00  0.00     0.029 A 
HETATM   27  C18 UNL     1      -5.961  -1.540   2.468  1.00  0.00     0.004 A 
HETATM   28  C19 UNL     1      -6.458  -0.266   2.337  1.00  0.00     0.019 A 
HETATM   29  C20 UNL     1      -5.926   0.649   1.431  1.00  0.00     0.013 A 
HETATM   30 BR1  UNL     1      -6.614   2.418   1.247  1.00  0.00    -0.051 Br
HETATM   31  C21 UNL     1      -4.859   0.181   0.673  1.00  0.00     0.048 A 
ENDBRANCH  23  25
ENDBRANCH  19  23
TORSDOF 2
