REMARK  5 active torsions:
REMARK  status: ('A' for Active; 'I' for Inactive)
REMARK    1  A    between atoms: C4_4  and  C5_5 
REMARK    2  A    between atoms: C6_6  and  N1_7 
REMARK    3  A    between atoms: N1_7  and  C7_8 
REMARK    4  A    between atoms: C12_14  and  O1_15 
REMARK    5  A    between atoms: O1_15  and  C13_16 
ROOT
HETATM    1  C1  UNL     1       7.535  -0.040  -0.063  1.00  0.00     0.017 C 
HETATM    2  C2  UNL     1       6.639   0.089   0.743  1.00  0.00    -0.089 C 
HETATM    3  C3  UNL     1       5.571   0.253   1.695  1.00  0.00     0.063 C 
HETATM    4  C4  UNL     1       4.328   0.209   1.240  1.00  0.00     0.010 C 
ENDROOT
BRANCH   4   5
HETATM    5  C5  UNL     1       4.086   0.004  -0.165  1.00  0.00     0.018 C 
HETATM    6  C6  UNL     1       2.858  -0.036  -0.595  1.00  0.00     0.088 C 
BRANCH   6   7
HETATM    7  N1  UNL     1       1.806   0.128   0.358  1.00  0.00    -0.365 N 
HETATM    8  H6  UNL     1       1.804   0.981   0.949  1.00  0.00     0.165 HD
BRANCH   7   9
HETATM    9  C7  UNL     1       0.647  -0.577   0.797  1.00  0.00     0.046 A 
HETATM   10  C8  UNL     1       0.670  -1.499   1.827  1.00  0.00     0.049 A 
HETATM   11  C9  UNL     1      -0.548  -2.093   2.125  1.00  0.00     0.119 A 
HETATM   12  N2  UNL     1      -1.682  -1.800   1.463  1.00  0.00    -0.260 NA
HETATM   13  C10 UNL     1      -1.687  -0.898   0.460  1.00  0.00     0.071 A 
HETATM   14  C11 UNL     1      -2.865  -0.612  -0.208  1.00  0.00     0.070 A 
HETATM   15  C17 UNL     1      -0.511  -0.261   0.102  1.00  0.00     0.021 A 
HETATM   16  C12 UNL     1      -2.899   0.306  -1.237  1.00  0.00     0.088 A 
HETATM   17  C15 UNL     1      -1.714   0.950  -1.601  1.00  0.00     0.045 A 
HETATM   18 BR1  UNL     1      -1.605   2.239  -3.000  1.00  0.00    -0.048 Br
HETATM   19  C16 UNL     1      -0.527   0.667  -0.933  1.00  0.00     0.038 A 
BRANCH  16  20
HETATM   20  O1  UNL     1      -3.978   0.692  -1.986  1.00  0.00    -0.350 OA
BRANCH  20  21
HETATM   21  C13 UNL     1      -5.289   0.232  -1.865  1.00  0.00     0.171 C 
HETATM   22  C14 UNL     1      -5.881   0.500  -0.499  1.00  0.00     0.034 C 
ENDBRANCH  20  21
ENDBRANCH  16  20
ENDBRANCH   7   9
ENDBRANCH   6   7
ENDBRANCH   4   5
TORSDOF 5
