REMARK  2 active torsions:
REMARK  status: ('A' for Active; 'I' for Inactive)
REMARK    1  A    between atoms: C4_5  and  N1_6 
REMARK    2  A    between atoms: N1_6  and  C5_7 
ROOT
HETATM    1  C5  UNL     1       0.684  -0.138   1.658  1.00  0.00     0.160 A 
HETATM    2  N2  UNL     1       0.720  -0.625   2.906  1.00  0.00    -0.222 NA
HETATM    3  C6  UNL     1      -0.271  -1.328   3.479  1.00  0.00     0.238 A 
HETATM    4  N3  UNL     1      -1.389  -1.576   2.776  1.00  0.00    -0.215 NA
HETATM    5  C7  UNL     1      -1.534  -1.129   1.496  1.00  0.00     0.202 A 
HETATM    6  C8  UNL     1      -0.480  -0.416   0.973  1.00  0.00     0.129 A 
HETATM    7  N4  UNL     1      -0.436   0.135  -0.336  1.00  0.00    -0.379 N 
HETATM    8  C9  UNL     1      -1.407   0.342  -1.370  1.00  0.00     0.161 C 
HETATM    9  C10 UNL     1      -2.789   0.020  -1.043  1.00  0.00    -0.004 A 
HETATM   10  C11 UNL     1      -3.609   0.681  -1.961  1.00  0.00     0.054 A 
HETATM   11  C12 UNL     1      -4.991   0.565  -1.903  1.00  0.00     0.117 A 
HETATM   12  F2  UNL     1      -5.844   1.173  -2.754  1.00  0.00    -0.206 F 
HETATM   13  C13 UNL     1      -5.610  -0.209  -0.934  1.00  0.00     0.045 A 
HETATM   14  C14 UNL     1      -4.815  -0.882  -0.003  1.00  0.00     0.041 A 
HETATM   15  C15 UNL     1      -3.438  -0.745  -0.089  1.00  0.00     0.086 A 
HETATM   16  O1  UNL     1      -2.751  -1.466   0.898  1.00  0.00    -0.289 OA
HETATM   17  H5  UNL     1       0.499   0.478  -0.652  1.00  0.00     0.160 HD
ENDROOT
BRANCH   1  18
HETATM   18  N1  UNL     1       1.759   0.599   1.108  1.00  0.00    -0.341 N 
HETATM   19  H3  UNL     1       1.386   1.520   1.410  1.00  0.00     0.167 HD
BRANCH  18  20
HETATM   20  C4  UNL     1       2.951   0.316   0.391  1.00  0.00     0.030 A 
HETATM   21  C3  UNL     1       3.067  -0.814  -0.275  1.00  0.00     0.031 A 
HETATM   22  C2  UNL     1       4.332  -1.011  -0.979  1.00  0.00     0.064 A 
HETATM   23  C1  UNL     1       5.347  -0.155  -0.995  1.00  0.00     0.201 A 
HETATM   24  F1  UNL     1       6.519  -0.323  -1.639  1.00  0.00    -0.185 F 
HETATM   25  N5  UNL     1       5.118   1.033  -0.240  1.00  0.00    -0.260 N 
HETATM   26  C16 UNL     1       3.940   1.408   0.516  1.00  0.00     0.202 A 
HETATM   27 CL1  UNL     1       6.370   2.263  -0.159  1.00  0.00     0.016 Cl
ENDBRANCH  18  20
ENDBRANCH   1  18
TORSDOF 2
