REMARK  5 active torsions:
REMARK  status: ('A' for Active; 'I' for Inactive)
REMARK    1  A    between atoms: C2_2  and  O1_3 
REMARK    2  A    between atoms: O1_3  and  C3_4 
REMARK    3  A    between atoms: C4_5  and  N1_6 
REMARK    4  A    between atoms: N1_6  and  C5_7 
REMARK    5  A    between atoms: C5_7  and  C6_8 
ROOT
HETATM    1  C3  UNL     1       0.560   0.526  -0.063  1.00  0.00     0.201 C 
HETATM    2  C4  UNL     1       0.906  -0.841  -0.382  1.00  0.00     0.040 C 
HETATM    3  C7  UNL     1       0.262  -2.007  -0.552  1.00  0.00     0.040 C 
HETATM    4  C8  UNL     1      -1.211  -2.116  -0.414  1.00  0.00    -0.018 C 
HETATM    5  C9  UNL     1      -2.060  -1.471  -1.249  1.00  0.00     0.011 C 
HETATM    6  C10 UNL     1      -3.043  -0.349  -0.987  1.00  0.00     0.111 C 
HETATM    7  C11 UNL     1      -2.609   0.792  -1.892  1.00  0.00     0.063 C 
HETATM    8  C12 UNL     1      -1.212   1.228  -1.516  1.00  0.00    -0.075 C 
HETATM    9  C13 UNL     1      -0.276   1.898  -2.454  1.00  0.00     0.044 C 
HETATM   10  C14 UNL     1      -0.808   0.985  -0.246  1.00  0.00    -0.026 C 
HETATM   11  C15 UNL     1      -2.016   1.292   0.633  1.00  0.00     0.160 C 
HETATM   12  N2  UNL     1      -2.826   0.070   0.411  1.00  0.00    -0.376 N 
HETATM   13  C16 UNL     1      -3.199  -0.443   1.712  1.00  0.00     0.105 C 
HETATM   14  C17 UNL     1      -3.236  -1.744   2.115  1.00  0.00     0.133 C 
HETATM   15  N3  UNL     1      -2.631  -2.966   1.542  1.00  0.00    -0.271 NA
HETATM   16  C18 UNL     1      -1.564  -2.993   0.739  1.00  0.00     0.127 C 
ENDROOT
BRANCH   2  17
HETATM   17  N1  UNL     1       2.339  -1.021  -0.550  1.00  0.00    -0.384 N 
HETATM   18  H7  UNL     1       2.712  -0.660  -1.449  1.00  0.00     0.159 HD
BRANCH  17  19
HETATM   19  C5  UNL     1       3.106  -1.654   0.486  1.00  0.00     0.189 C 
BRANCH  19  20
HETATM   20  C6  UNL     1       4.542  -1.745   0.131  1.00  0.00     0.250 C 
HETATM   21  O2  UNL     1       5.501  -2.200   0.720  1.00  0.00    -0.305 OA
ENDBRANCH  19  20
ENDBRANCH  17  19
ENDBRANCH   2  17
BRANCH   1  22
HETATM   22  O1  UNL     1       1.092   0.954   1.183  1.00  0.00    -0.376 OA
BRANCH  22  23
HETATM   23  C2  UNL     1       2.031   1.931   0.855  1.00  0.00     0.164 C 
HETATM   24  C1  UNL     1       2.715   2.515   2.062  1.00  0.00     0.033 C 
ENDBRANCH  22  23
ENDBRANCH   1  22
TORSDOF 5
