REMARK  7 active torsions:
REMARK  status: ('A' for Active; 'I' for Inactive)
REMARK    1  A    between atoms: C2_2  and  C3_3 
REMARK    2  A    between atoms: C4_4  and  C5_5 
REMARK    3  A    between atoms: C5_5  and  N1_6 
REMARK    4  A    between atoms: C11_14  and  N3_15 
REMARK    5  A    between atoms: N3_15  and  C12_16 
REMARK    6  A    between atoms: C12_16  and  C13_17 
REMARK    7  A    between atoms: C13_17  and  N4_18 
ROOT
HETATM    1  N1  UNL     1       3.107  -0.371   0.287  1.00  0.00    -0.285 NA
HETATM    2  C6  UNL     1       2.566  -1.502   0.638  1.00  0.00     0.067 A 
HETATM    3  C7  UNL     1       3.299  -2.683   1.105  1.00  0.00     0.051 A 
HETATM    4  C8  UNL     1       2.757  -3.806   1.561  1.00  0.00     0.120 A 
HETATM    5  N2  UNL     1       1.321  -3.843   1.595  1.00  0.00    -0.253 NA
HETATM    6  C9  UNL     1       0.612  -2.848   1.209  1.00  0.00     0.116 A 
HETATM    7 BR1  UNL     1      -1.244  -3.167   1.368  1.00  0.00    -0.028 Br
HETATM    8  C10 UNL     1       1.129  -1.595   0.697  1.00  0.00     0.043 A 
HETATM    9  C11 UNL     1       0.416  -0.570   0.324  1.00  0.00     0.099 C 
ENDROOT
BRANCH   9  10
HETATM   10  N3  UNL     1      -0.954  -0.324   0.257  1.00  0.00    -0.396 N 
HETATM   11  H11 UNL     1      -1.004  -1.073  -0.510  1.00  0.00     0.158 HD
BRANCH  10  12
HETATM   12  C12 UNL     1      -2.329  -0.078   0.190  1.00  0.00     0.149 C 
BRANCH  12  13
HETATM   13  C13 UNL     1      -2.829   0.542  -1.095  1.00  0.00     0.292 C 
BRANCH  13  14
HETATM   14  N4  UNL     1      -4.250   0.748  -1.088  1.00  0.00     0.094 N 
HETATM   15  C14 UNL     1      -4.679   1.775  -0.169  1.00  0.00     0.298 C 
HETATM   16  C15 UNL     1      -5.757   1.250   0.733  1.00  0.00     0.198 C 
HETATM   17  O1  UNL     1      -6.865   0.765   0.041  1.00  0.00    -0.388 OA
HETATM   18  C16 UNL     1      -6.475  -0.077  -1.026  1.00  0.00     0.198 C 
HETATM   19  C17 UNL     1      -5.008  -0.463  -0.928  1.00  0.00     0.298 C 
ENDBRANCH  13  14
ENDBRANCH  12  13
ENDBRANCH  10  12
ENDBRANCH   9  10
BRANCH   1  20
HETATM   20  C5  UNL     1       4.481  -0.158   0.341  1.00  0.00     0.177 C 
BRANCH  20  21
HETATM   21  C4  UNL     1       5.269   0.373  -0.768  1.00  0.00    -0.005 C 
HETATM   22  C3  UNL     1       5.892   1.555  -0.572  1.00  0.00    -0.003 C 
BRANCH  22  23
HETATM   23  C2  UNL     1       6.710   2.092  -1.686  1.00  0.00    -0.011 C 
HETATM   24  C1  UNL     1       7.087   3.226  -1.035  1.00  0.00     0.011 C 
ENDBRANCH  22  23
ENDBRANCH  20  21
ENDBRANCH   1  20
TORSDOF 7
