REMARK  8 active torsions:
REMARK  status: ('A' for Active; 'I' for Inactive)
REMARK    1  A    between atoms: O1_2  and  C2_3 
REMARK    2  A    between atoms: C4_5  and  N1_6 
REMARK       I    between atoms: N1_6  and  C5_7 
REMARK    3  A    between atoms: C5_7  and  P1_9 
REMARK    4  A    between atoms: P1_9  and  C6_10 
REMARK    5  A    between atoms: C6_10  and  C7_11 
REMARK    6  A    between atoms: C7_11  and  N2_12 
REMARK    7  A    between atoms: C14_20  and  N3_21 
REMARK    8  A    between atoms: N3_21  and  C15_22 
ROOT
HETATM    1  C2  UNL     1      -1.981  -2.913   0.288  1.00  0.00     0.096 A 
HETATM    2  C3  UNL     1      -0.931  -2.218  -0.161  1.00  0.00     0.068 A 
HETATM    3  C4  UNL     1      -0.922  -0.929  -0.456  1.00  0.00     0.035 A 
HETATM    4  C12 UNL     1      -2.026  -0.160  -0.324  1.00  0.00     0.031 A 
HETATM    5  C13 UNL     1      -3.355  -0.654   0.157  1.00  0.00     0.106 A 
HETATM    6  C14 UNL     1      -4.615   0.428   0.260  1.00  0.00     0.114 A 
HETATM    7  C20 UNL     1      -4.715  -0.591   0.519  1.00  0.00     0.005 A 
HETATM    8  C21 UNL     1      -4.778  -1.439   0.729  1.00  0.00     0.066 A 
HETATM    9  N4  UNL     1      -4.829  -2.540   0.993  1.00  0.00    -0.251 NA
HETATM   10  C22 UNL     1      -3.162  -2.263   0.468  1.00  0.00     0.092 A 
ENDROOT
BRANCH   3  11
HETATM   11  N1  UNL     1       0.197  -0.302  -0.926  1.00  0.00    -0.323 N 
HETATM   12  C5  UNL     1       1.348  -1.010  -1.165  1.00  0.00     0.255 C 
HETATM   13  O2  UNL     1       1.497  -2.225  -0.996  1.00  0.00    -0.267 OA
HETATM   14  H5  UNL     1       0.287   0.703  -1.133  1.00  0.00     0.169 HD
BRANCH  12  15
HETATM   15  P1  UNL     1       2.873  -0.263  -1.783  1.00  0.00     0.043 P 
BRANCH  15  16
HETATM   16  C6  UNL     1       4.391  -0.632  -1.232  1.00  0.00     0.014 C 
BRANCH  16  17
HETATM   17  C7  UNL     1       5.256  -1.421  -0.312  1.00  0.00     0.146 C 
BRANCH  17  18
HETATM   18  N2  UNL     1       6.459  -0.741   0.030  1.00  0.00    -0.405 N 
HETATM   19  C8  UNL     1       6.329   0.421   0.842  1.00  0.00     0.143 C 
HETATM   20  C9  UNL     1       6.572   1.705   0.120  1.00  0.00     0.187 C 
HETATM   21  O3  UNL     1       7.726   1.670  -0.644  1.00  0.00    -0.388 OA
HETATM   22  C10 UNL     1       7.721   0.649  -1.580  1.00  0.00     0.187 C 
HETATM   23  C11 UNL     1       7.459  -0.696  -0.981  1.00  0.00     0.143 C 
ENDBRANCH  17  18
ENDBRANCH  16  17
ENDBRANCH  15  16
ENDBRANCH  12  15
ENDBRANCH   3  11
BRANCH   1  24
HETATM   24  O1  UNL     1      -2.459  -4.111   0.692  1.00  0.00    -0.354 OA
HETATM   25  C1  UNL     1      -1.810  -5.310   0.785  1.00  0.00     0.210 C 
ENDBRANCH   1  24
BRANCH   6  26
HETATM   26  N3  UNL     1      -4.005   1.588  -0.173  1.00  0.00    -0.372 N 
HETATM   27  H18 UNL     1      -3.325   2.290  -0.524  1.00  0.00     0.161 HD
BRANCH  26  28
HETATM   28  C15 UNL     1      -5.185   2.329   0.000  1.00  0.00     0.023 A 
HETATM   29  C16 UNL     1      -5.569   2.949   1.121  1.00  0.00    -0.007 A 
HETATM   30  C17 UNL     1      -6.762   3.769   1.498  1.00  0.00    -0.020 A 
HETATM   31  B1  UNL     1      -7.749   3.914   0.265  1.00  0.00     0.185 B 
HETATM   32  C18 UNL     1      -7.304   3.190  -1.051  1.00  0.00    -0.080 A 
HETATM   33  H22 UNL     1      -8.394   4.875   0.182  1.00  0.00    -0.021 HD
HETATM   34  C19 UNL     1      -6.154   2.512  -1.079  1.00  0.00     0.013 A 
ENDBRANCH  26  28
ENDBRANCH   6  26
TORSDOF 8
