REMARK  5 active torsions:
REMARK  status: ('A' for Active; 'I' for Inactive)
REMARK    1  A    between atoms: N1_7  and  C7_8 
REMARK       I    between atoms: N3_15  and  C13_16 
REMARK    2  A    between atoms: C13_16  and  C14_18 
REMARK    3  A    between atoms: C15_19  and  C16_20 
REMARK    4  A    between atoms: C16_20  and  N4_21 
REMARK    5  A    between atoms: C23_29  and  O3_30 
ROOT
HETATM    1  C7  UNL     1      -4.012  -0.105   0.156  1.00  0.00     0.050 A 
HETATM    2  C8  UNL     1      -5.231  -0.195   0.837  1.00  0.00     0.050 A 
HETATM    3  C9  UNL     1      -5.173   0.018   2.208  1.00  0.00     0.119 A 
HETATM    4  N2  UNL     1      -4.004   0.294   2.831  1.00  0.00    -0.258 NA
HETATM    5  C10 UNL     1      -2.874   0.366   2.123  1.00  0.00     0.099 A 
HETATM    6  C11 UNL     1      -2.809   0.174   0.765  1.00  0.00     0.018 A 
HETATM    7  C12 UNL     1      -1.713   0.197  -0.202  1.00  0.00     0.169 A 
HETATM    8  N3  UNL     1      -0.440   0.523   0.360  1.00  0.00    -0.341 N 
HETATM    9  C13 UNL     1       0.415   0.491  -0.763  1.00  0.00     0.243 C 
HETATM   10  O1  UNL     1      -0.312   0.184  -1.735  1.00  0.00    -0.268 OA
HETATM   11  C21 UNL     1       0.330   0.853   1.516  1.00  0.00     0.156 A 
HETATM   12  C22 UNL     1      -0.531   0.853   2.708  1.00  0.00     0.032 A 
HETATM   13  C23 UNL     1      -1.795   0.675   3.053  1.00  0.00     0.095 A 
ENDROOT
BRANCH   9  14
HETATM   14  C14 UNL     1       1.801   0.696  -1.105  1.00  0.00     0.072 C 
HETATM   15  C15 UNL     1       2.963   1.015  -0.594  1.00  0.00     0.008 C 
BRANCH  15  16
HETATM   16  C16 UNL     1       4.390   1.252  -0.798  1.00  0.00     0.300 C 
BRANCH  16  17
HETATM   17  N4  UNL     1       5.186   0.322   0.013  1.00  0.00     0.096 N 
HETATM   18  C17 UNL     1       6.570   0.597  -0.209  1.00  0.00     0.299 C 
HETATM   19  C18 UNL     1       7.263  -0.418  -1.095  1.00  0.00     0.198 C 
HETATM   20  O2  UNL     1       7.119  -1.656  -0.493  1.00  0.00    -0.388 OA
HETATM   21  C19 UNL     1       5.824  -2.049  -0.317  1.00  0.00     0.198 C 
HETATM   22  C20 UNL     1       4.780  -0.996  -0.386  1.00  0.00     0.299 C 
ENDBRANCH  16  17
ENDBRANCH  15  16
ENDBRANCH   9  14
BRANCH   1  23
HETATM   23  N1  UNL     1      -4.118  -0.328  -1.245  1.00  0.00    -0.323 N 
HETATM   24  C2  UNL     1      -4.396   0.692  -2.198  1.00  0.00     0.029 A 
HETATM   25  C1  UNL     1      -4.574   1.935  -1.766  1.00  0.00     0.043 C 
HETATM   26  C3  UNL     1      -4.470   0.305  -3.603  1.00  0.00     0.029 A 
HETATM   27  C4  UNL     1      -4.270  -0.974  -3.869  1.00  0.00     0.004 A 
HETATM   28  C5  UNL     1      -3.985  -2.025  -2.907  1.00  0.00     0.018 A 
HETATM   29  C6  UNL     1      -3.916  -1.685  -1.635  1.00  0.00     0.097 A 
ENDBRANCH   1  23
BRANCH  13  30
HETATM   30  O3  UNL     1      -2.111   0.791   4.407  1.00  0.00    -0.354 OA
HETATM   31  C24 UNL     1      -2.334  -0.458   5.075  1.00  0.00     0.210 C 
ENDBRANCH  13  30
TORSDOF 5
