REMARK  4 active torsions:
REMARK  status: ('A' for Active; 'I' for Inactive)
REMARK    1  A    between atoms: O1_2  and  C2_3 
REMARK    2  A    between atoms: C2_3  and  N1_4 
REMARK    3  A    between atoms: C14_19  and  N5_20 
REMARK    4  A    between atoms: N5_20  and  C15_21 
ROOT
HETATM    1  N1  UNL     1      -0.924   0.495   0.351  1.00  0.00    -0.353 N 
HETATM    2  C3  UNL     1      -2.124   1.326   0.150  1.00  0.00     0.152 C 
HETATM    3  C4  UNL     1      -2.722   1.096  -1.162  1.00  0.00    -0.009 C 
HETATM    4  C5  UNL     1      -3.895   0.595  -1.521  1.00  0.00     0.005 C 
HETATM    5  C6  UNL     1      -4.671   0.223  -0.296  1.00  0.00     0.239 C 
HETATM    6  C7  UNL     1      -5.110   1.485   0.376  1.00  0.00     0.047 C 
HETATM    7  N2  UNL     1      -3.759  -0.546   0.515  1.00  0.00     0.092 N 
HETATM    8  C8  UNL     1      -3.359  -1.778   0.007  1.00  0.00     0.295 C 
HETATM    9  C9  UNL     1      -2.524  -1.941  -1.178  1.00  0.00     0.175 C 
HETATM   10  C10 UNL     1      -2.477  -3.444  -1.381  1.00  0.00     0.072 C 
HETATM   11  N3  UNL     1      -2.444  -4.610  -1.544  1.00  0.00    -0.196 NA
HETATM   12  C11 UNL     1      -1.125  -1.500  -1.166  1.00  0.00     0.082 A 
HETATM   13  N4  UNL     1      -0.318  -2.256  -1.956  1.00  0.00    -0.262 NA
HETATM   14  C12 UNL     1       0.973  -2.124  -2.165  1.00  0.00     0.119 A 
HETATM   15  C13 UNL     1       1.681  -1.120  -1.549  1.00  0.00     0.051 A 
HETATM   16  C14 UNL     1       0.931  -0.308  -0.729  1.00  0.00     0.063 A 
HETATM   17  C22 UNL     1      -0.414  -0.486  -0.543  1.00  0.00     0.085 A 
HETATM   18  H14 UNL     1      -4.000  -0.618   1.508  1.00  0.00     0.316 HD
ENDROOT
BRANCH   1  19
HETATM   19  C2  UNL     1      -0.359   0.805   1.646  1.00  0.00     0.292 C 
BRANCH  19  20
HETATM   20  O1  UNL     1      -0.262   2.143   1.943  1.00  0.00    -0.377 OA
HETATM   21  C1  UNL     1       0.308   2.203   3.234  1.00  0.00     0.203 C 
ENDBRANCH  19  20
ENDBRANCH   1  19
BRANCH  16  22
HETATM   22  N5  UNL     1       1.660   0.726  -0.075  1.00  0.00    -0.354 N 
HETATM   23  H20 UNL     1       1.762   1.561   0.527  1.00  0.00     0.166 HD
BRANCH  22  24
HETATM   24  C15 UNL     1       3.089   0.787  -0.257  1.00  0.00     0.033 A 
HETATM   25  C16 UNL     1       3.940   1.776  -0.756  1.00  0.00     0.029 A 
HETATM   26  C17 UNL     1       5.333   1.646  -0.830  1.00  0.00     0.003 A 
HETATM   27  C18 UNL     1       5.902   0.473  -0.384  1.00  0.00     0.007 A 
HETATM   28  C19 UNL     1       5.115  -0.525   0.112  1.00  0.00    -0.060 A 
HETATM   29  C20 UNL     1       5.840  -1.733   0.555  1.00  0.00     0.048 C 
HETATM   30  C21 UNL     1       3.756  -0.354   0.165  1.00  0.00     0.036 A 
ENDBRANCH  22  24
ENDBRANCH  16  22
TORSDOF 4
