REMARK  4 active torsions:
REMARK  status: ('A' for Active; 'I' for Inactive)
REMARK    1  A    between atoms: C1_2  and  C2_3 
REMARK       I    between atoms: C1_2  and  N2_12 
REMARK    2  A    between atoms: C3_4  and  C4_5 
REMARK    3  A    between atoms: C4_5  and  N1_6 
REMARK    4  A    between atoms: N2_12  and  C9_13 
ROOT
HETATM    1  C9  UNL     1       1.281   0.184   0.333  1.00  0.00     0.049 A 
HETATM    2  C10 UNL     1       2.250  -0.721   0.700  1.00  0.00     0.023 A 
HETATM    3  C11 UNL     1       2.536  -0.963  -0.570  1.00  0.00     0.081 A 
HETATM    4  C12 UNL     1       3.673  -1.640  -0.780  1.00  0.00    -0.036 A 
HETATM    5  C13 UNL     1       4.667  -2.235  -1.575  1.00  0.00     0.027 A 
HETATM    6  C14 UNL     1       4.317  -2.012  -2.935  1.00  0.00     0.112 A 
HETATM    7  N3  UNL     1       3.173  -1.304  -3.000  1.00  0.00    -0.282 NA
HETATM    8  C15 UNL     1       2.501  -0.906  -1.918  1.00  0.00     0.128 A 
HETATM    9  C16 UNL     1       1.518   0.016  -2.356  1.00  0.00     0.029 A 
HETATM   10  C17 UNL     1       1.514  -0.009  -0.999  1.00  0.00     0.136 A 
HETATM   11  O3  UNL     1       0.583   1.053  -1.335  1.00  0.00    -0.331 OA
HETATM   12  C18 UNL     1       1.309   2.354  -1.135  1.00  0.00     0.335 A 
HETATM   13  C19 UNL     1       2.372   2.265  -0.311  1.00  0.00     0.112 A 
HETATM   14  F1  UNL     1       2.114   3.537  -0.820  1.00  0.00    -0.334 F 
HETATM   15  C20 UNL     1       3.492   2.237   0.570  1.00  0.00     0.041 C 
HETATM   16  C21 UNL     1       4.284   1.188   0.921  1.00  0.00     0.026 C 
HETATM   17  C22 UNL     1       4.875  -0.189   1.005  1.00  0.00     0.034 C 
HETATM   18 CL1  UNL     1       6.154  -0.312   2.256  1.00  0.00    -0.084 Cl
HETATM   19  C23 UNL     1       4.677  -1.395   0.368  1.00  0.00     0.032 C 
ENDROOT
BRANCH   1  20
HETATM   20  N2  UNL     1       0.362   0.955   1.098  1.00  0.00    -0.324 N 
HETATM   21  C1  UNL     1      -0.491   1.745   1.844  1.00  0.00     0.245 C 
HETATM   22  O1  UNL     1       0.245   2.776   2.014  1.00  0.00    -0.268 OA
HETATM   23  H13 UNL     1      -0.160   0.047   0.888  1.00  0.00     0.169 HD
BRANCH  21  24
HETATM   24  C2  UNL     1      -1.866   1.370   2.258  1.00  0.00     0.072 C 
HETATM   25  C3  UNL     1      -2.707   0.340   2.145  1.00  0.00    -0.002 C 
BRANCH  25  26
HETATM   26  C4  UNL     1      -2.842  -0.998   1.593  1.00  0.00     0.144 C 
BRANCH  26  27
HETATM   27  N1  UNL     1      -3.891  -1.184   0.622  1.00  0.00    -0.405 N 
HETATM   28  C5  UNL     1      -5.219  -1.106   1.107  1.00  0.00     0.143 C 
HETATM   29  C6  UNL     1      -6.096  -0.699  -0.078  1.00  0.00     0.187 C 
HETATM   30  O2  UNL     1      -5.722   0.629  -0.367  1.00  0.00    -0.388 OA
HETATM   31  C7  UNL     1      -4.446   0.670  -0.920  1.00  0.00     0.187 C 
HETATM   32  C8  UNL     1      -3.624  -0.536  -0.632  1.00  0.00     0.143 C 
ENDBRANCH  26  27
ENDBRANCH  25  26
ENDBRANCH  21  24
ENDBRANCH   1  20
TORSDOF 4
