REMARK  7 active torsions:
REMARK  status: ('A' for Active; 'I' for Inactive)
REMARK    1  A    between atoms: O1_2  and  C2_3 
REMARK    2  A    between atoms: C7_9  and  N2_10 
REMARK    3  A    between atoms: C15_20  and  N3_21 
REMARK    4  A    between atoms: N3_21  and  C16_22 
REMARK    5  A    between atoms: C16_22  and  C17_23 
REMARK    6  A    between atoms: C18_24  and  C19_25 
REMARK    7  A    between atoms: C19_25  and  N4_26 
ROOT
HETATM    1  C2  UNL     1      -0.386  -2.721   1.390  1.00  0.00     0.096 A 
HETATM    2  C3  UNL     1      -1.522  -3.104   2.117  1.00  0.00     0.071 A 
HETATM    3  C4  UNL     1      -2.694  -2.424   1.935  1.00  0.00     0.071 A 
HETATM    4  N1  UNL     1      -3.765  -2.804   2.643  1.00  0.00    -0.260 NA
HETATM    5  C5  UNL     1      -4.946  -2.161   2.502  1.00  0.00     0.119 A 
HETATM    6  C6  UNL     1      -5.115  -1.099   1.638  1.00  0.00     0.049 A 
HETATM    7  C7  UNL     1      -4.029  -0.659   0.871  1.00  0.00     0.047 A 
HETATM    8  C13 UNL     1      -2.872  -1.370   1.080  1.00  0.00     0.022 A 
HETATM    9  C14 UNL     1      -1.777  -0.982   0.364  1.00  0.00     0.048 A 
HETATM   10  C15 UNL     1      -0.594  -1.642   0.526  1.00  0.00     0.063 A 
ENDROOT
BRANCH  10  11
HETATM   11  N3  UNL     1       0.698  -1.385  -0.117  1.00  0.00    -0.384 N 
HETATM   12  H15 UNL     1       0.396  -0.540  -0.702  1.00  0.00     0.160 HD
BRANCH  11  13
HETATM   13  C16 UNL     1       1.903  -1.146  -0.718  1.00  0.00     0.147 C 
BRANCH  13  14
HETATM   14  C17 UNL     1       2.580   0.170  -0.414  1.00  0.00    -0.010 C 
HETATM   15  C18 UNL     1       3.688   0.691   0.080  1.00  0.00    -0.010 C 
BRANCH  15  16
HETATM   16  C19 UNL     1       5.007   0.492   0.665  1.00  0.00     0.144 C 
BRANCH  16  17
HETATM   17  N4  UNL     1       6.115   1.042  -0.026  1.00  0.00    -0.405 N 
HETATM   18  C20 UNL     1       6.469   0.475  -1.271  1.00  0.00     0.143 C 
HETATM   19  C21 UNL     1       5.778   1.093  -2.426  1.00  0.00     0.187 C 
HETATM   20  O2  UNL     1       5.344   2.353  -2.148  1.00  0.00    -0.388 OA
HETATM   21  C22 UNL     1       6.104   3.118  -1.306  1.00  0.00     0.187 C 
HETATM   22  C23 UNL     1       6.276   2.468   0.054  1.00  0.00     0.143 C 
ENDBRANCH  16  17
ENDBRANCH  15  16
ENDBRANCH  13  14
ENDBRANCH  11  13
ENDBRANCH  10  11
BRANCH   1  23
HETATM   23  O1  UNL     1       0.792  -3.422   1.587  1.00  0.00    -0.354 OA
HETATM   24  C1  UNL     1       0.786  -4.491   2.514  1.00  0.00     0.210 C 
ENDBRANCH   1  23
BRANCH   7  25
HETATM   25  N2  UNL     1      -4.212   0.426  -0.032  1.00  0.00    -0.338 N 
HETATM   26  C8  UNL     1      -4.168   0.516  -1.454  1.00  0.00     0.155 C 
HETATM   27  C9  UNL     1      -5.289   1.302  -2.050  1.00  0.00     0.007 C 
HETATM   28  C10 UNL     1      -6.325   2.008  -1.560  1.00  0.00    -0.024 C 
HETATM   29  C11 UNL     1      -7.434   2.785  -2.126  1.00  0.00     0.056 C 
HETATM   30  S1  UNL     1      -6.294   1.971   0.256  1.00  0.00    -0.077 SA
HETATM   31  C12 UNL     1      -4.508   1.707   0.609  1.00  0.00     0.340 C 
HETATM   32  F1  UNL     1      -4.313   1.680   1.948  1.00  0.00    -0.214 F 
ENDBRANCH   7  25
TORSDOF 7
