REMARK  2 active torsions:
REMARK  status: ('A' for Active; 'I' for Inactive)
REMARK    1  A    between atoms: C8_10  and  N2_11 
REMARK    2  A    between atoms: N2_11  and  C9_12 
ROOT
HETATM    1  C1  UNL     1      -4.953   1.846   1.397  1.00  0.00     0.063 C 
HETATM    2  C2  UNL     1      -3.960   2.106   0.334  1.00  0.00     0.222 C 
HETATM    3  O1  UNL     1      -4.657   2.347  -0.892  1.00  0.00    -0.346 OA
HETATM    4  C3  UNL     1      -4.222   1.372  -1.806  1.00  0.00     0.321 C 
HETATM    5  N1  UNL     1      -2.833   1.141  -1.931  1.00  0.00    -0.250 NA
HETATM    6  C4  UNL     1      -2.102   0.829  -0.929  1.00  0.00     0.109 C 
HETATM    7  C5  UNL     1      -0.720   0.533  -0.696  1.00  0.00     0.081 C 
HETATM    8  C6  UNL     1       0.300   1.511  -1.160  1.00  0.00    -0.016 C 
HETATM    9  C7  UNL     1       1.521   1.020  -0.804  1.00  0.00    -0.001 C 
HETATM   10  C8  UNL     1       1.868  -0.250  -0.064  1.00  0.00     0.135 C 
HETATM   11  C15 UNL     1       0.661  -0.837   0.605  1.00  0.00    -0.038 C 
HETATM   12  C16 UNL     1       0.705  -2.123   0.912  1.00  0.00     0.088 C 
HETATM   13  N3  UNL     1      -0.134  -3.089   1.516  1.00  0.00    -0.395 N 
HETATM   14  C17 UNL     1      -1.209  -3.548   0.610  1.00  0.00     0.146 C 
HETATM   15  C18 UNL     1      -2.146  -2.409   0.369  1.00  0.00    -0.010 C 
HETATM   16  C19 UNL     1      -2.813  -1.495  -0.312  1.00  0.00    -0.009 C 
HETATM   17  C20 UNL     1      -3.782  -0.441   0.094  1.00  0.00     0.154 C 
HETATM   18  N4  UNL     1      -3.279   0.880  -0.145  1.00  0.00    -0.339 N 
HETATM   19  C21 UNL     1      -0.373   0.255   0.747  1.00  0.00     0.054 C 
HETATM   20  H17 UNL     1       0.021  -3.422   2.510  1.00  0.00     0.159 HD
ENDROOT
BRANCH  10  21
HETATM   21  N2  UNL     1       2.948  -0.078   0.835  1.00  0.00    -0.378 N 
HETATM   22  H11 UNL     1       2.697  -0.154   1.859  1.00  0.00     0.160 HD
BRANCH  21  23
HETATM   23  C9  UNL     1       4.295   0.180   0.539  1.00  0.00     0.030 A 
HETATM   24  C10 UNL     1       4.819   0.276  -0.732  1.00  0.00     0.029 A 
HETATM   25  C11 UNL     1       6.135   0.538  -1.049  1.00  0.00     0.004 A 
HETATM   26  C12 UNL     1       7.014   0.721   0.010  1.00  0.00     0.019 A 
HETATM   27  C13 UNL     1       6.568   0.639   1.312  1.00  0.00     0.013 A 
HETATM   28 BR1  UNL     1       7.765   0.887   2.778  1.00  0.00    -0.051 Br
HETATM   29  C14 UNL     1       5.234   0.373   1.529  1.00  0.00     0.048 A 
ENDBRANCH  21  23
ENDBRANCH  10  21
TORSDOF 2
