REMARK  5 active torsions:
REMARK  status: ('A' for Active; 'I' for Inactive)
REMARK    1  A    between atoms: O1_2  and  C2_3 
REMARK    2  A    between atoms: C5_7  and  C6_8 
REMARK    3  A    between atoms: C7_9  and  C8_10 
REMARK    4  A    between atoms: C8_10  and  N2_11 
REMARK    5  A    between atoms: C21_26  and  O3_27 
ROOT
HETATM    1  C2  UNL     1       5.011  -1.521  -0.919  1.00  0.00     0.069 C 
HETATM    2  C3  UNL     1       3.768  -1.885  -1.200  1.00  0.00     0.073 C 
HETATM    3  C4  UNL     1       2.328  -1.992  -1.349  1.00  0.00     0.132 C 
HETATM    4  N1  UNL     1       1.516  -0.939  -0.776  1.00  0.00    -0.389 N 
HETATM    5  C5  UNL     1       0.700   0.120  -0.184  1.00  0.00     0.039 C 
HETATM    6  C13 UNL     1       1.322   1.090   0.397  1.00  0.00     0.029 C 
HETATM    7  C14 UNL     1       2.658   1.530   0.723  1.00  0.00    -0.006 C 
HETATM    8  C15 UNL     1       3.885   1.073   0.520  1.00  0.00     0.128 C 
HETATM    9  N3  UNL     1       5.209   0.677   0.357  1.00  0.00    -0.270 NA
HETATM   10  C16 UNL     1       5.663  -0.377  -0.228  1.00  0.00     0.148 C 
HETATM   11  C17 UNL     1       2.931   2.666   1.669  1.00  0.00     0.013 C 
HETATM   12  C18 UNL     1       2.017   3.204   2.536  1.00  0.00     0.001 C 
HETATM   13  C19 UNL     1       0.585   2.791   2.729  1.00  0.00     0.000 C 
HETATM   14  C20 UNL     1      -0.285   2.287   1.817  1.00  0.00     0.028 C 
HETATM   15  C21 UNL     1       0.214   2.110   0.474  1.00  0.00     0.164 C 
HETATM   16 BR1  UNL     1      -1.138   1.984  -0.830  1.00  0.00    -0.044 Br
HETATM   17  H7  UNL     1       1.227  -0.421  -1.671  1.00  0.00     0.159 HD
ENDROOT
BRANCH   5  18
HETATM   18  C6  UNL     1      -0.648  -0.410  -0.102  1.00  0.00     0.027 C 
HETATM   19  C7  UNL     1      -1.882  -0.328   0.488  1.00  0.00     0.005 C 
BRANCH  19  20
HETATM   20  C8  UNL     1      -3.074  -1.150   0.235  1.00  0.00     0.300 C 
BRANCH  20  21
HETATM   21  N2  UNL     1      -4.241  -0.500  -0.150  1.00  0.00     0.096 NA
HETATM   22  C9  UNL     1      -4.402   0.117  -1.410  1.00  0.00     0.299 C 
HETATM   23  C10 UNL     1      -5.430   1.263  -1.224  1.00  0.00     0.198 C 
HETATM   24  O2  UNL     1      -6.427   0.820  -0.381  1.00  0.00    -0.388 OA
HETATM   25  C11 UNL     1      -6.625  -0.544  -0.367  1.00  0.00     0.198 C 
HETATM   26  C12 UNL     1      -5.392  -1.314   0.104  1.00  0.00     0.299 C 
ENDBRANCH  20  21
ENDBRANCH  19  20
ENDBRANCH   5  18
BRANCH  15  27
HETATM   27  O3  UNL     1       0.938   3.358   0.112  1.00  0.00    -0.371 OA
HETATM   28  H26 UNL     1       0.226   3.991  -0.130  1.00  0.00     0.212 HD
ENDBRANCH  15  27
BRANCH   1  29
HETATM   29  O1  UNL     1       5.907  -2.432  -1.383  1.00  0.00    -0.358 OA
HETATM   30  C1  UNL     1       5.658  -3.809  -1.463  1.00  0.00     0.209 C 
ENDBRANCH   1  29
TORSDOF 5
