REMARK  4 active torsions:
REMARK  status: ('A' for Active; 'I' for Inactive)
REMARK    1  A    between atoms: O1_1  and  C1_2 
REMARK    2  A    between atoms: C2_3  and  C3_4 
REMARK    3  A    between atoms: C4_5  and  N1_6 
REMARK    4  A    between atoms: N1_6  and  C5_7 
ROOT
HETATM    1  C5  UNL     1       1.160  -0.733   0.705  1.00  0.00     0.159 A 
HETATM    2  N2  UNL     1       1.765  -1.910   0.502  1.00  0.00    -0.222 NA
HETATM    3  C6  UNL     1       1.132  -2.882  -0.208  1.00  0.00     0.238 A 
HETATM    4  N3  UNL     1      -0.088  -2.620  -0.683  1.00  0.00    -0.215 NA
HETATM    5  C7  UNL     1      -0.740  -1.451  -0.506  1.00  0.00     0.202 A 
HETATM    6  C8  UNL     1      -0.096  -0.477   0.210  1.00  0.00     0.129 A 
HETATM    7  N4  UNL     1      -0.519   0.833   0.555  1.00  0.00    -0.379 N 
HETATM    8  C9  UNL     1      -1.815   1.440   0.576  1.00  0.00     0.161 C 
HETATM    9  C10 UNL     1      -2.883   0.667  -0.068  1.00  0.00    -0.004 A 
HETATM   10  C11 UNL     1      -4.030   1.432   0.160  1.00  0.00     0.054 A 
HETATM   11  C12 UNL     1      -5.289   1.034  -0.303  1.00  0.00     0.117 A 
HETATM   12  F1  UNL     1      -6.405   1.758  -0.092  1.00  0.00    -0.206 F 
HETATM   13  C13 UNL     1      -5.411  -0.130  -0.997  1.00  0.00     0.045 A 
HETATM   14  C14 UNL     1      -4.300  -0.909  -1.241  1.00  0.00     0.041 A 
HETATM   15  C15 UNL     1      -3.067  -0.502  -0.777  1.00  0.00     0.086 A 
HETATM   16  O2  UNL     1      -1.996  -1.345  -1.065  1.00  0.00    -0.289 OA
HETATM   17  H8  UNL     1       0.254   1.460   0.843  1.00  0.00     0.160 HD
ENDROOT
BRANCH   1  18
HETATM   18  N1  UNL     1       1.920   0.189   1.455  1.00  0.00    -0.349 N 
HETATM   19  H6  UNL     1       1.966   1.136   1.875  1.00  0.00     0.167 HD
BRANCH  18  20
HETATM   20  C4  UNL     1       3.215  -0.141   1.937  1.00  0.00     0.090 C 
HETATM   21  C3  UNL     1       4.231   0.086   1.101  1.00  0.00     0.019 C 
BRANCH  21  22
HETATM   22  C2  UNL     1       4.001   0.641  -0.227  1.00  0.00     0.025 C 
HETATM   23  C1  UNL     1       5.023   0.869  -1.067  1.00  0.00     0.131 C 
BRANCH  23  24
HETATM   24  O1  UNL     1       6.090   0.441  -0.282  1.00  0.00    -0.373 OA
HETATM   25  H1  UNL     1       6.415  -0.505  -0.432  1.00  0.00     0.216 HD
ENDBRANCH  23  24
ENDBRANCH  21  22
ENDBRANCH  18  20
ENDBRANCH   1  18
TORSDOF 4
