REMARK  6 active torsions:
REMARK  status: ('A' for Active; 'I' for Inactive)
REMARK    1  A    between atoms: N1_2  and  C3_4 
REMARK    2  A    between atoms: N2_8  and  N3_9 
REMARK    3  A    between atoms: C7_11  and  N5_12 
REMARK    4  A    between atoms: C8_13  and  N6_14 
REMARK    5  A    between atoms: C9_15  and  C10_16 
REMARK    6  A    between atoms: C10_16  and  C11_17 
ROOT
HETATM    1  N3  UNL     1      -0.203   0.249  -0.018  1.00  0.00     0.026 N 
HETATM    2  N4  UNL     1       0.636   1.354   0.117  1.00  0.00     0.061 NA
HETATM    3  C7  UNL     1       1.209   0.269  -0.294  1.00  0.00     0.785 A 
ENDROOT
BRANCH   1   4
HETATM    4  N2  UNL     1      -1.428  -0.429   0.042  1.00  0.00    -0.260 N 
HETATM    5  C6  UNL     1      -1.491  -1.836  -0.060  1.00  0.00     0.113 A 
HETATM    6  C5  UNL     1      -2.665  -2.456  -0.001  1.00  0.00     0.021 A 
HETATM    7  C4  UNL     1      -3.914  -1.717   0.168  1.00  0.00     0.028 A 
HETATM    8  C3  UNL     1      -3.851  -0.400   0.263  1.00  0.00     0.026 A 
HETATM    9  C13 UNL     1      -2.603   0.391   0.211  1.00  0.00     0.207 A 
BRANCH   8  10
HETATM   10  N1  UNL     1      -5.056   0.344   0.430  1.00  0.00    -0.391 N 
HETATM   11  C1  UNL     1      -5.888   0.104   1.603  1.00  0.00     0.148 C 
HETATM   12  C2  UNL     1      -5.548   1.353  -0.492  1.00  0.00     0.148 C 
ENDBRANCH   8  10
ENDBRANCH   1   4
BRANCH   3  13
HETATM   13  N5  UNL     1       2.299  -0.548  -0.736  1.00  0.00    -0.051 NA
HETATM   14  C8  UNL     1       3.484  -0.059  -0.589  1.00  0.00     0.252 C 
BRANCH  14  15
HETATM   15  N6  UNL     1       3.782   1.218  -0.028  1.00  0.00    -0.257 NA
HETATM   16  C9  UNL     1       4.988   1.653  -0.302  1.00  0.00     0.094 C 
BRANCH  16  17
HETATM   17  C10 UNL     1       5.899   0.814  -1.139  1.00  0.00     0.074 C 
BRANCH  17  18
HETATM   18  C11 UNL     1       6.585  -0.103  -0.186  1.00  0.00    -0.010 C 
HETATM   19  C12 UNL     1       7.875  -0.258   0.093  1.00  0.00     0.214 C 
HETATM   20 CL1  UNL     1       8.766  -1.296   1.185  1.00  0.00    -0.230 Cl
ENDBRANCH  17  18
ENDBRANCH  16  17
ENDBRANCH  14  15
ENDBRANCH   3  13
TORSDOF 6
