REMARK  3 active torsions:
REMARK  status: ('A' for Active; 'I' for Inactive)
REMARK    1  A    between atoms: O1_2  and  C2_3 
REMARK    2  A    between atoms: C10_12  and  C11_13 
REMARK    3  A    between atoms: C12_14  and  C13_15 
ROOT
HETATM    1  C2  UNL     1      -1.952   2.117  -1.221  1.00  0.00     0.090 A 
HETATM    2  C3  UNL     1      -3.169   2.206  -0.731  1.00  0.00    -0.013 A 
HETATM    3  C4  UNL     1      -4.147   3.276  -0.439  1.00  0.00     0.069 A 
HETATM    4  C5  UNL     1      -5.359   2.634   0.108  1.00  0.00    -0.021 A 
HETATM    5  C6  UNL     1      -5.373   1.331   0.238  1.00  0.00     0.004 A 
HETATM    6  C7  UNL     1      -4.353   0.348  -0.078  1.00  0.00    -0.042 A 
HETATM    7  C8  UNL     1      -3.195   0.766  -0.582  1.00  0.00    -0.003 A 
HETATM    8  C9  UNL     1      -1.839   0.645  -1.115  1.00  0.00     0.314 A 
HETATM    9  N1  UNL     1      -0.852   0.190  -0.152  1.00  0.00     0.125 N 
HETATM   10  C10 UNL     1       0.380  -0.149  -0.822  1.00  0.00     0.344 C 
HETATM   11  N3  UNL     1       0.233  -1.216  -1.788  1.00  0.00    -0.367 N 
HETATM   12  C18 UNL     1      -0.093  -2.563  -1.535  1.00  0.00     0.084 C 
HETATM   13  C19 UNL     1      -1.197  -3.091  -1.041  1.00  0.00     0.028 C 
HETATM   14  C20 UNL     1      -2.539  -3.116  -0.495  1.00  0.00     0.207 A 
HETATM   15  C21 UNL     1      -3.737  -3.315   0.008  1.00  0.00     0.176 A 
HETATM   16  F1  UNL     1      -2.990  -4.414  -0.194  1.00  0.00    -0.368 F 
HETATM   17  C22 UNL     1      -4.686  -2.216   0.292  1.00  0.00     0.068 A 
HETATM   18 CL1  UNL     1      -5.650  -3.578   0.806  1.00  0.00    -0.169 Cl
HETATM   19  C23 UNL     1      -4.097  -1.065  -0.052  1.00  0.00     0.114 C 
HETATM   20  H9  UNL     1      -0.643   0.973   0.505  1.00  0.00     0.320 HD
HETATM   21  H21 UNL     1       0.364  -1.063  -2.815  1.00  0.00     0.161 HD
ENDROOT
BRANCH  10  22
HETATM   22  C11 UNL     1       1.421  -0.542   0.191  1.00  0.00     0.027 C 
HETATM   23  C12 UNL     1       2.690  -0.362  -0.081  1.00  0.00    -0.002 C 
BRANCH  23  24
HETATM   24  C13 UNL     1       3.896  -0.651   0.713  1.00  0.00     0.109 C 
HETATM   25  C14 UNL     1       3.514  -1.000   2.127  1.00  0.00     0.055 C 
HETATM   26  C15 UNL     1       4.676  -1.457   2.952  1.00  0.00     0.170 C 
HETATM   27  O2  UNL     1       5.816  -1.748   2.231  1.00  0.00    -0.382 OA
HETATM   28  C16 UNL     1       6.719  -0.685   2.207  1.00  0.00     0.270 C 
HETATM   29  C17 UNL     1       6.116   0.394   1.351  1.00  0.00     0.241 C 
HETATM   30  O3  UNL     1       6.856   1.388   1.128  1.00  0.00    -0.271 OA
HETATM   31  N2  UNL     1       4.828   0.470   0.749  1.00  0.00    -0.351 N 
HETATM   32  H20 UNL     1       4.511   1.360   0.303  1.00  0.00     0.163 HD
ENDBRANCH  23  24
ENDBRANCH  10  22
BRANCH   1  33
HETATM   33  O1  UNL     1      -0.866   2.836  -1.742  1.00  0.00    -0.357 OA
HETATM   34  C1  UNL     1      -0.878   4.262  -1.720  1.00  0.00     0.209 C 
ENDBRANCH   1  33
TORSDOF 3
