REMARK  8 active torsions:
REMARK  status: ('A' for Active; 'I' for Inactive)
REMARK    1  A    between atoms: O1_2  and  C2_3 
REMARK    2  A    between atoms: C3_4  and  N1_5 
REMARK    3  A    between atoms: N1_5  and  C4_6 
REMARK    4  A    between atoms: C4_6  and  N2_7 
REMARK    5  A    between atoms: C4_6  and  C5_8 
REMARK    6  A    between atoms: C5_8  and  C6_9 
REMARK    7  A    between atoms: C6_9  and  N3_11 
REMARK    8  A    between atoms: C14_20  and  C15_21 
ROOT
HETATM    1  C2  UNL     1      -1.299  -2.146   0.210  1.00  0.00     0.222 A 
HETATM    2  C3  UNL     1      -0.957  -0.716   0.164  1.00  0.00     0.043 A 
HETATM    3  C12 UNL     1      -2.088   0.018   0.149  1.00  0.00     0.042 A 
HETATM    4  C13 UNL     1      -3.282  -0.780   0.181  1.00  0.00     0.005 A 
HETATM    5  C14 UNL     1      -4.643  -0.580   0.182  1.00  0.00    -0.012 A 
HETATM    6  C21 UNL     1      -5.507  -1.655   0.219  1.00  0.00     0.032 A 
HETATM    7  C22 UNL     1      -5.001  -2.939   0.256  1.00  0.00     0.118 A 
HETATM    8  N4  UNL     1      -3.663  -3.122   0.255  1.00  0.00    -0.262 NA
HETATM    9  C23 UNL     1      -2.814  -2.071   0.218  1.00  0.00     0.080 A 
ENDROOT
BRANCH   2  10
HETATM   10  N1  UNL     1       0.314  -0.018   0.138  1.00  0.00    -0.370 N 
HETATM   11  H5  UNL     1       0.371   0.967   0.467  1.00  0.00     0.161 HD
BRANCH  10  12
HETATM   12  C4  UNL     1       1.384  -0.831  -0.377  1.00  0.00     0.176 C 
BRANCH  12  13
HETATM   13  N2  UNL     1       1.050  -1.261  -1.722  1.00  0.00    -0.411 N 
HETATM   14  H7  UNL     1       1.810  -1.737  -2.215  1.00  0.00     0.151 HD
HETATM   15  H8  UNL     1       0.498  -0.575  -2.246  1.00  0.00     0.151 HD
ENDBRANCH  12  13
BRANCH  12  16
HETATM   16  C5  UNL     1       2.729  -0.216  -0.427  1.00  0.00     0.071 C 
BRANCH  16  17
HETATM   17  C6  UNL     1       3.346   0.225   0.851  1.00  0.00     0.086 C 
HETATM   18  C7  UNL     1       2.627   1.261   1.637  1.00  0.00     0.032 C 
BRANCH  17  19
HETATM   19  N3  UNL     1       4.650   0.814   0.489  1.00  0.00    -0.344 N 
HETATM   20  C8  UNL     1       4.864   1.979  -0.321  1.00  0.00     0.152 C 
HETATM   21  C9  UNL     1       6.255   1.861  -0.953  1.00  0.00     0.188 C 
HETATM   22  O2  UNL     1       7.148   2.044   0.105  1.00  0.00    -0.380 OA
HETATM   23  C10 UNL     1       7.187   0.848   0.820  1.00  0.00     0.270 C 
HETATM   24  C11 UNL     1       5.850   0.211   0.961  1.00  0.00     0.243 C 
HETATM   25  O3  UNL     1       5.859  -0.911   1.534  1.00  0.00    -0.271 OA
ENDBRANCH  17  19
ENDBRANCH  16  17
ENDBRANCH  12  16
ENDBRANCH  10  12
ENDBRANCH   2  10
BRANCH   1  26
HETATM   26  O1  UNL     1      -0.970  -2.837  -0.953  1.00  0.00    -0.378 OA
HETATM   27  C1  UNL     1      -0.381  -4.032  -0.648  1.00  0.00     0.203 C 
ENDBRANCH   1  26
BRANCH   5  28
HETATM   28  C15 UNL     1      -5.145   0.787   0.147  1.00  0.00    -0.023 A 
HETATM   29  C16 UNL     1      -4.775   1.902   0.868  1.00  0.00     0.015 A 
HETATM   30  C17 UNL     1      -5.419   3.096   0.634  1.00  0.00     0.045 A 
HETATM   31  C18 UNL     1      -6.418   3.241  -0.286  1.00  0.00     0.138 A 
HETATM   32  F1  UNL     1      -6.949   4.493  -0.391  1.00  0.00    -0.204 F 
HETATM   33  C19 UNL     1      -6.796   2.128  -1.014  1.00  0.00     0.073 A 
HETATM   34 CL1  UNL     1      -8.080   2.360  -2.181  1.00  0.00    -0.081 Cl
HETATM   35  C20 UNL     1      -6.167   0.919  -0.799  1.00  0.00     0.039 A 
ENDBRANCH   5  28
TORSDOF 8
