REMARK  6 active torsions:
REMARK  status: ('A' for Active; 'I' for Inactive)
REMARK    1  A    between atoms: C2_2  and  C3_3 
REMARK    2  A    between atoms: C2_2  and  N4_22 
REMARK    3  A    between atoms: C4_4  and  N1_5 
REMARK    4  A    between atoms: N1_5  and  C5_6 
REMARK    5  A    between atoms: C5_6  and  C6_7 
REMARK    6  A    between atoms: N4_22  and  C18_24 
ROOT
HETATM    1  C6  UNL     1       0.907  -0.648   0.340  1.00  0.00     0.028 C 
HETATM    2  N2  UNL     1       2.039  -1.346   0.152  1.00  0.00    -0.292 NA
HETATM    3  C7  UNL     1       3.101  -0.581  -0.002  1.00  0.00     0.189 C 
HETATM    4  C8  UNL     1       4.484  -0.357   0.076  1.00  0.00    -0.009 A 
HETATM    5  C9  UNL     1       5.391  -1.362   0.159  1.00  0.00     0.055 A 
HETATM    6  C10 UNL     1       6.734  -1.082   0.219  1.00  0.00     0.138 A 
HETATM    7  F1  UNL     1       7.618  -2.085   0.301  1.00  0.00    -0.204 F 
HETATM    8  C11 UNL     1       7.077   0.249   0.190  1.00  0.00     0.074 A 
HETATM    9 CL1  UNL     1       8.786   0.621   0.266  1.00  0.00    -0.081 Cl
HETATM   10  C12 UNL     1       6.204   1.309   0.107  1.00  0.00     0.057 A 
HETATM   11  C13 UNL     1       4.872   1.034   0.047  1.00  0.00     0.041 A 
HETATM   12  N3  UNL     1       3.890   2.115  -0.028  1.00  0.00    -0.366 N 
HETATM   13  C14 UNL     1       2.740   2.043  -0.833  1.00  0.00     0.084 C 
HETATM   14  C15 UNL     1       1.504   1.562  -0.767  1.00  0.00    -0.004 C 
HETATM   15  C16 UNL     1       0.976   0.872   0.394  1.00  0.00     0.084 C 
HETATM   16  H14 UNL     1       4.156   2.932   0.588  1.00  0.00     0.165 HD
ENDROOT
BRANCH   1  17
HETATM   17  C5  UNL     1      -0.305  -1.489   0.513  1.00  0.00     0.173 C 
BRANCH  17  18
HETATM   18  N1  UNL     1      -1.315  -1.263  -0.494  1.00  0.00    -0.394 N 
HETATM   19  H7  UNL     1      -1.488  -2.040  -1.168  1.00  0.00     0.159 HD
BRANCH  18  20
HETATM   20  C4  UNL     1      -2.125  -0.120  -0.709  1.00  0.00     0.081 C 
HETATM   21  C3  UNL     1      -3.417  -0.408  -0.465  1.00  0.00     0.014 C 
BRANCH  21  22
HETATM   22  C2  UNL     1      -4.618   0.464  -0.555  1.00  0.00     0.106 C 
HETATM   23  C1  UNL     1      -5.489  -0.090  -1.676  1.00  0.00     0.037 C 
BRANCH  22  24
HETATM   24  N4  UNL     1      -5.350   0.532   0.679  1.00  0.00    -0.356 N 
HETATM   25  C17 UNL     1      -5.890  -0.547   1.449  1.00  0.00     0.152 C 
BRANCH  24  26
HETATM   26  C18 UNL     1      -5.512   1.862   1.121  1.00  0.00     0.351 C 
HETATM   27  O1  UNL     1      -5.042   2.829   0.456  1.00  0.00    -0.284 OA
ENDBRANCH  24  26
ENDBRANCH  22  24
ENDBRANCH  21  22
ENDBRANCH  18  20
ENDBRANCH  17  18
ENDBRANCH   1  17
TORSDOF 6
