REMARK  6 active torsions:
REMARK  status: ('A' for Active; 'I' for Inactive)
REMARK    1  A    between atoms: O1_2  and  C2_3 
REMARK    2  A    between atoms: C7_9  and  N2_10 
REMARK    3  A    between atoms: N2_10  and  C8_11 
REMARK    4  A    between atoms: C16_21  and  N3_22 
REMARK       I    between atoms: N3_22  and  C17_23 
REMARK    5  A    between atoms: C17_23  and  C18_25 
REMARK    6  A    between atoms: C18_25  and  N4_26 
ROOT
HETATM    1  C2  UNL     1      -0.210  -2.987  -0.532  1.00  0.00     0.097 A 
HETATM    2  C3  UNL     1       0.949  -3.294  -1.177  1.00  0.00     0.071 A 
HETATM    3  C4  UNL     1       2.041  -2.452  -1.144  1.00  0.00     0.071 A 
HETATM    4  N1  UNL     1       3.098  -2.914  -1.835  1.00  0.00    -0.260 NA
HETATM    5  C5  UNL     1       4.232  -2.164  -1.872  1.00  0.00     0.119 A 
HETATM    6  C6  UNL     1       4.206  -0.971  -1.186  1.00  0.00     0.049 A 
HETATM    7  C7  UNL     1       3.149  -0.466  -0.470  1.00  0.00     0.046 A 
HETATM    8  C14 UNL     1       2.030  -1.257  -0.463  1.00  0.00     0.022 A 
HETATM    9  C15 UNL     1       0.844  -0.980   0.175  1.00  0.00     0.048 A 
HETATM   10  C16 UNL     1      -0.270  -1.787   0.171  1.00  0.00     0.069 A 
ENDROOT
BRANCH  10  11
HETATM   11  N3  UNL     1      -1.470  -1.446   0.852  1.00  0.00    -0.323 N 
HETATM   12  C17 UNL     1      -2.464  -0.704   0.149  1.00  0.00     0.250 C 
HETATM   13  O2  UNL     1      -2.051  -0.474  -1.039  1.00  0.00    -0.271 OA
HETATM   14  H12 UNL     1      -1.635  -1.732   1.862  1.00  0.00     0.169 HD
BRANCH  12  15
HETATM   15  C18 UNL     1      -3.761  -0.304   0.796  1.00  0.00     0.375 C 
BRANCH  15  16
HETATM   16  N4  UNL     1      -4.508   0.424  -0.203  1.00  0.00     0.101 N 
HETATM   17  C19 UNL     1      -3.950   1.698  -0.549  1.00  0.00     0.299 C 
HETATM   18  C20 UNL     1      -4.463   2.833   0.230  1.00  0.00     0.198 C 
HETATM   19  O3  UNL     1      -5.120   2.601   1.399  1.00  0.00    -0.388 OA
HETATM   20  C21 UNL     1      -5.883   1.470   1.461  1.00  0.00     0.198 C 
HETATM   21  C22 UNL     1      -5.869   0.640   0.214  1.00  0.00     0.299 C 
ENDBRANCH  15  16
ENDBRANCH  12  15
ENDBRANCH  10  11
BRANCH   1  22
HETATM   22  O1  UNL     1      -1.331  -3.806  -0.539  1.00  0.00    -0.354 OA
HETATM   23  C1  UNL     1      -1.246  -5.024  -1.264  1.00  0.00     0.210 C 
ENDBRANCH   1  22
BRANCH   7  24
HETATM   24  N2  UNL     1       3.124   0.746   0.249  1.00  0.00    -0.355 N 
HETATM   25  H7  UNL     1       2.286   1.087   0.733  1.00  0.00     0.166 HD
BRANCH  24  26
HETATM   26  C8  UNL     1       4.099   1.740   0.503  1.00  0.00     0.034 A 
HETATM   27  C9  UNL     1       3.877   3.118   0.538  1.00  0.00     0.032 A 
HETATM   28  C10 UNL     1       4.853   4.040   0.811  1.00  0.00     0.046 A 
HETATM   29  C11 UNL     1       6.142   3.634   1.071  1.00  0.00     0.138 A 
HETATM   30  F1  UNL     1       7.015   4.615   1.323  1.00  0.00    -0.204 F 
HETATM   31  C12 UNL     1       6.404   2.269   1.045  1.00  0.00     0.074 A 
HETATM   32 CL1  UNL     1       8.076   1.860   1.389  1.00  0.00    -0.081 Cl
HETATM   33  C13 UNL     1       5.395   1.371   0.768  1.00  0.00     0.056 A 
ENDBRANCH  24  26
ENDBRANCH   7  24
TORSDOF 6
