REMARK  3 active torsions:
REMARK  status: ('A' for Active; 'I' for Inactive)
REMARK    1  A    between atoms: C2_2  and  C3_3 
REMARK    2  A    between atoms: C2_2  and  N4_28 
REMARK    3  A    between atoms: C4_4  and  C5_5 
REMARK       I    between atoms: C5_5  and  N1_7 
ROOT
HETATM    1  C5  UNL     1      -2.091  -0.013  -0.402  1.00  0.00     0.244 C 
HETATM    2  O1  UNL     1      -2.263   1.025  -1.088  1.00  0.00    -0.268 OA
HETATM    3  N1  UNL     1      -0.707  -0.322  -0.485  1.00  0.00    -0.320 N 
HETATM    4  C6  UNL     1       0.608  -0.114  -0.915  1.00  0.00     0.110 A 
HETATM    5  C7  UNL     1       1.911  -0.193  -1.222  1.00  0.00     0.012 C 
HETATM    6  C8  UNL     1       2.719  -1.373  -0.961  1.00  0.00     0.028 C 
HETATM    7  C9  UNL     1       4.027  -1.537  -1.168  1.00  0.00     0.033 C 
HETATM    8  C10 UNL     1       4.566  -2.872  -0.799  1.00  0.00     0.048 C 
HETATM    9  C11 UNL     1       4.673  -2.871   0.585  1.00  0.00     0.119 C 
HETATM   10  N2  UNL     1       4.230  -2.037   1.743  1.00  0.00    -0.260 NA
HETATM   11  C12 UNL     1       3.618  -0.836   1.568  1.00  0.00     0.068 C 
HETATM   12  C13 UNL     1       2.154  -0.897   1.872  1.00  0.00     0.030 C 
HETATM   13  C14 UNL     1       0.932  -1.045   1.295  1.00  0.00     0.004 C 
HETATM   14  C15 UNL     1       0.350  -1.243  -0.071  1.00  0.00     0.147 A 
HETATM   15  C16 UNL     1       4.400   0.361   1.080  1.00  0.00     0.022 A 
HETATM   16  C17 UNL     1       4.712   1.299   2.014  1.00  0.00     0.060 A 
HETATM   17  C18 UNL     1       5.426   2.397   1.607  1.00  0.00     0.139 A 
HETATM   18  F1  UNL     1       5.672   3.263   2.646  1.00  0.00    -0.204 F 
HETATM   19  C19 UNL     1       5.826   2.567   0.301  1.00  0.00     0.074 A 
HETATM   20 CL1  UNL     1       6.727   4.009  -0.077  1.00  0.00    -0.081 Cl
HETATM   21  C20 UNL     1       5.509   1.615  -0.644  1.00  0.00     0.057 A 
HETATM   22  C21 UNL     1       4.793   0.488  -0.298  1.00  0.00     0.047 A 
HETATM   23  N3  UNL     1       4.647  -0.282  -1.565  1.00  0.00    -0.355 N 
HETATM   24  H16 UNL     1       5.026   0.296  -2.332  1.00  0.00     0.166 HD
ENDROOT
BRANCH   1  25
HETATM   25  C4  UNL     1      -3.040  -0.811   0.360  1.00  0.00     0.072 C 
HETATM   26  C3  UNL     1      -4.322  -0.518   0.433  1.00  0.00     0.013 C 
BRANCH  26  27
HETATM   27  C2  UNL     1      -4.919   0.652  -0.255  1.00  0.00     0.241 C 
HETATM   28  C1  UNL     1      -4.544   1.957   0.415  1.00  0.00     0.047 C 
BRANCH  27  29
HETATM   29  N4  UNL     1      -6.361   0.456  -0.264  1.00  0.00     0.087 N 
HETATM   30  C22 UNL     1      -7.067   1.489  -0.961  1.00  0.00     0.310 C 
HETATM   31  C23 UNL     1      -6.688  -0.842  -0.763  1.00  0.00     0.310 C 
ENDBRANCH  27  29
ENDBRANCH  26  27
ENDBRANCH   1  25
TORSDOF 3
