REMARK  0 active torsions:
REMARK  status: ('A' for Active; 'I' for Inactive)
ROOT
HETATM    1  C1  UNL     1      -4.532   0.976  -1.350  1.00  0.00     0.016 C 
HETATM    2  C2  UNL     1      -3.487   0.644  -0.307  1.00  0.00     0.028 C 
HETATM    3  C3  UNL     1      -3.659  -0.714   0.246  1.00  0.00    -0.002 C 
HETATM    4  C4  UNL     1      -2.671  -1.520   0.584  1.00  0.00     0.111 C 
HETATM    5  N1  UNL     1      -1.332  -1.079   0.416  1.00  0.00    -0.246 N 
HETATM    6  N2  UNL     1      -0.159  -1.825   0.397  1.00  0.00    -0.203 N 
HETATM    7  C5  UNL     1      -0.036  -3.075   0.230  1.00  0.00     0.219 A 
HETATM    8  N3  UNL     1       1.197  -2.402   0.415  1.00  0.00    -0.133 NA
HETATM    9  C6  UNL     1       2.263  -2.720  -0.232  1.00  0.00     0.276 C 
HETATM   10  O1  UNL     1       2.565  -1.652   0.622  1.00  0.00    -0.324 OA
HETATM   11  C7  UNL     1       3.134  -0.463   0.218  1.00  0.00     0.079 A 
HETATM   12  C8  UNL     1       4.415  -0.646  -0.269  1.00  0.00     0.040 A 
HETATM   13  C9  UNL     1       5.168   0.428  -0.730  1.00  0.00     0.045 A 
HETATM   14  C10 UNL     1       4.588   1.678  -0.682  1.00  0.00     0.117 A 
HETATM   15  F1  UNL     1       5.219   2.794  -1.100  1.00  0.00    -0.206 F 
HETATM   16  C11 UNL     1       3.313   1.878  -0.200  1.00  0.00     0.054 A 
HETATM   17  C12 UNL     1       2.564   0.819   0.257  1.00  0.00     0.006 A 
HETATM   18  C13 UNL     1       1.177   0.789   0.815  1.00  0.00     0.314 C 
HETATM   19  N4  UNL     1       0.203   0.639  -0.216  1.00  0.00     0.119 N 
HETATM   20  C14 UNL     1      -1.126   0.376   0.230  1.00  0.00     0.264 C 
HETATM   21  C15 UNL     1      -1.537   1.135   1.453  1.00  0.00     0.077 C 
HETATM   22  C16 UNL     1      -2.088   0.742  -0.881  1.00  0.00     0.150 C 
HETATM   23 CL1  UNL     1      -1.761   2.365  -1.521  1.00  0.00    -0.120 Cl
HETATM   24  H14 UNL     1       0.490  -0.076  -0.907  1.00  0.00     0.319 HD
ENDROOT
TORSDOF 0
