REMARK  6 active torsions:
REMARK  status: ('A' for Active; 'I' for Inactive)
REMARK    1  A    between atoms: O1_2  and  C2_3 
REMARK    2  A    between atoms: C7_9  and  N2_10 
REMARK    3  A    between atoms: C16_21  and  N3_22 
REMARK       I    between atoms: N3_22  and  C17_23 
REMARK    4  A    between atoms: C17_23  and  C18_25 
REMARK    5  A    between atoms: C19_26  and  C20_27 
REMARK    6  A    between atoms: C20_27  and  N4_29 
ROOT
HETATM    1  C2  UNL     1      -0.532  -1.949  -0.711  1.00  0.00     0.096 A 
HETATM    2  C3  UNL     1      -1.610  -2.556  -0.238  1.00  0.00     0.067 A 
HETATM    3  C4  UNL     1      -2.806  -1.720  -0.180  1.00  0.00     0.049 A 
HETATM    4  N1  UNL     1      -3.730  -2.510   0.308  1.00  0.00    -0.265 NA
HETATM    5  C5  UNL     1      -5.112  -2.443   0.652  1.00  0.00     0.115 C 
HETATM    6  C6  UNL     1      -5.955  -1.428   0.838  1.00  0.00     0.021 C 
HETATM    7  C7  UNL     1      -6.052   0.049   0.825  1.00  0.00     0.132 C 
HETATM    8  C8  UNL     1      -4.734   0.694   1.085  1.00  0.00    -0.023 A 
HETATM    9  C9  UNL     1      -4.965   1.577   2.121  1.00  0.00     0.037 A 
HETATM   10  C10 UNL     1      -3.941   2.360   2.629  1.00  0.00     0.073 A 
HETATM   11 CL1  UNL     1      -4.141   3.504   3.938  1.00  0.00    -0.081 Cl
HETATM   12  C11 UNL     1      -2.692   2.221   2.061  1.00  0.00     0.138 A 
HETATM   13  F1  UNL     1      -1.621   2.950   2.497  1.00  0.00    -0.204 F 
HETATM   14  C12 UNL     1      -2.498   1.330   1.030  1.00  0.00     0.052 A 
HETATM   15  C13 UNL     1      -3.502   0.540   0.507  1.00  0.00    -0.033 A 
HETATM   16  C14 UNL     1      -2.953  -0.293  -0.581  1.00  0.00     0.096 A 
HETATM   17  C15 UNL     1      -1.653   0.171  -1.069  1.00  0.00     0.021 A 
HETATM   18  C16 UNL     1      -0.548  -0.554  -1.138  1.00  0.00     0.066 A 
ENDROOT
BRANCH  18  19
HETATM   19  N3  UNL     1       0.706  -0.073  -1.620  1.00  0.00    -0.321 N 
HETATM   20  C17 UNL     1       1.775  -0.132  -0.669  1.00  0.00     0.245 C 
HETATM   21  O2  UNL     1       1.720  -0.554   0.516  1.00  0.00    -0.268 OA
HETATM   22  H14 UNL     1       0.896   0.305  -2.576  1.00  0.00     0.169 HD
BRANCH  20  23
HETATM   23  C18 UNL     1       3.083   0.345  -1.099  1.00  0.00     0.072 C 
HETATM   24  C19 UNL     1       4.192   0.374  -0.376  1.00  0.00     0.013 C 
BRANCH  24  25
HETATM   25  C20 UNL     1       5.548   0.828  -0.704  1.00  0.00     0.241 C 
HETATM   26  C21 UNL     1       6.485  -0.330  -0.975  1.00  0.00     0.047 C 
BRANCH  25  27
HETATM   27  N4  UNL     1       6.105   1.753   0.242  1.00  0.00     0.087 N 
HETATM   28  C22 UNL     1       6.221   1.247   1.575  1.00  0.00     0.310 C 
HETATM   29  C23 UNL     1       5.398   3.003   0.221  1.00  0.00     0.310 C 
ENDBRANCH  25  27
ENDBRANCH  24  25
ENDBRANCH  20  23
ENDBRANCH  18  19
BRANCH   1  30
HETATM   30  O1  UNL     1       0.606  -2.744  -0.767  1.00  0.00    -0.354 OA
HETATM   31  C1  UNL     1       0.516  -3.891  -1.614  1.00  0.00     0.210 C 
ENDBRANCH   1  30
BRANCH   7  32
HETATM   32  N2  UNL     1      -6.653   0.452  -0.415  1.00  0.00    -0.419 N 
HETATM   33  H8  UNL     1      -6.576   1.469  -0.622  1.00  0.00     0.150 HD
HETATM   34  H9  UNL     1      -6.485  -0.179  -1.217  1.00  0.00     0.150 HD
ENDBRANCH   7  32
TORSDOF 6
