REMARK  5 active torsions:
REMARK  status: ('A' for Active; 'I' for Inactive)
REMARK    1  A    between atoms: C2_2  and  C3_3 
REMARK    2  A    between atoms: C2_2  and  C6_6 
REMARK    3  A    between atoms: C10_11  and  C11_12 
REMARK    4  A    between atoms: C13_15  and  N2_16 
REMARK       I    between atoms: N2_16  and  C14_17 
REMARK    5  A    between atoms: C14_17  and  C15_19 
ROOT
HETATM    1  C3  UNL     1      -4.026   1.878  -0.180  1.00  0.00    -0.071 C 
HETATM    2  C4  UNL     1      -5.093   2.344  -0.493  1.00  0.00    -0.106 C 
HETATM    3  C5  UNL     1      -6.389   2.891  -0.890  1.00  0.00     0.112 C 
ENDROOT
BRANCH   1   4
HETATM    4  C2  UNL     1      -2.769   1.314   0.211  1.00  0.00     0.004 C 
HETATM    5  C1  UNL     1      -1.893   2.073   0.839  1.00  0.00     0.054 C 
BRANCH   4   6
HETATM    6  C6  UNL     1      -2.372  -0.062  -0.033  1.00  0.00    -0.014 A 
HETATM    7  C7  UNL     1      -3.276  -0.795  -0.662  1.00  0.00     0.125 A 
HETATM    8  N1  UNL     1      -3.134  -2.161  -1.016  1.00  0.00    -0.272 NA
HETATM    9  C8  UNL     1      -2.039  -2.758  -0.707  1.00  0.00     0.125 A 
HETATM   10  C9  UNL     1      -1.003  -2.003  -0.010  1.00  0.00    -0.015 A 
HETATM   11  C10 UNL     1       0.076  -2.692   0.286  1.00  0.00    -0.007 C 
HETATM   12  C19 UNL     1      -1.057  -0.610   0.376  1.00  0.00     0.082 A 
HETATM   13  S1  UNL     1       1.318  -1.689   1.142  1.00  0.00    -0.077 SA
HETATM   14  C13 UNL     1       1.288  -0.101   0.293  1.00  0.00     0.074 C 
HETATM   15  C18 UNL     1       0.066   0.254   0.006  1.00  0.00     0.025 C 
BRANCH  11  16
HETATM   16  C11 UNL     1       0.479  -4.078   0.068  1.00  0.00     0.042 C 
HETATM   17  C12 UNL     1       0.749  -4.769   1.412  1.00  0.00     0.010 C 
ENDBRANCH  11  16
BRANCH  14  18
HETATM   18  N2  UNL     1       2.508   0.562   0.038  1.00  0.00    -0.318 N 
HETATM   19  C14 UNL     1       2.758   1.800  -0.602  1.00  0.00     0.245 C 
HETATM   20  O1  UNL     1       1.775   2.447  -1.028  1.00  0.00    -0.268 OA
HETATM   21  H13 UNL     1       3.394   0.104   0.354  1.00  0.00     0.169 HD
BRANCH  19  22
HETATM   22  C15 UNL     1       4.094   2.350  -0.788  1.00  0.00     0.070 C 
HETATM   23  C16 UNL     1       5.197   1.746  -0.376  1.00  0.00    -0.026 C 
HETATM   24  C17 UNL     1       6.574   2.303  -0.562  1.00  0.00     0.036 C 
ENDBRANCH  19  22
ENDBRANCH  14  18
ENDBRANCH   4   6
ENDBRANCH   1   4
TORSDOF 5
