REMARK  5 active torsions:
REMARK  status: ('A' for Active; 'I' for Inactive)
REMARK    1  A    between atoms: C4_6  and  C5_7 
REMARK       I    between atoms: C5_7  and  N2_9 
REMARK    2  A    between atoms: N2_9  and  C6_10 
REMARK    3  A    between atoms: C7_11  and  C8_12 
REMARK    4  A    between atoms: C12_17  and  N4_18 
REMARK    5  A    between atoms: N4_18  and  C13_19 
ROOT
HETATM    1  C8  UNL     1       0.990  -0.665   0.155  1.00  0.00    -0.015 A 
HETATM    2  C9  UNL     1       0.181  -1.105   1.099  1.00  0.00     0.012 A 
HETATM    3  C10 UNL     1       0.688  -1.893   2.212  1.00  0.00     0.017 A 
HETATM    4  C11 UNL     1       1.972  -2.190   2.310  1.00  0.00     0.085 A 
HETATM    5  N3  UNL     1       2.807  -1.695   1.273  1.00  0.00    -0.374 N 
HETATM    6  C12 UNL     1       2.453  -0.912   0.108  1.00  0.00     0.215 A 
HETATM    7  H15 UNL     1       3.823  -1.969   1.429  1.00  0.00     0.161 HD
ENDROOT
BRANCH   1   8
HETATM    8  C7  UNL     1       0.435   0.119  -0.935  1.00  0.00     0.028 C 
HETATM    9  C6  UNL     1      -0.813   0.489  -1.153  1.00  0.00     0.092 C 
BRANCH   9  10
HETATM   10  N2  UNL     1      -2.094   0.358  -0.556  1.00  0.00    -0.333 N 
HETATM   11  C5  UNL     1      -3.245  -0.292  -1.136  1.00  0.00     0.281 C 
HETATM   12  O2  UNL     1      -3.328  -0.860  -2.278  1.00  0.00    -0.268 OA
HETATM   13  H9  UNL     1      -2.347   0.745   0.403  1.00  0.00     0.168 HD
BRANCH  11  14
HETATM   14  C4  UNL     1      -4.549  -0.404  -0.476  1.00  0.00     0.452 C 
HETATM   15  N1  UNL     1      -5.174   0.839  -0.129  1.00  0.00     0.124 N 
HETATM   16  C1  UNL     1      -4.918   1.284   1.220  1.00  0.00     0.314 C 
HETATM   17  C2  UNL     1      -6.574   0.644  -0.394  1.00  0.00     0.302 C 
HETATM   18  C3  UNL     1      -6.504  -0.334  -1.573  1.00  0.00     0.201 C 
HETATM   19  O1  UNL     1      -5.383  -1.092  -1.351  1.00  0.00    -0.348 OA
ENDBRANCH  11  14
ENDBRANCH   9  10
ENDBRANCH   1   8
BRANCH   6  20
HETATM   20  N4  UNL     1       3.209   0.322   0.138  1.00  0.00    -0.365 N 
HETATM   21  H17 UNL     1       2.620   1.188   0.304  1.00  0.00     0.162 HD
BRANCH  20  22
HETATM   22  C13 UNL     1       4.602   0.642  -0.010  1.00  0.00     0.031 A 
HETATM   23  C14 UNL     1       5.105   1.933   0.095  1.00  0.00     0.032 A 
HETATM   24  C15 UNL     1       6.461   2.069  -0.088  1.00  0.00     0.046 A 
HETATM   25  C16 UNL     1       7.327   1.035  -0.363  1.00  0.00     0.138 A 
HETATM   26  F1  UNL     1       8.645   1.304  -0.522  1.00  0.00    -0.204 F 
HETATM   27  C17 UNL     1       6.801  -0.236  -0.462  1.00  0.00     0.074 A 
HETATM   28 CL1  UNL     1       7.961  -1.502  -0.813  1.00  0.00    -0.081 Cl
HETATM   29  C18 UNL     1       5.444  -0.415  -0.285  1.00  0.00     0.056 A 
ENDBRANCH  20  22
ENDBRANCH   6  20
TORSDOF 5
