REMARK  6 active torsions:
REMARK  status: ('A' for Active; 'I' for Inactive)
REMARK    1  A    between atoms: C2_2  and  C3_3 
REMARK    2  A    between atoms: C3_3  and  N1_4 
REMARK    3  A    between atoms: N1_4  and  C4_5 
REMARK    4  A    between atoms: C4_5  and  C5_6 
REMARK    5  A    between atoms: C5_6  and  C6_7 
REMARK    6  A    between atoms: C6_7  and  C7_9 
ROOT
HETATM    1  C3  UNL     1      -1.196  -1.081  -0.132  1.00  0.00     0.063 C 
HETATM    2  C8  UNL     1      -0.320  -1.439   1.167  1.00  0.00     0.027 C 
HETATM    3  C9  UNL     1       0.307  -1.811   2.320  1.00  0.00     0.115 C 
HETATM    4  N2  UNL     1       1.500  -1.132   1.728  1.00  0.00    -0.274 NA
HETATM    5  C10 UNL     1       2.191  -1.365   0.699  1.00  0.00     0.113 C 
HETATM    6  C11 UNL     1       3.135  -0.185   0.905  1.00  0.00     0.033 C 
HETATM    7  C12 UNL     1       4.036   0.581  -0.013  1.00  0.00    -0.014 C 
HETATM    8  C13 UNL     1       5.032   1.750   0.147  1.00  0.00     0.017 C 
HETATM    9  C14 UNL     1       3.796   0.627  -1.604  1.00  0.00     0.132 C 
HETATM   10  N3  UNL     1       2.571  -0.124  -1.847  1.00  0.00    -0.357 N 
HETATM   11  C15 UNL     1       1.671   0.658  -1.007  1.00  0.00     0.240 C 
HETATM   12  O1  UNL     1       2.374   1.623  -0.894  1.00  0.00    -0.269 OA
HETATM   13  C16 UNL     1       0.336   0.367  -0.392  1.00  0.00     0.073 C 
HETATM   14  C17 UNL     1       0.145  -0.884  -0.921  1.00  0.00     0.013 C 
HETATM   15  H21 UNL     1       2.571  -0.897  -2.443  1.00  0.00     0.162 HD
ENDROOT
BRANCH   1  16
HETATM   16  C2  UNL     1      -1.871  -2.278  -0.594  1.00  0.00     0.035 C 
HETATM   17  C1  UNL     1      -0.983  -3.515  -0.482  1.00  0.00     0.008 C 
ENDBRANCH   1  16
BRANCH   1  18
HETATM   18  N1  UNL     1      -1.891   0.058  -0.081  1.00  0.00    -0.403 N 
HETATM   19  H6  UNL     1      -1.977   0.620  -0.949  1.00  0.00     0.154 HD
BRANCH  18  20
HETATM   20  C4  UNL     1      -2.357   0.744   1.065  1.00  0.00     0.144 C 
BRANCH  20  21
HETATM   21  C5  UNL     1      -3.242   1.898   0.470  1.00  0.00     0.014 C 
BRANCH  21  22
HETATM   22  C6  UNL     1      -4.469   1.897   0.961  1.00  0.00     0.038 C 
HETATM   23 CL1  UNL     1      -5.398   0.970   2.060  1.00  0.00    -0.087 Cl
BRANCH  22  24
HETATM   24  C7  UNL     1      -5.307   3.022   0.413  1.00  0.00     0.273 C 
HETATM   25  F1  UNL     1      -5.489   3.855   1.540  1.00  0.00    -0.250 F 
ENDBRANCH  22  24
ENDBRANCH  21  22
ENDBRANCH  20  21
ENDBRANCH  18  20
ENDBRANCH   1  18
TORSDOF 6
