REMARK  4 active torsions:
REMARK  status: ('A' for Active; 'I' for Inactive)
REMARK    1  A    between atoms: C2_2  and  C3_4 
REMARK    2  A    between atoms: C4_6  and  C5_7 
REMARK    3  A    between atoms: C5_7  and  C6_8 
REMARK    4  A    between atoms: C15_20  and  C16_21 
ROOT
HETATM    1  C6  UNL     1      -0.116   0.153   0.975  1.00  0.00     0.031 C 
HETATM    2  N1  UNL     1      -0.537   1.360   1.803  1.00  0.00    -0.378 N 
HETATM    3  C7  UNL     1      -1.534   1.774   0.855  1.00  0.00     0.059 A 
HETATM    4  C8  UNL     1      -2.221   0.932   1.638  1.00  0.00    -0.008 A 
HETATM    5  C9  UNL     1      -2.964   0.217   0.773  1.00  0.00     0.022 A 
HETATM    6  N2  UNL     1      -2.441   0.906  -0.130  1.00  0.00     0.000 N 
HETATM    7  C10 UNL     1      -1.744   1.735  -0.630  1.00  0.00     0.009 A 
HETATM    8  C11 UNL     1      -0.870   2.602  -0.004  1.00  0.00     0.038 A 
HETATM    9  C12 UNL     1      -2.619   0.903  -1.601  1.00  0.00     0.045 A 
HETATM   10  C13 UNL     1      -3.242  -0.069  -0.628  1.00  0.00     0.044 A 
HETATM   11  C14 UNL     1      -3.900  -0.849   0.210  1.00  0.00     0.038 A 
HETATM   12  N3  UNL     1      -1.936  -0.901  -0.439  1.00  0.00    -0.399 N 
HETATM   13  C15 UNL     1      -0.866  -1.065   0.555  1.00  0.00     0.161 C 
HETATM   14  H5  UNL     1       0.043   1.418   2.690  1.00  0.00     0.160 HD
HETATM   15  H11 UNL     1      -1.813  -1.541  -1.278  1.00  0.00     0.154 HD
ENDROOT
BRANCH   1  16
HETATM   16  C5  UNL     1       1.186   0.284   0.602  1.00  0.00     0.029 C 
BRANCH  16  17
HETATM   17  C4  UNL     1       2.462   0.027   0.017  1.00  0.00     0.041 C 
HETATM   18  C3  UNL     1       3.730   0.299  -0.269  1.00  0.00     0.112 C 
HETATM   19  F1  UNL     1       4.256   1.429   0.194  1.00  0.00    -0.209 F 
BRANCH  18  20
HETATM   20  C2  UNL     1       4.308  -0.743  -1.049  1.00  0.00     0.074 C 
HETATM   21  C1  UNL     1       5.562  -0.504  -1.413  1.00  0.00     0.098 C 
HETATM   22 CL1  UNL     1       3.644  -2.247  -1.571  1.00  0.00    -0.117 Cl
ENDBRANCH  18  20
ENDBRANCH  16  17
ENDBRANCH   1  16
BRANCH  13  23
HETATM   23  C16 UNL     1       0.023  -2.163   0.189  1.00  0.00     0.422 C 
HETATM   24  O1  UNL     1       0.041  -2.956  -0.706  1.00  0.00    -0.428 OA
ENDBRANCH  13  23
TORSDOF 4
