REMARK  5 active torsions:
REMARK  status: ('A' for Active; 'I' for Inactive)
REMARK    1  A    between atoms: C3_3  and  C4_4 
REMARK       I    between atoms: C4_4  and  N1_6 
REMARK    2  A    between atoms: N1_6  and  C5_7 
REMARK    3  A    between atoms: C8_10  and  C9_11 
REMARK    4  A    between atoms: C12_14  and  N2_15 
REMARK    5  A    between atoms: C18_22  and  C19_23 
ROOT
HETATM    1  C5  UNL     1       1.061   0.799  -0.025  1.00  0.00     0.042 A 
HETATM    2  C6  UNL     1      -0.271   0.496  -0.124  1.00  0.00     0.044 A 
HETATM    3  C7  UNL     1      -1.246   1.311  -0.625  1.00  0.00     0.006 A 
HETATM    4  C8  UNL     1      -2.526   0.847  -0.625  1.00  0.00    -0.012 A 
HETATM    5  C14 UNL     1      -3.394   1.821  -1.135  1.00  0.00     0.032 A 
HETATM    6  C15 UNL     1      -3.027   3.049  -1.573  1.00  0.00     0.118 A 
HETATM    7  N3  UNL     1      -1.728   3.381  -1.522  1.00  0.00    -0.260 NA
HETATM    8  C16 UNL     1      -0.793   2.534  -1.050  1.00  0.00     0.068 A 
HETATM    9  C17 UNL     1       0.531   2.888  -0.973  1.00  0.00     0.041 A 
HETATM   10  C18 UNL     1       1.503   2.052  -0.466  1.00  0.00    -0.029 A 
ENDROOT
BRANCH   4  11
HETATM   11  C9  UNL     1      -3.043  -0.456  -0.318  1.00  0.00    -0.026 A 
HETATM   12  C10 UNL     1      -2.630  -1.687  -0.163  1.00  0.00    -0.009 A 
HETATM   13  C11 UNL     1      -3.663  -2.695   0.177  1.00  0.00     0.084 A 
HETATM   14  C12 UNL     1      -4.865  -1.841   0.224  1.00  0.00     0.007 A 
HETATM   15  C13 UNL     1      -4.477  -0.629  -0.054  1.00  0.00     0.036 A 
BRANCH  14  16
HETATM   16  N2  UNL     1      -6.106  -2.408   0.530  1.00  0.00    -0.402 N 
HETATM   17  H11 UNL     1      -6.396  -2.004   1.433  1.00  0.00     0.156 HD
HETATM   18  H12 UNL     1      -6.528  -3.100  -0.140  1.00  0.00     0.156 HD
ENDBRANCH  14  16
ENDBRANCH   4  11
BRANCH   1  19
HETATM   19  N1  UNL     1       2.044  -0.109   0.515  1.00  0.00    -0.323 N 
HETATM   20  C4  UNL     1       2.654  -0.984  -0.455  1.00  0.00     0.245 C 
HETATM   21  O1  UNL     1       2.166  -0.739  -1.591  1.00  0.00    -0.268 OA
HETATM   22  H6  UNL     1       2.274  -0.107   1.538  1.00  0.00     0.169 HD
BRANCH  20  23
HETATM   23  C3  UNL     1       3.647  -1.927  -0.013  1.00  0.00     0.070 C 
HETATM   24  C2  UNL     1       4.144  -2.171   1.168  1.00  0.00    -0.026 C 
HETATM   25  C1  UNL     1       5.172  -3.216   1.339  1.00  0.00     0.036 C 
ENDBRANCH  20  23
ENDBRANCH   1  19
BRANCH  10  26
HETATM   26  C19 UNL     1       2.924   2.462  -0.396  1.00  0.00     0.036 C 
HETATM   27  C20 UNL     1       3.374   2.840   0.989  1.00  0.00     0.010 C 
ENDBRANCH  10  26
TORSDOF 5
