REMARK  7 active torsions:
REMARK  status: ('A' for Active; 'I' for Inactive)
REMARK    1  A    between atoms: C3_3  and  C4_4 
REMARK    2  A    between atoms: C4_4  and  C5_5 
REMARK       I    between atoms: C5_5  and  N1_7 
REMARK    3  A    between atoms: N1_7  and  C6_8 
REMARK    4  A    between atoms: C7_9  and  C8_10 
REMARK    5  A    between atoms: C12_15  and  N3_16 
REMARK    6  A    between atoms: N3_16  and  C13_17 
REMARK    7  A    between atoms: C13_17  and  C14_18 
ROOT
HETATM    1  C8  UNL     1      -1.625  -0.873  -0.193  1.00  0.00     0.009 A 
HETATM    2  C9  UNL     1      -1.422  -2.179  -0.559  1.00  0.00     0.130 A 
HETATM    3  N2  UNL     1      -2.380  -3.135  -0.390  1.00  0.00    -0.272 NA
HETATM    4  C10 UNL     1      -3.581  -2.796   0.159  1.00  0.00     0.118 A 
HETATM    5  C11 UNL     1      -3.758  -1.476   0.518  1.00  0.00     0.049 A 
HETATM    6  C12 UNL     1      -2.822  -0.481   0.366  1.00  0.00     0.041 A 
ENDROOT
BRANCH   1   7
HETATM    7  C7  UNL     1      -0.571   0.075  -0.402  1.00  0.00     0.032 C 
HETATM    8  C6  UNL     1       0.594  -0.260  -0.936  1.00  0.00     0.092 C 
BRANCH   8   9
HETATM    9  N1  UNL     1       1.728   0.562  -1.204  1.00  0.00    -0.337 N 
HETATM   10  C5  UNL     1       3.017   0.378  -0.659  1.00  0.00     0.224 C 
HETATM   11  O1  UNL     1       3.002  -0.642   0.111  1.00  0.00    -0.273 OA
HETATM   12  H8  UNL     1       1.491   1.350  -1.877  1.00  0.00     0.168 HD
BRANCH  10  13
HETATM   13  C4  UNL     1       4.131   1.324  -1.026  1.00  0.00     0.130 C 
BRANCH  13  14
HETATM   14  C3  UNL     1       5.383   0.951  -0.349  1.00  0.00    -0.022 C 
HETATM   15  C2  UNL     1       5.817   0.020   0.495  1.00  0.00    -0.034 C 
HETATM   16  C1  UNL     1       7.236  -0.046   0.992  1.00  0.00     0.036 C 
ENDBRANCH  13  14
ENDBRANCH  10  13
ENDBRANCH   8   9
ENDBRANCH   1   7
BRANCH   6  17
HETATM   17  N3  UNL     1      -3.095   0.851   0.769  1.00  0.00    -0.386 N 
HETATM   18  H14 UNL     1      -2.365   1.587   0.648  1.00  0.00     0.160 HD
BRANCH  17  19
HETATM   19  C13 UNL     1      -4.344   1.239   1.344  1.00  0.00     0.149 C 
BRANCH  19  20
HETATM   20  C14 UNL     1      -5.491   1.015   0.391  1.00  0.00     0.022 C 
HETATM   21  C15 UNL     1      -6.040   0.639  -0.754  1.00  0.00     0.186 C 
HETATM   22  F1  UNL     1      -7.205   0.531  -1.416  1.00  0.00    -0.220 F 
ENDBRANCH  19  20
ENDBRANCH  17  19
ENDBRANCH   6  17
TORSDOF 7
