REMARK  6 active torsions:
REMARK  status: ('A' for Active; 'I' for Inactive)
REMARK    1  A    between atoms: C2_2  and  C3_3 
REMARK    2  A    between atoms: C7_7  and  N1_8 
REMARK       I    between atoms: N1_8  and  C8_9 
REMARK    3  A    between atoms: C8_9  and  C9_11 
REMARK    4  A    between atoms: C10_12  and  C11_13 
REMARK    5  A    between atoms: C11_13  and  N2_14 
REMARK    6  A    between atoms: N2_14  and  C12_15 
ROOT
HETATM    1  N1  UNL     1      -0.288  -1.194   0.452  1.00  0.00    -0.323 N 
HETATM    2  C8  UNL     1       0.504  -0.015   0.431  1.00  0.00     0.245 C 
HETATM    3  O1  UNL     1       0.436   1.096   1.010  1.00  0.00    -0.268 OA
HETATM    4  H8  UNL     1      -0.009  -2.005  -0.139  1.00  0.00     0.169 HD
ENDROOT
BRANCH   2   5
HETATM    5  C9  UNL     1       1.679  -0.015  -0.432  1.00  0.00     0.072 C 
HETATM    6  C10 UNL     1       2.377  -0.737  -1.289  1.00  0.00    -0.002 C 
BRANCH   6   7
HETATM    7  C11 UNL     1       3.442  -1.066  -2.229  1.00  0.00     0.147 C 
BRANCH   7   8
HETATM    8  N2  UNL     1       4.341   0.066  -2.332  1.00  0.00    -0.386 N 
HETATM    9  H13 UNL     1       4.415   0.541  -3.255  1.00  0.00     0.160 HD
BRANCH   8  10
HETATM   10  C12 UNL     1       5.114   0.548  -1.247  1.00  0.00     0.029 A 
HETATM   11  C13 UNL     1       5.122   0.012   0.020  1.00  0.00     0.032 A 
HETATM   12  C14 UNL     1       5.886   0.504   1.059  1.00  0.00     0.046 A 
HETATM   13  C15 UNL     1       6.698   1.594   0.851  1.00  0.00     0.138 A 
HETATM   14  F1  UNL     1       7.429   2.042   1.896  1.00  0.00    -0.204 F 
HETATM   15  C16 UNL     1       6.726   2.169  -0.405  1.00  0.00     0.074 A 
HETATM   16 CL1  UNL     1       7.754   3.538  -0.641  1.00  0.00    -0.081 Cl
HETATM   17  C17 UNL     1       5.937   1.627  -1.396  1.00  0.00     0.056 A 
ENDBRANCH   8  10
ENDBRANCH   7   8
ENDBRANCH   6   7
ENDBRANCH   2   5
BRANCH   1  18
HETATM   18  C7  UNL     1      -1.432  -1.281   1.251  1.00  0.00     0.049 A 
HETATM   19  C6  UNL     1      -2.675  -0.901   0.768  1.00  0.00     0.019 A 
HETATM   20  C5  UNL     1      -2.818  -0.423  -0.522  1.00  0.00     0.017 A 
HETATM   21  C20 UNL     1      -3.768  -1.017   1.628  1.00  0.00     0.069 A 
HETATM   22  C4  UNL     1      -4.056  -0.060  -0.957  1.00  0.00     0.008 A 
HETATM   23  C3  UNL     1      -5.159  -0.155  -0.155  1.00  0.00    -0.056 A 
HETATM   24  C21 UNL     1      -5.019  -0.631   1.133  1.00  0.00     0.039 A 
HETATM   25  N3  UNL     1      -3.678  -1.477   2.893  1.00  0.00    -0.260 NA
HETATM   26  C19 UNL     1      -2.488  -1.856   3.396  1.00  0.00     0.119 A 
HETATM   27  C18 UNL     1      -1.391  -1.743   2.545  1.00  0.00     0.050 A 
BRANCH  23  28
HETATM   28  C2  UNL     1      -6.525   0.225  -0.576  1.00  0.00     0.034 C 
HETATM   29  C1  UNL     1      -6.813   1.686  -0.270  1.00  0.00     0.010 C 
ENDBRANCH  23  28
ENDBRANCH   1  18
TORSDOF 6
