REMARK  6 active torsions:
REMARK  status: ('A' for Active; 'I' for Inactive)
REMARK    1  A    between atoms: C3_3  and  C4_4 
REMARK       I    between atoms: C4_4  and  N1_6 
REMARK    2  A    between atoms: N1_6  and  C5_7 
REMARK    3  A    between atoms: C8_10  and  C9_11 
REMARK    4  A    between atoms: C9_11  and  N2_12 
REMARK    5  A    between atoms: N2_12  and  C10_13 
REMARK    6  A    between atoms: C19_25  and  C20_26 
ROOT
HETATM    1  C5  UNL     1       1.766  -0.132   0.158  1.00  0.00    -0.034 C 
HETATM    2  C6  UNL     1       0.478  -0.208   0.280  1.00  0.00    -0.001 C 
HETATM    3  C7  UNL     1      -0.204  -1.462   0.474  1.00  0.00     0.074 C 
HETATM    4  C8  UNL     1      -1.629  -1.574   0.135  1.00  0.00    -0.033 C 
HETATM    5  C16 UNL     1      -2.133  -2.751  -0.198  1.00  0.00     0.121 C 
HETATM    6  N3  UNL     1      -1.446  -3.988  -0.304  1.00  0.00    -0.272 NA
HETATM    7  C17 UNL     1      -0.160  -3.972  -0.085  1.00  0.00     0.123 C 
HETATM    8  C18 UNL     1       0.497  -2.710   0.218  1.00  0.00    -0.037 C 
HETATM    9  C19 UNL     1       1.817  -2.801   0.103  1.00  0.00    -0.107 C 
HETATM   10  B1  UNL     1       2.632  -1.447   0.059  1.00  0.00     0.247 B 
HETATM   11  H22 UNL     1       3.762  -1.430   0.441  1.00  0.00    -0.014 HD
ENDROOT
BRANCH   4  12
HETATM   12  C9  UNL     1      -2.374  -0.298   0.210  1.00  0.00     0.156 C 
BRANCH  12  13
HETATM   13  N2  UNL     1      -3.779  -0.415  -0.108  1.00  0.00    -0.386 N 
HETATM   14  H11 UNL     1      -4.393  -1.217  -0.376  1.00  0.00     0.160 HD
BRANCH  13  15
HETATM   15  C10 UNL     1      -4.480   0.818  -0.047  1.00  0.00     0.029 A 
HETATM   16  C11 UNL     1      -5.829   0.949  -0.309  1.00  0.00     0.032 A 
HETATM   17  C12 UNL     1      -6.579   2.100  -0.272  1.00  0.00     0.046 A 
HETATM   18  C13 UNL     1      -5.928   3.259   0.061  1.00  0.00     0.138 A 
HETATM   19  F1  UNL     1      -6.590   4.419   0.117  1.00  0.00    -0.204 F 
HETATM   20  C14 UNL     1      -4.586   3.247   0.341  1.00  0.00     0.074 A 
HETATM   21 CL1  UNL     1      -3.720   4.699   0.769  1.00  0.00    -0.081 Cl
HETATM   22  C15 UNL     1      -3.908   2.051   0.282  1.00  0.00     0.056 A 
ENDBRANCH  13  15
ENDBRANCH  12  13
ENDBRANCH   4  12
BRANCH   1  23
HETATM   23  N1  UNL     1       2.468   1.111  -0.023  1.00  0.00    -0.338 N 
HETATM   24  C4  UNL     1       2.102   2.477  -0.131  1.00  0.00     0.244 C 
HETATM   25  O1  UNL     1       0.847   2.608  -0.044  1.00  0.00    -0.268 OA
HETATM   26  H6  UNL     1       3.530   1.035  -0.099  1.00  0.00     0.168 HD
BRANCH  24  27
HETATM   27  C3  UNL     1       3.065   3.568  -0.317  1.00  0.00     0.070 C 
HETATM   28  C2  UNL     1       4.389   3.773  -0.444  1.00  0.00    -0.026 C 
HETATM   29  C1  UNL     1       5.678   3.096  -0.478  1.00  0.00     0.036 C 
ENDBRANCH  24  27
ENDBRANCH   1  23
BRANCH   9  30
HETATM   30  C20 UNL     1       2.714  -3.946  -0.138  1.00  0.00     0.018 C 
HETATM   31  C21 UNL     1       3.690  -4.091   1.019  1.00  0.00     0.008 C 
ENDBRANCH   9  30
TORSDOF 6
