REMARK  1 active torsions:
REMARK  status: ('A' for Active; 'I' for Inactive)
REMARK    1  A    between atoms: C2_2  and  C3_3 
ROOT
HETATM    1  C3  UNL     1      -2.391  -0.478   0.096  1.00  0.00    -0.018 A 
HETATM    2  C4  UNL     1      -2.288  -1.794  -0.383  1.00  0.00     0.042 A 
HETATM    3  C5  UNL     1      -1.095  -2.457  -0.684  1.00  0.00     0.068 A 
HETATM    4  N1  UNL     1      -1.214  -3.724  -1.162  1.00  0.00    -0.260 NA
HETATM    5  C6  UNL     1      -0.060  -4.351  -1.473  1.00  0.00     0.118 A 
HETATM    6  C7  UNL     1       1.121  -3.621  -1.267  1.00  0.00     0.027 A 
HETATM    7  C8  UNL     1       1.319  -2.308  -0.773  1.00  0.00    -0.042 A 
HETATM    8  C9  UNL     1       0.094  -1.797  -0.498  1.00  0.00     0.001 A 
HETATM    9  C10 UNL     1      -0.128  -0.547  -0.024  1.00  0.00     0.055 A 
HETATM   10  C11 UNL     1      -1.216   0.204   0.299  1.00  0.00     0.182 A 
HETATM   11  N2  UNL     1      -1.397   1.519   0.781  1.00  0.00     0.137 N 
HETATM   12  C12 UNL     1      -0.719   2.712   0.873  1.00  0.00     0.311 A 
HETATM   13  O1  UNL     1      -0.129   1.788   0.342  1.00  0.00    -0.120 OA
HETATM   14  C13 UNL     1      -0.015   3.972   0.976  1.00  0.00     0.072 C 
HETATM   15  C14 UNL     1       1.160   4.606   0.691  1.00  0.00     0.163 C 
HETATM   16  N3  UNL     1       1.526   3.387   0.158  1.00  0.00    -0.291 NA
HETATM   17  C15 UNL     1       2.546   2.740   0.577  1.00  0.00     0.125 C 
HETATM   18  C16 UNL     1       2.981   1.463   0.062  1.00  0.00     0.230 A 
HETATM   19  C17 UNL     1       3.555   0.312  -0.241  1.00  0.00     0.086 A 
HETATM   20  F1  UNL     1       4.004   1.155   0.755  1.00  0.00    -0.358 F 
HETATM   21  C18 UNL     1       3.113  -0.613  -1.293  1.00  0.00     0.144 C 
HETATM   22 CL1  UNL     1       4.291  -0.633  -2.620  1.00  0.00    -0.118 Cl
HETATM   23  C19 UNL     1       2.758  -1.993  -0.801  1.00  0.00     0.066 C 
HETATM   24  H10 UNL     1      -2.317   1.808   1.240  1.00  0.00     0.335 HD
ENDROOT
BRANCH   1  25
HETATM   25  C2  UNL     1      -3.731   0.122   0.288  1.00  0.00     0.036 C 
HETATM   26  C1  UNL     1      -4.083   0.245   1.739  1.00  0.00     0.010 C 
ENDBRANCH   1  25
TORSDOF 1
