REMARK  6 active torsions:
REMARK  status: ('A' for Active; 'I' for Inactive)
REMARK    1  A    between atoms: O1_2  and  C2_3 
REMARK    2  A    between atoms: C6_9  and  C7_10 
REMARK    3  A    between atoms: C15_20  and  O2_21 
REMARK    4  A    between atoms: O2_21  and  C16_22 
REMARK    5  A    between atoms: C16_22  and  C17_23 
REMARK    6  A    between atoms: C17_23  and  C18_24 
ROOT
HETATM    1  C2  UNL     1      -0.856  -1.663  -2.683  1.00  0.00     0.103 A 
HETATM    2  C3  UNL     1      -2.122  -1.668  -3.283  1.00  0.00     0.072 A 
HETATM    3  C4  UNL     1      -3.076  -0.757  -2.873  1.00  0.00     0.073 A 
HETATM    4  N1  UNL     1      -4.319  -0.678  -3.377  1.00  0.00    -0.241 NA
HETATM    5  C5  UNL     1      -5.211   0.247  -2.919  1.00  0.00     0.234 A 
HETATM    6  N2  UNL     1      -4.864   1.110  -1.944  1.00  0.00    -0.240 NA
HETATM    7  C6  UNL     1      -3.631   1.086  -1.392  1.00  0.00     0.083 A 
HETATM    8  C13 UNL     1      -2.759   0.137  -1.880  1.00  0.00     0.025 A 
HETATM    9  C14 UNL     1      -1.509   0.123  -1.305  1.00  0.00     0.055 A 
HETATM   10  C15 UNL     1      -0.515  -0.759  -1.669  1.00  0.00     0.103 A 
ENDROOT
BRANCH  10  11
HETATM   11  O2  UNL     1       0.749  -0.960  -1.259  1.00  0.00    -0.348 OA
BRANCH  11  12
HETATM   12  C16 UNL     1       1.538  -0.359  -0.287  1.00  0.00     0.177 C 
BRANCH  12  13
HETATM   13  C17 UNL     1       1.055  -0.476   1.112  1.00  0.00     0.046 C 
BRANCH  13  14
HETATM   14  C18 UNL     1       1.925   0.203   2.152  1.00  0.00     0.119 C 
HETATM   15  N3  UNL     1       3.223  -0.197   2.281  1.00  0.00    -0.408 N 
HETATM   16  C19 UNL     1       3.503  -1.468   2.755  1.00  0.00     0.143 C 
HETATM   17  C22 UNL     1       4.265   0.459   1.630  1.00  0.00     0.143 C 
HETATM   18  C20 UNL     1       4.901  -1.959   2.368  1.00  0.00     0.187 C 
HETATM   19  O3  UNL     1       5.872  -1.049   2.657  1.00  0.00    -0.388 OA
HETATM   20  C21 UNL     1       5.626   0.237   2.292  1.00  0.00     0.187 C 
ENDBRANCH  13  14
ENDBRANCH  12  13
ENDBRANCH  11  12
ENDBRANCH  10  11
BRANCH   1  21
HETATM   21  O1  UNL     1       0.003  -2.626  -3.188  1.00  0.00    -0.353 OA
HETATM   22  C1  UNL     1      -0.405  -3.508  -4.212  1.00  0.00     0.210 C 
ENDBRANCH   1  21
BRANCH   7  23
HETATM   23  C7  UNL     1      -3.381   2.070  -0.349  1.00  0.00     0.018 A 
HETATM   24  C8  UNL     1      -2.405   3.044  -0.239  1.00  0.00     0.016 A 
HETATM   25  C9  UNL     1      -2.374   3.868   0.841  1.00  0.00     0.004 A 
HETATM   26  C10 UNL     1      -3.288   3.771   1.846  1.00  0.00     0.044 A 
HETATM   27  C11 UNL     1      -4.271   2.815   1.770  1.00  0.00     0.139 A 
HETATM   28  F1  UNL     1      -5.169   2.751   2.798  1.00  0.00    -0.204 F 
HETATM   29  C12 UNL     1      -4.319   1.972   0.684  1.00  0.00     0.085 A 
HETATM   30 CL1  UNL     1      -5.641   0.793   0.722  1.00  0.00    -0.080 Cl
ENDBRANCH   7  23
TORSDOF 6
