REMARK  7 active torsions:
REMARK  status: ('A' for Active; 'I' for Inactive)
REMARK    1  A    between atoms: N1_2  and  C2_3 
REMARK    2  A    between atoms: C2_3  and  N2_4 
REMARK    3  A    between atoms: N2_4  and  C3_5 
REMARK    4  A    between atoms: C10_14  and  C11_15 
REMARK    5  A    between atoms: C13_18  and  C14_19 
REMARK    6  A    between atoms: C14_19  and  N3_20 
REMARK    7  A    between atoms: C18_25  and  O3_26 
ROOT
HETATM    1  C2  UNL     1      -2.423   0.093  -0.067  1.00  0.00     0.245 C 
HETATM    2  C9  UNL     1      -1.653  -1.093  -0.506  1.00  0.00     0.086 C 
HETATM    3  C10 UNL     1      -0.458  -1.682  -0.518  1.00  0.00     0.055 C 
HETATM    4  O1  UNL     1       0.741  -1.203   0.040  1.00  0.00    -0.318 OA
HETATM    5  C13 UNL     1       1.121  -0.209   0.949  1.00  0.00     0.083 C 
HETATM    6  C20 UNL     1       0.443   0.650   1.692  1.00  0.00     0.053 C 
HETATM    7  C21 UNL     1      -0.970   0.931   1.885  1.00  0.00     0.118 C 
HETATM    8  N4  UNL     1      -1.996   0.678   1.152  1.00  0.00    -0.244 NA
ENDROOT
BRANCH   1   9
HETATM    9  N1  UNL     1      -2.417   1.049  -1.169  1.00  0.00    -0.255 NA
HETATM   10  C1  UNL     1      -2.605   0.535  -2.333  1.00  0.00     0.148 C 
ENDBRANCH   1   9
BRANCH   1  11
HETATM   11  N2  UNL     1      -3.834  -0.273   0.067  1.00  0.00    -0.340 N 
HETATM   12  H3  UNL     1      -4.124  -1.284  -0.063  1.00  0.00     0.164 HD
BRANCH  11  13
HETATM   13  C3  UNL     1      -4.856   0.654   0.366  1.00  0.00     0.033 A 
HETATM   14  C4  UNL     1      -6.198   0.275   0.468  1.00  0.00     0.032 A 
HETATM   15  C5  UNL     1      -7.171   1.208   0.761  1.00  0.00     0.046 A 
HETATM   16  C6  UNL     1      -6.878   2.545   0.967  1.00  0.00     0.138 A 
HETATM   17  F1  UNL     1      -7.946   3.329   1.245  1.00  0.00    -0.204 F 
HETATM   18  C7  UNL     1      -5.542   2.913   0.864  1.00  0.00     0.074 A 
HETATM   19 CL1  UNL     1      -5.231   4.619   1.136  1.00  0.00    -0.081 Cl
HETATM   20  C8  UNL     1      -4.576   1.982   0.572  1.00  0.00     0.056 A 
ENDBRANCH  11  13
ENDBRANCH   1  11
BRANCH   3  21
HETATM   21  C11 UNL     1      -0.317  -3.017  -1.196  1.00  0.00     0.060 C 
HETATM   22  C12 UNL     1       0.154  -4.042  -0.185  1.00  0.00     0.012 C 
ENDBRANCH   3  21
BRANCH   5  23
HETATM   23  C14 UNL     1       2.610  -0.209   1.011  1.00  0.00     0.340 C 
BRANCH  23  24
HETATM   24  N3  UNL     1       3.210   0.064  -0.255  1.00  0.00     0.127 N 
HETATM   25  C15 UNL     1       3.001   1.413  -0.738  1.00  0.00     0.302 C 
HETATM   26  C16 UNL     1       4.247   2.267  -0.501  1.00  0.00     0.198 C 
HETATM   27  O2  UNL     1       5.345   1.819  -1.209  1.00  0.00    -0.385 OA
HETATM   28  C17 UNL     1       5.324   0.445  -1.424  1.00  0.00     0.231 C 
HETATM   29  C18 UNL     1       4.634  -0.168  -0.208  1.00  0.00     0.382 C 
BRANCH  29  30
HETATM   30  O3  UNL     1       4.989  -1.503  -0.071  1.00  0.00    -0.361 OA
HETATM   31  C19 UNL     1       5.747  -1.635   1.084  1.00  0.00     0.204 C 
ENDBRANCH  29  30
ENDBRANCH  23  24
ENDBRANCH   5  23
TORSDOF 7
