REMARK  6 active torsions:
REMARK  status: ('A' for Active; 'I' for Inactive)
REMARK    1  A    between atoms: N1_2  and  C2_3 
REMARK    2  A    between atoms: C2_3  and  C3_4 
REMARK    3  A    between atoms: C2_3  and  N3_12 
REMARK    4  A    between atoms: C3_4  and  C4_5 
REMARK    5  A    between atoms: C4_5  and  C5_6 
REMARK    6  A    between atoms: N3_12  and  C10_13 
ROOT
HETATM    1  C2  UNL     1       0.607  -0.411  -0.245  1.00  0.00     0.183 C 
ENDROOT
BRANCH   1   2
HETATM    2  N1  UNL     1       0.894  -1.777  -0.465  1.00  0.00    -0.246 NA
HETATM    3  C1  UNL     1       0.228  -2.571  -1.226  1.00  0.00     0.152 C 
ENDBRANCH   1   2
BRANCH   1   4
HETATM    4  C3  UNL     1      -0.587  -0.113   0.242  1.00  0.00    -0.021 C 
BRANCH   4   5
HETATM    5  C4  UNL     1      -1.851   0.173   0.320  1.00  0.00    -0.038 C 
BRANCH   5   6
HETATM    6  C5  UNL     1      -3.062   0.663   0.314  1.00  0.00     0.116 A 
HETATM    7  N2  UNL     1      -3.534   2.009   0.134  1.00  0.00    -0.252 NA
HETATM    8  C6  UNL     1      -4.830   2.020   0.207  1.00  0.00     0.118 A 
HETATM    9  C7  UNL     1      -5.320   0.655   0.444  1.00  0.00     0.029 A 
HETATM   10  C8  UNL     1      -4.264  -0.140   0.506  1.00  0.00    -0.023 A 
HETATM   11  C9  UNL     1      -4.293  -1.620   0.734  1.00  0.00     0.051 C 
ENDBRANCH   5   6
ENDBRANCH   4   5
ENDBRANCH   1   4
BRANCH   1  12
HETATM   12  N3  UNL     1       1.542   0.628  -0.525  1.00  0.00    -0.334 N 
HETATM   13  H8  UNL     1       1.124   1.380  -1.117  1.00  0.00     0.168 HD
BRANCH  12  14
HETATM   14  C10 UNL     1       2.884   0.640  -0.056  1.00  0.00     0.035 A 
HETATM   15  C11 UNL     1       3.295  -0.425   0.717  1.00  0.00     0.032 A 
HETATM   16  C12 UNL     1       4.616  -0.376   1.157  1.00  0.00     0.046 A 
HETATM   17  C13 UNL     1       5.425   0.710   0.805  1.00  0.00     0.138 A 
HETATM   18  F1  UNL     1       6.726   0.782   1.224  1.00  0.00    -0.204 F 
HETATM   19  C14 UNL     1       4.958   1.754   0.024  1.00  0.00     0.074 A 
HETATM   20 CL1  UNL     1       5.990   3.094  -0.399  1.00  0.00    -0.081 Cl
HETATM   21  C15 UNL     1       3.657   1.717  -0.416  1.00  0.00     0.056 A 
ENDBRANCH  12  14
ENDBRANCH   1  12
TORSDOF 6
