REMARK  8 active torsions:
REMARK  status: ('A' for Active; 'I' for Inactive)
REMARK    1  A    between atoms: S1_2  and  C2_5 
REMARK    2  A    between atoms: C2_5  and  C3_6 
REMARK    3  A    between atoms: C3_6  and  N1_7 
REMARK    4  A    between atoms: N1_7  and  C4_8 
REMARK    5  A    between atoms: C12_18  and  N4_19 
REMARK    6  A    between atoms: C12_18  and  C20_29 
REMARK    7  A    between atoms: N4_19  and  C13_20 
REMARK    8  A    between atoms: C20_29  and  C21_30 
ROOT
HETATM    1  C4  UNL     1      -2.158  -1.342  -1.228  1.00  0.00     0.017 A 
HETATM    2  C5  UNL     1      -1.545  -2.242  -1.956  1.00  0.00     0.067 A 
HETATM    3  C6  UNL     1      -1.550  -1.472  -3.285  1.00  0.00     0.024 C 
HETATM    4  C7  UNL     1      -1.042  -0.076  -2.762  1.00  0.00    -0.025 A 
HETATM    5  C8  UNL     1      -1.335   1.223  -3.107  1.00  0.00     0.006 A 
HETATM    6  C9  UNL     1      -0.614   1.071  -1.989  1.00  0.00     0.011 A 
HETATM    7  C10 UNL     1      -0.016   0.270  -1.125  1.00  0.00    -0.009 A 
HETATM    8  N2  UNL     1       0.109  -0.933  -0.271  1.00  0.00     0.000 N 
HETATM    9  C11 UNL     1      -1.046  -1.783  -0.343  1.00  0.00     0.105 A 
HETATM   10  N3  UNL     1      -0.049  -2.197   0.461  1.00  0.00    -0.200 NA
HETATM   11  C12 UNL     1       1.047  -1.388   0.526  1.00  0.00     0.132 A 
HETATM   12  C20 UNL     1       0.529  -0.484  -0.340  1.00  0.00     0.025 A 
HETATM   13  C21 UNL     1      -0.279  -0.117  -1.570  1.00  0.00     0.019 A 
ENDROOT
BRANCH  11  14
HETATM   14  N4  UNL     1       2.085  -0.461   0.475  1.00  0.00    -0.269 NA
HETATM   15  H14 UNL     1       2.401  -1.209   1.176  1.00  0.00     0.129 HD
BRANCH  14  16
HETATM   16  C13 UNL     1       3.336   0.143   0.781  1.00  0.00    -0.009 C 
HETATM   17  C14 UNL     1       4.029  -0.065  -0.349  1.00  0.00     0.021 C 
HETATM   18  C15 UNL     1       5.390   0.315  -0.675  1.00  0.00     0.026 C 
HETATM   19  C16 UNL     1       6.560   0.406  -0.046  1.00  0.00     0.143 C 
HETATM   20  O3  UNL     1       6.889   0.127   1.294  1.00  0.00    -0.311 OA
HETATM   21  C17 UNL     1       6.158   0.288   2.490  1.00  0.00     0.140 C 
HETATM   22 CL1  UNL     1       7.174   0.122   3.891  1.00  0.00    -0.057 Cl
HETATM   23  C18 UNL     1       4.848   0.539   2.689  1.00  0.00     0.029 C 
HETATM   24  C19 UNL     1       3.525   0.778   2.115  1.00  0.00     0.081 C 
ENDBRANCH  14  16
ENDBRANCH  11  14
BRANCH   1  25
HETATM   25  N1  UNL     1      -2.826  -0.299  -0.563  1.00  0.00    -0.393 N 
HETATM   26  H8  UNL     1      -3.316   0.316  -1.260  1.00  0.00     0.159 HD
BRANCH  25  27
HETATM   27  C3  UNL     1      -2.794  -0.177   0.872  1.00  0.00     0.134 C 
BRANCH  27  28
HETATM   28  C2  UNL     1      -3.546   1.027   1.313  1.00  0.00     0.159 C 
BRANCH  28  29
HETATM   29  S1  UNL     1      -5.244   0.967   0.897  1.00  0.00     0.142 S 
HETATM   30  C1  UNL     1      -5.953  -0.468   1.694  1.00  0.00     0.161 C 
HETATM   31  O1  UNL     1      -5.448   0.911  -0.573  1.00  0.00    -0.228 OA
HETATM   32  O2  UNL     1      -5.967   2.190   1.421  1.00  0.00    -0.228 OA
ENDBRANCH  28  29
ENDBRANCH  27  28
ENDBRANCH  25  27
ENDBRANCH   1  25
TORSDOF 8
