REMARK  3 active torsions:
REMARK  status: ('A' for Active; 'I' for Inactive)
REMARK    1  A    between atoms: C4_6  and  C5_7 
REMARK    2  A    between atoms: C14_19  and  C15_20 
REMARK    3  A    between atoms: C15_20  and  N3_21 
ROOT
HETATM    1  C1  UNL     1      -0.988  -0.326   2.929  1.00  0.00     0.066 C 
HETATM    2  C2  UNL     1      -0.408  -0.153   1.569  1.00  0.00     0.018 C 
HETATM    3  N1  UNL     1       0.742  -0.462   1.101  1.00  0.00    -0.251 NA
HETATM    4  C3  UNL     1       1.820  -1.062   1.718  1.00  0.00     0.227 C 
HETATM    5  N2  UNL     1       2.885  -1.422   1.182  1.00  0.00    -0.269 NA
HETATM    6  C4  UNL     1       3.390  -1.375  -0.138  1.00  0.00     0.167 C 
HETATM    7  C11 UNL     1       2.456  -1.166  -1.226  1.00  0.00     0.029 C 
HETATM    8  C12 UNL     1       1.253  -0.925  -1.717  1.00  0.00     0.133 C 
HETATM    9  O1  UNL     1       0.014  -0.715  -1.133  1.00  0.00    -0.362 OA
HETATM   10  C13 UNL     1      -0.456   0.584  -0.793  1.00  0.00     0.186 C 
HETATM   11  C14 UNL     1      -1.287   0.479   0.507  1.00  0.00     0.085 C 
ENDROOT
BRANCH   6  12
HETATM   12  C5  UNL     1       4.523  -0.397  -0.205  1.00  0.00    -0.028 A 
HETATM   13  C6  UNL     1       5.706  -0.657  -0.871  1.00  0.00     0.013 A 
HETATM   14  C7  UNL     1       6.701   0.300  -0.878  1.00  0.00     0.044 A 
HETATM   15  C8  UNL     1       6.485   1.509  -0.209  1.00  0.00     0.138 A 
HETATM   16  F1  UNL     1       7.450   2.457  -0.205  1.00  0.00    -0.204 F 
HETATM   17  C9  UNL     1       5.299   1.761   0.455  1.00  0.00     0.073 A 
HETATM   18 CL1  UNL     1       5.049   3.286   1.289  1.00  0.00    -0.081 Cl
HETATM   19  C10 UNL     1       4.311   0.794   0.454  1.00  0.00     0.036 A 
ENDBRANCH   6  12
BRANCH  11  20
HETATM   20  C15 UNL     1      -2.474  -0.399   0.320  1.00  0.00     0.285 C 
BRANCH  20  21
HETATM   21  N3  UNL     1      -3.404   0.097  -0.676  1.00  0.00     0.093 N 
HETATM   22  C16 UNL     1      -4.071   1.305  -0.264  1.00  0.00     0.298 C 
HETATM   23  C17 UNL     1      -5.228   1.038   0.656  1.00  0.00     0.198 C 
HETATM   24  O2  UNL     1      -6.225   0.309   0.033  1.00  0.00    -0.388 OA
HETATM   25  C18 UNL     1      -5.781  -0.388  -1.083  1.00  0.00     0.198 C 
HETATM   26  C19 UNL     1      -4.375  -0.927  -0.930  1.00  0.00     0.298 C 
ENDBRANCH  20  21
ENDBRANCH  11  20
TORSDOF 3
