REMARK  8 active torsions:
REMARK  status: ('A' for Active; 'I' for Inactive)
REMARK    1  A    between atoms: O1_2  and  C2_3 
REMARK    2  A    between atoms: C6_9  and  N3_10 
REMARK    3  A    between atoms: N3_10  and  C7_11 
REMARK    4  A    between atoms: C15_21  and  O2_22 
REMARK    5  A    between atoms: O2_22  and  C16_23 
REMARK    6  A    between atoms: C16_23  and  C17_24 
REMARK    7  A    between atoms: C17_24  and  C18_25 
REMARK    8  A    between atoms: C18_25  and  C19_26 
ROOT
HETATM    1  C2  UNL     1      -0.299   1.488  -2.378  1.00  0.00     0.103 A 
HETATM    2  C3  UNL     1       0.826   2.245  -2.622  1.00  0.00     0.072 A 
HETATM    3  C4  UNL     1       1.983   2.004  -1.915  1.00  0.00     0.075 A 
HETATM    4  N1  UNL     1       3.015   2.793  -2.225  1.00  0.00    -0.241 NA
HETATM    5  C5  UNL     1       4.177   2.608  -1.569  1.00  0.00     0.236 A 
HETATM    6  N2  UNL     1       4.270   1.655  -0.636  1.00  0.00    -0.224 NA
HETATM    7  C6  UNL     1       3.291   0.830  -0.269  1.00  0.00     0.142 A 
HETATM    8  C13 UNL     1       2.113   1.028  -0.946  1.00  0.00     0.042 A 
HETATM    9  C14 UNL     1       0.957   0.305  -0.747  1.00  0.00     0.057 A 
HETATM   10  C15 UNL     1      -0.226   0.498  -1.420  1.00  0.00     0.103 A 
ENDROOT
BRANCH   7  11
HETATM   11  N3  UNL     1       3.356  -0.188   0.709  1.00  0.00    -0.340 N 
HETATM   12  H6  UNL     1       2.557  -0.794   0.924  1.00  0.00     0.167 HD
BRANCH  11  13
HETATM   13  C7  UNL     1       4.465  -0.529   1.520  1.00  0.00     0.035 A 
HETATM   14  C8  UNL     1       5.610   0.226   1.588  1.00  0.00     0.032 A 
HETATM   15  C9  UNL     1       6.712  -0.076   2.356  1.00  0.00     0.046 A 
HETATM   16  C10 UNL     1       6.708  -1.214   3.132  1.00  0.00     0.138 A 
HETATM   17  F1  UNL     1       7.734  -1.605   3.923  1.00  0.00    -0.204 F 
HETATM   18  C11 UNL     1       5.588  -2.010   3.105  1.00  0.00     0.074 A 
HETATM   19 CL1  UNL     1       5.504  -3.472   4.062  1.00  0.00    -0.081 Cl
HETATM   20  C12 UNL     1       4.522  -1.650   2.316  1.00  0.00     0.056 A 
ENDBRANCH  11  13
ENDBRANCH   7  11
BRANCH  10  21
HETATM   21  O2  UNL     1      -1.364  -0.259  -1.182  1.00  0.00    -0.348 OA
BRANCH  21  22
HETATM   22  C16 UNL     1      -1.320  -1.267  -0.216  1.00  0.00     0.176 C 
BRANCH  22  23
HETATM   23  C17 UNL     1      -2.655  -1.992  -0.089  1.00  0.00     0.028 C 
BRANCH  23  24
HETATM   24  C18 UNL     1      -3.704  -0.990   0.305  1.00  0.00     0.026 C 
BRANCH  24  25
HETATM   25  C19 UNL     1      -5.044  -1.637   0.447  1.00  0.00     0.111 C 
HETATM   26  C20 UNL     1      -5.182  -2.732   1.461  1.00  0.00     0.216 C 
HETATM   27  O3  UNL     1      -6.391  -2.099   1.819  1.00  0.00    -0.302 OA
HETATM   28  N4  UNL     1      -5.824  -0.932   1.444  1.00  0.00    -0.195 NA
HETATM   29  C21 UNL     1      -6.689   0.034   0.820  1.00  0.00     0.144 C 
ENDBRANCH  24  25
ENDBRANCH  23  24
ENDBRANCH  22  23
ENDBRANCH  21  22
ENDBRANCH  10  21
BRANCH   1  30
HETATM   30  O1  UNL     1      -1.480   1.688  -3.057  1.00  0.00    -0.353 OA
HETATM   31  C1  UNL     1      -1.626   2.687  -4.054  1.00  0.00     0.210 C 
ENDBRANCH   1  30
TORSDOF 8
