REMARK  2 active torsions:
REMARK  status: ('A' for Active; 'I' for Inactive)
REMARK    1  A    between atoms: C16_20  and  C17_21 
REMARK    2  A    between atoms: C17_21  and  O2_23 
ROOT
HETATM    1  C1  UNL     1      -4.701  -1.486   0.068  1.00  0.00     0.024 C 
HETATM    2  C2  UNL     1      -3.426  -1.144   0.109  1.00  0.00    -0.027 A 
HETATM    3  C3  UNL     1      -2.267  -2.042   0.121  1.00  0.00     0.021 A 
HETATM    4  C4  UNL     1      -1.125  -1.379   0.165  1.00  0.00    -0.028 A 
HETATM    5  C5  UNL     1       0.156  -2.124   0.183  1.00  0.00     0.156 C 
HETATM    6  N1  UNL     1       1.248  -1.384   0.695  1.00  0.00    -0.390 N 
HETATM    7  C6  UNL     1       1.882  -0.439  -0.146  1.00  0.00     0.119 A 
HETATM    8  C7  UNL     1       1.494  -0.433  -1.583  1.00  0.00     0.068 C 
HETATM    9  C8  UNL     1       3.346  -0.801  -0.144  1.00  0.00     0.027 A 
HETATM   10  C9  UNL     1       4.376  -0.101   0.302  1.00  0.00     0.021 A 
HETATM   11  C10 UNL     1       4.036   1.196   0.867  1.00  0.00     0.026 A 
HETATM   12 BR1  UNL     1       5.476   2.260   1.530  1.00  0.00    -0.050 Br
HETATM   13  C11 UNL     1       2.806   1.653   0.937  1.00  0.00     0.110 A 
HETATM   14  N2  UNL     1       1.716   0.871   0.447  1.00  0.00    -0.333 N 
HETATM   15  C12 UNL     1       0.600   1.736   0.724  1.00  0.00     0.247 C 
HETATM   16  N3  UNL     1       0.342   2.786  -0.247  1.00  0.00    -0.256 NA
HETATM   17  C13 UNL     1      -0.894   2.494  -0.164  1.00  0.00     0.094 C 
HETATM   18  C14 UNL     1      -0.694   1.283   0.231  1.00  0.00     0.029 C 
HETATM   19  C15 UNL     1      -1.452   0.040   0.186  1.00  0.00     0.002 A 
HETATM   20  C16 UNL     1      -2.768   0.152   0.153  1.00  0.00     0.058 A 
HETATM   21  H6  UNL     1       1.156  -1.083   1.673  1.00  0.00     0.156 HD
ENDROOT
BRANCH  20  22
HETATM   22  C17 UNL     1      -3.559   1.374   0.159  1.00  0.00     0.177 C 
HETATM   23  O1  UNL     1      -4.816   1.448   0.127  1.00  0.00    -0.646 OA
BRANCH  22  24
HETATM   24  O2  UNL     1      -3.589   2.728   0.189  1.00  0.00    -0.773 OA
HETATM   25  H14 UNL     1      -3.423   3.266   1.027  1.00  0.00     0.167 HD
ENDBRANCH  22  24
ENDBRANCH  20  22
TORSDOF 2
