REMARK  2 active torsions:
REMARK  status: ('A' for Active; 'I' for Inactive)
REMARK    1  A    between atoms: C1_2  and  C2_3 
REMARK    2  A    between atoms: C14_18  and  O1_19 
ROOT
HETATM    1  C2  UNL     1      -0.777   0.010  -1.067  1.00  0.00     0.023 C 
HETATM    2  C3  UNL     1      -0.376  -1.255  -1.047  1.00  0.00     0.007 C 
HETATM    3  C4  UNL     1       0.158  -2.414  -0.261  1.00  0.00     0.035 C 
HETATM    4  C5  UNL     1      -1.022  -3.447  -0.405  1.00  0.00     0.012 C 
HETATM    5  C6  UNL     1      -2.171  -2.714  -0.522  1.00  0.00     0.116 C 
HETATM    6  N2  UNL     1      -2.101  -1.573   0.370  1.00  0.00    -0.245 N 
HETATM    7  N3  UNL     1      -0.993  -1.415   1.138  1.00  0.00    -0.183 NA
HETATM    8  C7  UNL     1       0.035  -2.131   1.197  1.00  0.00     0.130 C 
HETATM    9  C8  UNL     1      -2.812  -0.356   0.669  1.00  0.00     0.071 A 
HETATM   10  C9  UNL     1      -4.106  -0.567   1.093  1.00  0.00     0.056 A 
HETATM   11  C10 UNL     1      -4.907   0.529   1.366  1.00  0.00     0.036 A 
HETATM   12 CL1  UNL     1      -6.557   0.253   1.904  1.00  0.00    -0.084 Cl
HETATM   13  C11 UNL     1      -4.399   1.785   1.211  1.00  0.00     0.024 A 
HETATM   14  C12 UNL     1      -3.090   1.983   0.784  1.00  0.00     0.017 A 
HETATM   15  C13 UNL     1      -2.259   0.951   0.502  1.00  0.00     0.037 A 
HETATM   16  C14 UNL     1      -0.890   1.089   0.101  1.00  0.00     0.224 C 
HETATM   17  O2  UNL     1      -0.420   2.160  -0.578  1.00  0.00    -0.347 OA
HETATM   18  C15 UNL     1       0.021   3.284   0.047  1.00  0.00     0.174 C 
HETATM   19  C16 UNL     1       1.288   2.936   0.853  1.00  0.00     0.056 C 
HETATM   20  C17 UNL     1       2.300   2.277  -0.047  1.00  0.00     0.272 C 
HETATM   21  N4  UNL     1       2.888   1.170   0.673  1.00  0.00     0.085 N 
HETATM   22  C18 UNL     1       3.883   0.432  -0.060  1.00  0.00     0.295 C 
HETATM   23  C19 UNL     1       4.124  -0.882   0.631  1.00  0.00     0.197 C 
HETATM   24  O3  UNL     1       2.961  -1.667   0.611  1.00  0.00    -0.389 OA
HETATM   25  C20 UNL     1       2.576  -2.029  -0.665  1.00  0.00     0.169 C 
HETATM   26  C21 UNL     1       1.415  -2.967  -0.734  1.00  0.00     0.049 C 
HETATM   27  H17 UNL     1       3.403   1.595   1.499  1.00  0.00     0.315 HD
ENDROOT
BRANCH   1  28
HETATM   28  C1  UNL     1      -1.239   0.505  -2.401  1.00  0.00     0.119 C 
HETATM   29  N1  UNL     1      -1.107  -0.489  -3.193  1.00  0.00    -0.312 NA
HETATM   30  H1  UNL     1      -1.350  -0.450  -4.196  1.00  0.00     0.186 HD
ENDBRANCH   1  28
BRANCH  16  31
HETATM   31  O1  UNL     1      -0.005   0.612   1.061  1.00  0.00    -0.358 OA
HETATM   32  H10 UNL     1      -0.320   0.886   1.990  1.00  0.00     0.213 HD
ENDBRANCH  16  31
TORSDOF 2
