REMARK  9 active torsions:
REMARK  status: ('A' for Active; 'I' for Inactive)
REMARK    1  A    between atoms: B1_1  and  C1_2 
REMARK    2  A    between atoms: C3_4  and  N1_5 
REMARK    3  A    between atoms: N1_5  and  C4_6 
REMARK    4  A    between atoms: C7_9  and  O1_10 
REMARK    5  A    between atoms: O1_10  and  C8_11 
REMARK    6  A    between atoms: C8_11  and  C9_12 
REMARK    7  A    between atoms: C9_12  and  C10_13 
REMARK    8  A    between atoms: C10_13  and  N2_14 
REMARK    9  A    between atoms: C15_20  and  O3_21 
ROOT
HETATM    1  C4  UNL     1       2.746   0.841   0.118  1.00  0.00     0.136 C 
HETATM    2  C5  UNL     1       1.556   0.925   0.688  1.00  0.00     0.003 A 
HETATM    3  C6  UNL     1       0.770  -0.185   0.172  1.00  0.00     0.051 A 
HETATM    4  C7  UNL     1      -0.461  -0.378   0.602  1.00  0.00     0.102 A 
HETATM    5  C15 UNL     1      -0.995   0.569   1.605  1.00  0.00     0.096 A 
HETATM    6  C16 UNL     1      -0.283   1.591   2.070  1.00  0.00     0.027 A 
HETATM    7  C17 UNL     1       1.091   1.925   1.672  1.00  0.00     0.088 A 
HETATM    8  C18 UNL     1       2.032   2.165   2.760  1.00  0.00     0.104 C 
HETATM    9  N3  UNL     1       3.304   2.378   2.694  1.00  0.00    -0.257 NA
HETATM   10  C19 UNL     1       4.050   2.415   1.473  1.00  0.00     0.234 C 
HETATM   11  N4  UNL     1       3.813   1.762   0.377  1.00  0.00    -0.224 NA
ENDROOT
BRANCH   1  12
HETATM   12  N1  UNL     1       3.039  -0.213  -0.811  1.00  0.00    -0.341 N 
HETATM   13  H4  UNL     1       2.844  -1.096  -1.316  1.00  0.00     0.167 HD
BRANCH  12  14
HETATM   14  C3  UNL     1       4.301  -0.096  -1.507  1.00  0.00     0.033 A 
HETATM   15  C2  UNL     1       5.385  -0.553  -0.743  1.00  0.00     0.026 A 
HETATM   16  C1  UNL     1       6.725  -0.559  -1.145  1.00  0.00    -0.069 A 
HETATM   17  C22 UNL     1       6.965  -0.069  -2.405  1.00  0.00     0.111 A 
HETATM   18  C21 UNL     1       5.930   0.389  -3.188  1.00  0.00     0.044 A 
HETATM   19  F1  UNL     1       8.236  -0.044  -2.858  1.00  0.00    -0.207 F 
HETATM   20  C20 UNL     1       4.606   0.385  -2.763  1.00  0.00     0.032 A 
BRANCH  16  21
HETATM   21  B1  UNL     1       7.838  -1.091  -0.189  1.00  0.00     0.178 B 
HETATM   22  H1  UNL     1       8.763  -1.682  -0.638  1.00  0.00    -0.026 HD
HETATM   23  H2  UNL     1       7.974  -0.481   0.837  1.00  0.00    -0.026 HD
ENDBRANCH  16  21
ENDBRANCH  12  14
ENDBRANCH   1  12
BRANCH   4  24
HETATM   24  O1  UNL     1      -1.458  -1.298   0.338  1.00  0.00    -0.348 OA
BRANCH  24  25
HETATM   25  C8  UNL     1      -1.675  -1.748  -1.004  1.00  0.00     0.177 C 
BRANCH  25  26
HETATM   26  C9  UNL     1      -3.167  -1.991  -1.226  1.00  0.00     0.057 C 
BRANCH  26  27
HETATM   27  C10 UNL     1      -3.869  -0.674  -0.975  1.00  0.00     0.274 C 
BRANCH  27  28
HETATM   28  N2  UNL     1      -5.285  -0.718  -1.143  1.00  0.00     0.092 N 
HETATM   29  C11 UNL     1      -5.901   0.582  -0.894  1.00  0.00     0.298 C 
HETATM   30  C12 UNL     1      -5.746   0.992   0.553  1.00  0.00     0.198 C 
HETATM   31  O2  UNL     1      -6.182   0.037   1.441  1.00  0.00    -0.388 OA
HETATM   32  C13 UNL     1      -5.779  -1.252   1.178  1.00  0.00     0.198 C 
HETATM   33  C14 UNL     1      -5.940  -1.661  -0.251  1.00  0.00     0.298 C 
ENDBRANCH  27  28
ENDBRANCH  26  27
ENDBRANCH  25  26
ENDBRANCH  24  25
ENDBRANCH   4  24
BRANCH   5  34
HETATM   34  O3  UNL     1      -2.260   0.584   2.221  1.00  0.00    -0.358 OA
HETATM   35  H20 UNL     1      -2.554  -0.260   2.733  1.00  0.00     0.217 HD
ENDBRANCH   5  34
TORSDOF 9
