REMARK  6 active torsions:
REMARK  status: ('A' for Active; 'I' for Inactive)
REMARK    1  A    between atoms: C3_3  and  C4_4 
REMARK    2  A    between atoms: C6_6  and  C7_7 
REMARK    3  A    between atoms: C7_7  and  N1_8 
REMARK    4  A    between atoms: N1_8  and  C8_9 
REMARK    5  A    between atoms: C12_15  and  O1_16 
REMARK    6  A    between atoms: C14_18  and  O2_19 
ROOT
HETATM    1  C8  UNL     1      -0.582   0.335  -0.028  1.00  0.00     0.137 A 
HETATM    2  N2  UNL     1       0.701   0.679   0.051  1.00  0.00    -0.224 NA
HETATM    3  C9  UNL     1       1.700   0.244  -0.708  1.00  0.00     0.235 A 
HETATM    4  N3  UNL     1       1.373  -0.635  -1.652  1.00  0.00    -0.241 NA
HETATM    5  C10 UNL     1       0.096  -1.066  -1.834  1.00  0.00     0.075 A 
HETATM    6  C11 UNL     1      -0.180  -1.940  -2.852  1.00  0.00     0.072 A 
HETATM    7  C12 UNL     1      -1.495  -2.307  -3.018  1.00  0.00     0.103 A 
HETATM    8  C14 UNL     1      -2.502  -1.808  -2.176  1.00  0.00     0.102 A 
HETATM    9  C16 UNL     1      -2.240  -0.939  -1.155  1.00  0.00     0.057 A 
HETATM   10  C17 UNL     1      -0.894  -0.577  -1.012  1.00  0.00     0.041 A 
ENDROOT
BRANCH   1  11
HETATM   11  N1  UNL     1      -1.513   0.918   0.910  1.00  0.00    -0.371 N 
HETATM   12  H12 UNL     1      -2.520   0.662   0.943  1.00  0.00     0.161 HD
BRANCH  11  13
HETATM   13  C7  UNL     1      -1.020   1.902   1.843  1.00  0.00     0.149 C 
BRANCH  13  14
HETATM   14  C6  UNL     1       0.100   1.431   2.657  1.00  0.00    -0.001 C 
HETATM   15  C4  UNL     1       1.223   2.061   2.500  1.00  0.00    -0.065 C 
HETATM   16  C5  UNL     1       1.812   3.186   1.744  1.00  0.00     0.048 C 
BRANCH  15  17
HETATM   17  C3  UNL     1       2.226   1.460   3.385  1.00  0.00     0.002 C 
HETATM   18  C2  UNL     1       3.492   1.888   3.450  1.00  0.00    -0.030 C 
HETATM   19  C1  UNL     1       4.834   1.661   4.120  1.00  0.00     0.036 C 
ENDBRANCH  15  17
ENDBRANCH  13  14
ENDBRANCH  11  13
ENDBRANCH   1  11
BRANCH   8  20
HETATM   20  O2  UNL     1      -3.723  -2.305  -2.521  1.00  0.00    -0.353 OA
HETATM   21  C15 UNL     1      -4.903  -2.030  -1.825  1.00  0.00     0.210 C 
ENDBRANCH   8  20
BRANCH   7  22
HETATM   22  O1  UNL     1      -1.813  -3.172  -4.022  1.00  0.00    -0.353 OA
HETATM   23  C13 UNL     1      -1.007  -3.785  -4.962  1.00  0.00     0.210 C 
ENDBRANCH   7  22
TORSDOF 6
