REMARK  4 active torsions:
REMARK  status: ('A' for Active; 'I' for Inactive)
REMARK    1  A    between atoms: C2_2  and  O1_3 
REMARK    2  A    between atoms: O1_3  and  C3_4 
REMARK    3  A    between atoms: C7_9  and  N1_10 
REMARK    4  A    between atoms: N1_10  and  C8_11 
ROOT
HETATM    1  C3  UNL     1      -3.137  -0.198   0.269  1.00  0.00     0.319 A 
HETATM    2  O2  UNL     1      -2.998   0.735   1.316  1.00  0.00    -0.326 OA
HETATM    3  C4  UNL     1      -1.798   0.907   1.986  1.00  0.00     0.139 A 
HETATM    4  C5  UNL     1      -0.654   0.254   1.760  1.00  0.00     0.041 A 
HETATM    5  C6  UNL     1      -0.649  -0.736   0.714  1.00  0.00     0.041 A 
HETATM    6  C7  UNL     1       0.461  -1.484   0.391  1.00  0.00     0.141 A 
HETATM    7  N2  UNL     1       0.324  -2.383  -0.601  1.00  0.00    -0.224 NA
HETATM    8  C15 UNL     1      -0.835  -2.558  -1.259  1.00  0.00     0.235 A 
HETATM    9  N3  UNL     1      -1.917  -1.826  -0.941  1.00  0.00    -0.240 NA
HETATM   10  C16 UNL     1      -1.849  -0.898   0.053  1.00  0.00     0.105 A 
ENDROOT
BRANCH   6  11
HETATM   11  N1  UNL     1       1.612  -1.186   1.162  1.00  0.00    -0.340 N 
HETATM   12  H9  UNL     1       1.454  -1.712   2.050  1.00  0.00     0.167 HD
BRANCH  11  13
HETATM   13  C8  UNL     1       2.741  -0.394   0.890  1.00  0.00     0.034 A 
HETATM   14  C9  UNL     1       3.617  -0.193   1.950  1.00  0.00     0.029 A 
HETATM   15  C10 UNL     1       4.739   0.572   1.704  1.00  0.00     0.003 A 
HETATM   16  C11 UNL     1       4.934   1.091   0.439  1.00  0.00     0.007 A 
HETATM   17  C12 UNL     1       4.051   0.884  -0.618  1.00  0.00    -0.060 A 
HETATM   18  C13 UNL     1       4.381   1.498  -1.939  1.00  0.00     0.048 C 
HETATM   19  C14 UNL     1       2.918   0.113  -0.372  1.00  0.00     0.036 A 
ENDBRANCH  11  13
ENDBRANCH   6  11
BRANCH   1  20
HETATM   20  O1  UNL     1      -3.577   0.521  -0.846  1.00  0.00    -0.355 OA
BRANCH  20  21
HETATM   21  C2  UNL     1      -4.874   0.027  -1.096  1.00  0.00     0.167 C 
HETATM   22  C1  UNL     1      -5.520   0.710  -2.282  1.00  0.00     0.033 C 
ENDBRANCH  20  21
ENDBRANCH   1  20
TORSDOF 4
