REMARK  5 active torsions:
REMARK  status: ('A' for Active; 'I' for Inactive)
REMARK    1  A    between atoms: C2_2  and  O1_3 
REMARK    2  A    between atoms: O1_3  and  C3_4 
REMARK    3  A    between atoms: N1_10  and  C8_11 
REMARK    4  A    between atoms: N2_12  and  C9_13 
REMARK    5  A    between atoms: C9_13  and  C11_15 
ROOT
HETATM    1  C8  UNL     1      -0.588   1.301  -0.168  1.00  0.00     0.227 C 
HETATM    2  N2  UNL     1       0.702   1.237  -0.184  1.00  0.00    -0.273 NA
ENDROOT
BRANCH   1   3
HETATM    3  N1  UNL     1      -0.941  -0.041   0.020  1.00  0.00    -0.246 NA
HETATM    4  C7  UNL     1      -2.118  -0.523   0.134  1.00  0.00     0.072 C 
HETATM    5  C3  UNL     1      -3.449   0.136   0.109  1.00  0.00     0.314 C 
HETATM    6  C6  UNL     1      -2.163  -2.000   0.325  1.00  0.00     0.089 C 
HETATM    7  O2  UNL     1      -4.309  -0.606  -0.748  1.00  0.00    -0.327 OA
HETATM    8  C4  UNL     1      -4.549  -1.929  -0.428  1.00  0.00     0.135 C 
HETATM    9  C5  UNL     1      -3.505  -2.572   0.084  1.00  0.00     0.003 C 
BRANCH   5  10
HETATM   10  O1  UNL     1      -3.365   1.469  -0.296  1.00  0.00    -0.356 OA
BRANCH  10  11
HETATM   11  C2  UNL     1      -3.883   2.330   0.671  1.00  0.00     0.167 C 
HETATM   12  C1  UNL     1      -5.355   1.975   0.904  1.00  0.00     0.033 C 
ENDBRANCH  10  11
ENDBRANCH   5  10
ENDBRANCH   1   3
BRANCH   2  13
HETATM   13  C9  UNL     1       1.344  -0.037  -0.025  1.00  0.00     0.138 C 
HETATM   14  C10 UNL     1       1.438  -0.645  -1.423  1.00  0.00     0.039 C 
BRANCH  13  15
HETATM   15  C11 UNL     1       2.754   0.163   0.437  1.00  0.00    -0.033 A 
HETATM   16  C12 UNL     1       3.033   1.072   1.460  1.00  0.00     0.009 A 
HETATM   17  C13 UNL     1       4.338   1.264   1.894  1.00  0.00     0.001 A 
HETATM   18  C14 UNL     1       5.384   0.554   1.318  1.00  0.00     0.007 A 
HETATM   19  C15 UNL     1       5.125  -0.356   0.297  1.00  0.00    -0.061 A 
HETATM   20  C16 UNL     1       6.222  -1.149  -0.359  1.00  0.00     0.048 C 
HETATM   21  C17 UNL     1       3.822  -0.531  -0.119  1.00  0.00     0.016 A 
ENDBRANCH  13  15
ENDBRANCH   2  13
TORSDOF 5
