REMARK  4 active torsions:
REMARK  status: ('A' for Active; 'I' for Inactive)
REMARK    1  A    between atoms: C2_2  and  C3_3 
REMARK    2  A    between atoms: C4_4  and  C5_5 
REMARK    3  A    between atoms: C8_10  and  N3_11 
REMARK    4  A    between atoms: N3_11  and  C9_12 
ROOT
HETATM    1  C5  UNL     1       1.016  -0.397  -1.781  1.00  0.00     0.027 A 
HETATM    2  C6  UNL     1       1.133  -1.192  -2.929  1.00  0.00     0.133 A 
HETATM    3  N1  UNL     1       0.359  -0.983  -4.005  1.00  0.00    -0.253 NA
HETATM    4  C7  UNL     1      -0.567  -0.015  -4.064  1.00  0.00     0.234 A 
HETATM    5  N2  UNL     1      -0.698   0.760  -2.973  1.00  0.00    -0.224 NA
HETATM    6  C8  UNL     1       0.060   0.579  -1.878  1.00  0.00     0.141 A 
ENDROOT
BRANCH   6   7
HETATM    7  N3  UNL     1      -0.166   1.437  -0.793  1.00  0.00    -0.340 N 
HETATM    8  H7  UNL     1       0.623   2.103  -0.819  1.00  0.00     0.167 HD
BRANCH   7   9
HETATM    9  C9  UNL     1      -1.279   1.373   0.116  1.00  0.00     0.034 A 
HETATM   10  C10 UNL     1      -1.355   1.979   1.348  1.00  0.00     0.029 A 
HETATM   11  C11 UNL     1      -2.478   1.889   2.142  1.00  0.00     0.003 A 
HETATM   12  C12 UNL     1      -3.581   1.157   1.684  1.00  0.00     0.007 A 
HETATM   13  C13 UNL     1      -3.538   0.527   0.434  1.00  0.00    -0.060 A 
HETATM   14  C14 UNL     1      -4.739  -0.238  -0.026  1.00  0.00     0.048 C 
HETATM   15  C15 UNL     1      -2.388   0.666  -0.289  1.00  0.00     0.036 A 
ENDBRANCH   7   9
ENDBRANCH   6   7
BRANCH   1  16
HETATM   16  C4  UNL     1       1.921  -0.683  -0.694  1.00  0.00     0.017 C 
HETATM   17  C3  UNL     1       1.838   0.022   0.416  1.00  0.00     0.009 C 
BRANCH  17  18
HETATM   18  C2  UNL     1       2.776  -0.283   1.509  1.00  0.00    -0.051 A 
HETATM   19  C1  UNL     1       3.108   0.064   2.712  1.00  0.00     0.043 A 
HETATM   20  O1  UNL     1       3.845  -1.025   2.049  1.00  0.00     0.000 OA
HETATM   21  C16 UNL     1       4.711  -1.752   1.192  1.00  0.00     0.000 C 
ENDBRANCH  17  18
ENDBRANCH   1  16
TORSDOF 4
