REMARK  0 active torsions:
REMARK  status: ('A' for Active; 'I' for Inactive)
ROOT
HETATM    1  C1  UNL     1      -4.435  -1.604   0.147  1.00  0.00     0.043 C 
HETATM    2  C2  UNL     1      -2.946  -1.320  -0.035  1.00  0.00    -0.081 C 
HETATM    3  C3  UNL     1      -2.185  -1.651   1.034  1.00  0.00    -0.005 C 
HETATM    4  C4  UNL     1      -1.025  -1.851   1.914  1.00  0.00     0.148 C 
HETATM    5  N1  UNL     1       0.254  -1.520   1.287  1.00  0.00    -0.371 N 
HETATM    6  C5  UNL     1       0.763  -0.452   0.533  1.00  0.00     0.138 A 
HETATM    7  N2  UNL     1       0.048  -0.494  -0.583  1.00  0.00    -0.215 NA
HETATM    8  C6  UNL     1       0.327   0.435  -1.506  1.00  0.00     0.133 A 
HETATM    9  N3  UNL     1       1.280   1.396  -1.362  1.00  0.00    -0.232 NA
HETATM   10  C7  UNL     1       1.974   1.393  -0.216  1.00  0.00     0.079 A 
HETATM   11  C8  UNL     1       1.754   0.461   0.808  1.00  0.00     0.041 A 
HETATM   12  C9  UNL     1       2.125  -0.023   2.117  1.00  0.00     0.042 C 
HETATM   13  C10 UNL     1       3.244   0.236   2.799  1.00  0.00     0.137 C 
HETATM   14  O1  UNL     1       4.457   0.921   2.773  1.00  0.00    -0.344 OA
HETATM   15  C11 UNL     1       4.848   2.049   2.015  1.00  0.00     0.233 C 
HETATM   16  S1  UNL     1       4.356   2.761   0.594  1.00  0.00    -0.103 SA
HETATM   17  C12 UNL     1       2.946   2.479  -0.249  1.00  0.00     0.080 C 
HETATM   18  C13 UNL     1      -0.556   0.237  -2.671  1.00  0.00     0.058 C 
HETATM   19  C14 UNL     1      -0.616   1.542  -3.489  1.00  0.00     0.018 C 
HETATM   20  C15 UNL     1      -1.940  -0.167  -2.314  1.00  0.00     0.011 C 
HETATM   21  C16 UNL     1      -2.094  -0.719  -1.087  1.00  0.00     0.028 C 
HETATM   22  H7  UNL     1       1.188  -2.038   1.263  1.00  0.00     0.161 HD
ENDROOT
TORSDOF 0
