REMARK  8 active torsions:
REMARK  status: ('A' for Active; 'I' for Inactive)
REMARK    1  A    between atoms: C2_2  and  C3_3 
REMARK    2  A    between atoms: C2_2  and  S1_6 
REMARK    3  A    between atoms: S1_6  and  N1_9 
REMARK    4  A    between atoms: N1_9  and  C5_10 
REMARK    5  A    between atoms: C7_12  and  C8_13 
REMARK    6  A    between atoms: C8_13  and  O4_15 
REMARK    7  A    between atoms: O4_15  and  C9_16 
REMARK    8  A    between atoms: C13_20  and  N2_21 
ROOT
HETATM    1  C3  UNL     1       1.607   3.641   0.716  1.00  0.00     0.032 C 
HETATM    2  C4  UNL     1       0.352   3.981   0.899  1.00  0.00     0.165 C 
HETATM    3 BR1  UNL     1      -1.477   4.417   1.045  1.00  0.00    -0.172 Br
ENDROOT
BRANCH   1   4
HETATM    4  C2  UNL     1       2.078   2.978  -0.456  1.00  0.00     0.070 C 
HETATM    5  C1  UNL     1       3.382   2.750  -0.410  1.00  0.00     0.038 C 
BRANCH   4   6
HETATM    6  S1  UNL     1       1.302   2.393  -1.892  1.00  0.00     0.262 S 
HETATM    7  O1  UNL     1       0.032   3.198  -2.058  1.00  0.00    -0.200 OA
HETATM    8  O2  UNL     1       2.224   2.608  -3.053  1.00  0.00    -0.200 OA
BRANCH   6   9
HETATM    9  N1  UNL     1       0.881   0.723  -1.781  1.00  0.00    -0.278 N 
HETATM   10  H5  UNL     1       1.348   0.083  -2.496  1.00  0.00     0.179 HD
BRANCH   9  11
HETATM   11  C5  UNL     1       0.011   0.034  -0.900  1.00  0.00     0.070 A 
HETATM   12  C6  UNL     1      -1.023   0.664  -0.238  1.00  0.00     0.050 A 
HETATM   13  C7  UNL     1      -1.854  -0.042   0.600  1.00  0.00     0.041 A 
HETATM   14  C11 UNL     1      -1.696  -1.388   0.814  1.00  0.00     0.020 A 
HETATM   15  C12 UNL     1      -0.666  -2.022   0.156  1.00  0.00     0.033 A 
HETATM   16  C13 UNL     1       0.179  -1.340  -0.687  1.00  0.00     0.058 A 
BRANCH  13  17
HETATM   17  C8  UNL     1      -2.962   0.566   1.316  1.00  0.00     0.293 C 
HETATM   18  O3  UNL     1      -3.503   1.676   1.455  1.00  0.00    -0.259 OA
BRANCH  17  19
HETATM   19  O4  UNL     1      -3.815  -0.086   2.160  1.00  0.00    -0.318 OA
BRANCH  19  20
HETATM   20  C9  UNL     1      -4.889   0.436   2.872  1.00  0.00     0.174 C 
HETATM   21  C10 UNL     1      -4.564   1.518   3.848  1.00  0.00     0.034 C 
ENDBRANCH  19  20
ENDBRANCH  17  19
ENDBRANCH  13  17
BRANCH  16  22
HETATM   22  N2  UNL     1       1.221  -2.081  -1.326  1.00  0.00    -0.375 N 
HETATM   23  C14 UNL     1       1.626  -2.383  -2.686  1.00  0.00     0.149 C 
HETATM   24  C15 UNL     1       1.853  -3.897  -2.698  1.00  0.00     0.187 C 
HETATM   25  O5  UNL     1       2.998  -4.145  -1.984  1.00  0.00    -0.388 OA
HETATM   26  C16 UNL     1       3.291  -3.220  -1.011  1.00  0.00     0.187 C 
HETATM   27  C17 UNL     1       2.077  -2.671  -0.291  1.00  0.00     0.149 C 
ENDBRANCH  16  22
ENDBRANCH   9  11
ENDBRANCH   6   9
ENDBRANCH   4   6
ENDBRANCH   1   4
TORSDOF 8
