REMARK  4 active torsions:
REMARK  status: ('A' for Active; 'I' for Inactive)
REMARK    1  A    between atoms: O1_2  and  C2_3 
REMARK    2  A    between atoms: C5_6  and  N1_7 
REMARK    3  A    between atoms: N1_7  and  C6_8 
REMARK    4  A    between atoms: C15_19  and  O2_20 
ROOT
HETATM    1  C2  UNL     1      -2.645  -0.312  -1.046  1.00  0.00     0.091 A 
HETATM    2  C3  UNL     1      -1.429  -0.590  -1.498  1.00  0.00     0.051 A 
HETATM    3  C4  UNL     1      -0.995  -0.555  -0.102  1.00  0.00     0.036 A 
HETATM    4  C5  UNL     1       0.011  -0.671   0.795  1.00  0.00     0.139 C 
HETATM    5  N2  UNL     1      -0.032  -0.579   2.224  1.00  0.00    -0.224 NA
HETATM    6  C13 UNL     1      -1.083  -0.973   2.904  1.00  0.00     0.234 C 
HETATM    7  N3  UNL     1      -2.325  -1.534   2.439  1.00  0.00    -0.254 NA
HETATM    8  C14 UNL     1      -2.894  -1.203   1.322  1.00  0.00     0.141 C 
HETATM    9  C15 UNL     1      -2.365  -0.230   0.393  1.00  0.00     0.173 A 
ENDROOT
BRANCH   4  10
HETATM   10  N1  UNL     1       1.247  -0.957   0.111  1.00  0.00    -0.340 N 
HETATM   11  H5  UNL     1       1.255  -1.872  -0.381  1.00  0.00     0.167 HD
BRANCH  10  12
HETATM   12  C6  UNL     1       2.337  -0.042   0.131  1.00  0.00     0.034 A 
HETATM   13  C7  UNL     1       2.177   1.133   0.827  1.00  0.00     0.029 A 
HETATM   14  C8  UNL     1       3.267   2.005   0.824  1.00  0.00     0.003 A 
HETATM   15  C9  UNL     1       4.414   1.649   0.141  1.00  0.00     0.007 A 
HETATM   16  C10 UNL     1       4.538   0.457  -0.548  1.00  0.00    -0.060 A 
HETATM   17  C11 UNL     1       5.771   0.072  -1.284  1.00  0.00     0.048 C 
HETATM   18  C12 UNL     1       3.469  -0.423  -0.559  1.00  0.00     0.036 A 
ENDBRANCH  10  12
ENDBRANCH   4  10
BRANCH   9  19
HETATM   19  O2  UNL     1      -2.307   1.095   0.886  1.00  0.00    -0.368 OA
HETATM   20  C16 UNL     1      -3.504   1.731   0.675  1.00  0.00     0.204 C 
ENDBRANCH   9  19
BRANCH   1  21
HETATM   21  O1  UNL     1      -3.859  -0.134  -1.701  1.00  0.00    -0.356 OA
HETATM   22  C1  UNL     1      -4.717  -1.195  -2.046  1.00  0.00     0.209 C 
ENDBRANCH   1  21
TORSDOF 4
