REMARK  6 active torsions:
REMARK  status: ('A' for Active; 'I' for Inactive)
REMARK    1  A    between atoms: C2_2  and  C3_3 
REMARK    2  A    between atoms: C3_3  and  C4_5 
REMARK    3  A    between atoms: C7_8  and  S1_9 
REMARK    4  A    between atoms: S1_9  and  C8_10 
REMARK    5  A    between atoms: C12_17  and  C13_18 
REMARK    6  A    between atoms: C17_24  and  N5_25 
ROOT
HETATM    1  C8  UNL     1       0.650  -0.482  -1.817  1.00  0.00     0.198 A 
HETATM    2  N1  UNL     1       0.304  -1.386  -2.775  1.00  0.00    -0.122 NA
HETATM    3  N2  UNL     1       1.417  -1.961  -3.252  1.00  0.00    -0.126 NA
HETATM    4  C9  UNL     1       2.438  -1.402  -2.579  1.00  0.00     0.199 A 
HETATM    5  C10 UNL     1       3.804  -1.606  -2.645  1.00  0.00     0.165 A 
HETATM    6  F1  UNL     1       4.334  -2.492  -3.498  1.00  0.00    -0.202 F 
HETATM    7  C11 UNL     1       4.660  -0.895  -1.827  1.00  0.00     0.062 A 
HETATM    8  C12 UNL     1       4.165   0.039  -0.923  1.00  0.00     0.024 A 
HETATM    9  C17 UNL     1       2.792   0.233  -0.867  1.00  0.00     0.120 A 
HETATM   10  N6  UNL     1       2.000  -0.485  -1.686  1.00  0.00    -0.254 N 
ENDROOT
BRANCH   1  11
HETATM   11  S1  UNL     1      -0.489   0.548  -0.868  1.00  0.00    -0.081 SA
BRANCH  11  12
HETATM   12  C7  UNL     1      -2.152   0.065  -1.484  1.00  0.00     0.084 A 
HETATM   13  C6  UNL     1      -3.245   0.814  -0.809  1.00  0.00     0.061 A 
HETATM   14  C5  UNL     1      -3.955  -0.230  -0.029  1.00  0.00    -0.013 A 
HETATM   15  C4  UNL     1      -4.970  -0.434   0.793  1.00  0.00     0.036 A 
HETATM   16  C19 UNL     1      -3.347  -1.539  -0.204  1.00  0.00     0.061 A 
HETATM   17  C20 UNL     1      -5.038  -1.856   1.161  1.00  0.00     0.133 A 
HETATM   18  N7  UNL     1      -4.083  -2.455   0.563  1.00  0.00    -0.260 NA
HETATM   19  C18 UNL     1      -2.337  -1.334  -1.028  1.00  0.00     0.021 A 
BRANCH  15  20
HETATM   20  C3  UNL     1      -5.901   0.583   1.269  1.00  0.00     0.161 C 
HETATM   21  O1  UNL     1      -5.766   1.772   0.889  1.00  0.00    -0.292 OA
BRANCH  20  22
HETATM   22  C2  UNL     1      -7.007   0.221   2.196  1.00  0.00     0.079 C 
HETATM   23  C1  UNL     1      -8.352   0.633   1.590  1.00  0.00     0.013 C 
ENDBRANCH  20  22
ENDBRANCH  15  20
ENDBRANCH  11  12
ENDBRANCH   1  11
BRANCH   9  24
HETATM   24  N5  UNL     1       2.311   1.179   0.052  1.00  0.00    -0.384 N 
HETATM   25  H15 UNL     1       1.890   2.155   0.036  1.00  0.00     0.157 HD
HETATM   26  H16 UNL     1       2.317   0.981   1.062  1.00  0.00     0.157 HD
ENDBRANCH   9  24
BRANCH   8  27
HETATM   27  C13 UNL     1       5.132   0.751  -0.085  1.00  0.00     0.014 A 
HETATM   28  C14 UNL     1       5.310   2.070   0.290  1.00  0.00     0.152 A 
HETATM   29  N3  UNL     1       6.403   2.145   1.104  1.00  0.00    -0.185 NA
HETATM   30  N4  UNL     1       6.911   0.922   1.248  1.00  0.00    -0.285 N 
HETATM   31  C15 UNL     1       8.086   0.690   2.068  1.00  0.00     0.179 C 
HETATM   32  C16 UNL     1       6.154   0.064   0.535  1.00  0.00     0.125 A 
ENDBRANCH   8  27
TORSDOF 6
