REMARK  4 active torsions:
REMARK  status: ('A' for Active; 'I' for Inactive)
REMARK    1  A    between atoms: C1_2  and  O2_3 
REMARK    2  A    between atoms: C1_2  and  C2_4 
REMARK    3  A    between atoms: C10_13  and  N2_14 
REMARK    4  A    between atoms: N2_14  and  C11_15 
ROOT
HETATM    1  C2  UNL     1      -4.429   1.066  -0.036  1.00  0.00     0.038 A 
HETATM    2  C3  UNL     1      -4.755   0.332   1.083  1.00  0.00     0.021 A 
HETATM    3  C4  UNL     1      -3.820  -0.526   1.618  1.00  0.00     0.039 A 
HETATM    4  C5  UNL     1      -2.580  -0.647   1.041  1.00  0.00     0.086 A 
HETATM    5  C6  UNL     1      -2.219   0.071  -0.079  1.00  0.00    -0.006 A 
HETATM    6  C7  UNL     1      -3.192   0.933  -0.597  1.00  0.00     0.029 A 
HETATM    7  C8  UNL     1      -1.032   0.213  -0.957  1.00  0.00     0.161 C 
HETATM    8  N1  UNL     1       0.143  -0.467  -0.464  1.00  0.00    -0.379 N 
HETATM    9  C9  UNL     1       0.434  -1.479   0.457  1.00  0.00     0.129 A 
HETATM   10  C10 UNL     1       1.723  -1.979   0.304  1.00  0.00     0.160 A 
HETATM   11  N3  UNL     1       2.119  -2.973   1.152  1.00  0.00    -0.222 NA
HETATM   12  C17 UNL     1       1.245  -3.407   2.078  1.00  0.00     0.238 A 
HETATM   13  N4  UNL     1      -0.021  -2.927   2.240  1.00  0.00    -0.215 NA
HETATM   14  C18 UNL     1      -0.448  -1.936   1.412  1.00  0.00     0.202 A 
HETATM   15  O3  UNL     1      -1.750  -1.547   1.690  1.00  0.00    -0.289 OA
HETATM   16  H7  UNL     1       0.966  -0.051  -0.964  1.00  0.00     0.160 HD
ENDROOT
BRANCH  10  17
HETATM   17  N2  UNL     1       2.545  -1.433  -0.715  1.00  0.00    -0.339 N 
HETATM   18  H8  UNL     1       2.425  -1.976  -1.597  1.00  0.00     0.167 HD
BRANCH  17  19
HETATM   19  C11 UNL     1       3.425  -0.319  -0.627  1.00  0.00     0.035 A 
HETATM   20  C12 UNL     1       4.137   0.040  -1.752  1.00  0.00     0.029 A 
HETATM   21  C13 UNL     1       4.998   1.111  -1.712  1.00  0.00     0.004 A 
HETATM   22  C14 UNL     1       5.134   1.816  -0.523  1.00  0.00     0.019 A 
HETATM   23  C15 UNL     1       4.405   1.413   0.554  1.00  0.00     0.013 A 
HETATM   24 BR1  UNL     1       4.612   2.405   2.187  1.00  0.00    -0.051 Br
HETATM   25  C16 UNL     1       3.524   0.346   0.578  1.00  0.00     0.048 A 
ENDBRANCH  17  19
ENDBRANCH  10  17
BRANCH   1  26
HETATM   26  C1  UNL     1      -5.417   1.976  -0.604  1.00  0.00     0.176 C 
HETATM   27  O1  UNL     1      -6.553   2.129  -0.129  1.00  0.00    -0.646 OA
BRANCH  26  28
HETATM   28  O2  UNL     1      -5.106   2.722  -1.730  1.00  0.00    -0.773 OA
HETATM   29  H1  UNL     1      -5.458   3.679  -1.885  1.00  0.00     0.167 HD
ENDBRANCH  26  28
ENDBRANCH   1  26
TORSDOF 4
