REMARK  7 active torsions:
REMARK  status: ('A' for Active; 'I' for Inactive)
REMARK    1  A    between atoms: C2_2  and  S1_3 
REMARK    2  A    between atoms: C2_2  and  S2_7 
REMARK    3  A    between atoms: S1_3  and  C3_4 
REMARK    4  A    between atoms: S2_7  and  N1_9 
REMARK    5  A    between atoms: N1_9  and  C5_10 
REMARK    6  A    between atoms: C7_12  and  C8_13 
REMARK    7  A    between atoms: C12_18  and  N2_19 
ROOT
HETATM    1  C5  UNL     1      -0.649   0.353   0.388  1.00  0.00     0.068 A 
HETATM    2  C6  UNL     1      -0.502   1.713   0.574  1.00  0.00     0.047 A 
HETATM    3  C7  UNL     1      -1.645   2.466   0.748  1.00  0.00     0.012 A 
HETATM    4  C10 UNL     1      -2.897   1.886   0.737  1.00  0.00     0.017 A 
HETATM    5  C11 UNL     1      -3.023   0.512   0.547  1.00  0.00     0.033 A 
HETATM    6  C12 UNL     1      -1.889  -0.255   0.371  1.00  0.00     0.058 A 
ENDROOT
BRANCH   1   7
HETATM    7  N1  UNL     1       0.508  -0.455   0.205  1.00  0.00    -0.299 N 
HETATM    8  H5  UNL     1       0.962  -0.870   1.069  1.00  0.00     0.177 HD
BRANCH   7   9
HETATM    9  S2  UNL     1       1.426  -0.967  -1.182  1.00  0.00     0.157 S 
HETATM   10  O1  UNL     1       0.778  -0.590  -2.499  1.00  0.00    -0.229 OA
BRANCH   9  11
HETATM   11  C2  UNL     1       3.067  -0.302  -1.055  1.00  0.00     0.083 C 
HETATM   12  C1  UNL     1       4.043  -1.176  -0.986  1.00  0.00     0.043 C 
BRANCH  11  13
HETATM   13  S1  UNL     1       3.450   1.431  -1.017  1.00  0.00    -0.091 SA
BRANCH  13  14
HETATM   14  C3  UNL     1       5.211   1.732  -0.882  1.00  0.00     0.058 C 
HETATM   15  C4  UNL     1       5.344   1.473   0.421  1.00  0.00     0.063 C 
HETATM   16 BR1  UNL     1       3.922   0.954   1.575  1.00  0.00    -0.063 Br
ENDBRANCH  13  14
ENDBRANCH  11  13
ENDBRANCH   9  11
ENDBRANCH   7   9
ENDBRANCH   1   7
BRANCH   6  17
HETATM   17  N2  UNL     1      -2.101  -1.630   0.186  1.00  0.00    -0.375 N 
HETATM   18  C13 UNL     1      -1.623  -2.720   0.992  1.00  0.00     0.149 C 
HETATM   19  C14 UNL     1      -1.128  -3.876   0.162  1.00  0.00     0.187 C 
HETATM   20  O3  UNL     1      -1.951  -4.136  -0.931  1.00  0.00    -0.388 OA
HETATM   21  C15 UNL     1      -2.074  -3.010  -1.755  1.00  0.00     0.187 C 
HETATM   22  C16 UNL     1      -2.907  -2.021  -0.963  1.00  0.00     0.149 C 
ENDBRANCH   6  17
BRANCH   3  23
HETATM   23  C8  UNL     1      -1.627   3.909   0.954  1.00  0.00     0.155 C 
HETATM   24  C9  UNL     1      -0.412   4.762   1.007  1.00  0.00     0.096 C 
HETATM   25  O2  UNL     1      -2.665   4.629   1.117  1.00  0.00    -0.293 OA
ENDBRANCH   3  23
TORSDOF 7
