REMARK  4 active torsions:
REMARK  status: ('A' for Active; 'I' for Inactive)
REMARK    1  A    between atoms: C7_11  and  S1_12 
REMARK    2  A    between atoms: S1_12  and  C8_13 
REMARK    3  A    between atoms: C8_13  and  C9_14 
REMARK    4  A    between atoms: C9_14  and  C10_15 
ROOT
HETATM    1  S1  UNL     1      -1.051  -0.966  -1.520  1.00  0.00    -0.090 SA
ENDROOT
BRANCH   1   2
HETATM    2  C7  UNL     1      -1.433  -0.657   0.190  1.00  0.00     0.196 A 
HETATM    3  N3  UNL     1      -0.532  -0.887   1.154  1.00  0.00    -0.122 NA
HETATM    4  N2  UNL     1      -1.045  -0.583   2.342  1.00  0.00    -0.126 NA
HETATM    5  C6  UNL     1      -2.311  -0.148   2.097  1.00  0.00     0.198 A 
HETATM    6  C5  UNL     1      -3.261   0.286   2.998  1.00  0.00     0.165 A 
HETATM    7  N6  UNL     1      -2.540  -0.196   0.784  1.00  0.00    -0.267 N 
HETATM    8  C4  UNL     1      -4.499   0.688   2.542  1.00  0.00     0.057 A 
HETATM    9  F1  UNL     1      -2.982   0.317   4.324  1.00  0.00    -0.202 F 
HETATM   10  C3  UNL     1      -4.684   0.619   1.178  1.00  0.00    -0.007 A 
HETATM   11  C2  UNL     1      -6.023   1.054   0.665  1.00  0.00     0.185 A 
HETATM   12  C19 UNL     1      -3.720   0.183   0.300  1.00  0.00     0.070 A 
HETATM   13  N1  UNL     1      -6.110   0.937  -0.758  1.00  0.00    -0.306 N 
HETATM   14  C1  UNL     1      -7.422   1.352  -1.275  1.00  0.00     0.173 C 
HETATM   15  N7  UNL     1      -5.093   0.483  -1.627  1.00  0.00    -0.187 NA
HETATM   16  C20 UNL     1      -3.961   0.126  -1.121  1.00  0.00     0.169 A 
ENDBRANCH   1   2
BRANCH   1  17
HETATM   17  C8  UNL     1       0.625  -1.595  -1.687  1.00  0.00     0.083 C 
BRANCH  17  18
HETATM   18  C9  UNL     1       1.636  -0.548  -1.290  1.00  0.00     0.023 C 
BRANCH  18  19
HETATM   19  C10 UNL     1       3.068  -1.057  -1.430  1.00  0.00    -0.009 C 
HETATM   20  C11 UNL     1       3.218  -1.418  -2.917  1.00  0.00     0.018 C 
HETATM   21  C12 UNL     1       3.302  -2.307  -0.683  1.00  0.00     0.159 C 
HETATM   22  N4  UNL     1       2.980  -2.313   0.712  1.00  0.00    -0.298 NA
HETATM   23  C13 UNL     1       3.197  -1.416   1.648  1.00  0.00     0.142 C 
HETATM   24  C14 UNL     1       3.861  -0.129   1.446  1.00  0.00     0.076 C 
HETATM   25  C15 UNL     1       4.194   0.530   2.545  1.00  0.00     0.166 C 
HETATM   26  N5  UNL     1       4.172   0.463   0.188  1.00  0.00    -0.312 N 
HETATM   27  O1  UNL     1       4.830   1.764   2.572  1.00  0.00    -0.352 OA
HETATM   28  C16 UNL     1       5.074   2.544   1.422  1.00  0.00     0.277 C 
HETATM   29  C17 UNL     1       4.830   1.740   0.206  1.00  0.00     0.248 C 
HETATM   30  O2  UNL     1       5.246   2.257  -0.851  1.00  0.00    -0.271 OA
HETATM   31  C18 UNL     1       3.986   0.085  -1.198  1.00  0.00     0.143 C 
ENDBRANCH  18  19
ENDBRANCH  17  18
ENDBRANCH   1  17
TORSDOF 4
