REMARK  4 active torsions:
REMARK  status: ('A' for Active; 'I' for Inactive)
REMARK    1  A    between atoms: C6_6  and  C7_7 
REMARK    2  A    between atoms: C12_13  and  O1_14 
REMARK    3  A    between atoms: O1_14  and  C13_15 
REMARK    4  A    between atoms: C13_15  and  N2_16 
ROOT
HETATM    1  C7  UNL     1      -1.609   0.117   0.148  1.00  0.00     0.061 A 
HETATM    2  C8  UNL     1      -0.665  -0.289   0.944  1.00  0.00     0.047 A 
HETATM    3  C9  UNL     1       0.750  -0.043   0.670  1.00  0.00     0.012 A 
HETATM    4  C10 UNL     1       1.733  -0.440   1.455  1.00  0.00     0.106 A 
HETATM    5  N1  UNL     1       3.103  -0.181   1.154  1.00  0.00    -0.341 N 
HETATM    6  C11 UNL     1       4.069  -0.682   2.116  1.00  0.00     0.158 C 
HETATM    7  C12 UNL     1       3.450   0.530  -0.031  1.00  0.00     0.147 A 
HETATM    8  C14 UNL     1       2.532   0.968  -0.881  1.00  0.00     0.090 A 
HETATM    9  C15 UNL     1       1.144   0.683  -0.537  1.00  0.00     0.092 A 
HETATM   10  N3  UNL     1       0.188   1.077  -1.314  1.00  0.00    -0.174 NA
HETATM   11  N4  UNL     1      -1.160   0.814  -1.004  1.00  0.00    -0.277 N 
HETATM   12  H17 UNL     1      -1.825   1.187  -1.715  1.00  0.00     0.189 HD
ENDROOT
BRANCH   1  13
HETATM   13  C6  UNL     1      -3.017  -0.123   0.412  1.00  0.00    -0.007 A 
HETATM   14  C5  UNL     1      -3.448  -0.790   1.513  1.00  0.00     0.014 A 
HETATM   15  C4  UNL     1      -4.782  -1.030   1.785  1.00  0.00     0.001 A 
HETATM   16  C3  UNL     1      -5.763  -0.582   0.913  1.00  0.00     0.007 A 
HETATM   17  C2  UNL     1      -5.348   0.102  -0.220  1.00  0.00    -0.061 A 
HETATM   18  C1  UNL     1      -6.399   0.596  -1.179  1.00  0.00     0.048 C 
HETATM   19  C16 UNL     1      -4.011   0.307  -0.431  1.00  0.00     0.020 A 
ENDBRANCH   1  13
BRANCH   7  20
HETATM   20  O1  UNL     1       4.803   0.737  -0.246  1.00  0.00    -0.306 OA
BRANCH  20  21
HETATM   21  C13 UNL     1       5.720  -0.243  -0.650  1.00  0.00     0.443 C 
BRANCH  21  22
HETATM   22  N2  UNL     1       7.020   0.421  -0.748  1.00  0.00     0.101 N 
HETATM   23  H14 UNL     1       7.311   0.587  -1.737  1.00  0.00     0.315 HD
HETATM   24  H15 UNL     1       7.059   1.304  -0.191  1.00  0.00     0.315 HD
ENDBRANCH  21  22
ENDBRANCH  20  21
ENDBRANCH   7  20
TORSDOF 4
