REMARK  8 active torsions:
REMARK  status: ('A' for Active; 'I' for Inactive)
REMARK    1  A    between atoms: C2_2  and  O1_3 
REMARK    2  A    between atoms: O1_3  and  C3_4 
REMARK    3  A    between atoms: C3_4  and  C4_6 
REMARK    4  A    between atoms: C4_6  and  C13_22 
REMARK    5  A    between atoms: C6_8  and  C7_9 
REMARK    6  A    between atoms: C8_10  and  N1_11 
REMARK    7  A    between atoms: N1_11  and  S1_12 
REMARK    8  A    between atoms: S1_12  and  C9_15 
ROOT
HETATM    1  N1  UNL     1       1.412   0.273   1.429  1.00  0.00    -0.297 N 
HETATM    2  H7  UNL     1       1.154   1.222   1.833  1.00  0.00     0.173 HD
ENDROOT
BRANCH   1   3
HETATM    3  C8  UNL     1       0.964  -0.821   0.718  1.00  0.00     0.104 A 
HETATM    4  C7  UNL     1       0.202  -1.429   0.146  1.00  0.00    -0.035 A 
HETATM    5  C13 UNL     1      -0.511  -0.299   0.475  1.00  0.00     0.077 A 
BRANCH   4   6
HETATM    6  C6  UNL     1      -0.515  -1.974  -0.378  1.00  0.00    -0.048 A 
HETATM    7  C5  UNL     1      -1.327  -2.561  -0.957  1.00  0.00     0.049 A 
HETATM    8  C4  UNL     1      -1.572  -1.153  -0.326  1.00  0.00     0.090 A 
BRANCH   8   9
HETATM    9  C3  UNL     1      -2.912  -0.393  -0.402  1.00  0.00     0.273 C 
HETATM   10  O2  UNL     1      -4.015  -0.595  -0.886  1.00  0.00    -0.264 OA
BRANCH   9  11
HETATM   11  O1  UNL     1      -3.219   0.812   0.106  1.00  0.00    -0.321 OA
BRANCH  11  12
HETATM   12  C2  UNL     1      -4.535   1.309  -0.097  1.00  0.00     0.174 C 
HETATM   13  C1  UNL     1      -4.695   2.648   0.542  1.00  0.00     0.034 C 
ENDBRANCH  11  12
ENDBRANCH   9  11
ENDBRANCH   8   9
ENDBRANCH   4   6
ENDBRANCH   1   3
BRANCH   1  14
HETATM   14  S1  UNL     1       3.040  -0.318   1.660  1.00  0.00     0.266 S 
HETATM   15  O3  UNL     1       3.069  -1.523   2.531  1.00  0.00    -0.200 OA
HETATM   16  O4  UNL     1       3.841   0.761   2.382  1.00  0.00    -0.200 OA
BRANCH  14  17
HETATM   17  C9  UNL     1       3.749  -0.519   0.107  1.00  0.00     0.122 A 
HETATM   18  C10 UNL     1       4.800  -0.055  -0.582  1.00  0.00     0.054 A 
HETATM   19  C11 UNL     1       5.114  -0.418  -1.841  1.00  0.00     0.041 A 
HETATM   20 BR1  UNL     1       6.614   0.251  -2.811  1.00  0.00    -0.049 Br
HETATM   21  C12 UNL     1       4.185  -1.374  -2.383  1.00  0.00     0.093 A 
HETATM   22 CL1  UNL     1       4.401  -2.038  -4.124  1.00  0.00    -0.075 Cl
HETATM   23  S2  UNL     1       2.975  -1.657  -1.063  1.00  0.00    -0.063 SA
ENDBRANCH  14  17
ENDBRANCH   1  14
TORSDOF 8
