REMARK  2 active torsions:
REMARK  status: ('A' for Active; 'I' for Inactive)
REMARK    1  A    between atoms: N4_17  and  C13_18 
REMARK    2  A    between atoms: C13_18  and  N5_19 
ROOT
HETATM    1  C1  UNL     1      -5.153   0.013   2.063  1.00  0.00     0.050 C 
HETATM    2  C2  UNL     1      -4.065  -0.970   1.629  1.00  0.00     0.279 C 
HETATM    3  N1  UNL     1      -2.917  -0.124   1.314  1.00  0.00     0.109 N 
HETATM    4  C3  UNL     1      -2.939   0.005  -0.144  1.00  0.00     0.300 C 
HETATM    5  S1  UNL     1      -1.873   1.275  -0.791  1.00  0.00    -0.091 SA
HETATM    6  C4  UNL     1      -0.365   1.364   0.140  1.00  0.00     0.032 A 
HETATM    7  C5  UNL     1      -0.484   2.324   1.152  1.00  0.00     0.023 A 
HETATM    8  C6  UNL     1       0.571   2.631   2.020  1.00  0.00     0.034 A 
HETATM    9  C7  UNL     1       1.754   1.944   1.843  1.00  0.00     0.072 A 
HETATM   10  N2  UNL     1       2.796   2.232   2.665  1.00  0.00    -0.258 NA
HETATM   11  C8  UNL     1       3.944   1.573   2.482  1.00  0.00     0.149 A 
HETATM   12  C9  UNL     1       4.080   0.625   1.488  1.00  0.00     0.087 A 
HETATM   13  C10 UNL     1       3.030   0.322   0.646  1.00  0.00     0.112 A 
HETATM   14  C11 UNL     1       1.850   1.002   0.840  1.00  0.00     0.058 A 
HETATM   15  C12 UNL     1       0.828   0.689  -0.015  1.00  0.00     0.082 A 
HETATM   16  N3  UNL     1       0.887  -0.292  -1.010  1.00  0.00    -0.279 N 
HETATM   17  N4  UNL     1       0.213  -0.274  -2.263  1.00  0.00    -0.183 N 
HETATM   18  N6  UNL     1      -0.910  -0.711  -1.605  1.00  0.00    -0.171 NA
HETATM   19  C14 UNL     1      -1.937  -1.313  -1.968  1.00  0.00     0.125 C 
HETATM   20  C15 UNL     1      -2.603  -1.381  -0.659  1.00  0.00     0.097 C 
HETATM   21  C16 UNL     1      -3.932  -2.103  -0.713  1.00  0.00     0.026 C 
HETATM   22  C17 UNL     1      -4.510  -1.795   0.474  1.00  0.00     0.123 C 
HETATM   23  F1  UNL     1      -5.745  -2.271   0.809  1.00  0.00    -0.209 F 
HETATM   24  O1  UNL     1       3.342  -0.641  -0.285  1.00  0.00    -0.339 OA
HETATM   25  C18 UNL     1       4.664  -0.784  -0.762  1.00  0.00     0.278 C 
HETATM   26  C19 UNL     1       5.604  -0.996   0.399  1.00  0.00     0.246 C 
HETATM   27  O2  UNL     1       6.476  -1.856   0.574  1.00  0.00    -0.271 OA
HETATM   28  N7  UNL     1       5.381   0.005   1.415  1.00  0.00    -0.322 N 
HETATM   29  H5  UNL     1      -2.063  -0.664   1.579  1.00  0.00     0.318 HD
HETATM   30  H10 UNL     1       1.458  -1.141  -0.844  1.00  0.00     0.189 HD
HETATM   31  H20 UNL     1       6.147   0.279   2.091  1.00  0.00     0.169 HD
ENDROOT
BRANCH  17  32
HETATM   32  C13 UNL     1       1.172   0.170  -3.249  1.00  0.00     0.437 C 
BRANCH  32  33
HETATM   33  N5  UNL     1       0.613   0.228  -4.578  1.00  0.00     0.099 N 
HETATM   34  H13 UNL     1      -0.018   1.017  -4.738  1.00  0.00     0.315 HD
HETATM   35  H14 UNL     1       0.220  -0.675  -4.911  1.00  0.00     0.315 HD
ENDBRANCH  32  33
ENDBRANCH  17  32
TORSDOF 2
