REMARK  1 active torsions:
REMARK  status: ('A' for Active; 'I' for Inactive)
REMARK    1  A    between atoms: C21_29  and  N5_30 
ROOT
HETATM    1  O1  UNL     1      -5.752  -0.947  -2.777  1.00  0.00    -0.271 OA
HETATM    2  C1  UNL     1      -4.853  -0.485  -2.031  1.00  0.00     0.246 C 
HETATM    3  C2  UNL     1      -3.414  -0.522  -2.341  1.00  0.00     0.278 C 
HETATM    4  O2  UNL     1      -2.639  -0.543  -1.180  1.00  0.00    -0.339 OA
HETATM    5  C3  UNL     1      -2.910   0.021   0.019  1.00  0.00     0.110 A 
HETATM    6  C4  UNL     1      -4.233   0.349   0.199  1.00  0.00     0.087 A 
HETATM    7  C5  UNL     1      -4.661   0.933   1.398  1.00  0.00     0.149 A 
HETATM    8  N1  UNL     1      -3.715   1.142   2.326  1.00  0.00    -0.258 NA
HETATM    9  C6  UNL     1      -2.424   0.816   2.133  1.00  0.00     0.070 A 
HETATM   10  C7  UNL     1      -1.553   1.044   3.166  1.00  0.00     0.034 A 
HETATM   11  C8  UNL     1      -0.249   0.693   3.007  1.00  0.00     0.022 A 
HETATM   12  C9  UNL     1       0.187   0.121   1.830  1.00  0.00     0.023 A 
HETATM   13  C10 UNL     1      -0.647  -0.143   0.718  1.00  0.00     0.004 A 
HETATM   14  C11 UNL     1      -1.947   0.240   0.973  1.00  0.00     0.038 A 
HETATM   15  C12 UNL     1      -0.166  -0.693  -0.551  1.00  0.00     0.182 C 
HETATM   16  C13 UNL     1       0.146   0.500  -1.450  1.00  0.00     0.122 C 
HETATM   17  F1  UNL     1      -0.750   1.388  -2.052  1.00  0.00    -0.208 F 
HETATM   18  C14 UNL     1       1.466   0.762  -1.692  1.00  0.00     0.053 C 
HETATM   19  C15 UNL     1       2.248  -0.494  -1.731  1.00  0.00    -0.011 C 
HETATM   20  C16 UNL     1       1.815  -1.704  -1.576  1.00  0.00     0.099 C 
HETATM   21  N2  UNL     1       1.118  -1.419  -0.316  1.00  0.00    -0.364 N 
HETATM   22  C17 UNL     1       1.745  -1.895   0.939  1.00  0.00     0.215 C 
HETATM   23  S1  UNL     1       1.890  -0.376   1.843  1.00  0.00    -0.052 SA
HETATM   24  N3  UNL     1       2.964   0.590   1.702  1.00  0.00    -0.242 NA
HETATM   25  C18 UNL     1       4.381   0.393   1.688  1.00  0.00     0.296 C 
HETATM   26  N4  UNL     1       4.936   0.758   0.325  1.00  0.00    -0.300 N 
HETATM   27  C19 UNL     1       4.052   0.358  -0.548  1.00  0.00     0.210 A 
HETATM   28  C20 UNL     1       3.561   0.187  -1.863  1.00  0.00    -0.007 A 
HETATM   29  C21 UNL     1       4.742   0.796  -1.902  1.00  0.00     0.156 A 
HETATM   30  N5  UNL     1       5.524   1.128  -0.826  1.00  0.00    -0.191 NA
HETATM   31  N6  UNL     1      -5.255   0.120  -0.792  1.00  0.00    -0.322 N 
HETATM   32  H15 UNL     1      -6.248   0.385  -0.614  1.00  0.00     0.169 HD
ENDROOT
TORSDOF 1
