REMARK  3 active torsions:
REMARK  status: ('A' for Active; 'I' for Inactive)
REMARK    1  A    between atoms: C3_4  and  S1_5 
REMARK    2  A    between atoms: N4_11  and  C7_12 
REMARK    3  A    between atoms: C7_12  and  C8_13 
ROOT
HETATM    1  S1  UNL     1       1.656   0.140  -0.554  1.00  0.00    -0.118 SA
HETATM    2  C4  UNL     1       0.138   0.361   0.007  1.00  0.00     0.049 A 
HETATM    3  C5  UNL     1      -0.768  -0.005  -0.856  1.00  0.00     0.104 A 
HETATM    4  C6  UNL     1      -0.697  -0.561  -2.194  1.00  0.00     0.147 A 
HETATM    5  N2  UNL     1      -1.903  -0.745  -2.613  1.00  0.00    -0.154 NA
HETATM    6  N3  UNL     1      -2.856  -0.365  -1.681  1.00  0.00    -0.216 N 
HETATM    7  N4  UNL     1      -2.167   0.114  -0.541  1.00  0.00    -0.268 N 
HETATM    8  C12 UNL     1       0.553  -0.842  -2.894  1.00  0.00     0.155 A 
HETATM    9  F1  UNL     1       0.619  -1.362  -4.146  1.00  0.00    -0.203 F 
HETATM   10  C13 UNL     1       1.668  -0.559  -2.236  1.00  0.00     0.089 A 
HETATM   11  H5  UNL     1      -3.873  -0.456  -1.880  1.00  0.00     0.211 HD
ENDROOT
BRANCH   1  12
HETATM   12  C3  UNL     1       3.004  -0.274   0.563  1.00  0.00     0.036 A 
HETATM   13  C2  UNL     1       4.197   0.448   0.690  1.00  0.00     0.131 A 
HETATM   14  N1  UNL     1       4.946  -0.179   1.625  1.00  0.00    -0.284 N 
HETATM   15  C1  UNL     1       6.280   0.189   2.115  1.00  0.00     0.179 C 
HETATM   16  N5  UNL     1       4.285  -1.237   2.074  1.00  0.00    -0.184 NA
HETATM   17  C14 UNL     1       3.088  -1.346   1.459  1.00  0.00     0.158 A 
ENDBRANCH   1  12
BRANCH   7  18
HETATM   18  C7  UNL     1      -2.883   0.593   0.625  1.00  0.00     0.189 C 
BRANCH  18  19
HETATM   19  C8  UNL     1      -4.350   0.526   0.492  1.00  0.00    -0.038 A 
HETATM   20  C9  UNL     1      -5.418   1.325   0.508  1.00  0.00     0.009 A 
HETATM   21  C10 UNL     1      -6.297   0.187   0.282  1.00  0.00     0.001 A 
HETATM   22  C11 UNL     1      -5.232  -0.602   0.267  1.00  0.00     0.009 A 
ENDBRANCH  18  19
ENDBRANCH   7  18
TORSDOF 3
