REMARK  4 active torsions:
REMARK  status: ('A' for Active; 'I' for Inactive)
REMARK    1  A    between atoms: C7_7  and  N1_8 
REMARK    2  A    between atoms: N1_8  and  C8_9 
REMARK    3  A    between atoms: C16_21  and  O3_22 
REMARK    4  A    between atoms: O3_22  and  C17_23 
ROOT
HETATM    1  C1  UNL     1       7.409  -3.320  -1.267  1.00  0.00     0.018 C 
HETATM    2  C2  UNL     1       6.731  -2.550  -0.622  1.00  0.00    -0.078 C 
HETATM    3  C3  UNL     1       5.929  -1.628   0.144  1.00  0.00     0.019 A 
HETATM    4  C4  UNL     1       6.174  -1.457   1.483  1.00  0.00     0.021 A 
HETATM    5  C5  UNL     1       5.505  -0.623   2.352  1.00  0.00     0.004 A 
HETATM    6  C6  UNL     1       4.469   0.112   1.766  1.00  0.00     0.029 A 
HETATM    7  C7  UNL     1       4.202  -0.047   0.409  1.00  0.00     0.035 A 
HETATM    8  C22 UNL     1       4.910  -0.897  -0.408  1.00  0.00     0.050 A 
ENDROOT
BRANCH   7   9
HETATM    9  N1  UNL     1       3.128   0.656  -0.147  1.00  0.00    -0.340 N 
HETATM   10  H5  UNL     1       3.555   1.218  -0.901  1.00  0.00     0.167 HD
BRANCH   9  11
HETATM   11  C8  UNL     1       1.972   0.285   0.583  1.00  0.00     0.138 A 
HETATM   12  N2  UNL     1       2.098  -0.501   1.697  1.00  0.00    -0.224 NA
HETATM   13  C9  UNL     1       0.983  -0.854   2.360  1.00  0.00     0.235 A 
HETATM   14  N3  UNL     1      -0.146  -0.394   1.855  1.00  0.00    -0.245 NA
HETATM   15  C10 UNL     1      -0.306   0.364   0.785  1.00  0.00     0.058 A 
HETATM   16  C11 UNL     1       0.792   0.806  -0.006  1.00  0.00     0.019 A 
HETATM   17  C21 UNL     1      -1.268   0.926   0.120  1.00  0.00     0.113 C 
HETATM   18  C12 UNL     1       1.406   1.474  -1.076  1.00  0.00     0.043 C 
HETATM   19  O1  UNL     1       0.250   1.946  -1.604  1.00  0.00     0.000 OA
HETATM   20  C13 UNL     1      -0.093   2.263  -2.942  1.00  0.00     0.029 C 
HETATM   21  C14 UNL     1      -1.574   1.876  -3.137  1.00  0.00     0.174 C 
HETATM   22  O2  UNL     1      -2.259   2.667  -2.154  1.00  0.00    -0.361 OA
HETATM   23  C15 UNL     1      -2.939   1.990  -1.123  1.00  0.00     0.167 C 
HETATM   24  C16 UNL     1      -2.679   1.200  -0.065  1.00  0.00     0.080 C 
BRANCH  24  25
HETATM   25  O3  UNL     1      -4.058   1.117   0.242  1.00  0.00    -0.345 OA
BRANCH  25  26
HETATM   26  C17 UNL     1      -4.738   0.002  -0.314  1.00  0.00     0.154 C 
HETATM   27  C18 UNL     1      -6.182  -0.040   0.130  1.00  0.00     0.061 C 
HETATM   28  C19 UNL     1      -6.492  -1.506  -0.025  1.00  0.00     0.170 C 
HETATM   29  O4  UNL     1      -5.318  -2.204   0.075  1.00  0.00    -0.389 OA
HETATM   30  C20 UNL     1      -4.263  -1.320   0.241  1.00  0.00     0.200 C 
ENDBRANCH  25  26
ENDBRANCH  24  25
ENDBRANCH   9  11
ENDBRANCH   7   9
TORSDOF 4
