REMARK  4 active torsions:
REMARK  status: ('A' for Active; 'I' for Inactive)
REMARK    1  A    between atoms: C8_9  and  C9_10 
REMARK    2  A    between atoms: C9_10  and  N1_11 
REMARK    3  A    between atoms: N1_11  and  C10_12 
REMARK    4  A    between atoms: C13_16  and  C14_17 
ROOT
HETATM    1  C10 UNL     1       1.420   0.432   0.966  1.00  0.00     0.140 A 
HETATM    2  N2  UNL     1       1.251   1.481   0.232  1.00  0.00    -0.230 NA
HETATM    3  C11 UNL     1      -0.128   1.200   0.105  1.00  0.00     0.076 A 
HETATM    4  C12 UNL     1      -1.394   1.458  -0.352  1.00  0.00     0.043 A 
HETATM    5  C13 UNL     1      -2.535   0.682  -0.097  1.00  0.00    -0.013 A 
HETATM    6  C18 UNL     1      -2.281  -0.424   0.692  1.00  0.00     0.110 A 
HETATM    7  C19 UNL     1      -1.038  -0.752   1.192  1.00  0.00     0.119 A 
HETATM    8  C20 UNL     1       0.018   0.086   0.876  1.00  0.00     0.074 A 
HETATM    9  O2  UNL     1      -0.916  -1.883   1.967  1.00  0.00    -0.345 OA
HETATM   10  C21 UNL     1      -1.689  -3.024   1.577  1.00  0.00     0.202 C 
HETATM   11  C22 UNL     1      -3.082  -2.658   1.181  1.00  0.00     0.202 C 
HETATM   12  O3  UNL     1      -3.293  -1.283   1.031  1.00  0.00    -0.346 OA
ENDROOT
BRANCH   1  13
HETATM   13  N1  UNL     1       2.522  -0.200   1.635  1.00  0.00    -0.370 N 
HETATM   14  H9  UNL     1       2.442  -1.082   2.145  1.00  0.00     0.161 HD
BRANCH  13  15
HETATM   15  C9  UNL     1       3.789   0.491   1.553  1.00  0.00     0.156 C 
BRANCH  15  16
HETATM   16  C8  UNL     1       4.323   0.475   0.189  1.00  0.00    -0.047 C 
HETATM   17  C2  UNL     1       4.810  -0.868  -0.822  1.00  0.00     0.090 C 
HETATM   18  C1  UNL     1       3.506  -1.544  -0.942  1.00  0.00     0.028 C 
HETATM   19  C3  UNL     1       5.130  -0.005  -1.737  1.00  0.00    -0.113 C 
HETATM   20  C4  UNL     1       5.336   0.584  -2.331  1.00  0.00    -0.170 C 
HETATM   21  B1  UNL     1       5.780   1.936  -3.629  1.00  0.00     0.285 B 
HETATM   22  C5  UNL     1       5.140   3.272  -2.458  1.00  0.00    -0.093 C 
HETATM   23  C6  UNL     1       4.777   2.799  -1.285  1.00  0.00    -0.005 C 
HETATM   24  C7  UNL     1       4.381   1.848  -0.160  1.00  0.00     0.005 C 
ENDBRANCH  15  16
ENDBRANCH  13  15
ENDBRANCH   1  13
BRANCH   5  25
HETATM   25  C14 UNL     1      -3.839   1.058  -0.626  1.00  0.00     0.047 C 
HETATM   26  C15 UNL     1      -4.267   0.342  -1.877  1.00  0.00     0.038 C 
HETATM   27  C16 UNL     1      -5.656  -0.106  -1.506  1.00  0.00     0.168 C 
HETATM   28  O1  UNL     1      -6.075   0.861  -0.585  1.00  0.00    -0.390 OA
HETATM   29  C17 UNL     1      -4.996   1.002   0.298  1.00  0.00     0.177 C 
ENDBRANCH   5  25
TORSDOF 4
