REMARK  4 active torsions:
REMARK  status: ('A' for Active; 'I' for Inactive)
REMARK    1  A    between atoms: C2_2  and  C3_3 
REMARK    2  A    between atoms: C8_11  and  N3_12 
REMARK    3  A    between atoms: C10_14  and  C11_15 
REMARK    4  A    between atoms: C12_17  and  C13_18 
ROOT
HETATM    1  C3  UNL     1       4.039   0.362   0.512  1.00  0.00     0.184 C 
HETATM    2  O1  UNL     1       3.546   1.591  -0.227  1.00  0.00    -0.338 OA
HETATM    3  C4  UNL     1       2.179   1.866   0.026  1.00  0.00     0.108 A 
HETATM    4  C5  UNL     1       1.203   2.682   0.524  1.00  0.00     0.072 A 
HETATM    5  C6  UNL     1      -0.112   2.344   0.481  1.00  0.00     0.077 A 
HETATM    6  N1  UNL     1      -1.007   3.187   0.993  1.00  0.00    -0.241 NA
HETATM    7  C7  UNL     1      -2.336   2.851   0.965  1.00  0.00     0.236 A 
HETATM    8  N2  UNL     1      -2.754   1.691   0.431  1.00  0.00    -0.224 NA
HETATM    9  C8  UNL     1      -1.916   0.793  -0.103  1.00  0.00     0.143 A 
HETATM   10  C14 UNL     1      -0.622   1.196  -0.037  1.00  0.00     0.075 A 
HETATM   11  C15 UNL     1       0.296   0.312  -0.566  1.00  0.00     0.121 A 
HETATM   12  C16 UNL     1       1.669   0.667  -0.539  1.00  0.00     0.140 A 
HETATM   13  O2  UNL     1       2.587  -0.312  -1.147  1.00  0.00    -0.312 OA
HETATM   14  C17 UNL     1       3.256  -0.844   0.057  1.00  0.00     0.295 C 
HETATM   15  O3  UNL     1       2.316  -1.430   0.798  1.00  0.00    -0.356 OA
HETATM   16  C18 UNL     1       1.299  -2.176   0.433  1.00  0.00     0.197 C 
HETATM   17  C19 UNL     1       0.553  -2.145  -0.868  1.00  0.00     0.202 C 
HETATM   18  O4  UNL     1      -0.269  -0.919  -1.072  1.00  0.00    -0.345 OA
ENDROOT
BRANCH   9  19
HETATM   19  N3  UNL     1      -2.460  -0.399  -0.666  1.00  0.00    -0.350 N 
HETATM   20  C9  UNL     1      -2.960  -1.576  -1.448  1.00  0.00     0.158 A 
HETATM   21  C10 UNL     1      -3.182  -1.584  -0.009  1.00  0.00     0.166 A 
BRANCH  21  22
HETATM   22  C11 UNL     1      -4.554  -1.346   0.447  1.00  0.00     0.115 C 
HETATM   23  F1  UNL     1      -5.130  -2.440   1.034  1.00  0.00    -0.209 F 
HETATM   24  C12 UNL     1      -5.471  -0.400   0.487  1.00  0.00     0.028 C 
BRANCH  24  25
HETATM   25  C13 UNL     1      -6.878  -0.335   1.014  1.00  0.00     0.144 C 
HETATM   26 CL1  UNL     1      -7.067   0.904   2.270  1.00  0.00    -0.126 Cl
ENDBRANCH  24  25
ENDBRANCH  21  22
ENDBRANCH   9  19
BRANCH   1  27
HETATM   27  C2  UNL     1       5.450   0.269  -0.014  1.00  0.00     0.033 C 
HETATM   28  C1  UNL     1       6.274   1.467   0.282  1.00  0.00     0.007 C 
ENDBRANCH   1  27
TORSDOF 4
