REMARK  0 active torsions:
REMARK  status: ('A' for Active; 'I' for Inactive)
ROOT
HETATM    1  C1  UNL     1       5.720  -1.431   2.264  1.00  0.00     0.018 C 
HETATM    2  C2  UNL     1       4.960  -0.907   1.503  1.00  0.00    -0.075 C 
HETATM    3  C3  UNL     1       4.058  -0.299   0.576  1.00  0.00     0.046 A 
HETATM    4  C4  UNL     1       4.413  -0.168  -0.776  1.00  0.00     0.026 A 
HETATM    5  C5  UNL     1       3.590   0.422  -1.701  1.00  0.00     0.040 A 
HETATM    6  C6  UNL     1       2.383   0.909  -1.318  1.00  0.00     0.097 A 
HETATM    7  C7  UNL     1       1.938   0.843  -0.010  1.00  0.00     0.091 A 
HETATM    8  C8  UNL     1       2.819   0.230   0.840  1.00  0.00     0.081 A 
HETATM    9  N1  UNL     1       2.560  -0.187   2.202  1.00  0.00    -0.348 N 
HETATM   10  C9  UNL     1       1.590  -1.210   1.907  1.00  0.00     0.201 C 
HETATM   11  N2  UNL     1       0.833  -2.279   1.582  1.00  0.00    -0.284 NA
HETATM   12  C10 UNL     1      -0.597  -1.941   1.780  1.00  0.00     0.094 C 
HETATM   13  C11 UNL     1      -0.684  -1.539   0.540  1.00  0.00     0.083 C 
HETATM   14  C12 UNL     1      -1.506  -0.970  -0.491  1.00  0.00    -0.014 C 
HETATM   15  C13 UNL     1      -2.776  -0.531  -0.410  1.00  0.00     0.014 A 
HETATM   16  C14 UNL     1      -3.478   0.046  -1.521  1.00  0.00     0.047 A 
HETATM   17  C15 UNL     1      -3.301   1.143  -0.719  1.00  0.00     0.108 A 
HETATM   18  C16 UNL     1      -2.354   2.221  -0.278  1.00  0.00     0.124 C 
HETATM   19  N3  UNL     1      -1.313   2.564   0.379  1.00  0.00    -0.283 NA
HETATM   20  C17 UNL     1      -0.430   1.742   1.167  1.00  0.00     0.270 C 
HETATM   21  N4  UNL     1       0.754   1.398   0.535  1.00  0.00    -0.368 N 
HETATM   22  O1  UNL     1      -4.611   1.096  -0.164  1.00  0.00    -0.373 OA
HETATM   23  C18 UNL     1      -4.851   0.016   0.783  1.00  0.00     0.170 C 
HETATM   24  C19 UNL     1      -3.525  -0.736   0.902  1.00  0.00     0.040 C 
HETATM   25  C20 UNL     1      -0.946  -1.141  -1.846  1.00  0.00     0.014 C 
HETATM   26  C21 UNL     1       0.288  -0.478  -2.256  1.00  0.00     0.028 C 
HETATM   27  C22 UNL     1       0.302   1.012  -2.411  1.00  0.00     0.176 C 
HETATM   28  O2  UNL     1       1.717   1.440  -2.464  1.00  0.00    -0.349 OA
HETATM   29  H4  UNL     1       3.011   0.176   3.046  1.00  0.00     0.167 HD
HETATM   30  H12 UNL     1       1.085   2.309   0.124  1.00  0.00     0.161 HD
ENDROOT
TORSDOF 0
