REMARK  0 active torsions:
REMARK  status: ('A' for Active; 'I' for Inactive)
ROOT
HETATM    1  C1  UNL     1      -2.361  -2.902  -1.250  1.00  0.00     0.014 C 
HETATM    2  C2  UNL     1      -1.654  -1.821  -0.430  1.00  0.00     0.010 C 
HETATM    3  C3  UNL     1      -0.217  -1.807  -0.688  1.00  0.00     0.010 C 
HETATM    4  C4  UNL     1       1.009  -1.868  -0.286  1.00  0.00     0.053 C 
HETATM    5  C5  UNL     1       0.845  -2.035   1.133  1.00  0.00     0.084 C 
HETATM    6  C6  UNL     1       1.113  -0.750   1.891  1.00  0.00     0.126 C 
HETATM    7  N1  UNL     1       1.624   0.341   1.088  1.00  0.00    -0.383 N 
HETATM    8  C7  UNL     1       2.077   0.592  -0.288  1.00  0.00     0.128 A 
HETATM    9  C8  UNL     1       2.132   1.911  -0.591  1.00  0.00     0.160 A 
HETATM   10  N2  UNL     1       2.679   2.319  -1.734  1.00  0.00    -0.222 NA
HETATM   11  C9  UNL     1       3.168   1.360  -2.581  1.00  0.00     0.238 A 
HETATM   12  N3  UNL     1       3.113   0.045  -2.309  1.00  0.00    -0.215 NA
HETATM   13  C10 UNL     1       2.572  -0.400  -1.175  1.00  0.00     0.201 A 
HETATM   14  O1  UNL     1       2.408  -1.807  -0.763  1.00  0.00    -0.295 OA
HETATM   15  N4  UNL     1       1.401   2.796   0.233  1.00  0.00    -0.339 N 
HETATM   16  C11 UNL     1       0.064   2.284   0.454  1.00  0.00     0.035 A 
HETATM   17  C12 UNL     1      -0.624   2.819   1.508  1.00  0.00     0.048 A 
HETATM   18  C13 UNL     1      -1.858   2.272   1.759  1.00  0.00     0.013 A 
HETATM   19 BR1  UNL     1      -2.875   2.975   3.219  1.00  0.00    -0.051 Br
HETATM   20  C14 UNL     1      -2.379   1.230   0.983  1.00  0.00     0.026 A 
HETATM   21  C15 UNL     1      -1.690   0.670  -0.099  1.00  0.00    -0.054 A 
HETATM   22  C16 UNL     1      -0.479   1.265  -0.287  1.00  0.00     0.036 A 
HETATM   23  C17 UNL     1      -2.278  -0.458  -0.856  1.00  0.00     0.046 C 
HETATM   24  H10 UNL     1       1.686   1.171   1.765  1.00  0.00     0.159 HD
HETATM   25  H12 UNL     1       1.842   3.642   0.556  1.00  0.00     0.167 HD
ENDROOT
TORSDOF 0
