REMARK  5 active torsions:
REMARK  status: ('A' for Active; 'I' for Inactive)
REMARK    1  A    between atoms: C7_7  and  N1_8 
REMARK    2  A    between atoms: N1_8  and  C8_9 
REMARK    3  A    between atoms: C12_15  and  C13_16 
REMARK    4  A    between atoms: C13_16  and  O1_17 
REMARK    5  A    between atoms: O1_17  and  C14_18 
ROOT
HETATM    1  C1  UNL     1      -8.273   0.518   1.672  1.00  0.00     0.018 C 
HETATM    2  C2  UNL     1      -7.365   0.011   1.056  1.00  0.00    -0.078 C 
HETATM    3  C3  UNL     1      -6.266  -0.575   0.320  1.00  0.00     0.019 A 
HETATM    4  C4  UNL     1      -6.383  -1.632  -0.519  1.00  0.00     0.021 A 
HETATM    5  C5  UNL     1      -5.270  -2.119  -1.174  1.00  0.00     0.004 A 
HETATM    6  C6  UNL     1      -4.043  -1.523  -0.968  1.00  0.00     0.029 A 
HETATM    7  C7  UNL     1      -3.842  -0.445  -0.132  1.00  0.00     0.035 A 
HETATM    8  C23 UNL     1      -5.027  -0.023   0.487  1.00  0.00     0.050 A 
ENDROOT
BRANCH   7   9
HETATM    9  N1  UNL     1      -2.545   0.127   0.005  1.00  0.00    -0.340 N 
HETATM   10  H5  UNL     1      -2.579   0.407   0.998  1.00  0.00     0.167 HD
BRANCH   9  11
HETATM   11  C8  UNL     1      -1.663   0.163  -1.081  1.00  0.00     0.144 A 
HETATM   12  N2  UNL     1      -2.036  -0.282  -2.267  1.00  0.00    -0.223 NA
HETATM   13  C9  UNL     1      -1.255  -0.282  -3.351  1.00  0.00     0.236 A 
HETATM   14  N3  UNL     1       0.001   0.195  -3.271  1.00  0.00    -0.241 NA
HETATM   15  C10 UNL     1       0.504   0.681  -2.114  1.00  0.00     0.075 A 
HETATM   16  C11 UNL     1       1.777   1.158  -2.065  1.00  0.00     0.045 A 
HETATM   17  C20 UNL     1      -0.375   0.639  -1.053  1.00  0.00     0.075 A 
HETATM   18  C12 UNL     1       2.275   1.652  -0.878  1.00  0.00     0.006 A 
HETATM   19  C18 UNL     1       1.420   1.624   0.206  1.00  0.00     0.135 A 
HETATM   20  C19 UNL     1       0.125   1.139   0.155  1.00  0.00     0.123 A 
HETATM   21  O4  UNL     1       1.773   2.083   1.472  1.00  0.00    -0.258 OA
HETATM   22  O3  UNL     1      -0.606   1.177   1.311  1.00  0.00    -0.326 OA
HETATM   23  C21 UNL     1      -0.028   1.104   2.593  1.00  0.00     0.222 C 
HETATM   24  C22 UNL     1      -0.219  -0.318   3.109  1.00  0.00     0.059 C 
HETATM   25  N4  UNL     1       1.358   1.437   2.616  1.00  0.00    -0.170 NA
HETATM   26  H21 UNL     1       1.904   0.546   2.652  1.00  0.00     0.157 HD
BRANCH  18  27
HETATM   27  C13 UNL     1       3.632   2.205  -0.712  1.00  0.00     0.210 C 
BRANCH  27  28
HETATM   28  O1  UNL     1       4.434   1.321  -0.043  1.00  0.00    -0.379 OA
BRANCH  28  29
HETATM   29  C14 UNL     1       4.608   0.105  -0.653  1.00  0.00     0.147 C 
HETATM   30  C15 UNL     1       4.256  -1.004   0.313  1.00  0.00     0.060 C 
HETATM   31  C16 UNL     1       5.226  -2.076  -0.041  1.00  0.00     0.170 C 
HETATM   32  O2  UNL     1       6.256  -1.551  -0.796  1.00  0.00    -0.389 OA
HETATM   33  C17 UNL     1       6.092  -0.199  -0.886  1.00  0.00     0.199 C 
ENDBRANCH  28  29
ENDBRANCH  27  28
ENDBRANCH  18  27
ENDBRANCH   9  11
ENDBRANCH   7   9
TORSDOF 5
