REMARK  2 active torsions:
REMARK  status: ('A' for Active; 'I' for Inactive)
REMARK    1  A    between atoms: C1_2  and  C2_3 
REMARK    2  A    between atoms: N4_17  and  C13_18 
ROOT
HETATM    1  C2  UNL     1      -4.418  -0.073  -0.188  1.00  0.00     0.002 A 
HETATM    2  C3  UNL     1      -4.015   0.511   0.996  1.00  0.00     0.015 A 
HETATM    3  C4  UNL     1      -2.642   0.506   1.269  1.00  0.00     0.015 A 
HETATM    4  C5  UNL     1      -1.799  -0.075   0.347  1.00  0.00     0.003 A 
HETATM    5  C6  UNL     1      -2.208  -0.661  -0.841  1.00  0.00    -0.027 A 
HETATM    6  C7  UNL     1      -3.581  -0.657  -1.117  1.00  0.00     0.024 A 
HETATM    7  C8  UNL     1      -1.485  -1.318  -1.930  1.00  0.00     0.158 C 
HETATM    8  N1  UNL     1      -0.106  -0.935  -2.095  1.00  0.00    -0.393 N 
HETATM    9  C9  UNL     1       0.906  -0.652  -1.138  1.00  0.00     0.117 C 
HETATM   10  C10 UNL     1       0.781  -0.244   0.091  1.00  0.00     0.098 A 
HETATM   11  C11 UNL     1      -0.426   0.044   0.854  1.00  0.00     0.098 A 
HETATM   12  N2  UNL     1      -0.290   0.439   2.077  1.00  0.00    -0.237 NA
HETATM   13  C12 UNL     1       1.027   0.581   2.650  1.00  0.00     0.255 A 
HETATM   14  N3  UNL     1       2.103   0.329   1.985  1.00  0.00    -0.164 NA
HETATM   15  N4  UNL     1       2.089  -0.111   0.633  1.00  0.00    -0.253 N 
HETATM   16  H7  UNL     1       0.210  -0.850  -3.109  1.00  0.00     0.159 HD
ENDROOT
BRANCH  15  17
HETATM   17  C13 UNL     1       3.362  -0.349   0.017  1.00  0.00     0.157 A 
HETATM   18  C14 UNL     1       4.490  -0.109   0.964  1.00  0.00     0.005 A 
HETATM   19  C15 UNL     1       5.251   0.930   0.625  1.00  0.00     0.017 A 
HETATM   20  C16 UNL     1       4.672   1.476  -0.607  1.00  0.00     0.009 A 
HETATM   21 BR1  UNL     1       5.579   2.999  -1.328  1.00  0.00    -0.051 Br
HETATM   22  C17 UNL     1       3.609   0.757  -0.950  1.00  0.00     0.023 A 
ENDBRANCH  15  17
BRANCH   1  23
HETATM   23  C1  UNL     1      -5.857  -0.057  -0.454  1.00  0.00     0.269 C 
HETATM   24  O1  UNL     1      -6.636   0.474   0.386  1.00  0.00    -0.301 OA
ENDBRANCH   1  23
TORSDOF 2
