REMARK  4 active torsions:
REMARK  status: ('A' for Active; 'I' for Inactive)
REMARK    1  A    between atoms: C3_5  and  N1_6 
REMARK    2  A    between atoms: N1_6  and  C4_7 
REMARK    3  A    between atoms: C8_13  and  O1_14 
REMARK    4  A    between atoms: O1_14  and  C9_15 
ROOT
HETATM    1  C4  UNL     1      -1.787   0.965  -1.646  1.00  0.00     0.145 A 
HETATM    2  N2  UNL     1      -2.036   1.909  -2.584  1.00  0.00    -0.223 NA
HETATM    3  C5  UNL     1      -1.035   2.672  -3.097  1.00  0.00     0.236 A 
HETATM    4  N3  UNL     1       0.228   2.483  -2.666  1.00  0.00    -0.241 NA
HETATM    5  C6  UNL     1       0.527   1.554  -1.731  1.00  0.00     0.077 A 
HETATM    6  C7  UNL     1       1.832   1.352  -1.266  1.00  0.00     0.072 A 
HETATM    7  C8  UNL     1       2.124   0.392  -0.292  1.00  0.00     0.107 A 
HETATM    8  C13 UNL     1       1.054  -0.334   0.175  1.00  0.00     0.136 A 
HETATM    9  C14 UNL     1      -0.238  -0.166  -0.255  1.00  0.00     0.121 A 
HETATM   10  C15 UNL     1      -0.495   0.783  -1.212  1.00  0.00     0.075 A 
HETATM   11  O3  UNL     1      -1.186  -0.970   0.313  1.00  0.00    -0.345 OA
HETATM   12  C16 UNL     1      -0.975  -2.044   1.178  1.00  0.00     0.202 C 
HETATM   13  C17 UNL     1       0.480  -2.455   1.190  1.00  0.00     0.202 C 
HETATM   14  O4  UNL     1       1.298  -1.279   1.122  1.00  0.00    -0.344 OA
ENDROOT
BRANCH   1  15
HETATM   15  N1  UNL     1      -2.877   0.207  -1.178  1.00  0.00    -0.339 N 
HETATM   16  H2  UNL     1      -2.962  -0.845  -1.021  1.00  0.00     0.167 HD
BRANCH  15  17
HETATM   17  C3  UNL     1      -4.213   0.450  -0.769  1.00  0.00     0.048 A 
HETATM   18  P1  UNL     1      -5.496   0.651  -1.947  1.00  0.00    -0.000 P 
HETATM   19  C2  UNL     1      -7.057   0.919  -1.196  1.00  0.00     0.062 A 
HETATM   20  C1  UNL     1      -7.098   0.941   0.199  1.00  0.00     0.139 A 
HETATM   21  F1  UNL     1      -8.329   1.153   0.712  1.00  0.00    -0.204 F 
HETATM   22  C19 UNL     1      -5.946   0.756   0.925  1.00  0.00     0.074 A 
HETATM   23  C18 UNL     1      -4.656   0.537   0.539  1.00  0.00     0.057 A 
HETATM   24 CL1  UNL     1      -6.251   0.820   2.672  1.00  0.00    -0.081 Cl
ENDBRANCH  15  17
ENDBRANCH   1  15
BRANCH   7  25
HETATM   25  O1  UNL     1       3.456   0.351   0.022  1.00  0.00    -0.341 OA
BRANCH  25  26
HETATM   26  C9  UNL     1       4.112  -0.427   0.971  1.00  0.00     0.154 C 
HETATM   27  C10 UNL     1       5.248   0.285   1.647  1.00  0.00     0.061 C 
HETATM   28  C11 UNL     1       6.466  -0.395   1.091  1.00  0.00     0.170 C 
HETATM   29  O2  UNL     1       6.082  -1.710   0.819  1.00  0.00    -0.389 OA
HETATM   30  C12 UNL     1       4.785  -1.630   0.344  1.00  0.00     0.200 C 
ENDBRANCH  25  26
ENDBRANCH   7  25
TORSDOF 4
