REMARK  2 active torsions:
REMARK  status: ('A' for Active; 'I' for Inactive)
REMARK    1  A    between atoms: C10_13  and  O1_14 
REMARK    2  A    between atoms: O1_14  and  C11_15 
ROOT
HETATM    1  F1  UNL     1      -4.760   3.268   1.588  1.00  0.00    -0.203 F 
HETATM    2  C1  UNL     1      -4.702   2.033   1.047  1.00  0.00     0.149 A 
HETATM    3  C2  UNL     1      -5.435   0.932   1.442  1.00  0.00     0.075 A 
HETATM    4 CL1  UNL     1      -6.562   1.034   2.735  1.00  0.00    -0.081 Cl
HETATM    5  C3  UNL     1      -5.283  -0.306   0.799  1.00  0.00     0.058 A 
HETATM    6  C4  UNL     1      -4.358  -0.201  -0.199  1.00  0.00     0.050 A 
HETATM    7  C5  UNL     1      -3.541   0.684  -0.790  1.00  0.00     0.047 A 
HETATM    8  C6  UNL     1      -3.880   1.726   0.005  1.00  0.00     0.024 A 
HETATM    9  C7  UNL     1      -2.829   2.683  -0.302  1.00  0.00     0.132 C 
HETATM   10  N1  UNL     1      -1.701   2.179  -0.373  1.00  0.00    -0.258 NA
HETATM   11  C8  UNL     1      -1.156   0.895  -0.232  1.00  0.00     0.090 A 
HETATM   12  C9  UNL     1       0.215   1.214  -0.226  1.00  0.00     0.073 A 
HETATM   13  C10 UNL     1       1.303   0.318  -0.135  1.00  0.00     0.107 A 
HETATM   14  C15 UNL     1       0.961  -1.017  -0.040  1.00  0.00     0.138 A 
HETATM   15  C16 UNL     1      -0.374  -1.371  -0.043  1.00  0.00     0.135 A 
HETATM   16  C17 UNL     1      -1.431  -0.484  -0.133  1.00  0.00     0.113 A 
HETATM   17  N2  UNL     1      -2.574  -1.322  -0.094  1.00  0.00    -0.295 N 
HETATM   18  N3  UNL     1      -3.793  -1.410  -0.769  1.00  0.00    -0.300 N 
HETATM   19  O3  UNL     1      -0.436  -2.754   0.058  1.00  0.00    -0.344 OA
HETATM   20  C18 UNL     1       0.518  -3.580  -0.606  1.00  0.00     0.202 C 
HETATM   21  C19 UNL     1       1.919  -3.218  -0.241  1.00  0.00     0.202 C 
HETATM   22  O4  UNL     1       2.059  -1.846   0.049  1.00  0.00    -0.344 OA
HETATM   23  H12 UNL     1      -2.774  -2.135   0.504  1.00  0.00     0.187 HD
HETATM   24  H13 UNL     1      -4.555  -1.696  -1.353  1.00  0.00     0.187 HD
ENDROOT
BRANCH  13  25
HETATM   25  O1  UNL     1       2.566   0.800  -0.145  1.00  0.00    -0.341 OA
BRANCH  25  26
HETATM   26  C11 UNL     1       3.814   0.296  -0.083  1.00  0.00     0.154 C 
HETATM   27  C12 UNL     1       4.488   0.875   1.183  1.00  0.00     0.061 C 
HETATM   28  C13 UNL     1       5.103   2.134   0.618  1.00  0.00     0.170 C 
HETATM   29  O2  UNL     1       5.709   1.602  -0.544  1.00  0.00    -0.389 OA
HETATM   30  C14 UNL     1       4.674   0.928  -1.174  1.00  0.00     0.200 C 
ENDBRANCH  25  26
ENDBRANCH  13  25
TORSDOF 2
