REMARK  5 active torsions:
REMARK  status: ('A' for Active; 'I' for Inactive)
REMARK    1  A    between atoms: O1_1  and  C1_2 
REMARK    2  A    between atoms: C4_5  and  C5_6 
REMARK    3  A    between atoms: C8_11  and  C9_12 
REMARK    4  A    between atoms: C9_12  and  O2_13 
REMARK    5  A    between atoms: O2_13  and  C10_14 
ROOT
HETATM    1  C5  UNL     1      -1.104  -1.562  -0.643  1.00  0.00     0.078 A 
HETATM    2  N1  UNL     1      -1.694  -2.771  -0.642  1.00  0.00    -0.241 NA
HETATM    3  C6  UNL     1      -1.182  -3.882  -1.196  1.00  0.00     0.233 A 
HETATM    4  N2  UNL     1       0.035  -3.771  -1.809  1.00  0.00    -0.253 NA
HETATM    5  C7  UNL     1       0.651  -2.575  -1.827  1.00  0.00     0.129 A 
HETATM    6  C8  UNL     1       0.118  -1.437  -1.255  1.00  0.00     0.013 A 
ENDROOT
BRANCH   1   7
HETATM    7  C4  UNL     1      -1.801  -0.439  -0.040  1.00  0.00    -0.004 A 
HETATM    8  C3  UNL     1      -1.504   0.548   0.856  1.00  0.00     0.017 A 
HETATM    9  C2  UNL     1      -2.417   1.511   1.217  1.00  0.00     0.040 A 
HETATM   10  C1  UNL     1      -3.683   1.562   0.717  1.00  0.00     0.104 A 
HETATM   11  C15 UNL     1      -4.029   0.591  -0.186  1.00  0.00     0.150 A 
HETATM   12  C14 UNL     1      -3.116  -0.373  -0.549  1.00  0.00     0.059 A 
HETATM   13  F1  UNL     1      -5.296   0.662  -0.669  1.00  0.00    -0.203 F 
BRANCH  10  14
HETATM   14  O1  UNL     1      -4.553   2.557   1.123  1.00  0.00    -0.358 OA
HETATM   15  H1  UNL     1      -5.511   2.624   0.805  1.00  0.00     0.217 HD
ENDBRANCH  10  14
ENDBRANCH   1   7
BRANCH   6  16
HETATM   16  C9  UNL     1       0.961  -0.222  -1.361  1.00  0.00     0.210 C 
BRANCH  16  17
HETATM   17  O2  UNL     1       1.663  -0.083  -0.194  1.00  0.00    -0.379 OA
BRANCH  17  18
HETATM   18  C10 UNL     1       2.513   0.999  -0.155  1.00  0.00     0.147 C 
HETATM   19  C11 UNL     1       2.349   1.768   1.135  1.00  0.00     0.060 C 
HETATM   20  C12 UNL     1       2.984   0.800   2.111  1.00  0.00     0.170 C 
HETATM   21  O3  UNL     1       3.743  -0.093   1.388  1.00  0.00    -0.389 OA
HETATM   22  C13 UNL     1       3.902   0.395   0.111  1.00  0.00     0.199 C 
ENDBRANCH  17  18
ENDBRANCH  16  17
ENDBRANCH   6  16
TORSDOF 5
