REMARK  6 active torsions:
REMARK  status: ('A' for Active; 'I' for Inactive)
REMARK    1  A    between atoms: N1_2  and  C2_3 
REMARK    2  A    between atoms: C4_5  and  O1_6 
REMARK    3  A    between atoms: O1_6  and  C5_7 
REMARK    4  A    between atoms: C11_14  and  C12_15 
REMARK    5  A    between atoms: C12_15  and  N3_17 
REMARK    6  A    between atoms: N3_17  and  C13_18 
ROOT
HETATM    1  C2  UNL     1       0.121   1.761  -1.063  1.00  0.00     0.075 A 
HETATM    2  C3  UNL     1       1.494   1.657  -0.943  1.00  0.00     0.072 A 
HETATM    3  C4  UNL     1       2.129   0.504  -0.460  1.00  0.00     0.107 A 
HETATM    4  C9  UNL     1       1.287  -0.538  -0.105  1.00  0.00     0.136 A 
HETATM    5  C10 UNL     1      -0.079  -0.436  -0.225  1.00  0.00     0.121 A 
HETATM    6  C11 UNL     1      -0.682   0.700  -0.699  1.00  0.00     0.074 A 
HETATM    7  O3  UNL     1      -0.764  -1.558   0.170  1.00  0.00    -0.345 OA
HETATM    8  C19 UNL     1      -0.157  -2.445   1.089  1.00  0.00     0.202 C 
HETATM    9  C20 UNL     1       1.240  -2.803   0.669  1.00  0.00     0.202 C 
HETATM   10  O4  UNL     1       1.984  -1.640   0.361  1.00  0.00    -0.344 OA
ENDROOT
BRANCH   6  11
HETATM   11  C12 UNL     1      -2.136   0.740  -0.801  1.00  0.00     0.136 C 
HETATM   12  N2  UNL     1      -2.884   1.375  -1.640  1.00  0.00    -0.283 NA
HETATM   13  H11 UNL     1      -2.568   1.980  -2.406  1.00  0.00     0.188 HD
BRANCH  11  14
HETATM   14  N3  UNL     1      -2.922  -0.008   0.134  1.00  0.00    -0.341 N 
HETATM   15  H12 UNL     1      -2.532  -0.328   1.071  1.00  0.00     0.167 HD
BRANCH  14  16
HETATM   16  C13 UNL     1      -4.275  -0.404  -0.063  1.00  0.00     0.035 A 
HETATM   17  C14 UNL     1      -5.287   0.464   0.366  1.00  0.00     0.032 A 
HETATM   18  C15 UNL     1      -6.648   0.252   0.259  1.00  0.00     0.046 A 
HETATM   19  C16 UNL     1      -7.033  -0.935  -0.329  1.00  0.00     0.138 A 
HETATM   20  F1  UNL     1      -8.357  -1.194  -0.458  1.00  0.00    -0.204 F 
HETATM   21  C17 UNL     1      -6.076  -1.824  -0.768  1.00  0.00     0.074 A 
HETATM   22 CL1  UNL     1      -6.548  -3.353  -1.526  1.00  0.00    -0.081 Cl
HETATM   23  C18 UNL     1      -4.728  -1.588  -0.650  1.00  0.00     0.056 A 
ENDBRANCH  14  16
ENDBRANCH  11  14
ENDBRANCH   6  11
BRANCH   1  24
HETATM   24  N1  UNL     1      -0.556   2.911  -1.547  1.00  0.00    -0.271 NA
HETATM   25  C1  UNL     1      -0.793   3.922  -0.759  1.00  0.00     0.149 C 
ENDBRANCH   1  24
BRANCH   3  26
HETATM   26  O1  UNL     1       3.474   0.670  -0.446  1.00  0.00    -0.341 OA
BRANCH  26  27
HETATM   27  C5  UNL     1       4.496  -0.175  -0.059  1.00  0.00     0.154 C 
HETATM   28  C6  UNL     1       5.436   0.441   0.956  1.00  0.00     0.061 C 
HETATM   29  C7  UNL     1       6.325   1.261   0.066  1.00  0.00     0.170 C 
HETATM   30  O2  UNL     1       6.581   0.380  -0.975  1.00  0.00    -0.389 OA
HETATM   31  C8  UNL     1       5.432  -0.328  -1.248  1.00  0.00     0.200 C 
ENDBRANCH  26  27
ENDBRANCH   3  26
TORSDOF 6
