REMARK  3 active torsions:
REMARK  status: ('A' for Active; 'I' for Inactive)
REMARK    1  A    between atoms: C4_5  and  N1_6 
REMARK    2  A    between atoms: N1_6  and  C5_7 
REMARK    3  A    between atoms: C14_22  and  C15_23 
ROOT
HETATM    1  C5  UNL     1       1.108  -0.602  -1.528  1.00  0.00     0.144 A 
HETATM    2  N2  UNL     1       1.651  -1.576  -2.213  1.00  0.00    -0.223 NA
HETATM    3  C6  UNL     1       1.175  -2.698  -2.607  1.00  0.00     0.236 A 
HETATM    4  N3  UNL     1      -0.162  -2.861  -2.217  1.00  0.00    -0.241 NA
HETATM    5  C7  UNL     1      -0.622  -1.807  -1.523  1.00  0.00     0.071 A 
HETATM    6  C8  UNL     1      -0.303  -0.640  -1.035  1.00  0.00     0.071 A 
HETATM    7  C9  UNL     1      -0.501   0.446  -0.400  1.00  0.00     0.095 C 
HETATM    8  O1  UNL     1       0.414   1.465  -0.220  1.00  0.00    -0.349 OA
HETATM    9  C10 UNL     1       0.329   2.413   0.828  1.00  0.00     0.201 C 
HETATM   10  C11 UNL     1      -1.083   2.448   1.387  1.00  0.00     0.196 C 
HETATM   11  O2  UNL     1      -1.490   1.170   1.528  1.00  0.00    -0.374 OA
HETATM   12  C12 UNL     1      -1.869   0.565   0.198  1.00  0.00     0.186 A 
HETATM   13  S1  UNL     1      -2.527  -0.848   0.752  1.00  0.00    -0.188 SA
HETATM   14  C13 UNL     1      -3.015  -1.957   1.206  1.00  0.00     0.128 A 
HETATM   15  O3  UNL     1      -3.416  -2.815   1.575  1.00  0.00    -0.365 OA
HETATM   16  C14 UNL     1      -4.273  -1.240   1.953  1.00  0.00     0.209 A 
HETATM   17  C15 UNL     1      -2.526  -0.846   0.751  1.00  0.00     0.103 A 
HETATM   18  O4  UNL     1      -3.958  -1.621  -0.365  1.00  0.00     0.000 OA
HETATM   19  C16 UNL     1      -3.337  -1.047  -1.415  1.00  0.00     0.033 C 
HETATM   20  C17 UNL     1      -1.959  -1.531  -1.540  1.00  0.00     0.006 C 
HETATM   21  H10 UNL     1      -1.558   1.464  -0.235  1.00  0.00     0.139 HD
ENDROOT
BRANCH   1  22
HETATM   22  N1  UNL     1       2.105   0.466  -1.380  1.00  0.00    -0.340 N 
HETATM   23  H3  UNL     1       2.009   1.237  -2.103  1.00  0.00     0.167 HD
BRANCH  22  24
HETATM   24  C4  UNL     1       3.083   0.493  -0.375  1.00  0.00     0.035 A 
HETATM   25  C3  UNL     1       4.041   1.493  -0.486  1.00  0.00     0.032 A 
HETATM   26  C2  UNL     1       5.070   1.643   0.408  1.00  0.00     0.046 A 
HETATM   27  C1  UNL     1       5.203   0.781   1.496  1.00  0.00     0.138 A 
HETATM   28  F1  UNL     1       6.190   0.887   2.408  1.00  0.00    -0.204 F 
HETATM   29  C19 UNL     1       4.248  -0.202   1.596  1.00  0.00     0.074 A 
HETATM   30  C18 UNL     1       3.211  -0.350   0.689  1.00  0.00     0.056 A 
HETATM   31 CL1  UNL     1       4.270  -1.382   2.906  1.00  0.00    -0.081 Cl
ENDBRANCH  22  24
ENDBRANCH   1  22
TORSDOF 3
