REMARK  5 active torsions:
REMARK  status: ('A' for Active; 'I' for Inactive)
REMARK    1  A    between atoms: C2_2  and  C18_25 
REMARK    2  A    between atoms: C3_3  and  N1_4 
REMARK    3  A    between atoms: N1_4  and  C4_5 
REMARK    4  A    between atoms: C8_11  and  O1_12 
REMARK    5  A    between atoms: O1_12  and  C9_13 
ROOT
HETATM    1  C4  UNL     1      -2.006   1.128  -0.527  1.00  0.00     0.144 A 
HETATM    2  N2  UNL     1      -2.360   2.414  -0.738  1.00  0.00    -0.223 NA
HETATM    3  C5  UNL     1      -1.400   3.330  -0.834  1.00  0.00     0.236 A 
HETATM    4  N3  UNL     1      -0.091   2.966  -0.719  1.00  0.00    -0.241 NA
HETATM    5  C6  UNL     1       0.271   1.698  -0.510  1.00  0.00     0.077 A 
HETATM    6  C7  UNL     1       1.601   1.367  -0.400  1.00  0.00     0.072 A 
HETATM    7  C8  UNL     1       2.037   0.077  -0.185  1.00  0.00     0.107 A 
HETATM    8  C13 UNL     1       1.045  -0.908  -0.081  1.00  0.00     0.136 A 
HETATM    9  C14 UNL     1      -0.306  -0.579  -0.191  1.00  0.00     0.121 A 
HETATM   10  C15 UNL     1      -0.693   0.723  -0.406  1.00  0.00     0.075 A 
HETATM   11  O3  UNL     1      -1.290  -1.538  -0.091  1.00  0.00    -0.345 OA
HETATM   12  C16 UNL     1      -0.941  -2.844   0.383  1.00  0.00     0.202 C 
HETATM   13  C17 UNL     1       0.384  -3.206  -0.284  1.00  0.00     0.202 C 
HETATM   14  O4  UNL     1       1.352  -2.253   0.137  1.00  0.00    -0.344 OA
ENDROOT
BRANCH   1  15
HETATM   15  N1  UNL     1      -3.044   0.167  -0.427  1.00  0.00    -0.350 N 
HETATM   16  H5  UNL     1      -3.175  -0.187  -1.413  1.00  0.00     0.166 HD
BRANCH  15  17
HETATM   17  C3  UNL     1      -3.946  -0.484   0.456  1.00  0.00     0.093 C 
HETATM   18  C2  UNL     1      -5.146   0.040   0.638  1.00  0.00    -0.055 C 
HETATM   19  C1  UNL     1      -5.745   1.260   0.046  1.00  0.00     0.046 C 
BRANCH  18  20
HETATM   20  C18 UNL     1      -6.200  -0.510   1.519  1.00  0.00     0.149 C 
HETATM   21 CL1  UNL     1      -6.700   0.596   2.800  1.00  0.00    -0.126 Cl
ENDBRANCH  18  20
ENDBRANCH  15  17
ENDBRANCH   1  15
BRANCH   7  22
HETATM   22  O1  UNL     1       3.332  -0.385  -0.056  1.00  0.00    -0.341 OA
BRANCH  22  23
HETATM   23  C9  UNL     1       4.496   0.405  -0.124  1.00  0.00     0.154 C 
HETATM   24  C10 UNL     1       5.355   0.228   1.136  1.00  0.00     0.061 C 
HETATM   25  C11 UNL     1       6.726   0.474   0.571  1.00  0.00     0.170 C 
HETATM   26  O2  UNL     1       6.731   0.052  -0.733  1.00  0.00    -0.389 OA
HETATM   27  C12 UNL     1       5.447  -0.174  -1.148  1.00  0.00     0.200 C 
ENDBRANCH  22  23
ENDBRANCH   7  22
TORSDOF 5
