REMARK  8 active torsions:
REMARK  status: ('A' for Active; 'I' for Inactive)
REMARK    1  A    between atoms: C2_2  and  C3_3 
REMARK    2  A    between atoms: C3_3  and  C4_4 
REMARK    3  A    between atoms: C3_3  and  C6_7 
REMARK    4  A    between atoms: C4_4  and  O1_5 
REMARK    5  A    between atoms: C6_7  and  C8_9 
REMARK    6  A    between atoms: C11_14  and  C12_15 
REMARK    7  A    between atoms: C15_20  and  N3_21 
REMARK    8  A    between atoms: N3_21  and  C16_22 
ROOT
HETATM    1  C12 UNL     1      -0.411   0.340   1.359  1.00  0.00     0.044 A 
HETATM    2  C13 UNL     1      -0.226   1.061   2.606  1.00  0.00     0.195 A 
HETATM    3  N1  UNL     1      -1.347   1.552   3.248  1.00  0.00    -0.278 NA
HETATM    4  C14 UNL     1      -2.538   1.506   3.121  1.00  0.00     0.229 A 
HETATM    5  N2  UNL     1      -2.740   0.744   1.999  1.00  0.00    -0.224 NA
HETATM    6  C15 UNL     1      -1.885   0.228   1.239  1.00  0.00     0.140 A 
ENDROOT
BRANCH   1   7
HETATM    7  C11 UNL     1      -0.036  -0.205   0.197  1.00  0.00     0.114 C 
HETATM    8  C8  UNL     1       1.271  -0.224  -0.401  1.00  0.00     0.105 C 
HETATM    9  O2  UNL     1       1.612  -0.741  -1.622  1.00  0.00    -0.346 OA
HETATM   10  C9  UNL     1       1.000  -1.896  -2.155  1.00  0.00     0.202 C 
HETATM   11  C10 UNL     1      -0.194  -2.152  -1.262  1.00  0.00     0.202 C 
HETATM   12  O3  UNL     1      -0.641  -0.876  -0.844  1.00  0.00    -0.345 OA
BRANCH   8  13
HETATM   13  C6  UNL     1       2.390   0.260   0.095  1.00  0.00    -0.041 C 
HETATM   14  C7  UNL     1       2.484   0.326   1.569  1.00  0.00     0.047 C 
BRANCH  13  15
HETATM   15  C3  UNL     1       3.787   0.461  -0.201  1.00  0.00     0.040 C 
BRANCH  15  16
HETATM   16  C2  UNL     1       4.090   0.116  -1.678  1.00  0.00     0.007 C 
HETATM   17  C1  UNL     1       4.280  -1.325  -1.938  1.00  0.00     0.006 C 
ENDBRANCH  15  16
BRANCH  15  18
HETATM   18  C4  UNL     1       4.881  -0.040   0.649  1.00  0.00     0.176 C 
BRANCH  18  19
HETATM   19  O1  UNL     1       6.081   0.526   0.180  1.00  0.00    -0.395 OA
HETATM   20  C5  UNL     1       6.162   1.876   0.227  1.00  0.00     0.201 C 
ENDBRANCH  18  19
ENDBRANCH  15  18
ENDBRANCH  13  15
ENDBRANCH   8  13
ENDBRANCH   1   7
BRANCH   6  21
HETATM   21  N3  UNL     1      -2.749  -0.514   0.291  1.00  0.00    -0.340 N 
HETATM   22  H22 UNL     1      -2.377  -1.496   0.129  1.00  0.00     0.167 HD
BRANCH  21  23
HETATM   23  C16 UNL     1      -3.967  -0.088  -0.376  1.00  0.00     0.034 A 
HETATM   24  C17 UNL     1      -4.074   0.564  -1.588  1.00  0.00     0.029 A 
HETATM   25  C18 UNL     1      -5.334   0.877  -2.045  1.00  0.00     0.003 A 
HETATM   26  C19 UNL     1      -6.471   0.563  -1.338  1.00  0.00     0.007 A 
HETATM   27  C20 UNL     1      -6.397  -0.096  -0.109  1.00  0.00    -0.060 A 
HETATM   28  C21 UNL     1      -7.615  -0.441   0.662  1.00  0.00     0.048 C 
HETATM   29  C22 UNL     1      -5.111  -0.408   0.343  1.00  0.00     0.036 A 
ENDBRANCH  21  23
ENDBRANCH   6  21
TORSDOF 8
