REMARK  6 active torsions:
REMARK  status: ('A' for Active; 'I' for Inactive)
REMARK    1  A    between atoms: C7_7  and  N1_8 
REMARK    2  A    between atoms: N1_8  and  C8_9 
REMARK    3  A    between atoms: C12_15  and  O1_16 
REMARK    4  A    between atoms: O1_16  and  C13_17 
REMARK    5  A    between atoms: C13_17  and  C15_19 
REMARK    6  A    between atoms: C15_19  and  O2_20 
ROOT
HETATM    1  C1  UNL     1       7.718   2.273   0.480  1.00  0.00     0.018 C 
HETATM    2  C2  UNL     1       7.077   1.253   0.360  1.00  0.00    -0.078 C 
HETATM    3  C3  UNL     1       6.306   0.052   0.212  1.00  0.00     0.019 A 
HETATM    4  C4  UNL     1       7.025  -1.120   0.267  1.00  0.00     0.021 A 
HETATM    5  C5  UNL     1       6.361  -2.318   0.134  1.00  0.00     0.004 A 
HETATM    6  C6  UNL     1       5.001  -2.291  -0.050  1.00  0.00     0.029 A 
HETATM    7  C7  UNL     1       4.210  -1.162  -0.117  1.00  0.00     0.035 A 
HETATM    8  C22 UNL     1       4.949   0.019   0.026  1.00  0.00     0.050 A 
ENDROOT
BRANCH   7   9
HETATM    9  N1  UNL     1       2.802  -1.097  -0.327  1.00  0.00    -0.340 N 
HETATM   10  H5  UNL     1       2.668  -1.869  -1.002  1.00  0.00     0.167 HD
BRANCH   9  11
HETATM   11  C8  UNL     1       2.034  -0.120   0.349  1.00  0.00     0.144 A 
HETATM   12  N2  UNL     1       2.649   0.661   1.240  1.00  0.00    -0.223 NA
HETATM   13  C9  UNL     1       2.025   1.618   1.940  1.00  0.00     0.236 A 
HETATM   14  N3  UNL     1       0.709   1.819   1.751  1.00  0.00    -0.241 NA
HETATM   15  C10 UNL     1       0.013   1.077   0.874  1.00  0.00     0.077 A 
HETATM   16  C11 UNL     1      -1.333   1.286   0.682  1.00  0.00     0.072 A 
HETATM   17  C19 UNL     1       0.693   0.113   0.182  1.00  0.00     0.075 A 
HETATM   18  C12 UNL     1      -2.043   0.523  -0.221  1.00  0.00     0.107 A 
HETATM   19  C17 UNL     1      -1.349  -0.467  -0.932  1.00  0.00     0.136 A 
HETATM   20  C18 UNL     1       0.008  -0.663  -0.726  1.00  0.00     0.121 A 
HETATM   21  O4  UNL     1      -1.935  -1.313  -1.875  1.00  0.00    -0.344 OA
HETATM   22  O3  UNL     1       0.571  -1.666  -1.489  1.00  0.00    -0.345 OA
HETATM   23  C20 UNL     1      -0.091  -2.903  -1.756  1.00  0.00     0.202 C 
HETATM   24  C21 UNL     1      -1.586  -2.707  -1.832  1.00  0.00     0.202 C 
BRANCH  18  25
HETATM   25  O1  UNL     1      -3.389   0.670  -0.470  1.00  0.00    -0.341 OA
BRANCH  25  26
HETATM   26  C13 UNL     1      -4.278   1.567   0.103  1.00  0.00     0.148 C 
HETATM   27  C14 UNL     1      -4.870   2.521  -0.936  1.00  0.00     0.042 C 
BRANCH  26  28
HETATM   28  C15 UNL     1      -5.397   0.803   0.806  1.00  0.00     0.199 C 
BRANCH  28  29
HETATM   29  O2  UNL     1      -6.298   1.713   1.386  1.00  0.00    -0.393 OA
HETATM   30  C16 UNL     1      -7.296   0.980   2.013  1.00  0.00     0.201 C 
ENDBRANCH  28  29
ENDBRANCH  26  28
ENDBRANCH  25  26
ENDBRANCH  18  25
ENDBRANCH   9  11
ENDBRANCH   7   9
TORSDOF 6
