REMARK  2 active torsions:
REMARK  status: ('A' for Active; 'I' for Inactive)
REMARK    1  A    between atoms: C7_7  and  N1_8 
REMARK    2  A    between atoms: N1_8  and  C8_9 
ROOT
HETATM    1  C1  UNL     1       6.016   3.005  -0.023  1.00  0.00     0.018 C 
HETATM    2  C2  UNL     1       5.294   2.042   0.034  1.00  0.00    -0.078 C 
HETATM    3  C3  UNL     1       4.441   0.893   0.120  1.00  0.00     0.019 A 
HETATM    4  C4  UNL     1       5.006  -0.357   0.244  1.00  0.00     0.021 A 
HETATM    5  C5  UNL     1       4.161  -1.442   0.326  1.00  0.00     0.004 A 
HETATM    6  C6  UNL     1       2.806  -1.232   0.281  1.00  0.00     0.029 A 
HETATM    7  C7  UNL     1       2.186  -0.019   0.159  1.00  0.00     0.035 A 
HETATM    8  C17 UNL     1       3.071   1.035   0.081  1.00  0.00     0.050 A 
ENDROOT
BRANCH   7   9
HETATM    9  N1  UNL     1       0.816   0.305   0.096  1.00  0.00    -0.340 N 
HETATM   10  H5  UNL     1       0.487   1.282   0.025  1.00  0.00     0.167 HD
BRANCH   9  11
HETATM   11  C8  UNL     1      -0.247  -0.621   0.123  1.00  0.00     0.138 C 
HETATM   12  N2  UNL     1      -0.044  -1.874  -0.073  1.00  0.00    -0.224 NA
HETATM   13  C9  UNL     1      -1.080  -2.841  -0.041  1.00  0.00     0.230 C 
HETATM   14  N3  UNL     1      -2.336  -2.566   0.208  1.00  0.00    -0.268 NA
HETATM   15  C10 UNL     1      -2.738  -1.212   0.485  1.00  0.00     0.177 C 
HETATM   16  C11 UNL     1      -1.648  -0.241   0.229  1.00  0.00     0.014 C 
HETATM   17  C16 UNL     1      -3.813  -0.671  -0.344  1.00  0.00    -0.019 C 
HETATM   18  C12 UNL     1      -2.265   0.949   0.125  1.00  0.00    -0.002 C 
HETATM   19  C13 UNL     1      -3.728   0.689   0.325  1.00  0.00     0.066 C 
HETATM   20  C14 UNL     1      -4.601   1.569  -0.527  1.00  0.00     0.187 C 
HETATM   21  O1  UNL     1      -5.311   0.610  -1.276  1.00  0.00    -0.362 OA
HETATM   22  C15 UNL     1      -4.758  -0.633  -1.260  1.00  0.00     0.140 C 
ENDBRANCH   9  11
ENDBRANCH   7   9
TORSDOF 2
