REMARK  5 active torsions:
REMARK  status: ('A' for Active; 'I' for Inactive)
REMARK    1  A    between atoms: C7_7  and  C8_8 
REMARK    2  A    between atoms: C11_13  and  O1_14 
REMARK    3  A    between atoms: O1_14  and  C12_15 
REMARK    4  A    between atoms: C12_15  and  C14_17 
REMARK    5  A    between atoms: C14_17  and  O2_18 
ROOT
HETATM    1  C1  UNL     1      -7.510   1.395  -3.529  1.00  0.00     0.018 C 
HETATM    2  C2  UNL     1      -6.744   1.228  -2.614  1.00  0.00    -0.078 C 
HETATM    3  C3  UNL     1      -5.825   1.012  -1.539  1.00  0.00     0.017 A 
HETATM    4  C4  UNL     1      -6.225   1.268  -0.239  1.00  0.00     0.020 A 
HETATM    5  C5  UNL     1      -5.401   1.105   0.881  1.00  0.00     0.002 A 
HETATM    6  C6  UNL     1      -4.151   0.664   0.558  1.00  0.00     0.013 A 
HETATM    7  C7  UNL     1      -3.636   0.375  -0.677  1.00  0.00    -0.009 A 
HETATM    8  C21 UNL     1      -4.537   0.574  -1.705  1.00  0.00     0.034 A 
ENDROOT
BRANCH   7   9
HETATM    9  C8  UNL     1      -2.319  -0.077  -1.064  1.00  0.00     0.059 C 
HETATM   10  N1  UNL     1      -2.065  -0.292  -2.360  1.00  0.00    -0.234 NA
HETATM   11  C9  UNL     1      -0.688  -0.733  -2.536  1.00  0.00     0.292 C 
HETATM   12  N2  UNL     1       0.368  -1.123  -2.218  1.00  0.00    -0.435 NA
HETATM   13  C10 UNL     1       1.503  -1.572  -1.636  1.00  0.00     0.286 C 
HETATM   14  C11 UNL     1       1.585  -1.450  -0.145  1.00  0.00     0.112 C 
HETATM   15  C16 UNL     1       0.878  -1.064   0.924  1.00  0.00     0.130 C 
HETATM   16  O3  UNL     1       1.382  -1.117   2.196  1.00  0.00    -0.344 OA
HETATM   17  C19 UNL     1      -0.518  -0.527   0.995  1.00  0.00     0.093 C 
HETATM   18  C17 UNL     1       1.132  -0.063   3.117  1.00  0.00     0.202 C 
HETATM   19  C18 UNL     1      -0.327   0.192   3.309  1.00  0.00     0.202 C 
HETATM   20  O4  UNL     1      -1.101  -0.175   2.178  1.00  0.00    -0.350 OA
HETATM   21  C20 UNL     1      -1.472  -0.256   0.199  1.00  0.00     0.115 C 
BRANCH  14  22
HETATM   22  O1  UNL     1       2.867  -1.917   0.185  1.00  0.00    -0.343 OA
BRANCH  22  23
HETATM   23  C12 UNL     1       3.872  -1.113   0.748  1.00  0.00     0.148 C 
HETATM   24  C13 UNL     1       5.153  -1.903   0.833  1.00  0.00     0.042 C 
BRANCH  23  25
HETATM   25  C14 UNL     1       4.125   0.122  -0.089  1.00  0.00     0.199 C 
BRANCH  25  26
HETATM   26  O2  UNL     1       5.129   0.895   0.478  1.00  0.00    -0.393 OA
HETATM   27  C15 UNL     1       5.337   2.022  -0.306  1.00  0.00     0.201 C 
ENDBRANCH  25  26
ENDBRANCH  23  25
ENDBRANCH  22  23
ENDBRANCH  14  22
ENDBRANCH   7   9
TORSDOF 5
