REMARK  12 active torsions:
REMARK  status: ('A' for Active; 'I' for Inactive)
REMARK    1  A    between atoms: O1_2  and  C2_3 
REMARK    2  A    between atoms: C2_3  and  C3_4 
REMARK    3  A    between atoms: C3_4  and  O2_6 
REMARK    4  A    between atoms: O2_6  and  C5_7 
REMARK    5  A    between atoms: C7_9  and  N1_10 
REMARK    6  A    between atoms: N1_10  and  C8_11 
REMARK    7  A    between atoms: C8_11  and  N2_12 
REMARK    8  A    between atoms: N2_12  and  C9_13 
REMARK    9  A    between atoms: C15_22  and  O3_23 
REMARK   10  A    between atoms: O3_23  and  C16_24 
REMARK   11  A    between atoms: C16_24  and  C17_25 
REMARK   12  A    between atoms: C17_25  and  O4_26 
ROOT
HETATM    1  C5  UNL     1      -1.853   0.488  -0.523  1.00  0.00     0.081 A 
HETATM    2  C6  UNL     1      -0.615   0.120  -0.041  1.00  0.00     0.078 A 
HETATM    3  C7  UNL     1       0.235   1.195   0.091  1.00  0.00     0.108 A 
HETATM    4  N3  UNL     1      -0.459   2.270  -0.309  1.00  0.00    -0.206 NA
HETATM    5  C15 UNL     1      -1.395   3.214  -0.773  1.00  0.00     0.202 A 
HETATM    6  C18 UNL     1      -1.749   1.863  -0.693  1.00  0.00     0.152 A 
ENDROOT
BRANCH   3   7
HETATM    7  N1  UNL     1       1.454   1.185   0.513  1.00  0.00    -0.258 NA
BRANCH   7   8
HETATM    8  C8  UNL     1       2.017  -0.108   0.901  1.00  0.00     0.272 C 
BRANCH   8   9
HETATM    9  N2  UNL     1       3.456  -0.028   0.922  1.00  0.00    -0.372 N 
HETATM   10  H13 UNL     1       3.970   0.846   0.687  1.00  0.00     0.161 HD
BRANCH   9  11
HETATM   11  C9  UNL     1       4.204  -1.186   1.278  1.00  0.00     0.031 A 
HETATM   12  C10 UNL     1       3.570  -2.368   1.598  1.00  0.00     0.032 A 
HETATM   13  C11 UNL     1       4.258  -3.519   1.950  1.00  0.00     0.046 A 
HETATM   14  C12 UNL     1       5.652  -3.464   1.977  1.00  0.00     0.138 A 
HETATM   15  F1  UNL     1       6.387  -4.559   2.314  1.00  0.00    -0.204 F 
HETATM   16  C13 UNL     1       6.330  -2.299   1.662  1.00  0.00     0.074 A 
HETATM   17 CL1  UNL     1       8.098  -2.262   1.705  1.00  0.00    -0.081 Cl
HETATM   18  C14 UNL     1       5.583  -1.173   1.316  1.00  0.00     0.056 A 
ENDBRANCH   9  11
ENDBRANCH   8   9
ENDBRANCH   7   8
ENDBRANCH   3   7
BRANCH   1  19
HETATM   19  O2  UNL     1      -3.023  -0.149  -0.831  1.00  0.00    -0.346 OA
BRANCH  19  20
HETATM   20  C3  UNL     1      -3.053  -1.587  -0.627  1.00  0.00     0.148 C 
HETATM   21  C4  UNL     1      -4.088  -1.782   0.445  1.00  0.00     0.042 C 
BRANCH  20  22
HETATM   22  C2  UNL     1      -3.390  -2.173  -1.957  1.00  0.00     0.199 C 
BRANCH  22  23
HETATM   23  O1  UNL     1      -3.421  -3.526  -2.083  1.00  0.00    -0.393 OA
HETATM   24  C1  UNL     1      -4.266  -4.277  -1.350  1.00  0.00     0.201 C 
ENDBRANCH  22  23
ENDBRANCH  20  22
ENDBRANCH  19  20
ENDBRANCH   1  19
BRANCH   5  25
HETATM   25  O3  UNL     1      -1.552   4.552  -1.027  1.00  0.00    -0.356 OA
BRANCH  25  26
HETATM   26  C16 UNL     1      -0.553   5.517  -0.827  1.00  0.00     0.196 C 
BRANCH  26  27
HETATM   27  C17 UNL     1      -1.065   6.908  -1.212  1.00  0.00     0.190 C 
BRANCH  27  28
HETATM   28  O4  UNL     1      -1.420   6.865  -2.553  1.00  0.00    -0.399 OA
HETATM   29  H21 UNL     1      -0.919   7.480  -3.123  1.00  0.00     0.209 HD
ENDBRANCH  27  28
ENDBRANCH  26  27
ENDBRANCH  25  26
ENDBRANCH   5  25
TORSDOF 12
