REMARK  4 active torsions:
REMARK  status: ('A' for Active; 'I' for Inactive)
REMARK    1  A    between atoms: O1_2  and  C2_3 
REMARK    2  A    between atoms: C2_3  and  C3_4 
REMARK    3  A    between atoms: C7_10  and  N2_11 
REMARK    4  A    between atoms: N2_11  and  C8_12 
ROOT
HETATM    1  C3  UNL     1       2.830   0.285  -0.817  1.00  0.00     0.206 C 
HETATM    2  O2  UNL     1       2.285   1.532  -0.882  1.00  0.00    -0.362 OA
HETATM    3  C4  UNL     1       1.023   1.663  -1.351  1.00  0.00     0.200 C 
HETATM    4  C5  UNL     1       0.866   1.820  -2.808  1.00  0.00     0.120 C 
HETATM    5  N1  UNL     1      -0.382   1.894  -3.165  1.00  0.00    -0.297 NA
HETATM    6  C6  UNL     1      -1.433   1.820  -2.158  1.00  0.00     0.205 C 
HETATM    7  C7  UNL     1      -1.148   0.594  -1.339  1.00  0.00     0.041 C 
HETATM    8  C14 UNL     1       0.115   0.545  -0.943  1.00  0.00     0.036 C 
HETATM    9  C15 UNL     1       0.707  -0.509  -0.137  1.00  0.00     0.112 C 
HETATM   10  C16 UNL     1       2.024  -0.685  -0.037  1.00  0.00     0.111 C 
HETATM   11  O3  UNL     1       2.433  -1.722   0.761  1.00  0.00    -0.348 OA
HETATM   12  C17 UNL     1       1.654  -2.873   1.032  1.00  0.00     0.202 C 
HETATM   13  C18 UNL     1       0.182  -2.627   1.001  1.00  0.00     0.202 C 
HETATM   14  O4  UNL     1      -0.195  -1.348   0.544  1.00  0.00    -0.346 OA
ENDROOT
BRANCH   7  15
HETATM   15  N2  UNL     1      -2.001  -0.488  -0.936  1.00  0.00    -0.358 N 
HETATM   16  H11 UNL     1      -1.766  -1.489  -1.181  1.00  0.00     0.166 HD
BRANCH  15  17
HETATM   17  C8  UNL     1      -3.222  -0.362  -0.187  1.00  0.00     0.034 A 
HETATM   18  C9  UNL     1      -4.033  -1.426   0.191  1.00  0.00     0.032 A 
HETATM   19  C10 UNL     1      -5.174  -1.161   0.907  1.00  0.00     0.046 A 
HETATM   20  C11 UNL     1      -5.579   0.094   1.280  1.00  0.00     0.138 A 
HETATM   21  F1  UNL     1      -6.713   0.290   1.983  1.00  0.00    -0.204 F 
HETATM   22  C12 UNL     1      -4.776   1.160   0.905  1.00  0.00     0.074 A 
HETATM   23 CL1  UNL     1      -5.305   2.749   1.388  1.00  0.00    -0.081 Cl
HETATM   24  C13 UNL     1      -3.624   0.905   0.185  1.00  0.00     0.056 A 
ENDBRANCH  15  17
ENDBRANCH   7  15
BRANCH   1  25
HETATM   25  C2  UNL     1       4.173   0.419  -0.085  1.00  0.00     0.205 C 
BRANCH  25  26
HETATM   26  O1  UNL     1       3.957   0.933   1.206  1.00  0.00    -0.393 OA
HETATM   27  C1  UNL     1       5.151   1.072   1.909  1.00  0.00     0.201 C 
ENDBRANCH  25  26
ENDBRANCH   1  25
TORSDOF 4
