REMARK  7 active torsions:
REMARK  status: ('A' for Active; 'I' for Inactive)
REMARK    1  A    between atoms: C2_2  and  C3_3 
REMARK    2  A    between atoms: C2_2  and  C4_5 
REMARK    3  A    between atoms: C3_3  and  O1_4 
REMARK    4  A    between atoms: C13_19  and  O2_20 
REMARK    5  A    between atoms: O2_20  and  C14_21 
REMARK    6  A    between atoms: C14_21  and  C15_22 
REMARK    7  A    between atoms: C15_22  and  O3_23 
ROOT
HETATM    1  C4  UNL     1      -1.316  -0.641  -0.489  1.00  0.00    -0.040 C 
HETATM    2  C5  UNL     1      -0.870  -1.685   0.164  1.00  0.00     0.027 C 
HETATM    3  C6  UNL     1      -0.041  -2.106   1.267  1.00  0.00     0.137 C 
HETATM    4  N1  UNL     1       0.500  -2.990   2.034  1.00  0.00    -0.206 NA
HETATM    5  N2  UNL     1       1.356  -2.631   3.107  1.00  0.00    -0.342 N 
HETATM    6  B1  UNL     1       2.296  -1.258   2.766  1.00  0.00     0.454 B 
HETATM    7  N3  UNL     1       3.710  -1.221   1.867  1.00  0.00    -0.366 NA
HETATM    8  C7  UNL     1       4.342   0.089   1.711  1.00  0.00     0.149 C 
HETATM    9  C8  UNL     1       3.968   0.786   0.452  1.00  0.00    -0.011 C 
HETATM   10  C9  UNL     1       4.035   1.414  -0.748  1.00  0.00    -0.022 C 
HETATM   11  C10 UNL     1       2.868   1.948  -1.577  1.00  0.00     0.097 C 
HETATM   12  C11 UNL     1       1.604   1.643  -0.826  1.00  0.00     0.096 C 
HETATM   13  F1  UNL     1       1.322   2.232   0.359  1.00  0.00    -0.211 F 
HETATM   14  C12 UNL     1       0.459   1.003  -0.780  1.00  0.00     0.047 C 
HETATM   15  C13 UNL     1      -0.813   0.681  -0.041  1.00  0.00     0.176 C 
HETATM   16  H10 UNL     1       1.145  -3.354   3.830  1.00  0.00     0.162 HD
ENDROOT
BRANCH   1  17
HETATM   17  C2  UNL     1      -2.188  -0.980  -1.607  1.00  0.00     0.037 C 
HETATM   18  C1  UNL     1      -2.514  -2.429  -1.746  1.00  0.00     0.017 C 
BRANCH  17  19
HETATM   19  C3  UNL     1      -1.710  -0.516  -2.959  1.00  0.00     0.172 C 
BRANCH  19  20
HETATM   20  O1  UNL     1      -0.596  -1.179  -3.416  1.00  0.00    -0.400 OA
HETATM   21  H7  UNL     1      -0.736  -1.631  -4.294  1.00  0.00     0.209 HD
ENDBRANCH  19  20
ENDBRANCH  17  19
ENDBRANCH   1  17
BRANCH  15  22
HETATM   22  O2  UNL     1      -1.782   1.634  -0.241  1.00  0.00    -0.376 OA
BRANCH  22  23
HETATM   23  C14 UNL     1      -2.266   2.251   0.877  1.00  0.00     0.195 C 
BRANCH  23  24
HETATM   24  C15 UNL     1      -2.919   1.276   1.802  1.00  0.00     0.190 C 
BRANCH  24  25
HETATM   25  O3  UNL     1      -3.375   2.017   2.905  1.00  0.00    -0.399 OA
HETATM   26  H23 UNL     1      -3.459   2.982   2.691  1.00  0.00     0.209 HD
ENDBRANCH  24  25
ENDBRANCH  23  24
ENDBRANCH  22  23
ENDBRANCH  15  22
TORSDOF 7
