REMARK  5 active torsions:
REMARK  status: ('A' for Active; 'I' for Inactive)
REMARK    1  A    between atoms: C2_2  and  O1_3 
REMARK    2  A    between atoms: C2_2  and  O2_4 
REMARK    3  A    between atoms: O2_4  and  C3_5 
REMARK    4  A    between atoms: C6_11  and  N3_12 
REMARK    5  A    between atoms: N3_12  and  C7_13 
ROOT
HETATM    1  C3  UNL     1      -2.746   0.771  -1.005  1.00  0.00     0.122 A 
HETATM    2  P1  UNL     1      -1.832   1.069  -2.475  1.00  0.00     0.042 P 
HETATM    3  C4  UNL     1      -0.109   0.802  -2.263  1.00  0.00     0.090 A 
HETATM    4  N1  UNL     1       0.775   0.970  -3.261  1.00  0.00    -0.240 NA
HETATM    5  C5  UNL     1       2.086   0.753  -3.060  1.00  0.00     0.236 A 
HETATM    6  N2  UNL     1       2.450   0.369  -1.835  1.00  0.00    -0.223 NA
HETATM    7  C6  UNL     1       1.601   0.191  -0.816  1.00  0.00     0.145 A 
HETATM    8  C13 UNL     1       0.253   0.407  -0.994  1.00  0.00     0.076 A 
HETATM    9  C14 UNL     1      -0.621   0.214   0.079  1.00  0.00     0.121 A 
HETATM   10  C15 UNL     1      -1.978   0.383   0.060  1.00  0.00     0.138 A 
HETATM   11  O3  UNL     1      -2.740   0.160   1.199  1.00  0.00    -0.343 OA
HETATM   12  C16 UNL     1      -2.370  -0.800   2.203  1.00  0.00     0.202 C 
HETATM   13  C17 UNL     1      -0.911  -1.166   2.056  1.00  0.00     0.202 C 
HETATM   14  O4  UNL     1      -0.212  -0.182   1.333  1.00  0.00    -0.345 OA
ENDROOT
BRANCH   7  15
HETATM   15  N3  UNL     1       2.177  -0.229   0.410  1.00  0.00    -0.340 N 
HETATM   16  H7  UNL     1       1.922  -0.489   1.378  1.00  0.00     0.167 HD
BRANCH  15  17
HETATM   17  C7  UNL     1       3.601  -0.392   0.512  1.00  0.00     0.035 A 
HETATM   18  C8  UNL     1       4.300  -1.384   1.168  1.00  0.00     0.032 A 
HETATM   19  C9  UNL     1       5.669  -1.472   1.239  1.00  0.00     0.046 A 
HETATM   20  C10 UNL     1       6.426  -0.506   0.615  1.00  0.00     0.138 A 
HETATM   21  F1  UNL     1       7.765  -0.678   0.740  1.00  0.00    -0.204 F 
HETATM   22  C11 UNL     1       5.797   0.514  -0.057  1.00  0.00     0.074 A 
HETATM   23 CL1  UNL     1       6.872   1.670  -0.803  1.00  0.00    -0.081 Cl
HETATM   24  C12 UNL     1       4.413   0.564  -0.103  1.00  0.00     0.056 A 
ENDBRANCH  15  17
ENDBRANCH   7  15
BRANCH   1  25
HETATM   25  O2  UNL     1      -4.079   0.990  -1.213  1.00  0.00    -0.317 OA
BRANCH  25  26
HETATM   26  C2  UNL     1      -5.172   0.889  -0.388  1.00  0.00     0.259 C 
HETATM   27  C1  UNL     1      -6.248   0.002  -0.989  1.00  0.00     0.071 C 
BRANCH  26  28
HETATM   28  O1  UNL     1      -5.740   2.178  -0.241  1.00  0.00    -0.371 OA
HETATM   29  H5  UNL     1      -6.589   2.151   0.279  1.00  0.00     0.212 HD
ENDBRANCH  26  28
ENDBRANCH  25  26
ENDBRANCH   1  25
TORSDOF 5
