REMARK  5 active torsions:
REMARK  status: ('A' for Active; 'I' for Inactive)
REMARK    1  A    between atoms: C2_2  and  O1_3 
REMARK    2  A    between atoms: O1_3  and  C3_4 
REMARK    3  A    between atoms: C3_4  and  C5_6 
REMARK    4  A    between atoms: C9_12  and  N3_13 
REMARK    5  A    between atoms: C16_21  and  O2_22 
ROOT
HETATM    1  C5  UNL     1       2.769   1.160   0.318  1.00  0.00     0.009 A 
HETATM    2  C6  UNL     1       2.231   2.280  -0.285  1.00  0.00     0.045 A 
HETATM    3  C7  UNL     1       0.882   2.349  -0.552  1.00  0.00     0.075 A 
HETATM    4  N1  UNL     1       0.306   3.392  -1.136  1.00  0.00    -0.241 NA
HETATM    5  C8  UNL     1      -1.016   3.403  -1.379  1.00  0.00     0.236 A 
HETATM    6  N2  UNL     1      -1.759   2.342  -1.024  1.00  0.00    -0.223 NA
HETATM    7  C9  UNL     1      -1.216   1.243  -0.420  1.00  0.00     0.148 A 
HETATM    8  C17 UNL     1       0.121   1.260  -0.189  1.00  0.00     0.075 A 
HETATM    9  C18 UNL     1       0.626   0.147   0.405  1.00  0.00     0.119 A 
HETATM   10  C19 UNL     1       1.972   0.090   0.666  1.00  0.00     0.112 A 
HETATM   11  O3  UNL     1       2.603  -0.988   1.268  1.00  0.00    -0.345 OA
HETATM   12  C20 UNL     1       1.717  -1.900   1.935  1.00  0.00     0.202 C 
HETATM   13  C21 UNL     1       0.489  -2.148   1.074  1.00  0.00     0.202 C 
HETATM   14  O4  UNL     1      -0.162  -0.933   0.756  1.00  0.00    -0.345 OA
ENDROOT
BRANCH   7  15
HETATM   15  N3  UNL     1      -2.223   0.258  -0.095  1.00  0.00    -0.308 N 
HETATM   16  C10 UNL     1      -2.570  -0.385  -1.347  1.00  0.00     0.120 C 
HETATM   17  C11 UNL     1      -3.700  -0.965  -1.808  1.00  0.00     0.021 C 
HETATM   18  C12 UNL     1      -3.855  -1.588  -3.169  1.00  0.00     0.069 C 
HETATM   19  N4  UNL     1      -4.930  -1.061  -1.051  1.00  0.00    -0.363 N 
HETATM   20  C13 UNL     1      -5.250  -0.318   0.145  1.00  0.00     0.005 C 
HETATM   21  H16 UNL     1      -5.716  -1.714  -1.339  1.00  0.00     0.165 HD
HETATM   22  C14 UNL     1      -6.697   0.044   0.346  1.00  0.00     0.068 C 
HETATM   23  C15 UNL     1      -4.373   0.057   1.062  1.00  0.00     0.051 C 
HETATM   24  C16 UNL     1      -2.876  -0.160   1.138  1.00  0.00     0.252 C 
BRANCH  24  25
HETATM   25  O2  UNL     1      -2.385   0.579   2.211  1.00  0.00    -0.373 OA
HETATM   26  H22 UNL     1      -2.403   0.053   3.066  1.00  0.00     0.212 HD
ENDBRANCH  24  25
ENDBRANCH   7  15
BRANCH   1  27
HETATM   27  C3  UNL     1       4.225   1.137   0.583  1.00  0.00     0.153 C 
HETATM   28  C4  UNL     1       4.615   1.682   1.912  1.00  0.00     0.045 C 
BRANCH  27  29
HETATM   29  O1  UNL     1       4.674  -0.154   0.375  1.00  0.00    -0.382 OA
BRANCH  29  30
HETATM   30  C2  UNL     1       5.560  -0.260  -0.683  1.00  0.00     0.164 C 
HETATM   31  C1  UNL     1       5.961  -1.723  -0.787  1.00  0.00     0.033 C 
ENDBRANCH  29  30
ENDBRANCH  27  29
ENDBRANCH   1  27
TORSDOF 5
