REMARK  3 active torsions:
REMARK  status: ('A' for Active; 'I' for Inactive)
REMARK    1  A    between atoms: C1_2  and  O2_3 
REMARK    2  A    between atoms: C1_2  and  C2_4 
REMARK    3  A    between atoms: C10_13  and  N2_14 
ROOT
HETATM    1  C2  UNL     1       3.075  -0.415  -0.239  1.00  0.00     0.038 A 
HETATM    2  C3  UNL     1       2.703  -1.448  -1.076  1.00  0.00     0.021 A 
HETATM    3  C4  UNL     1       1.386  -1.857  -1.076  1.00  0.00     0.039 A 
HETATM    4  C5  UNL     1       0.436  -1.261  -0.264  1.00  0.00     0.086 A 
HETATM    5  C6  UNL     1       0.853  -0.217   0.569  1.00  0.00    -0.006 A 
HETATM    6  C7  UNL     1       2.165   0.210   0.587  1.00  0.00     0.029 A 
HETATM    7  C8  UNL     1      -0.019   0.539   1.506  1.00  0.00     0.161 C 
HETATM    8  N1  UNL     1      -1.209   1.055   0.830  1.00  0.00    -0.379 N 
HETATM    9  C9  UNL     1      -2.217   0.244   0.218  1.00  0.00     0.129 A 
HETATM   10  C10 UNL     1      -3.460   0.828   0.192  1.00  0.00     0.170 A 
HETATM   11  N3  UNL     1      -4.495   0.179  -0.351  1.00  0.00    -0.221 NA
HETATM   12  C11 UNL     1      -4.310  -1.059  -0.875  1.00  0.00     0.238 A 
HETATM   13  N4  UNL     1      -3.092  -1.636  -0.852  1.00  0.00    -0.215 NA
HETATM   14  C12 UNL     1      -2.015  -1.031  -0.320  1.00  0.00     0.202 A 
HETATM   15  O3  UNL     1      -0.837  -1.800  -0.394  1.00  0.00    -0.289 OA
HETATM   16  H7  UNL     1      -1.408   2.075   0.748  1.00  0.00     0.160 HD
ENDROOT
BRANCH   1  17
HETATM   17  C1  UNL     1       4.427   0.126  -0.130  1.00  0.00     0.176 C 
HETATM   18  O1  UNL     1       4.799   1.081   0.635  1.00  0.00    -0.646 OA
BRANCH  17  19
HETATM   19  O2  UNL     1       5.606  -0.214  -0.774  1.00  0.00    -0.773 OA
HETATM   20  H1  UNL     1       6.155   0.421  -1.360  1.00  0.00     0.167 HD
ENDBRANCH  17  19
ENDBRANCH   1  17
BRANCH  10  21
HETATM   21  N2  UNL     1      -3.575   2.125   0.758  1.00  0.00    -0.281 N 
HETATM   22 CL1  UNL     1      -3.259   3.119  -0.655  1.00  0.00     0.012 Cl
HETATM   23  H8  UNL     1      -3.767   2.614   1.652  1.00  0.00     0.182 HD
ENDBRANCH  10  21
TORSDOF 3
