REMARK  5 active torsions:
REMARK  status: ('A' for Active; 'I' for Inactive)
REMARK    1  A    between atoms: O1_2  and  C2_3 
REMARK    2  A    between atoms: C2_3  and  C3_4 
REMARK    3  A    between atoms: C3_4  and  C4_5 
REMARK    4  A    between atoms: C8_11  and  N3_12 
REMARK    5  A    between atoms: N3_12  and  C9_13 
ROOT
HETATM    1  C4  UNL     1      -2.615  -0.178   0.586  1.00  0.00    -0.018 A 
HETATM    2  C5  UNL     1      -2.167   1.052   0.153  1.00  0.00     0.042 A 
HETATM    3  C6  UNL     1      -0.833   1.314  -0.076  1.00  0.00     0.075 A 
HETATM    4  N1  UNL     1      -0.409   2.518  -0.496  1.00  0.00    -0.241 NA
HETATM    5  C7  UNL     1       0.900   2.738  -0.709  1.00  0.00     0.236 A 
HETATM    6  N2  UNL     1       1.808   1.773  -0.508  1.00  0.00    -0.223 NA
HETATM    7  C8  UNL     1       1.475   0.561  -0.095  1.00  0.00     0.144 A 
HETATM    8  C15 UNL     1       0.140   0.356   0.116  1.00  0.00     0.075 A 
HETATM    9  C16 UNL     1      -0.299  -0.868   0.545  1.00  0.00     0.119 A 
HETATM   10  C17 UNL     1      -1.636  -1.140   0.777  1.00  0.00     0.109 A 
HETATM   11  O2  UNL     1      -1.958  -2.438   1.216  1.00  0.00    -0.346 OA
HETATM   12  C18 UNL     1      -1.279  -3.555   0.674  1.00  0.00     0.202 C 
HETATM   13  C19 UNL     1       0.188  -3.282   0.465  1.00  0.00     0.202 C 
HETATM   14  O3  UNL     1       0.527  -1.948   0.791  1.00  0.00    -0.345 OA
ENDROOT
BRANCH   7  15
HETATM   15  N3  UNL     1       2.483  -0.415   0.098  1.00  0.00    -0.340 N 
HETATM   16  H10 UNL     1       2.563  -1.414   0.349  1.00  0.00     0.167 HD
BRANCH  15  17
HETATM   17  C9  UNL     1       3.858  -0.077  -0.063  1.00  0.00     0.035 A 
HETATM   18  C10 UNL     1       4.883  -0.878  -0.561  1.00  0.00     0.032 A 
HETATM   19  C11 UNL     1       6.200  -0.511  -0.677  1.00  0.00     0.046 A 
HETATM   20  C12 UNL     1       6.567   0.754  -0.273  1.00  0.00     0.138 A 
HETATM   21  F1  UNL     1       7.881   1.048  -0.417  1.00  0.00    -0.204 F 
HETATM   22  C13 UNL     1       5.610   1.599   0.229  1.00  0.00     0.074 A 
HETATM   23 CL1  UNL     1       6.210   3.172   0.702  1.00  0.00    -0.081 Cl
HETATM   24  C14 UNL     1       4.301   1.180   0.325  1.00  0.00     0.056 A 
ENDBRANCH  15  17
ENDBRANCH   7  15
BRANCH   1  25
HETATM   25  C3  UNL     1      -4.031  -0.478   0.842  1.00  0.00     0.068 C 
BRANCH  25  26
HETATM   26  C2  UNL     1      -4.948   0.676   0.515  1.00  0.00     0.171 C 
BRANCH  26  27
HETATM   27  O1  UNL     1      -4.802   0.961  -0.842  1.00  0.00    -0.396 OA
HETATM   28  C1  UNL     1      -5.616   2.020  -1.236  1.00  0.00     0.201 C 
ENDBRANCH  26  27
ENDBRANCH  25  26
ENDBRANCH   1  25
TORSDOF 5
