REMARK  2 active torsions:
REMARK  status: ('A' for Active; 'I' for Inactive)
REMARK    1  A    between atoms: C4_5  and  N1_6 
REMARK    2  A    between atoms: N1_6  and  C5_7 
ROOT
HETATM    1  C5  UNL     1       0.823   0.357  -0.069  1.00  0.00     0.210 C 
HETATM    2  C6  UNL     1       0.095  -1.007   0.120  1.00  0.00     0.093 C 
HETATM    3  C7  UNL     1      -0.774  -0.961   1.257  1.00  0.00     0.204 C 
HETATM    4  C8  UNL     1      -1.581   0.358   1.033  1.00  0.00    -0.060 C 
HETATM    5  C9  UNL     1      -2.106   1.187   0.903  1.00  0.00    -0.012 C 
HETATM    6  O1  UNL     1      -2.819   2.274   0.745  1.00  0.00     0.000 OA
HETATM    7  C10 UNL     1      -4.083   2.052   1.541  1.00  0.00     0.136 A 
HETATM    8  C11 UNL     1      -3.696   2.971   0.612  1.00  0.00     0.063 A 
HETATM    9  C12 UNL     1      -2.427   3.104  -0.115  1.00  0.00     0.142 A 
HETATM   10  N2  UNL     1      -1.400   3.310  -0.781  1.00  0.00    -0.275 NA
HETATM   11  C13 UNL     1      -0.164   2.552  -0.777  1.00  0.00     0.223 C 
HETATM   12  N3  UNL     1      -0.012   1.427  -0.319  1.00  0.00    -0.258 NA
HETATM   13  O2  UNL     1      -3.547   0.907   2.201  1.00  0.00    -0.371 OA
HETATM   14  C14 UNL     1      -3.818  -0.401   2.121  1.00  0.00     0.195 C 
HETATM   15  C15 UNL     1      -2.890  -1.573   2.140  1.00  0.00     0.195 C 
HETATM   16  O3  UNL     1      -1.938  -1.760   1.194  1.00  0.00    -0.371 OA
ENDROOT
BRANCH   1  17
HETATM   17  N1  UNL     1       1.767   0.148  -1.187  1.00  0.00    -0.367 N 
HETATM   18  H3  UNL     1       1.522   0.646  -2.075  1.00  0.00     0.161 HD
BRANCH  17  19
HETATM   19  C4  UNL     1       2.938  -0.641  -1.173  1.00  0.00     0.031 A 
HETATM   20  C3  UNL     1       3.433  -1.319  -0.084  1.00  0.00     0.032 A 
HETATM   21  C2  UNL     1       4.574  -2.093  -0.109  1.00  0.00     0.046 A 
HETATM   22  C1  UNL     1       5.291  -2.224  -1.265  1.00  0.00     0.138 A 
HETATM   23  F1  UNL     1       6.403  -2.987  -1.265  1.00  0.00    -0.204 F 
HETATM   24  C17 UNL     1       4.813  -1.552  -2.367  1.00  0.00     0.074 A 
HETATM   25  C16 UNL     1       3.674  -0.787  -2.319  1.00  0.00     0.056 A 
HETATM   26 CL1  UNL     1       5.686  -1.679  -3.880  1.00  0.00    -0.081 Cl
ENDBRANCH  17  19
ENDBRANCH   1  17
TORSDOF 2
