REMARK  4 active torsions:
REMARK  status: ('A' for Active; 'I' for Inactive)
REMARK    1  A    between atoms: O1_2  and  C2_3 
REMARK    2  A    between atoms: C2_3  and  C3_4 
REMARK    3  A    between atoms: C3_4  and  O2_6 
REMARK    4  A    between atoms: O2_6  and  C5_7 
ROOT
HETATM    1  C5  UNL     1       1.483   0.092   0.857  1.00  0.00     0.107 A 
HETATM    2  C6  UNL     1       0.387   0.573   1.580  1.00  0.00     0.072 A 
HETATM    3  C7  UNL     1      -0.937   0.422   1.145  1.00  0.00     0.070 A 
HETATM    4  C8  UNL     1      -1.022  -0.245  -0.059  1.00  0.00     0.016 A 
HETATM    5  C9  UNL     1       0.057  -0.710  -0.757  1.00  0.00     0.114 A 
HETATM    6  C10 UNL     1       1.346  -0.559  -0.326  1.00  0.00     0.136 A 
HETATM    7  O3  UNL     1       2.218  -1.113  -1.210  1.00  0.00    -0.344 OA
HETATM    8  C11 UNL     1       2.006  -2.228  -2.018  1.00  0.00     0.202 C 
HETATM    9  C12 UNL     1       0.586  -2.335  -2.520  1.00  0.00     0.202 C 
HETATM   10  O4  UNL     1      -0.248  -1.349  -1.937  1.00  0.00    -0.345 OA
HETATM   11  C13 UNL     1      -2.297  -0.285  -0.274  1.00  0.00     0.066 C 
HETATM   12  C14 UNL     1      -3.658  -0.435  -0.695  1.00  0.00    -0.065 C 
HETATM   13  C15 UNL     1      -4.513  -1.441  -0.313  1.00  0.00    -0.002 C 
HETATM   14  C16 UNL     1      -5.315  -0.740   0.781  1.00  0.00     0.174 C 
HETATM   15  N1  UNL     1      -4.964   0.665   0.777  1.00  0.00    -0.281 N 
HETATM   16  N2  UNL     1      -4.320   1.120   1.945  1.00  0.00    -0.169 NA
HETATM   17  C17 UNL     1      -3.029   1.065   2.027  1.00  0.00     0.255 C 
HETATM   18  N3  UNL     1      -1.652   0.975   2.043  1.00  0.00    -0.240 NA
HETATM   19  C18 UNL     1      -5.374   1.202  -0.544  1.00  0.00     0.208 C 
HETATM   20 CL1  UNL     1      -7.064   0.741  -0.780  1.00  0.00    -0.100 Cl
HETATM   21  C19 UNL     1      -4.451   0.525  -1.592  1.00  0.00     0.050 C 
HETATM   22  C20 UNL     1      -3.578   1.492  -2.298  1.00  0.00     0.018 C 
ENDROOT
BRANCH   1  23
HETATM   23  O2  UNL     1       2.730   0.276   1.345  1.00  0.00    -0.341 OA
BRANCH  23  24
HETATM   24  C3  UNL     1       3.979  -0.038   0.925  1.00  0.00     0.148 C 
HETATM   25  C4  UNL     1       4.710  -1.007   1.859  1.00  0.00     0.042 C 
BRANCH  24  26
HETATM   26  C2  UNL     1       4.918   1.175   0.845  1.00  0.00     0.199 C 
BRANCH  26  27
HETATM   27  O1  UNL     1       6.154   0.708   0.406  1.00  0.00    -0.393 OA
HETATM   28  C1  UNL     1       7.035   1.778   0.325  1.00  0.00     0.201 C 
ENDBRANCH  26  27
ENDBRANCH  24  26
ENDBRANCH  23  24
ENDBRANCH   1  23
TORSDOF 4
