REMARK  8 active torsions:
REMARK  status: ('A' for Active; 'I' for Inactive)
REMARK    1  A    between atoms: N1_2  and  C2_3 
REMARK    2  A    between atoms: C6_9  and  O1_10 
REMARK    3  A    between atoms: O1_10  and  C7_11 
REMARK    4  A    between atoms: C7_11  and  C8_12 
REMARK    5  A    between atoms: C7_11  and  C14_22 
REMARK    6  A    between atoms: C8_12  and  N4_13 
REMARK    7  A    between atoms: N4_13  and  C9_14 
REMARK    8  A    between atoms: C14_22  and  O2_23 
ROOT
HETATM    1  C2  UNL     1      -4.323  -0.132   0.422  1.00  0.00     0.287 C 
HETATM    2  N2  UNL     1      -4.709   0.913   1.343  1.00  0.00    -0.265 NA
HETATM    3  C3  UNL     1      -4.105   1.707   2.159  1.00  0.00     0.144 C 
HETATM    4  C4  UNL     1      -2.709   1.962   2.576  1.00  0.00     0.068 C 
HETATM    5  N3  UNL     1      -2.537   2.439   3.760  1.00  0.00    -0.299 NA
HETATM    6  C5  UNL     1      -1.456   1.747   1.816  1.00  0.00     0.072 C 
HETATM    7  C6  UNL     1      -1.136   1.276   0.598  1.00  0.00     0.107 C 
HETATM    8  C16 UNL     1      -2.012   0.779  -0.464  1.00  0.00     0.135 C 
HETATM    9  C17 UNL     1      -3.229   0.245  -0.495  1.00  0.00     0.128 C 
HETATM   10  O3  UNL     1      -3.700  -0.096  -1.753  1.00  0.00    -0.346 OA
HETATM   11  C18 UNL     1      -3.048   0.117  -2.965  1.00  0.00     0.202 C 
HETATM   12  C19 UNL     1      -1.573   0.299  -2.819  1.00  0.00     0.202 C 
HETATM   13  O4  UNL     1      -1.237   0.992  -1.612  1.00  0.00    -0.344 OA
HETATM   14  H5  UNL     1      -1.554   2.621   4.060  1.00  0.00     0.187 HD
ENDROOT
BRANCH   7  15
HETATM   15  O1  UNL     1       0.196   1.261   0.317  1.00  0.00    -0.339 OA
BRANCH  15  16
HETATM   16  C7  UNL     1       1.002   0.196  -0.062  1.00  0.00     0.170 C 
BRANCH  16  17
HETATM   17  C8  UNL     1       2.445   0.556  -0.267  1.00  0.00     0.154 C 
BRANCH  17  18
HETATM   18  N4  UNL     1       3.252  -0.583  -0.662  1.00  0.00    -0.386 N 
HETATM   19  H10 UNL     1       2.894  -1.567  -0.800  1.00  0.00     0.159 HD
BRANCH  18  20
HETATM   20  C9  UNL     1       4.646  -0.502  -0.913  1.00  0.00     0.043 A 
HETATM   21  C10 UNL     1       5.529  -0.716   0.152  1.00  0.00     0.034 A 
HETATM   22  C11 UNL     1       6.904  -0.676   0.086  1.00  0.00     0.046 A 
HETATM   23  C12 UNL     1       7.654  -0.423  -1.015  1.00  0.00     0.139 A 
HETATM   24  F1  UNL     1       9.027  -0.407  -0.973  1.00  0.00    -0.204 F 
HETATM   25  C13 UNL     1       7.166  -0.156  -2.288  1.00  0.00     0.087 A 
HETATM   26 CL1  UNL     1       8.182   0.164  -3.678  1.00  0.00    -0.079 Cl
HETATM   27  P1  UNL     1       5.419  -0.158  -2.433  1.00  0.00     0.024 P 
ENDBRANCH  18  20
ENDBRANCH  17  18
ENDBRANCH  16  17
BRANCH  16  28
HETATM   28  C14 UNL     1       0.878  -0.888   1.005  1.00  0.00     0.201 C 
BRANCH  28  29
HETATM   29  O2  UNL     1      -0.472  -1.246   1.041  1.00  0.00    -0.393 OA
HETATM   30  C15 UNL     1      -0.720  -2.226   1.974  1.00  0.00     0.201 C 
ENDBRANCH  28  29
ENDBRANCH  16  28
ENDBRANCH  15  16
ENDBRANCH   7  15
BRANCH   1  31
HETATM   31  N1  UNL     1      -5.465  -0.555  -0.328  1.00  0.00    -0.278 NA
HETATM   32  C1  UNL     1      -6.665  -0.367   0.132  1.00  0.00     0.145 C 
ENDBRANCH   1  31
TORSDOF 8
