REMARK  3 active torsions:
REMARK  status: ('A' for Active; 'I' for Inactive)
REMARK    1  A    between atoms: C4_5  and  N2_6 
REMARK    2  A    between atoms: N2_6  and  C5_7 
REMARK    3  A    between atoms: C13_19  and  O3_20 
ROOT
HETATM    1  N1  UNL     1       5.785   2.757  -1.710  1.00  0.00    -0.191 NA
HETATM    2  C1  UNL     1       5.263   1.770  -1.500  1.00  0.00     0.102 C 
HETATM    3  C2  UNL     1       4.623   0.518  -1.228  1.00  0.00     0.085 A 
HETATM    4  C3  UNL     1       3.409   0.595  -0.611  1.00  0.00     0.055 A 
HETATM    5  C4  UNL     1       2.673  -0.556  -0.284  1.00  0.00     0.035 A 
HETATM    6  C15 UNL     1       3.203  -1.811  -0.605  1.00  0.00     0.032 A 
HETATM    7  C16 UNL     1       4.453  -1.927  -1.240  1.00  0.00     0.046 A 
HETATM    8  C17 UNL     1       5.082  -0.739  -1.508  1.00  0.00     0.137 A 
HETATM    9  F1  UNL     1       6.292  -0.705  -2.114  1.00  0.00    -0.204 F 
ENDROOT
BRANCH   5  10
HETATM   10  N2  UNL     1       1.482  -0.829   0.362  1.00  0.00    -0.340 N 
HETATM   11  H2  UNL     1       1.720  -0.032   1.041  1.00  0.00     0.167 HD
BRANCH  10  12
HETATM   12  C5  UNL     1       0.291  -1.072   1.032  1.00  0.00     0.140 A 
HETATM   13  N3  UNL     1       0.264  -2.392   1.413  1.00  0.00    -0.224 NA
HETATM   14  C6  UNL     1      -0.881  -2.681   2.137  1.00  0.00     0.235 A 
HETATM   15  N4  UNL     1      -1.840  -1.787   2.425  1.00  0.00    -0.241 NA
HETATM   16  C7  UNL     1      -1.833  -0.523   2.065  1.00  0.00     0.072 A 
HETATM   17  C8  UNL     1      -0.685  -0.147   1.316  1.00  0.00     0.040 A 
HETATM   18  C14 UNL     1      -2.609   0.705   2.197  1.00  0.00     0.066 C 
HETATM   19  C9  UNL     1      -0.539   1.246   0.861  1.00  0.00     0.212 C 
HETATM   20  O1  UNL     1      -1.534   1.868   0.244  1.00  0.00    -0.384 OA
HETATM   21  C10 UNL     1      -2.085   1.638  -0.924  1.00  0.00     0.194 C 
HETATM   22  C11 UNL     1      -2.808   0.452  -1.342  1.00  0.00     0.194 C 
HETATM   23  O2  UNL     1      -3.925   0.019  -0.774  1.00  0.00    -0.383 OA
HETATM   24  C12 UNL     1      -3.930  -0.373   0.498  1.00  0.00     0.231 C 
HETATM   25  C13 UNL     1      -3.655   0.769   1.413  1.00  0.00     0.069 C 
BRANCH  25  26
HETATM   26  O3  UNL     1      -4.264   1.962   1.668  1.00  0.00    -0.363 OA
HETATM   27  H12 UNL     1      -4.524   2.238   2.602  1.00  0.00     0.217 HD
ENDBRANCH  25  26
ENDBRANCH  10  12
ENDBRANCH   5  10
TORSDOF 3
