REMARK  4 active torsions:
REMARK  status: ('A' for Active; 'I' for Inactive)
REMARK    1  A    between atoms: C2_2  and  O1_3 
REMARK    2  A    between atoms: O1_3  and  C3_4 
REMARK    3  A    between atoms: C3_4  and  O2_6 
REMARK    4  A    between atoms: O2_6  and  C5_7 
ROOT
HETATM    1  C5  UNL     1       1.574   2.030  -0.677  1.00  0.00     0.110 A 
HETATM    2  C6  UNL     1       1.003   3.243  -1.079  1.00  0.00     0.072 A 
HETATM    3  C7  UNL     1      -0.229   3.701  -0.620  1.00  0.00     0.077 A 
HETATM    4  N1  UNL     1      -0.776   4.864  -1.056  1.00  0.00    -0.241 NA
HETATM    5  C8  UNL     1      -2.006   5.248  -0.601  1.00  0.00     0.236 A 
HETATM    6  N2  UNL     1      -2.739   4.513   0.287  1.00  0.00    -0.223 NA
HETATM    7  C9  UNL     1      -2.231   3.351   0.746  1.00  0.00     0.144 A 
HETATM    8  C10 UNL     1      -0.980   2.978   0.281  1.00  0.00     0.075 A 
HETATM    9  C11 UNL     1      -0.381   1.797   0.657  1.00  0.00     0.121 A 
HETATM   10  C12 UNL     1       0.830   1.322   0.210  1.00  0.00     0.137 A 
HETATM   11  O3  UNL     1       1.170   0.056   0.760  1.00  0.00    -0.334 OA
HETATM   12  C13 UNL     1      -0.034  -0.734   0.881  1.00  0.00     0.183 C 
HETATM   13  C14 UNL     1      -0.719  -0.125   2.090  1.00  0.00     0.213 C 
HETATM   14  O4  UNL     1      -1.162   1.125   1.589  1.00  0.00    -0.344 OA
HETATM   15  C15 UNL     1       0.034  -2.139   0.789  1.00  0.00    -0.031 C 
HETATM   16  C16 UNL     1       1.326  -2.757   0.945  1.00  0.00     0.048 C 
HETATM   17  C17 UNL     1      -1.195  -2.647   0.572  1.00  0.00     0.055 C 
HETATM   18  C18 UNL     1      -0.936  -4.085   0.493  1.00  0.00     0.100 C 
HETATM   19  N3  UNL     1      -0.749  -5.241   0.428  1.00  0.00    -0.191 NA
HETATM   20  C19 UNL     1      -2.643  -2.342   0.495  1.00  0.00    -0.041 C 
HETATM   21  C20 UNL     1      -3.357  -3.636   0.101  1.00  0.00     0.050 C 
HETATM   22  C21 UNL     1      -3.478  -1.314   0.647  1.00  0.00     0.009 C 
HETATM   23  C22 UNL     1      -3.995   0.006   0.902  1.00  0.00     0.018 C 
HETATM   24  C23 UNL     1      -3.706   1.256   1.239  1.00  0.00     0.090 C 
HETATM   25  N4  UNL     1      -2.859   2.380   1.617  1.00  0.00    -0.350 N 
HETATM   26  H24 UNL     1      -2.604   2.592   2.633  1.00  0.00     0.166 HD
ENDROOT
BRANCH   1  27
HETATM   27  O2  UNL     1       2.765   1.751  -1.226  1.00  0.00    -0.318 OA
BRANCH  27  28
HETATM   28  C3  UNL     1       3.539   0.622  -1.041  1.00  0.00     0.262 C 
HETATM   29  C4  UNL     1       4.717   1.003  -0.116  1.00  0.00     0.071 C 
BRANCH  28  30
HETATM   30  O1  UNL     1       4.066   0.128  -2.242  1.00  0.00    -0.362 OA
BRANCH  30  31
HETATM   31  C2  UNL     1       3.777  -1.189  -2.477  1.00  0.00     0.166 C 
HETATM   32  C1  UNL     1       2.299  -1.473  -2.575  1.00  0.00     0.033 C 
ENDBRANCH  30  31
ENDBRANCH  28  30
ENDBRANCH  27  28
ENDBRANCH   1  27
TORSDOF 4
