REMARK  1 active torsions:
REMARK  status: ('A' for Active; 'I' for Inactive)
REMARK    1  A    between atoms: C2_2  and  C3_3 
ROOT
HETATM    1  C3  UNL     1       1.477   0.663  -0.985  1.00  0.00     0.265 C 
HETATM    2  O1  UNL     1       1.369  -0.614  -1.462  1.00  0.00    -0.360 OA
HETATM    3  C4  UNL     1       1.075  -1.537  -0.509  1.00  0.00     0.176 C 
HETATM    4  C5  UNL     1       1.717  -1.570   0.779  1.00  0.00     0.026 C 
HETATM    5  C6  UNL     1       1.094  -2.340   1.627  1.00  0.00    -0.011 C 
HETATM    6  C7  UNL     1      -0.058  -1.842   2.013  1.00  0.00     0.045 C 
HETATM    7  C8  UNL     1      -0.909  -1.261   1.028  1.00  0.00     0.062 C 
HETATM    8  C9  UNL     1      -1.780  -1.060   0.086  1.00  0.00     0.007 C 
HETATM    9  C10 UNL     1      -2.715  -1.875  -0.727  1.00  0.00     0.210 C 
HETATM   10  O2  UNL     1      -3.985  -1.293  -0.699  1.00  0.00    -0.363 OA
HETATM   11  C11 UNL     1      -3.968   0.037  -0.999  1.00  0.00     0.339 C 
HETATM   12  O3  UNL     1      -3.094   0.810  -0.189  1.00  0.00    -0.351 OA
HETATM   13  C12 UNL     1      -1.842   0.325  -0.485  1.00  0.00     0.214 C 
HETATM   14  C13 UNL     1      -0.711   1.166  -0.084  1.00  0.00     0.081 C 
HETATM   15  C14 UNL     1      -0.023   1.852   0.792  1.00  0.00     0.032 C 
HETATM   16  C15 UNL     1       0.266   2.387   2.101  1.00  0.00     0.261 C 
HETATM   17  N1  UNL     1      -0.663   1.730   2.760  1.00  0.00    -0.295 NA
HETATM   18  C16 UNL     1      -1.516   0.816   2.034  1.00  0.00     0.169 C 
HETATM   19  N2  UNL     1      -0.558  -0.060   1.787  1.00  0.00    -0.250 NA
HETATM   20  O4  UNL     1       0.235   1.434  -1.136  1.00  0.00    -0.322 OA
ENDROOT
BRANCH   1  21
HETATM   21  C2  UNL     1       2.649   1.386  -1.549  1.00  0.00     0.056 C 
HETATM   22  C1  UNL     1       3.890   0.607  -1.162  1.00  0.00     0.010 C 
ENDBRANCH   1  21
TORSDOF 1
