REMARK  6 active torsions:
REMARK  status: ('A' for Active; 'I' for Inactive)
REMARK    1  A    between atoms: C2_2  and  S1_3 
REMARK    2  A    between atoms: S1_3  and  C3_4 
REMARK    3  A    between atoms: C3_4  and  O1_6 
REMARK    4  A    between atoms: O1_6  and  C5_7 
REMARK    5  A    between atoms: C9_13  and  N3_14 
REMARK    6  A    between atoms: N3_14  and  C10_15 
ROOT
HETATM    1  C10 UNL     1      -3.961   0.214   0.414  1.00  0.00     0.035 A 
HETATM    2  C11 UNL     1      -4.825   1.287   0.216  1.00  0.00     0.030 A 
HETATM    3  C12 UNL     1      -6.103   1.203  -0.261  1.00  0.00     0.010 A 
HETATM    4  C13 UNL     1      -6.612  -0.038  -0.586  1.00  0.00    -0.041 A 
HETATM    5  C14 UNL     1      -8.009  -0.026  -1.103  1.00  0.00     0.049 C 
HETATM    6  C15 UNL     1      -5.797  -1.133  -0.409  1.00  0.00     0.052 A 
HETATM    7  C16 UNL     1      -6.386  -2.396  -0.764  1.00  0.00     0.100 C 
HETATM    8  N4  UNL     1      -6.856  -3.429  -1.060  1.00  0.00    -0.191 NA
HETATM    9  C17 UNL     1      -4.530  -1.006   0.070  1.00  0.00     0.052 A 
ENDROOT
BRANCH   1  10
HETATM   10  N3  UNL     1      -2.637   0.375   0.910  1.00  0.00    -0.340 N 
HETATM   11  H12 UNL     1      -2.423   1.361   1.137  1.00  0.00     0.167 HD
BRANCH  10  12
HETATM   12  C9  UNL     1      -1.685  -0.628   1.136  1.00  0.00     0.144 A 
HETATM   13  N2  UNL     1      -2.146  -1.760   1.719  1.00  0.00    -0.223 NA
HETATM   14  C8  UNL     1      -1.303  -2.761   1.975  1.00  0.00     0.236 A 
HETATM   15  N1  UNL     1       0.029  -2.690   1.669  1.00  0.00    -0.241 NA
HETATM   16  C7  UNL     1       0.553  -1.605   1.093  1.00  0.00     0.077 A 
HETATM   17  C6  UNL     1       1.890  -1.464   0.743  1.00  0.00     0.072 A 
HETATM   18  C18 UNL     1      -0.342  -0.583   0.837  1.00  0.00     0.075 A 
HETATM   19  C5  UNL     1       2.391  -0.307   0.128  1.00  0.00     0.108 A 
HETATM   20  C20 UNL     1       1.463   0.684  -0.109  1.00  0.00     0.136 A 
HETATM   21  C19 UNL     1       0.137   0.552   0.234  1.00  0.00     0.121 A 
HETATM   22  O2  UNL     1       1.975   1.802  -0.713  1.00  0.00    -0.344 OA
HETATM   23  O3  UNL     1      -0.649   1.622  -0.070  1.00  0.00    -0.345 OA
HETATM   24  C22 UNL     1      -0.277   2.486  -1.123  1.00  0.00     0.202 C 
HETATM   25  C21 UNL     1       1.179   2.934  -0.940  1.00  0.00     0.202 C 
BRANCH  19  26
HETATM   26  O1  UNL     1       3.718  -0.422  -0.101  1.00  0.00    -0.333 OA
BRANCH  26  27
HETATM   27  C3  UNL     1       4.630   0.410  -0.709  1.00  0.00     0.186 C 
HETATM   28  C4  UNL     1       5.466   1.250   0.246  1.00  0.00     0.052 C 
BRANCH  27  29
HETATM   29  S1  UNL     1       5.650  -0.484  -1.885  1.00  0.00    -0.138 SA
BRANCH  29  30
HETATM   30  C2  UNL     1       6.719  -1.710  -1.091  1.00  0.00     0.072 C 
HETATM   31  C1  UNL     1       7.775  -0.999  -0.237  1.00  0.00     0.016 C 
ENDBRANCH  29  30
ENDBRANCH  27  29
ENDBRANCH  26  27
ENDBRANCH  19  26
ENDBRANCH  10  12
ENDBRANCH   1  10
TORSDOF 6
