REMARK  2 active torsions:
REMARK  status: ('A' for Active; 'I' for Inactive)
REMARK    1  A    between atoms: C5_7  and  N2_8 
REMARK    2  A    between atoms: N2_8  and  C6_9 
ROOT
HETATM    1  O1  UNL     1       5.018   1.536  -0.422  1.00  0.00    -0.265 OA
HETATM    2  C1  UNL     1       3.867   1.051  -0.234  1.00  0.00     0.267 C 
HETATM    3  C2  UNL     1       2.756   1.948  -0.601  1.00  0.00     0.131 C 
HETATM    4  C3  UNL     1       1.772   1.394  -1.566  1.00  0.00     0.130 C 
HETATM    5  N1  UNL     1       1.081   0.207  -1.170  1.00  0.00    -0.383 N 
HETATM    6  C4  UNL     1       1.430  -0.752  -0.197  1.00  0.00     0.128 A 
HETATM    7  C5  UNL     1       0.344  -1.553   0.078  1.00  0.00     0.160 A 
HETATM    8  N3  UNL     1       0.518  -2.519   0.997  1.00  0.00    -0.222 NA
HETATM    9  C12 UNL     1       1.680  -2.731   1.644  1.00  0.00     0.238 A 
HETATM   10  N4  UNL     1       2.781  -1.961   1.402  1.00  0.00    -0.215 NA
HETATM   11  C13 UNL     1       2.621  -0.969   0.466  1.00  0.00     0.204 A 
HETATM   12  O2  UNL     1       3.795  -0.234   0.282  1.00  0.00    -0.257 OA
HETATM   13  H5  UNL     1       0.183   0.013  -1.671  1.00  0.00     0.159 HD
ENDROOT
BRANCH   7  14
HETATM   14  N2  UNL     1      -0.936  -1.457  -0.529  1.00  0.00    -0.339 N 
HETATM   15  H6  UNL     1      -0.852  -2.164  -1.283  1.00  0.00     0.167 HD
BRANCH  14  16
HETATM   16  C6  UNL     1      -2.070  -0.653  -0.251  1.00  0.00     0.035 A 
HETATM   17  C7  UNL     1      -3.217  -0.907  -0.973  1.00  0.00     0.029 A 
HETATM   18  C8  UNL     1      -4.315  -0.119  -0.707  1.00  0.00     0.004 A 
HETATM   19  C9  UNL     1      -4.243   0.888   0.257  1.00  0.00     0.019 A 
HETATM   20  C10 UNL     1      -3.081   1.128   0.972  1.00  0.00     0.013 A 
HETATM   21 BR1  UNL     1      -2.946   2.503   2.304  1.00  0.00    -0.051 Br
HETATM   22  C11 UNL     1      -1.969   0.330   0.703  1.00  0.00     0.048 A 
ENDBRANCH  14  16
ENDBRANCH   7  14
TORSDOF 2
