REMARK  7 active torsions:
REMARK  status: ('A' for Active; 'I' for Inactive)
REMARK    1  A    between atoms: C2_2  and  O1_3 
REMARK    2  A    between atoms: O1_3  and  C3_4 
REMARK    3  A    between atoms: C3_4  and  O2_5 
REMARK    4  A    between atoms: O2_5  and  C4_6 
REMARK    5  A    between atoms: C4_6  and  C5_7 
REMARK    6  A    between atoms: C9_13  and  N3_14 
REMARK    7  A    between atoms: N3_14  and  C10_15 
ROOT
HETATM    1  C10 UNL     1      -3.961   0.883   0.217  1.00  0.00     0.034 A 
HETATM    2  C11 UNL     1      -3.738   1.670  -0.872  1.00  0.00     0.032 A 
HETATM    3  C12 UNL     1      -4.740   2.069  -1.705  1.00  0.00     0.046 A 
HETATM    4  C13 UNL     1      -6.050   1.687  -1.483  1.00  0.00     0.137 A 
HETATM    5  F1  UNL     1      -7.054   2.082  -2.310  1.00  0.00    -0.204 F 
HETATM    6  C14 UNL     1      -6.297   0.881  -0.373  1.00  0.00     0.085 A 
HETATM    7  C15 UNL     1      -7.666   0.492  -0.155  1.00  0.00     0.102 C 
HETATM    8  N4  UNL     1      -8.771   0.185   0.004  1.00  0.00    -0.191 NA
HETATM    9  C16 UNL     1      -5.262   0.492   0.455  1.00  0.00     0.055 A 
ENDROOT
BRANCH   1  10
HETATM   10  N3  UNL     1      -2.898   0.479   1.073  1.00  0.00    -0.352 N 
HETATM   11  H12 UNL     1      -3.128  -0.134   1.905  1.00  0.00     0.166 HD
BRANCH  10  12
HETATM   12  C9  UNL     1      -1.585   0.907   0.783  1.00  0.00     0.094 A 
HETATM   13  C8  UNL     1      -1.147   2.306   0.920  1.00  0.00     0.170 A 
HETATM   14  N1  UNL     1       0.187   2.733   0.624  1.00  0.00    -0.239 NA
HETATM   15  N2  UNL     1      -2.022   3.171   1.327  1.00  0.00    -0.280 NA
HETATM   16  C7  UNL     1       1.019   1.838   0.223  1.00  0.00     0.131 A 
HETATM   17  C6  UNL     1       0.626   0.444   0.075  1.00  0.00     0.002 A 
HETATM   18  C5  UNL     1       1.604  -0.325  -0.343  1.00  0.00    -0.037 A 
HETATM   19  C17 UNL     1      -0.724  -0.010   0.370  1.00  0.00     0.042 A 
HETATM   20  C20 UNL     1       1.335  -1.779  -0.537  1.00  0.00     0.104 A 
HETATM   21  C19 UNL     1      -0.047  -2.160  -0.219  1.00  0.00     0.084 A 
HETATM   22  C18 UNL     1      -1.046  -1.407   0.202  1.00  0.00     0.111 A 
HETATM   23  O3  UNL     1      -0.314  -3.528  -0.397  1.00  0.00    -0.350 OA
HETATM   24  O4  UNL     1      -2.309  -1.858   0.474  1.00  0.00    -0.345 OA
HETATM   25  C22 UNL     1      -2.515  -3.249   0.618  1.00  0.00     0.202 C 
HETATM   26  C21 UNL     1      -1.657  -3.999  -0.373  1.00  0.00     0.202 C 
HETATM   27  H11 UNL     1      -1.811   4.170   1.453  1.00  0.00     0.188 HD
BRANCH  18  28
HETATM   28  C4  UNL     1       3.003  -0.104  -0.694  1.00  0.00     0.206 C 
BRANCH  28  29
HETATM   29  O2  UNL     1       3.887  -0.842   0.095  1.00  0.00    -0.363 OA
BRANCH  29  30
HETATM   30  C3  UNL     1       5.171  -0.501  -0.387  1.00  0.00     0.337 C 
BRANCH  30  31
HETATM   31  O1  UNL     1       5.341   0.869  -0.230  1.00  0.00    -0.367 OA
BRANCH  31  32
HETATM   32  C2  UNL     1       6.563   1.339  -0.664  1.00  0.00     0.166 C 
HETATM   33  C1  UNL     1       7.729   0.713   0.062  1.00  0.00     0.033 C 
ENDBRANCH  31  32
ENDBRANCH  30  31
ENDBRANCH  29  30
ENDBRANCH  28  29
ENDBRANCH  18  28
ENDBRANCH  10  12
ENDBRANCH   1  10
TORSDOF 7
