REMARK  6 active torsions:
REMARK  status: ('A' for Active; 'I' for Inactive)
REMARK    1  A    between atoms: C2_2  and  O1_3 
REMARK    2  A    between atoms: O1_3  and  C3_4 
REMARK    3  A    between atoms: C3_4  and  O2_6 
REMARK    4  A    between atoms: O2_6  and  C5_7 
REMARK    5  A    between atoms: C9_13  and  N3_14 
REMARK    6  A    between atoms: N3_14  and  C10_15 
ROOT
HETATM    1  C10 UNL     1      -3.609   0.737   0.064  1.00  0.00     0.031 C 
HETATM    2  C11 UNL     1      -4.421  -0.046   0.722  1.00  0.00     0.052 C 
HETATM    3  C12 UNL     1      -3.822  -1.078   1.550  1.00  0.00     0.098 C 
HETATM    4  N4  UNL     1      -3.355  -1.920   2.210  1.00  0.00    -0.192 NA
HETATM    5  C13 UNL     1      -5.929  -0.004   0.722  1.00  0.00     0.049 C 
HETATM    6  C14 UNL     1      -6.379  -0.844  -0.454  1.00  0.00     0.020 C 
HETATM    7  C15 UNL     1      -6.407   1.387   0.505  1.00  0.00    -0.021 C 
HETATM    8  C16 UNL     1      -5.590   2.159  -0.199  1.00  0.00    -0.024 C 
HETATM    9  C17 UNL     1      -4.297   1.768  -0.764  1.00  0.00     0.085 C 
ENDROOT
BRANCH   1  10
HETATM   10  N3  UNL     1      -2.199   0.552   0.181  1.00  0.00    -0.342 N 
HETATM   11  H12 UNL     1      -2.159   1.347   0.838  1.00  0.00     0.167 HD
BRANCH  10  12
HETATM   12  C9  UNL     1      -1.551  -0.479  -0.537  1.00  0.00     0.144 A 
HETATM   13  N2  UNL     1      -2.379  -1.217  -1.298  1.00  0.00    -0.223 NA
HETATM   14  C8  UNL     1      -1.870  -2.245  -2.040  1.00  0.00     0.236 A 
HETATM   15  N1  UNL     1      -0.556  -2.501  -1.998  1.00  0.00    -0.241 NA
HETATM   16  C7  UNL     1       0.301  -1.791  -1.255  1.00  0.00     0.077 A 
HETATM   17  C6  UNL     1       1.660  -2.034  -1.195  1.00  0.00     0.072 A 
HETATM   18  C18 UNL     1      -0.213  -0.755  -0.508  1.00  0.00     0.075 A 
HETATM   19  C5  UNL     1       2.540  -1.274  -0.407  1.00  0.00     0.110 A 
HETATM   20  C20 UNL     1       1.942  -0.265   0.303  1.00  0.00     0.136 A 
HETATM   21  C19 UNL     1       0.596   0.016   0.276  1.00  0.00     0.121 A 
HETATM   22  O3  UNL     1       2.802   0.481   1.077  1.00  0.00    -0.344 OA
HETATM   23  O4  UNL     1       0.106   1.064   1.038  1.00  0.00    -0.345 OA
HETATM   24  C22 UNL     1       0.905   1.529   2.109  1.00  0.00     0.202 C 
HETATM   25  C21 UNL     1       2.346   1.706   1.614  1.00  0.00     0.202 C 
BRANCH  19  26
HETATM   26  O2  UNL     1       3.806  -1.715  -0.526  1.00  0.00    -0.318 OA
BRANCH  26  27
HETATM   27  C3  UNL     1       5.007  -1.307   0.028  1.00  0.00     0.262 C 
HETATM   28  C4  UNL     1       5.668  -2.414   0.840  1.00  0.00     0.071 C 
BRANCH  27  29
HETATM   29  O1  UNL     1       5.836  -0.910  -1.023  1.00  0.00    -0.362 OA
BRANCH  29  30
HETATM   30  C2  UNL     1       6.214   0.410  -0.984  1.00  0.00     0.166 C 
HETATM   31  C1  UNL     1       5.090   1.400  -1.035  1.00  0.00     0.033 C 
ENDBRANCH  29  30
ENDBRANCH  27  29
ENDBRANCH  26  27
ENDBRANCH  19  26
ENDBRANCH  10  12
ENDBRANCH   1  10
TORSDOF 6
