REMARK  6 active torsions:
REMARK  status: ('A' for Active; 'I' for Inactive)
REMARK    1  A    between atoms: C2_3  and  C3_4 
REMARK    2  A    between atoms: C4_6  and  C5_7 
REMARK    3  A    between atoms: C5_7  and  P1_10 
REMARK    4  A    between atoms: N2_11  and  C9_14 
REMARK    5  A    between atoms: N4_15  and  C10_16 
REMARK    6  A    between atoms: C11_17  and  C12_18 
ROOT
HETATM    1  N1  UNL     1       7.030   0.183  -4.323  1.00  0.00    -0.197 NA
HETATM    2  C1  UNL     1       6.624  -0.375  -3.416  1.00  0.00     0.066 C 
HETATM    3  C2  UNL     1       6.084  -1.080  -2.229  1.00  0.00     0.193 C 
ENDROOT
BRANCH   3   4
HETATM    4  C3  UNL     1       5.371  -0.107  -1.372  1.00  0.00     0.103 C 
HETATM    5  F1  UNL     1       6.007   0.943  -0.839  1.00  0.00    -0.210 F 
HETATM    6  C4  UNL     1       4.121  -0.139  -1.041  1.00  0.00     0.022 C 
BRANCH   6   7
HETATM    7  C5  UNL     1       2.945  -0.959  -1.262  1.00  0.00     0.051 A 
HETATM    8  C6  UNL     1       1.627  -1.277  -1.106  1.00  0.00     0.022 A 
HETATM    9  C7  UNL     1       1.425  -1.034  -0.885  1.00  0.00     0.013 A 
HETATM   10  C9  UNL     1       1.230   0.005  -0.071  1.00  0.00     0.180 A 
HETATM   11  P1  UNL     1       1.086  -0.606  -0.512  1.00  0.00    -0.117 P 
HETATM   12  N2  UNL     1       0.726  -0.139  -0.093  1.00  0.00     0.000 N 
HETATM   13  C8  UNL     1       0.882   0.510   1.652  1.00  0.00     0.126 A 
HETATM   14  N4  UNL     1      -0.062   0.820   0.678  1.00  0.00     0.000 N 
HETATM   15  N3  UNL     1       2.079  -0.139   1.134  1.00  0.00    -0.405 N 
HETATM   16  H6  UNL     1       2.901  -0.390   1.795  1.00  0.00     0.154 HD
BRANCH  14  17
HETATM   17  C10 UNL     1      -1.581   0.949   0.695  1.00  0.00     0.003 C 
HETATM   18  C11 UNL     1      -2.519   0.163   1.301  1.00  0.00     0.039 C 
BRANCH  18  19
HETATM   19  C12 UNL     1      -3.880   0.459   1.183  1.00  0.00     0.090 C 
HETATM   20  C13 UNL     1      -4.568   1.403   0.575  1.00  0.00     0.171 C 
HETATM   21  O1  UNL     1      -5.930   1.634   0.500  1.00  0.00    -0.358 OA
HETATM   22  C14 UNL     1      -6.827   0.684   0.992  1.00  0.00     0.201 C 
HETATM   23  C15 UNL     1      -6.096  -0.603   1.287  1.00  0.00     0.202 C 
HETATM   24  O2  UNL     1      -4.794  -0.374   1.815  1.00  0.00    -0.347 OA
ENDBRANCH  18  19
ENDBRANCH  14  17
ENDBRANCH   6   7
ENDBRANCH   3   4
TORSDOF 6
