REMARK  6 active torsions:
REMARK  status: ('A' for Active; 'I' for Inactive)
REMARK    1  A    between atoms: C4_5  and  N2_6 
REMARK    2  A    between atoms: N2_6  and  C5_7 
REMARK    3  A    between atoms: C15_20  and  O2_21 
REMARK    4  A    between atoms: O2_21  and  C16_22 
REMARK    5  A    between atoms: C16_22  and  C17_23 
REMARK    6  A    between atoms: C17_23  and  O3_24 
ROOT
HETATM    1  N1  UNL     1      -8.686  -0.526   0.441  1.00  0.00    -0.191 NA
HETATM    2  C1  UNL     1      -7.759   0.160   0.272  1.00  0.00     0.102 C 
HETATM    3  C2  UNL     1      -6.610   0.991   0.084  1.00  0.00     0.085 A 
HETATM    4  C3  UNL     1      -5.355   0.481   0.219  1.00  0.00     0.055 A 
HETATM    5  C4  UNL     1      -4.168   1.207   0.057  1.00  0.00     0.035 A 
HETATM    6  C19 UNL     1      -4.420   2.523  -0.260  1.00  0.00     0.032 A 
HETATM    7  C20 UNL     1      -5.658   3.102  -0.411  1.00  0.00     0.046 A 
HETATM    8  C21 UNL     1      -6.779   2.320  -0.235  1.00  0.00     0.137 A 
HETATM    9  F1  UNL     1      -8.043   2.783  -0.359  1.00  0.00    -0.204 F 
ENDROOT
BRANCH   5  10
HETATM   10  N2  UNL     1      -2.894   0.635   0.208  1.00  0.00    -0.340 N 
HETATM   11  H2  UNL     1      -2.930  -0.363   0.457  1.00  0.00     0.167 HD
BRANCH  10  12
HETATM   12  C5  UNL     1      -1.672   1.334   0.039  1.00  0.00     0.141 A 
HETATM   13  N3  UNL     1      -1.383   2.577  -0.278  1.00  0.00    -0.224 NA
HETATM   14  C6  UNL     1      -0.170   3.078  -0.392  1.00  0.00     0.235 A 
HETATM   15  N4  UNL     1       0.922   2.284  -0.174  1.00  0.00    -0.245 NA
HETATM   16  C7  UNL     1       0.741   0.997   0.155  1.00  0.00     0.060 A 
HETATM   17  C8  UNL     1      -0.570   0.617   0.238  1.00  0.00     0.035 A 
HETATM   18  C18 UNL     1       2.044   0.418   0.292  1.00  0.00     0.122 C 
HETATM   19  C9  UNL     1      -0.555  -0.752   0.639  1.00  0.00     0.013 C 
HETATM   20  C10 UNL     1      -0.120  -1.960   0.552  1.00  0.00    -0.026 C 
HETATM   21  C11 UNL     1       0.164  -3.400   0.697  1.00  0.00     0.027 C 
HETATM   22  C12 UNL     1       1.633  -3.441   1.162  1.00  0.00     0.006 C 
HETATM   23  C13 UNL     1       2.602  -3.014   0.127  1.00  0.00     0.027 C 
HETATM   24  C14 UNL     1       3.971  -2.599   0.718  1.00  0.00     0.171 C 
HETATM   25  O1  UNL     1       3.592  -1.412   1.461  1.00  0.00    -0.350 OA
HETATM   26  C15 UNL     1       2.979  -0.380   0.728  1.00  0.00     0.233 C 
BRANCH  26  27
HETATM   27  O2  UNL     1       3.662   0.419  -0.168  1.00  0.00    -0.348 OA
BRANCH  27  28
HETATM   28  C16 UNL     1       5.017   0.724  -0.167  1.00  0.00     0.197 C 
BRANCH  28  29
HETATM   29  C17 UNL     1       5.400   1.695  -1.270  1.00  0.00     0.190 C 
BRANCH  29  30
HETATM   30  O3  UNL     1       5.122   1.216  -2.527  1.00  0.00    -0.399 OA
HETATM   31  H18 UNL     1       4.503   1.768  -3.064  1.00  0.00     0.209 HD
ENDBRANCH  29  30
ENDBRANCH  28  29
ENDBRANCH  27  28
ENDBRANCH  26  27
ENDBRANCH  10  12
ENDBRANCH   5  10
TORSDOF 6
