REMARK  5 active torsions:
REMARK  status: ('A' for Active; 'I' for Inactive)
REMARK    1  A    between atoms: C3_3  and  C4_4 
REMARK    2  A    between atoms: C4_4  and  C5_5 
REMARK    3  A    between atoms: C5_5  and  N1_6 
REMARK    4  A    between atoms: N1_6  and  C6_7 
REMARK    5  A    between atoms: N2_8  and  C7_9 
ROOT
HETATM    1  C7  UNL     1       3.145  -0.461  -0.237  1.00  0.00     0.025 A 
HETATM    2  C8  UNL     1       3.188   0.568   0.695  1.00  0.00     0.031 A 
HETATM    3  C9  UNL     1       4.409   0.989   1.162  1.00  0.00     0.046 A 
HETATM    4  C10 UNL     1       5.583   0.406   0.720  1.00  0.00     0.137 A 
HETATM    5  F1  UNL     1       6.781   0.844   1.200  1.00  0.00    -0.204 F 
HETATM    6  C11 UNL     1       5.525  -0.628  -0.219  1.00  0.00     0.085 A 
HETATM    7  C12 UNL     1       6.761  -1.192  -0.640  1.00  0.00     0.102 C 
HETATM    8  N3  UNL     1       7.784  -1.637  -0.984  1.00  0.00    -0.191 NA
HETATM    9  C13 UNL     1       4.293  -1.070  -0.706  1.00  0.00     0.054 A 
ENDROOT
BRANCH   1  10
HETATM   10  N2  UNL     1       1.955  -0.994  -0.804  1.00  0.00    -0.372 NA
HETATM   11  C6  UNL     1       0.816  -0.956  -0.189  1.00  0.00     0.403 C 
BRANCH  11  12
HETATM   12  N1  UNL     1       0.325  -0.466   1.077  1.00  0.00    -0.258 NA
BRANCH  12  13
HETATM   13  C5  UNL     1      -0.665   0.356   0.976  1.00  0.00     0.097 C 
BRANCH  13  14
HETATM   14  C4  UNL     1      -1.794   1.277   0.605  1.00  0.00     0.114 C 
BRANCH  14  15
HETATM   15  C3  UNL     1      -2.949   0.505   0.127  1.00  0.00     0.080 C 
HETATM   16  C2  UNL     1      -3.530   0.580  -1.066  1.00  0.00     0.072 C 
HETATM   17  C1  UNL     1      -2.972   1.539  -2.038  1.00  0.00     0.079 C 
HETATM   18  O2  UNL     1      -4.626  -0.212  -1.396  1.00  0.00    -0.351 OA
HETATM   19  C15 UNL     1      -5.345  -0.819  -0.331  1.00  0.00     0.202 C 
HETATM   20  C14 UNL     1      -4.307  -1.489   0.563  1.00  0.00     0.202 C 
HETATM   21  O1  UNL     1      -3.491  -0.411   1.040  1.00  0.00    -0.350 OA
ENDBRANCH  14  15
ENDBRANCH  13  14
ENDBRANCH  12  13
ENDBRANCH  11  12
ENDBRANCH   1  10
TORSDOF 5
