REMARK  6 active torsions:
REMARK  status: ('A' for Active; 'I' for Inactive)
REMARK    1  A    between atoms: C2_2  and  O1_3 
REMARK    2  A    between atoms: O1_3  and  C3_4 
REMARK    3  A    between atoms: C3_4  and  O2_6 
REMARK    4  A    between atoms: O2_6  and  C5_7 
REMARK    5  A    between atoms: C9_13  and  N3_14 
REMARK    6  A    between atoms: N3_14  and  C10_15 
ROOT
HETATM    1  C5  UNL     1       2.329  -0.094  -0.583  1.00  0.00     0.110 A 
HETATM    2  C6  UNL     1       1.980  -0.400   0.716  1.00  0.00     0.072 A 
HETATM    3  C7  UNL     1       0.665  -0.444   1.129  1.00  0.00     0.077 A 
HETATM    4  N1  UNL     1       0.309  -0.741   2.387  1.00  0.00    -0.241 NA
HETATM    5  C8  UNL     1      -0.961  -0.794   2.823  1.00  0.00     0.236 A 
HETATM    6  N2  UNL     1      -1.941  -0.526   1.911  1.00  0.00    -0.223 NA
HETATM    7  C9  UNL     1      -1.611  -0.224   0.635  1.00  0.00     0.144 A 
HETATM    8  C17 UNL     1      -0.309  -0.170   0.192  1.00  0.00     0.075 A 
HETATM    9  C18 UNL     1      -0.020   0.141  -1.118  1.00  0.00     0.121 A 
HETATM   10  C19 UNL     1       1.307   0.178  -1.501  1.00  0.00     0.136 A 
HETATM   11  O3  UNL     1       1.536   0.498  -2.832  1.00  0.00    -0.344 OA
HETATM   12  C20 UNL     1       0.613   1.380  -3.490  1.00  0.00     0.202 C 
HETATM   13  C21 UNL     1      -0.820   0.936  -3.295  1.00  0.00     0.202 C 
HETATM   14  O4  UNL     1      -1.043   0.408  -2.014  1.00  0.00    -0.345 OA
ENDROOT
BRANCH   7  15
HETATM   15  N3  UNL     1      -2.715   0.027  -0.186  1.00  0.00    -0.340 N 
HETATM   16  H12 UNL     1      -3.141   0.273  -1.097  1.00  0.00     0.167 HD
BRANCH  15  17
HETATM   17  C10 UNL     1      -4.042  -0.047   0.322  1.00  0.00     0.033 C 
HETATM   18  C11 UNL     1      -4.710   1.036   0.754  1.00  0.00     0.032 C 
HETATM   19  C12 UNL     1      -6.042   1.234   1.307  1.00  0.00     0.040 C 
HETATM   20  C13 UNL     1      -7.010   0.347   1.187  1.00  0.00     0.097 C 
HETATM   21  F1  UNL     1      -8.124   0.829   1.810  1.00  0.00    -0.211 F 
HETATM   22  C14 UNL     1      -7.192  -0.991   0.572  1.00  0.00     0.097 C 
HETATM   23  C15 UNL     1      -5.965  -1.786   0.472  1.00  0.00    -0.018 C 
HETATM   24  C16 UNL     1      -4.689  -1.376   0.371  1.00  0.00     0.026 C 
ENDBRANCH  15  17
ENDBRANCH   7  15
BRANCH   1  25
HETATM   25  O2  UNL     1       3.613  -0.027  -1.079  1.00  0.00    -0.318 OA
BRANCH  25  26
HETATM   26  C3  UNL     1       4.794  -0.259  -0.352  1.00  0.00     0.262 C 
HETATM   27  C4  UNL     1       5.471  -1.467  -1.002  1.00  0.00     0.071 C 
BRANCH  26  28
HETATM   28  O1  UNL     1       5.605   0.865  -0.494  1.00  0.00    -0.362 OA
BRANCH  28  29
HETATM   29  C2  UNL     1       6.033   1.377   0.716  1.00  0.00     0.166 C 
HETATM   30  C1  UNL     1       6.836   0.377   1.507  1.00  0.00     0.033 C 
ENDBRANCH  28  29
ENDBRANCH  26  28
ENDBRANCH  25  26
ENDBRANCH   1  25
TORSDOF 6
