REMARK  6 active torsions:
REMARK  status: ('A' for Active; 'I' for Inactive)
REMARK    1  A    between atoms: C2_2  and  O1_3 
REMARK    2  A    between atoms: O1_3  and  C3_4 
REMARK    3  A    between atoms: C3_4  and  O2_6 
REMARK    4  A    between atoms: O2_6  and  C5_7 
REMARK    5  A    between atoms: C10_14  and  N3_15 
REMARK    6  A    between atoms: N3_15  and  C11_16 
ROOT
HETATM    1  C11 UNL     1      -2.859  -0.746   1.385  1.00  0.00     0.034 A 
HETATM    2  C12 UNL     1      -3.107   0.245   0.434  1.00  0.00     0.032 A 
HETATM    3  C13 UNL     1      -4.044   1.271   0.603  1.00  0.00     0.046 A 
HETATM    4  C14 UNL     1      -4.737   1.243   1.817  1.00  0.00     0.137 A 
HETATM    5  F1  UNL     1      -5.672   2.222   2.047  1.00  0.00    -0.204 F 
HETATM    6  C15 UNL     1      -4.534   0.302   2.776  1.00  0.00     0.085 A 
HETATM    7  C16 UNL     1      -5.293   0.358   3.988  1.00  0.00     0.102 C 
HETATM    8  N4  UNL     1      -5.919   0.400   4.959  1.00  0.00    -0.191 NA
HETATM    9  C17 UNL     1      -3.594  -0.689   2.552  1.00  0.00     0.055 A 
ENDROOT
BRANCH   1  10
HETATM   10  N3  UNL     1      -1.874  -1.755   1.114  1.00  0.00    -0.359 N 
HETATM   11  H13 UNL     1      -1.747  -2.471   1.888  1.00  0.00     0.166 HD
BRANCH  10  12
HETATM   12  C10 UNL     1      -1.231  -1.636  -0.133  1.00  0.00     0.022 C 
HETATM   13  C9  UNL     1      -1.902  -2.469  -1.092  1.00  0.00     0.045 C 
HETATM   14  C8  UNL     1      -1.724  -2.723  -2.367  1.00  0.00     0.120 C 
HETATM   15  N2  UNL     1      -0.599  -1.929  -2.707  1.00  0.00    -0.254 NA
HETATM   16  C7  UNL     1      -0.792  -0.636  -2.853  1.00  0.00     0.233 C 
HETATM   17  N1  UNL     1       0.592  -0.382  -3.167  1.00  0.00    -0.237 NA
HETATM   18  C6  UNL     1       1.386  -0.214  -2.203  1.00  0.00     0.119 C 
HETATM   19  C5  UNL     1       0.920  -0.199  -0.995  1.00  0.00     0.092 C 
HETATM   20  C18 UNL     1      -0.219  -0.993  -0.645  1.00  0.00     0.111 C 
BRANCH  19  21
HETATM   21  O2  UNL     1       1.959   0.670  -0.859  1.00  0.00    -0.322 OA
BRANCH  21  22
HETATM   22  C3  UNL     1       3.028   0.464   0.063  1.00  0.00     0.261 C 
HETATM   23  C4  UNL     1       2.552   0.048   1.425  1.00  0.00     0.071 C 
BRANCH  22  24
HETATM   24  O1  UNL     1       3.874   1.563   0.095  1.00  0.00    -0.362 OA
BRANCH  24  25
HETATM   25  C2  UNL     1       5.151   1.301  -0.373  1.00  0.00     0.166 C 
HETATM   26  C1  UNL     1       5.958   2.590  -0.278  1.00  0.00     0.033 C 
ENDBRANCH  24  25
ENDBRANCH  22  24
ENDBRANCH  21  22
ENDBRANCH  19  21
ENDBRANCH  10  12
ENDBRANCH   1  10
TORSDOF 6
