REMARK  6 active torsions:
REMARK  status: ('A' for Active; 'I' for Inactive)
REMARK    1  A    between atoms: C2_2  and  O1_3 
REMARK    2  A    between atoms: O1_3  and  C3_4 
REMARK    3  A    between atoms: C3_4  and  O2_6 
REMARK    4  A    between atoms: O2_6  and  C5_7 
REMARK    5  A    between atoms: C5_7  and  C10_15 
REMARK    6  A    between atoms: C6_8  and  C7_9 
ROOT
HETATM    1  C5  UNL     1      -0.915  -0.112  -0.384  1.00  0.00     0.111 C 
HETATM    2  C6  UNL     1      -1.761   0.530   0.325  1.00  0.00     0.097 C 
ENDROOT
BRANCH   1   3
HETATM    3  O2  UNL     1       0.174   0.713  -0.172  1.00  0.00    -0.318 OA
BRANCH   3   4
HETATM    4  C3  UNL     1       1.389   0.293   0.430  1.00  0.00     0.262 C 
HETATM    5  C4  UNL     1       1.159  -0.317   1.785  1.00  0.00     0.071 C 
BRANCH   4   6
HETATM    6  O1  UNL     1       2.357   1.294   0.441  1.00  0.00    -0.362 OA
BRANCH   6   7
HETATM    7  C2  UNL     1       3.442   0.995  -0.344  1.00  0.00     0.166 C 
HETATM    8  C1  UNL     1       3.113   0.788  -1.805  1.00  0.00     0.033 C 
ENDBRANCH   6   7
ENDBRANCH   4   6
ENDBRANCH   3   4
ENDBRANCH   1   3
BRANCH   1   9
HETATM    9  C10 UNL     1      -0.876  -1.296  -1.204  1.00  0.00     0.124 C 
HETATM   10  C11 UNL     1      -1.897  -2.097  -1.426  1.00  0.00     0.174 C 
HETATM   11  O4  UNL     1      -1.684  -3.199  -2.244  1.00  0.00    -0.358 OA
HETATM   12  C12 UNL     1      -0.478  -3.917  -2.068  1.00  0.00     0.201 C 
HETATM   13  C13 UNL     1       0.685  -2.967  -1.993  1.00  0.00     0.202 C 
HETATM   14  O5  UNL     1       0.324  -1.619  -1.806  1.00  0.00    -0.344 OA
ENDBRANCH   1   9
BRANCH   2  15
HETATM   15  C7  UNL     1      -2.205   1.559   1.169  1.00  0.00     0.169 A 
HETATM   16  N1  UNL     1      -1.201   2.351   1.387  1.00  0.00    -0.218 NA
HETATM   17  C8  UNL     1      -1.359   3.500   2.221  1.00  0.00     0.232 A 
HETATM   18  N2  UNL     1      -2.504   3.717   2.737  1.00  0.00    -0.257 NA
HETATM   19  C9  UNL     1      -3.669   2.892   2.549  1.00  0.00     0.327 A 
HETATM   20  O3  UNL     1      -3.435   1.780   1.715  1.00  0.00    -0.313 OA
ENDBRANCH   2  15
TORSDOF 6
