REMARK  3 active torsions:
REMARK  status: ('A' for Active; 'I' for Inactive)
REMARK    1  A    between atoms: C7_7  and  N1_8 
REMARK    2  A    between atoms: N1_8  and  C8_9 
REMARK    3  A    between atoms: C15_18  and  N3_19 
ROOT
HETATM    1  C1  UNL     1       4.826  -2.837   1.391  1.00  0.00     0.018 C 
HETATM    2  C2  UNL     1       4.476  -1.893   0.710  1.00  0.00    -0.078 C 
HETATM    3  C3  UNL     1       4.079  -0.796  -0.105  1.00  0.00     0.019 A 
HETATM    4  C4  UNL     1       4.974  -0.189  -0.989  1.00  0.00     0.021 A 
HETATM    5  C5  UNL     1       4.535   0.878  -1.777  1.00  0.00     0.004 A 
HETATM    6  C6  UNL     1       3.211   1.331  -1.677  1.00  0.00     0.029 A 
HETATM    7  C7  UNL     1       2.346   0.727  -0.807  1.00  0.00     0.034 A 
HETATM    8  C22 UNL     1       2.789  -0.297  -0.057  1.00  0.00     0.050 A 
ENDROOT
BRANCH   7   9
HETATM    9  N1  UNL     1       1.061   1.330  -0.835  1.00  0.00    -0.344 N 
HETATM   10  H5  UNL     1       0.768   2.193  -1.257  1.00  0.00     0.167 HD
BRANCH   9  11
HETATM   11  C8  UNL     1       0.105   0.583  -0.156  1.00  0.00     0.118 C 
HETATM   12  N2  UNL     1      -0.019  -0.660   0.083  1.00  0.00    -0.271 NA
HETATM   13  C9  UNL     1      -0.772  -1.640   0.665  1.00  0.00     0.106 C 
HETATM   14  C10 UNL     1       0.242  -2.814   1.136  1.00  0.00     0.034 C 
HETATM   15  C11 UNL     1      -1.923  -1.766   1.532  1.00  0.00     0.027 C 
HETATM   16  C12 UNL     1      -3.314  -1.330   1.300  1.00  0.00     0.002 C 
HETATM   17  O1  UNL     1      -3.560   0.138   1.471  1.00  0.00     0.000 OA
HETATM   18  C13 UNL     1      -2.567   0.813   0.681  1.00  0.00     0.057 A 
HETATM   19  C14 UNL     1      -2.073   0.646   1.898  1.00  0.00     0.053 A 
HETATM   20  C19 UNL     1      -3.037   0.985  -0.528  1.00  0.00     0.089 A 
HETATM   21  C17 UNL     1      -1.152   1.246   0.394  1.00  0.00     0.123 A 
HETATM   22  C18 UNL     1      -1.699   1.412  -0.896  1.00  0.00     0.096 A 
HETATM   23  O2  UNL     1      -4.056   0.945  -1.428  1.00  0.00    -0.350 OA
HETATM   24  O3  UNL     1      -1.270   1.815  -2.146  1.00  0.00    -0.349 OA
HETATM   25  C21 UNL     1      -2.428   2.043  -2.972  1.00  0.00     0.202 C 
HETATM   26  C20 UNL     1      -3.555   1.110  -2.790  1.00  0.00     0.202 C 
HETATM   27  C15 UNL     1      -0.807   1.037   1.664  1.00  0.00     0.204 A 
BRANCH  27  28
HETATM   28  N3  UNL     1       0.435   1.260   2.263  1.00  0.00     0.028 NA
HETATM   29  C16 UNL     1       0.878   2.470   2.415  1.00  0.00     0.709 C 
ENDBRANCH  27  28
ENDBRANCH   9  11
ENDBRANCH   7   9
TORSDOF 3
