REMARK  6 active torsions:
REMARK  status: ('A' for Active; 'I' for Inactive)
REMARK    1  A    between atoms: C3_3  and  C4_4 
REMARK    2  A    between atoms: C4_4  and  C5_5 
REMARK    3  A    between atoms: C10_12  and  O1_13 
REMARK    4  A    between atoms: O1_13  and  C11_14 
REMARK    5  A    between atoms: C11_14  and  C13_16 
REMARK    6  A    between atoms: C14_17  and  S1_18 
ROOT
HETATM    1  C1  UNL     1       6.996   2.764   1.660  1.00  0.00     0.017 C 
HETATM    2  C2  UNL     1       6.020   2.063   1.724  1.00  0.00    -0.089 C 
HETATM    3  C3  UNL     1       4.861   1.224   1.775  1.00  0.00     0.063 C 
ENDROOT
BRANCH   3   4
HETATM    4  C4  UNL     1       4.058   0.858   0.817  1.00  0.00     0.011 C 
BRANCH   4   5
HETATM    5  C5  UNL     1       3.072   0.354  -0.112  1.00  0.00     0.028 C 
HETATM    6  C6  UNL     1       2.496   0.192  -1.259  1.00  0.00     0.041 C 
HETATM    7  N1  UNL     1       2.920   0.761  -2.477  1.00  0.00    -0.352 N 
HETATM    8  C18 UNL     1       1.298  -0.672  -1.235  1.00  0.00     0.213 C 
HETATM    9  C7  UNL     1       1.887   0.943  -3.450  1.00  0.00     0.207 C 
HETATM   10  H5  UNL     1       3.930   0.998  -2.570  1.00  0.00     0.166 HD
HETATM   11  N2  UNL     1       0.664   0.606  -3.214  1.00  0.00    -0.246 NA
HETATM   12  C8  UNL     1       0.242   0.031  -1.981  1.00  0.00     0.065 C 
HETATM   13  C9  UNL     1      -1.002   0.151  -1.591  1.00  0.00     0.039 C 
HETATM   14  C10 UNL     1      -1.442  -0.445  -0.310  1.00  0.00     0.198 C 
HETATM   15  C15 UNL     1      -0.293  -0.799   0.594  1.00  0.00     0.278 C 
HETATM   16  O2  UNL     1      -0.752  -1.829   1.424  1.00  0.00    -0.360 OA
HETATM   17  N3  UNL     1       0.910  -1.173   0.012  1.00  0.00    -0.245 N 
HETATM   18  C16 UNL     1      -0.533  -3.054   0.789  1.00  0.00     0.199 C 
HETATM   19  C17 UNL     1       0.960  -3.311   0.849  1.00  0.00     0.227 C 
HETATM   20  O3  UNL     1       1.612  -2.144   0.543  1.00  0.00    -0.277 OA
BRANCH  14  21
HETATM   21  O1  UNL     1      -2.243   0.489   0.385  1.00  0.00    -0.369 OA
BRANCH  21  22
HETATM   22  C11 UNL     1      -3.538   0.029   0.549  1.00  0.00     0.141 C 
HETATM   23  C12 UNL     1      -3.902   0.031   2.036  1.00  0.00     0.044 C 
BRANCH  22  24
HETATM   24  C13 UNL     1      -4.425   1.038  -0.103  1.00  0.00     0.011 C 
HETATM   25  C14 UNL     1      -5.455   1.735   0.407  1.00  0.00     0.040 C 
BRANCH  25  26
HETATM   26  S1  UNL     1      -6.475   2.941  -0.464  1.00  0.00    -0.155 SA
HETATM   27  H15 UNL     1      -5.695   3.655  -1.397  1.00  0.00     0.106 HD
ENDBRANCH  25  26
ENDBRANCH  22  24
ENDBRANCH  21  22
ENDBRANCH  14  21
ENDBRANCH   4   5
ENDBRANCH   3   4
TORSDOF 6
