REMARK  4 active torsions:
REMARK  status: ('A' for Active; 'I' for Inactive)
REMARK    1  A    between atoms: O1_1  and  C1_2 
REMARK    2  A    between atoms: C1_2  and  C2_3 
REMARK    3  A    between atoms: C3_4  and  C4_5 
REMARK    4  A    between atoms: C4_5  and  C5_6 
ROOT
HETATM    1  C5  UNL     1       1.794  -0.018  -2.014  1.00  0.00     0.054 A 
HETATM    2  N1  UNL     1       2.290   0.888  -2.855  1.00  0.00    -0.245 NA
HETATM    3  C6  UNL     1       1.831   2.132  -2.859  1.00  0.00     0.234 A 
HETATM    4  N2  UNL     1       0.861   2.601  -2.056  1.00  0.00    -0.241 NA
HETATM    5  C7  UNL     1       0.294   1.763  -1.168  1.00  0.00     0.077 A 
HETATM    6  C8  UNL     1       0.816   0.454  -1.204  1.00  0.00     0.051 A 
HETATM    7  C9  UNL     1       0.091  -0.263  -0.229  1.00  0.00     0.079 C 
HETATM    8  C10 UNL     1      -0.204  -0.564   1.002  1.00  0.00     0.013 C 
HETATM    9  C11 UNL     1      -1.026  -1.369   1.934  1.00  0.00     0.056 C 
HETATM   10  C12 UNL     1      -1.833  -0.429   2.844  1.00  0.00     0.171 C 
HETATM   11  O2  UNL     1      -2.504   0.410   1.981  1.00  0.00    -0.389 OA
HETATM   12  C13 UNL     1      -3.301   1.319   2.622  1.00  0.00     0.194 C 
HETATM   13  C14 UNL     1      -3.895   2.183   1.494  1.00  0.00     0.204 C 
HETATM   14  O3  UNL     1      -2.800   2.807   0.822  1.00  0.00    -0.328 OA
HETATM   15  C15 UNL     1      -2.012   2.095  -0.059  1.00  0.00     0.182 C 
HETATM   16  C16 UNL     1      -0.736   2.334  -0.320  1.00  0.00     0.096 C 
HETATM   17  O4  UNL     1      -2.385   1.102  -0.750  1.00  0.00    -0.328 OA
HETATM   18  C17 UNL     1      -2.774   0.068  -1.469  1.00  0.00     0.204 C 
HETATM   19  C18 UNL     1      -1.558  -0.766  -1.943  1.00  0.00     0.202 C 
HETATM   20  O5  UNL     1      -0.859  -1.178  -0.759  1.00  0.00    -0.348 OA
ENDROOT
BRANCH   1  21
HETATM   21  C4  UNL     1       2.135  -1.432  -1.825  1.00  0.00     0.087 C 
BRANCH  21  22
HETATM   22  C3  UNL     1       2.958  -1.530  -0.576  1.00  0.00    -0.022 C 
HETATM   23  C2  UNL     1       4.191  -1.956  -0.323  1.00  0.00    -0.005 C 
BRANCH  23  24
HETATM   24  C1  UNL     1       5.154  -2.125   0.818  1.00  0.00     0.191 C 
BRANCH  24  25
HETATM   25  O1  UNL     1       4.513  -1.683   1.958  1.00  0.00    -0.397 OA
HETATM   26  H1  UNL     1       5.025  -1.024   2.477  1.00  0.00     0.209 HD
ENDBRANCH  24  25
ENDBRANCH  23  24
ENDBRANCH  21  22
ENDBRANCH   1  21
TORSDOF 4
