REMARK  0 active torsions:
REMARK  status: ('A' for Active; 'I' for Inactive)
ROOT
HETATM    1  C1  UNL     1       0.398  -3.765  -0.460  1.00  0.00     0.184 C 
HETATM    2  N1  UNL     1      -0.014  -2.655   0.341  1.00  0.00    -0.271 N 
HETATM    3  C2  UNL     1       0.949  -1.655   0.073  1.00  0.00     0.156 C 
HETATM    4  C3  UNL     1       1.728  -0.607  -0.179  1.00  0.00     0.119 C 
HETATM    5  O1  UNL     1       2.895  -1.321  -0.220  1.00  0.00    -0.345 OA
HETATM    6  C4  UNL     1       4.215  -0.835  -0.104  1.00  0.00     0.202 C 
HETATM    7  C5  UNL     1       4.156   0.643   0.110  1.00  0.00     0.202 C 
HETATM    8  O2  UNL     1       3.038   1.195  -0.607  1.00  0.00    -0.346 OA
HETATM    9  C6  UNL     1       1.727   0.813  -0.386  1.00  0.00     0.107 C 
HETATM   10  C7  UNL     1       0.884   1.849  -0.428  1.00  0.00    -0.023 C 
HETATM   11  C8  UNL     1       1.111   3.272  -0.666  1.00  0.00     0.185 C 
HETATM   12  N2  UNL     1       0.319   4.118   0.171  1.00  0.00    -0.301 NA
HETATM   13  C9  UNL     1      -0.879   3.845   0.518  1.00  0.00     0.088 C 
HETATM   14  C10 UNL     1      -1.484   2.572   0.149  1.00  0.00     0.030 C 
HETATM   15  C11 UNL     1      -2.291   1.987   1.339  1.00  0.00     0.015 C 
HETATM   16  C12 UNL     1      -2.703   0.560   1.101  1.00  0.00     0.018 C 
HETATM   17  C13 UNL     1      -2.711  -0.464   0.164  1.00  0.00    -0.021 C 
HETATM   18  C14 UNL     1      -3.332  -1.763   0.638  1.00  0.00     0.029 C 
HETATM   19  C15 UNL     1      -2.269  -2.870   0.489  1.00  0.00     0.201 C 
HETATM   20  O3  UNL     1      -1.112  -2.563   1.198  1.00  0.00    -0.279 OA
HETATM   21  C16 UNL     1      -0.493   1.471  -0.177  1.00  0.00     0.049 C 
ENDROOT
TORSDOF 0
