REMARK  5 active torsions:
REMARK  status: ('A' for Active; 'I' for Inactive)
REMARK    1  A    between atoms: C7_7  and  N1_8 
REMARK    2  A    between atoms: N1_8  and  C8_9 
REMARK    3  A    between atoms: C8_9  and  C9_10 
REMARK    4  A    between atoms: C17_22  and  O3_23 
REMARK    5  A    between atoms: O3_23  and  C18_24 
ROOT
HETATM    1  C1  UNL     1       3.098   4.331   3.794  1.00  0.00     0.018 C 
HETATM    2  C2  UNL     1       3.397   3.409   3.077  1.00  0.00    -0.078 C 
HETATM    3  C3  UNL     1       3.777   2.304   2.212  1.00  0.00     0.019 A 
HETATM    4  C4  UNL     1       5.133   2.004   2.111  1.00  0.00     0.021 A 
HETATM    5  C5  UNL     1       5.611   0.981   1.328  1.00  0.00     0.004 A 
HETATM    6  C6  UNL     1       4.697   0.241   0.629  1.00  0.00     0.029 A 
HETATM    7  C7  UNL     1       3.341   0.501   0.697  1.00  0.00     0.029 A 
HETATM    8  C20 UNL     1       2.879   1.541   1.495  1.00  0.00     0.049 A 
ENDROOT
BRANCH   7   9
HETATM    9  N1  UNL     1       2.382  -0.287  -0.026  1.00  0.00    -0.384 N 
HETATM   10  H5  UNL     1       2.765  -1.059  -0.613  1.00  0.00     0.160 HD
BRANCH   9  11
HETATM   11  C8  UNL     1       0.942  -0.022   0.062  1.00  0.00     0.180 C 
BRANCH  11  12
HETATM   12  C9  UNL     1       0.260  -1.107  -0.701  1.00  0.00     0.099 C 
HETATM   13  N2  UNL     1       0.777  -1.916  -1.541  1.00  0.00    -0.243 NA
HETATM   14  C10 UNL     1       0.141  -2.930  -2.233  1.00  0.00     0.233 C 
HETATM   15  N3  UNL     1      -1.139  -3.143  -2.021  1.00  0.00    -0.241 NA
HETATM   16  C11 UNL     1      -1.766  -2.311  -1.070  1.00  0.00     0.101 C 
HETATM   17  C12 UNL     1      -2.922  -3.023  -1.006  1.00  0.00     0.014 C 
HETATM   18  C17 UNL     1      -1.245  -1.051  -0.479  1.00  0.00     0.255 C 
HETATM   19  C13 UNL     1      -4.266  -3.072  -0.349  1.00  0.00     0.111 C 
HETATM   20  C14 UNL     1      -4.177  -1.993   0.417  1.00  0.00     0.108 C 
HETATM   21  O1  UNL     1      -4.353  -0.844   1.368  1.00  0.00    -0.388 OA
HETATM   22  C15 UNL     1      -3.571   0.289   0.991  1.00  0.00     0.194 C 
HETATM   23  C16 UNL     1      -2.126   0.150   1.350  1.00  0.00     0.198 C 
HETATM   24  O2  UNL     1      -1.409  -0.871   0.858  1.00  0.00    -0.343 OA
BRANCH  18  25
HETATM   25  O3  UNL     1      -1.619   0.093  -1.175  1.00  0.00    -0.345 OA
BRANCH  25  26
HETATM   26  C18 UNL     1      -1.496   0.023  -2.537  1.00  0.00     0.167 C 
HETATM   27  C19 UNL     1      -1.923   1.413  -3.044  1.00  0.00     0.033 C 
ENDBRANCH  25  26
ENDBRANCH  18  25
ENDBRANCH  11  12
ENDBRANCH   9  11
ENDBRANCH   7   9
TORSDOF 5
