REMARK  5 active torsions:
REMARK  status: ('A' for Active; 'I' for Inactive)
REMARK    1  A    between atoms: C7_7  and  C8_8 
REMARK    2  A    between atoms: C16_20  and  O3_21 
REMARK    3  A    between atoms: O3_21  and  C17_22 
REMARK    4  A    between atoms: C17_22  and  C19_24 
REMARK    5  A    between atoms: C19_24  and  N3_25 
ROOT
HETATM    1  C1  UNL     1       4.065   1.354   4.357  1.00  0.00     0.018 C 
HETATM    2  C2  UNL     1       4.068   0.580   3.433  1.00  0.00    -0.078 C 
HETATM    3  C3  UNL     1       4.059  -0.349   2.339  1.00  0.00     0.017 A 
HETATM    4  C4  UNL     1       4.878  -1.453   2.431  1.00  0.00     0.020 A 
HETATM    5  C5  UNL     1       4.888  -2.358   1.395  1.00  0.00     0.002 A 
HETATM    6  C6  UNL     1       4.078  -2.124   0.311  1.00  0.00     0.014 A 
HETATM    7  C7  UNL     1       3.229  -1.044   0.144  1.00  0.00    -0.005 A 
HETATM    8  C20 UNL     1       3.294  -0.199   1.230  1.00  0.00     0.034 A 
ENDROOT
BRANCH   7   9
HETATM    9  C8  UNL     1       2.506  -0.869  -1.101  1.00  0.00     0.079 C 
HETATM   10  N1  UNL     1       2.913  -1.675  -2.052  1.00  0.00    -0.241 NA
HETATM   11  C9  UNL     1       2.312  -1.581  -3.326  1.00  0.00     0.227 C 
HETATM   12  N2  UNL     1       1.408  -0.769  -3.679  1.00  0.00    -0.278 NA
HETATM   13  C10 UNL     1       0.849   0.238  -2.751  1.00  0.00     0.194 C 
HETATM   14  C11 UNL     1       1.286  -0.123  -1.391  1.00  0.00     0.028 C 
HETATM   15  C12 UNL     1       0.496   0.041  -0.307  1.00  0.00     0.114 C 
HETATM   16  O1  UNL     1       0.600  -0.371   1.010  1.00  0.00    -0.345 OA
HETATM   17  C15 UNL     1      -0.773   0.745  -0.163  1.00  0.00     0.124 C 
HETATM   18  C13 UNL     1      -0.411  -1.056   1.724  1.00  0.00     0.202 C 
HETATM   19  C14 UNL     1      -1.628  -0.175   1.901  1.00  0.00     0.202 C 
HETATM   20  O2  UNL     1      -1.534   0.877   0.972  1.00  0.00    -0.344 OA
HETATM   21  C16 UNL     1      -1.264   1.351  -1.248  1.00  0.00     0.174 C 
BRANCH  21  22
HETATM   22  O3  UNL     1      -2.441   2.054  -1.293  1.00  0.00    -0.354 OA
BRANCH  22  23
HETATM   23  C17 UNL     1      -3.746   1.555  -1.404  1.00  0.00     0.151 C 
HETATM   24  C18 UNL     1      -4.715   2.694  -1.512  1.00  0.00     0.042 C 
BRANCH  23  25
HETATM   25  C19 UNL     1      -4.158   0.583  -0.345  1.00  0.00     0.298 C 
BRANCH  25  26
HETATM   26  N3  UNL     1      -5.548   0.153  -0.609  1.00  0.00     0.080 N 
HETATM   27  H19 UNL     1      -5.697  -0.837  -0.287  1.00  0.00     0.312 HD
HETATM   28  H20 UNL     1      -5.720   0.144  -1.635  1.00  0.00     0.312 HD
ENDBRANCH  25  26
ENDBRANCH  23  25
ENDBRANCH  22  23
ENDBRANCH  21  22
ENDBRANCH   7   9
TORSDOF 5
