REMARK  4 active torsions:
REMARK  status: ('A' for Active; 'I' for Inactive)
REMARK    1  A    between atoms: C7_7  and  N1_8 
REMARK    2  A    between atoms: N1_8  and  C8_9 
REMARK    3  A    between atoms: C12_15  and  O1_16 
REMARK    4  A    between atoms: O1_16  and  C13_17 
ROOT
HETATM    1  C1  UNL     1       7.970  -1.850   0.279  1.00  0.00     0.018 C 
HETATM    2  C2  UNL     1       7.061  -1.111  -0.046  1.00  0.00    -0.078 C 
HETATM    3  C3  UNL     1       5.990  -0.248  -0.450  1.00  0.00     0.019 A 
HETATM    4  C4  UNL     1       6.201   0.795  -1.288  1.00  0.00     0.021 A 
HETATM    5  C5  UNL     1       5.130   1.583  -1.636  1.00  0.00     0.004 A 
HETATM    6  C6  UNL     1       3.857   1.314  -1.139  1.00  0.00     0.029 A 
HETATM    7  C7  UNL     1       3.605   0.259  -0.283  1.00  0.00     0.035 A 
HETATM    8  C21 UNL     1       4.743  -0.499   0.028  1.00  0.00     0.050 A 
ENDROOT
BRANCH   7   9
HETATM    9  N1  UNL     1       2.263   0.034   0.155  1.00  0.00    -0.340 N 
HETATM   10  H5  UNL     1       2.447  -0.219   1.139  1.00  0.00     0.167 HD
BRANCH   9  11
HETATM   11  C8  UNL     1       1.196   0.204  -0.759  1.00  0.00     0.144 A 
HETATM   12  N2  UNL     1       1.519   0.517  -2.018  1.00  0.00    -0.223 NA
HETATM   13  C9  UNL     1       0.652   0.709  -3.015  1.00  0.00     0.236 A 
HETATM   14  N3  UNL     1      -0.645   0.576  -2.720  1.00  0.00    -0.241 NA
HETATM   15  C10 UNL     1      -1.046   0.265  -1.486  1.00  0.00     0.077 A 
HETATM   16  C11 UNL     1      -2.376   0.130  -1.194  1.00  0.00     0.072 A 
HETATM   17  C18 UNL     1      -0.140   0.070  -0.471  1.00  0.00     0.075 A 
HETATM   18  C12 UNL     1      -2.861  -0.189   0.056  1.00  0.00     0.107 A 
HETATM   19  C16 UNL     1      -1.874  -0.372   1.039  1.00  0.00     0.136 A 
HETATM   20  C17 UNL     1      -0.510  -0.247   0.796  1.00  0.00     0.121 A 
HETATM   21  O3  UNL     1      -2.241  -0.698   2.345  1.00  0.00    -0.344 OA
HETATM   22  O2  UNL     1       0.396  -0.443   1.814  1.00  0.00    -0.345 OA
HETATM   23  C19 UNL     1       0.031  -0.543   3.171  1.00  0.00     0.202 C 
HETATM   24  C20 UNL     1      -1.418  -0.234   3.405  1.00  0.00     0.202 C 
BRANCH  18  25
HETATM   25  O1  UNL     1      -4.166  -0.340   0.421  1.00  0.00    -0.344 OA
BRANCH  25  26
HETATM   26  C13 UNL     1      -5.265  -0.197  -0.432  1.00  0.00     0.121 C 
HETATM   27  C14 UNL     1      -6.213   0.866   0.137  1.00  0.00     0.040 C 
HETATM   28  C15 UNL     1      -6.066  -1.506  -0.486  1.00  0.00     0.040 C 
ENDBRANCH  25  26
ENDBRANCH  18  25
ENDBRANCH   9  11
ENDBRANCH   7   9
TORSDOF 4
