REMARK  8 active torsions:
REMARK  status: ('A' for Active; 'I' for Inactive)
REMARK    1  A    between atoms: C3_3  and  C4_4 
REMARK    2  A    between atoms: C5_5  and  C6_6 
REMARK    3  A    between atoms: C6_6  and  N1_7 
REMARK    4  A    between atoms: N1_7  and  C7_8 
REMARK    5  A    between atoms: C10_14  and  O1_15 
REMARK    6  A    between atoms: O1_15  and  C11_16 
REMARK    7  A    between atoms: C11_16  and  C12_17 
REMARK    8  A    between atoms: C12_17  and  C13_18 
ROOT
HETATM    1  C7  UNL     1      -1.158   0.611   1.494  1.00  0.00     0.142 A 
HETATM    2  N2  UNL     1      -1.185   1.898   1.864  1.00  0.00    -0.224 NA
HETATM    3  C8  UNL     1      -0.120   2.653   2.151  1.00  0.00     0.237 A 
HETATM    4  N3  UNL     1       1.131   2.118   2.077  1.00  0.00    -0.221 NA
HETATM    5  C9  UNL     1       1.222   0.806   1.706  1.00  0.00     0.170 A 
HETATM    6  N4  UNL     1       2.452   0.279   1.665  1.00  0.00    -0.201 NA
HETATM    7  C10 UNL     1       2.692  -0.993   1.350  1.00  0.00     0.203 A 
HETATM    8  C15 UNL     1       1.557  -1.764   1.055  1.00  0.00     0.156 A 
HETATM    9  C16 UNL     1       0.280  -1.227   1.094  1.00  0.00     0.124 A 
HETATM   10  C17 UNL     1       0.100   0.079   1.424  1.00  0.00     0.094 A 
HETATM   11  O2  UNL     1      -0.754  -2.085   0.785  1.00  0.00    -0.345 OA
HETATM   12  C18 UNL     1      -0.684  -3.284   0.083  1.00  0.00     0.202 C 
HETATM   13  C19 UNL     1       0.738  -3.709  -0.198  1.00  0.00     0.202 C 
HETATM   14  O3  UNL     1       1.649  -3.107   0.705  1.00  0.00    -0.342 OA
ENDROOT
BRANCH   1  15
HETATM   15  N1  UNL     1      -2.346  -0.084   1.173  1.00  0.00    -0.370 N 
HETATM   16  H10 UNL     1      -2.541  -1.027   0.831  1.00  0.00     0.161 HD
BRANCH  15  17
HETATM   17  C6  UNL     1      -3.700   0.425   1.247  1.00  0.00     0.148 C 
BRANCH  17  18
HETATM   18  C5  UNL     1      -3.795   1.641   0.411  1.00  0.00    -0.007 C 
HETATM   19  C4  UNL     1      -4.492   1.960  -0.662  1.00  0.00    -0.003 C 
BRANCH  19  20
HETATM   20  C3  UNL     1      -5.457   1.202  -1.445  1.00  0.00    -0.005 C 
HETATM   21  C2  UNL     1      -6.126   1.593  -2.511  1.00  0.00    -0.031 C 
HETATM   22  C1  UNL     1      -6.472   2.598  -3.519  1.00  0.00     0.036 C 
ENDBRANCH  19  20
ENDBRANCH  17  18
ENDBRANCH  15  17
ENDBRANCH   1  15
BRANCH   7  23
HETATM   23  O1  UNL     1       3.902  -1.709   1.268  1.00  0.00    -0.332 OA
BRANCH  23  24
HETATM   24  C11 UNL     1       5.131  -1.018   1.525  1.00  0.00     0.177 C 
BRANCH  24  25
HETATM   25  C12 UNL     1       5.351   0.118   0.551  1.00  0.00     0.026 C 
BRANCH  25  26
HETATM   26  C13 UNL     1       5.446  -0.548  -0.827  1.00  0.00    -0.002 C 
HETATM   27  C14 UNL     1       5.658   0.438  -1.923  1.00  0.00     0.005 C 
ENDBRANCH  25  26
ENDBRANCH  24  25
ENDBRANCH  23  24
ENDBRANCH   7  23
TORSDOF 8
