REMARK  3 active torsions:
REMARK  status: ('A' for Active; 'I' for Inactive)
REMARK    1  A    between atoms: C2_2  and  C3_3 
REMARK    2  A    between atoms: C3_3  and  O1_5 
REMARK    3  A    between atoms: O1_5  and  C5_6 
ROOT
HETATM    1  C5  UNL     1       2.263   0.167   0.763  1.00  0.00     0.294 C 
HETATM    2  O2  UNL     1       1.639   0.717   1.851  1.00  0.00    -0.338 OA
HETATM    3  C6  UNL     1       0.621   1.145   0.948  1.00  0.00     0.237 C 
HETATM    4  C7  UNL     1      -0.599   1.275   1.640  1.00  0.00    -0.071 C 
HETATM    5  C8  UNL     1      -1.590   1.393   2.221  1.00  0.00    -0.100 C 
HETATM    6  C9  UNL     1      -2.794   1.541   2.956  1.00  0.00     0.122 C 
HETATM    7  C10 UNL     1      -4.004   1.789   2.181  1.00  0.00     0.002 C 
HETATM    8  C11 UNL     1      -4.147   1.896   0.892  1.00  0.00     0.086 C 
HETATM    9  N1  UNL     1      -4.470   2.036  -0.458  1.00  0.00    -0.354 N 
HETATM   10  C12 UNL     1      -4.362   0.939  -1.385  1.00  0.00     0.110 C 
HETATM   11  N2  UNL     1      -5.057  -0.074  -1.088  1.00  0.00    -0.228 NA
HETATM   12  C13 UNL     1      -4.480  -1.385  -1.359  1.00  0.00     0.235 C 
HETATM   13  N3  UNL     1      -3.271  -1.478  -1.898  1.00  0.00    -0.246 NA
HETATM   14  C14 UNL     1      -2.555  -0.269  -2.116  1.00  0.00     0.043 C 
HETATM   15  C15 UNL     1      -1.344   0.184  -1.933  1.00  0.00     0.029 C 
HETATM   16  C16 UNL     1      -0.421   1.282  -2.058  1.00  0.00     0.026 C 
HETATM   17  C17 UNL     1       0.824   1.402  -1.734  1.00  0.00     0.135 C 
HETATM   18  O3  UNL     1       0.929   0.105  -1.224  1.00  0.00    -0.349 OA
HETATM   19  C18 UNL     1       0.888  -0.107   0.188  1.00  0.00     0.223 C 
HETATM   20  C19 UNL     1      -3.570   0.730  -2.649  1.00  0.00     0.137 C 
HETATM   21  H16 UNL     1      -4.791   2.635  -1.218  1.00  0.00     0.166 HD
ENDROOT
BRANCH   1  22
HETATM   22  O1  UNL     1       2.961  -0.998   0.926  1.00  0.00    -0.354 OA
BRANCH  22  23
HETATM   23  C3  UNL     1       4.181  -1.072   0.340  1.00  0.00     0.120 C 
HETATM   24  C4  UNL     1       5.252  -1.106   1.397  1.00  0.00     0.039 C 
BRANCH  23  25
HETATM   25  C2  UNL     1       4.435  -2.109  -0.678  1.00  0.00     0.027 C 
HETATM   26  C1  UNL     1       4.476  -3.521  -0.219  1.00  0.00     0.007 C 
ENDBRANCH  23  25
ENDBRANCH  22  23
ENDBRANCH   1  22
TORSDOF 3
