REMARK  3 active torsions:
REMARK  status: ('A' for Active; 'I' for Inactive)
REMARK    1  A    between atoms: C7_7  and  N1_8 
REMARK    2  A    between atoms: N1_8  and  C8_9 
REMARK    3  A    between atoms: C16_22  and  C17_23 
ROOT
HETATM    1  C1  UNL     1       6.209   3.952   0.294  1.00  0.00     0.018 C 
HETATM    2  C2  UNL     1       5.542   3.219  -0.388  1.00  0.00    -0.078 C 
HETATM    3  C3  UNL     1       4.747   2.349  -1.229  1.00  0.00     0.019 A 
HETATM    4  C4  UNL     1       5.086   2.378  -2.579  1.00  0.00     0.021 A 
HETATM    5  C5  UNL     1       4.318   1.532  -3.386  1.00  0.00     0.004 A 
HETATM    6  C6  UNL     1       3.300   0.724  -2.910  1.00  0.00     0.029 A 
HETATM    7  C7  UNL     1       3.027   0.752  -1.575  1.00  0.00     0.035 A 
HETATM    8  C20 UNL     1       3.743   1.560  -0.717  1.00  0.00     0.050 A 
ENDROOT
BRANCH   7   9
HETATM    9  N1  UNL     1       1.996  -0.033  -0.932  1.00  0.00    -0.340 N 
HETATM   10  H5  UNL     1       2.194  -0.984  -0.550  1.00  0.00     0.167 HD
BRANCH   9  11
HETATM   11  C8  UNL     1       0.639   0.441  -0.772  1.00  0.00     0.140 A 
HETATM   12  N2  UNL     1       0.270   1.196  -1.740  1.00  0.00    -0.224 NA
HETATM   13  C9  UNL     1      -1.016   1.742  -1.757  1.00  0.00     0.230 A 
HETATM   14  N3  UNL     1      -1.772   1.454  -0.804  1.00  0.00    -0.268 NA
HETATM   15  C10 UNL     1      -1.573   0.638   0.347  1.00  0.00     0.179 A 
HETATM   16  C11 UNL     1      -0.209   0.138   0.404  1.00  0.00     0.041 A 
HETATM   17  C16 UNL     1      -2.644  -0.419   0.429  1.00  0.00    -0.025 C 
HETATM   18  C12 UNL     1       0.424  -0.533   1.386  1.00  0.00     0.180 C 
HETATM   19  O1  UNL     1       0.170  -1.060   2.642  1.00  0.00    -0.254 OA
HETATM   20  N4  UNL     1       0.679  -2.247   3.009  1.00  0.00    -0.295 N 
HETATM   21  C13 UNL     1      -0.306  -3.097   3.681  1.00  0.00     0.173 C 
HETATM   22  H9  UNL     1       1.281  -2.741   2.348  1.00  0.00     0.188 HD
HETATM   23  C14 UNL     1      -1.466  -3.146   2.657  1.00  0.00     0.196 C 
HETATM   24  O2  UNL     1      -1.847  -1.805   2.536  1.00  0.00    -0.361 OA
HETATM   25  C15 UNL     1      -2.296  -1.124   1.449  1.00  0.00     0.140 C 
BRANCH  17  26
HETATM   26  C17 UNL     1      -3.709  -0.383  -0.563  1.00  0.00     0.011 C 
HETATM   27  C18 UNL     1      -4.697  -1.488  -0.543  1.00  0.00     0.014 C 
HETATM   28  C19 UNL     1      -4.482   0.935  -0.536  1.00  0.00     0.014 C 
ENDBRANCH  17  26
ENDBRANCH   9  11
ENDBRANCH   7   9
TORSDOF 3
