REMARK  4 active torsions:
REMARK  status: ('A' for Active; 'I' for Inactive)
REMARK    1  A    between atoms: C2_2  and  O1_3 
REMARK    2  A    between atoms: O1_3  and  C3_4 
REMARK    3  A    between atoms: C6_8  and  N1_9 
REMARK    4  A    between atoms: N1_9  and  C7_10 
ROOT
HETATM    1  C3  UNL     1       3.055   0.095   0.108  1.00  0.00     0.319 C 
HETATM    2  O2  UNL     1       1.756  -0.190   0.463  1.00  0.00    -0.325 OA
HETATM    3  C4  UNL     1       0.431   0.069   0.289  1.00  0.00     0.154 C 
HETATM    4  C5  UNL     1      -0.311   1.102   0.154  1.00  0.00     0.045 A 
HETATM    5  C6  UNL     1      -1.582   0.592   0.015  1.00  0.00     0.142 A 
HETATM    6  N2  UNL     1      -2.616   1.414  -0.153  1.00  0.00    -0.224 NA
HETATM    7  C13 UNL     1      -2.500   2.736  -0.196  1.00  0.00     0.234 A 
HETATM    8  N3  UNL     1      -1.259   3.230  -0.059  1.00  0.00    -0.258 NA
HETATM    9  C14 UNL     1      -0.170   2.464   0.113  1.00  0.00     0.004 A 
HETATM   10  B1  UNL     1       0.984   3.785   0.233  1.00  0.00     0.253 B 
HETATM   11  C15 UNL     1       2.772   3.353   0.535  1.00  0.00    -0.052 A 
HETATM   12  C16 UNL     1       3.946   3.886   1.004  1.00  0.00     0.203 A 
HETATM   13  O3  UNL     1       4.764   2.869   0.875  1.00  0.00    -0.344 OA
HETATM   14  P1  UNL     1       3.626   1.865   0.259  1.00  0.00     0.079 P 
ENDROOT
BRANCH   5  15
HETATM   15  N1  UNL     1      -1.934  -0.795   0.020  1.00  0.00    -0.340 N 
HETATM   16  H8  UNL     1      -1.611  -1.783   0.093  1.00  0.00     0.167 HD
BRANCH  15  17
HETATM   17  C7  UNL     1      -3.308  -1.218  -0.117  1.00  0.00     0.036 A 
HETATM   18  C8  UNL     1      -4.162  -0.442   0.678  1.00  0.00     0.029 A 
HETATM   19  C9  UNL     1      -5.536  -0.682   0.651  1.00  0.00     0.005 A 
HETATM   20  C10 UNL     1      -6.081  -1.674  -0.145  1.00  0.00     0.042 A 
HETATM   21  C11 UNL     1      -5.238  -2.434  -0.924  1.00  0.00     0.118 A 
HETATM   22  F1  UNL     1      -5.603  -3.443  -1.758  1.00  0.00    -0.206 F 
HETATM   23  C12 UNL     1      -3.897  -2.191  -0.889  1.00  0.00     0.071 A 
ENDBRANCH  15  17
ENDBRANCH   5  15
BRANCH   1  24
HETATM   24  O1  UNL     1       3.987  -0.776   0.723  1.00  0.00    -0.355 OA
BRANCH  24  25
HETATM   25  C2  UNL     1       4.683  -1.498  -0.255  1.00  0.00     0.167 C 
HETATM   26  C1  UNL     1       5.695  -2.450   0.321  1.00  0.00     0.033 C 
ENDBRANCH  24  25
ENDBRANCH   1  24
TORSDOF 4
