REMARK  2 active torsions:
REMARK  status: ('A' for Active; 'I' for Inactive)
REMARK    1  A    between atoms: C12_16  and  N3_17 
REMARK    2  A    between atoms: N3_17  and  C13_18 
ROOT
HETATM    1  C1  UNL     1      -5.429   0.813   0.254  1.00  0.00     0.079 C 
HETATM    2  C2  UNL     1      -4.086   0.258  -0.173  1.00  0.00     0.163 C 
HETATM    3  C3  UNL     1      -4.532  -0.853  -1.216  1.00  0.00     0.079 C 
HETATM    4  O1  UNL     1      -3.141   0.959  -0.590  1.00  0.00    -0.353 OA
HETATM    5  C4  UNL     1      -2.406   1.795  -1.188  1.00  0.00     0.198 C 
HETATM    6  C5  UNL     1      -0.921   1.677  -1.370  1.00  0.00     0.202 C 
HETATM    7  O2  UNL     1      -0.144   1.470  -0.141  1.00  0.00    -0.348 OA
HETATM    8  C6  UNL     1      -0.445   0.146   0.354  1.00  0.00     0.087 A 
HETATM    9  C7  UNL     1      -1.702  -0.271   0.626  1.00  0.00     0.074 A 
HETATM   10  C8  UNL     1      -2.561  -1.248   1.025  1.00  0.00     0.077 A 
HETATM   11  C9  UNL     1      -1.633  -2.218   1.238  1.00  0.00     0.069 A 
HETATM   12  C10 UNL     1      -0.277  -2.089   1.057  1.00  0.00     0.077 A 
HETATM   13  N1  UNL     1       0.500  -3.180   1.327  1.00  0.00    -0.241 NA
HETATM   14  C11 UNL     1       1.837  -2.985   1.126  1.00  0.00     0.236 A 
HETATM   15  N2  UNL     1       2.476  -1.847   0.693  1.00  0.00    -0.223 NA
HETATM   16  C12 UNL     1       1.690  -0.776   0.429  1.00  0.00     0.144 A 
HETATM   17  C19 UNL     1       0.339  -0.940   0.623  1.00  0.00     0.072 A 
HETATM   18  O3  UNL     1      -3.734  -0.624   0.945  1.00  0.00    -0.315 OA
ENDROOT
BRANCH  16  19
HETATM   19  N3  UNL     1       2.257   0.431  -0.024  1.00  0.00    -0.340 N 
HETATM   20  H14 UNL     1       1.987   1.358  -0.361  1.00  0.00     0.167 HD
BRANCH  19  21
HETATM   21  C13 UNL     1       3.675   0.560  -0.092  1.00  0.00     0.035 A 
HETATM   22  C14 UNL     1       4.464   1.219  -1.046  1.00  0.00     0.032 A 
HETATM   23  C15 UNL     1       5.838   1.286  -0.974  1.00  0.00     0.046 A 
HETATM   24  C16 UNL     1       6.520   0.693   0.066  1.00  0.00     0.138 A 
HETATM   25  F1  UNL     1       7.852   0.815   0.044  1.00  0.00    -0.204 F 
HETATM   26  C17 UNL     1       5.768   0.027   1.035  1.00  0.00     0.074 A 
HETATM   27 CL1  UNL     1       6.762  -0.678   2.294  1.00  0.00    -0.081 Cl
HETATM   28  C18 UNL     1       4.393  -0.024   0.938  1.00  0.00     0.056 A 
ENDBRANCH  19  21
ENDBRANCH  16  19
TORSDOF 2
