REMARK  2 active torsions:
REMARK  status: ('A' for Active; 'I' for Inactive)
REMARK    1  A    between atoms: C2_2  and  O1_4 
REMARK    2  A    between atoms: O1_4  and  C4_5 
ROOT
HETATM    1  C4  UNL     1      -1.940  -1.062   0.196  1.00  0.00     0.075 C 
HETATM    2  C5  UNL     1      -1.713   0.147   0.785  1.00  0.00     0.162 C 
HETATM    3  C6  UNL     1      -0.468   0.965   0.938  1.00  0.00     0.057 A 
HETATM    4  N1  UNL     1      -1.154   2.085   1.223  1.00  0.00    -0.245 NA
HETATM    5  C7  UNL     1      -0.587   3.309   1.453  1.00  0.00     0.235 A 
HETATM    6  N2  UNL     1       0.750   3.426   1.394  1.00  0.00    -0.224 NA
HETATM    7  C8  UNL     1       1.439   2.311   1.109  1.00  0.00     0.140 A 
HETATM    8  C9  UNL     1       0.944   1.062   0.873  1.00  0.00     0.046 A 
HETATM    9  C10 UNL     1       1.775  -0.166   0.602  1.00  0.00     0.196 C 
HETATM   10  O2  UNL     1       1.247  -1.093  -0.178  1.00  0.00    -0.374 OA
HETATM   11  C11 UNL     1       0.766  -0.940  -1.419  1.00  0.00     0.195 C 
HETATM   12  C12 UNL     1       0.173  -2.339  -1.771  1.00  0.00     0.193 C 
HETATM   13  O3  UNL     1      -0.743  -2.762  -0.939  1.00  0.00    -0.386 OA
HETATM   14  C13 UNL     1      -1.899  -2.395  -0.515  1.00  0.00     0.200 C 
HETATM   15  C14 UNL     1       3.181   0.185   0.398  1.00  0.00     0.005 A 
HETATM   16  C15 UNL     1       3.983  -0.888  -0.009  1.00  0.00     0.056 A 
HETATM   17  C16 UNL     1       5.348  -0.642  -0.172  1.00  0.00     0.138 A 
HETATM   18  F1  UNL     1       6.221  -1.606  -0.563  1.00  0.00    -0.204 F 
HETATM   19  C17 UNL     1       5.910   0.596   0.051  1.00  0.00     0.074 A 
HETATM   20 CL1  UNL     1       7.626   0.890  -0.156  1.00  0.00    -0.081 Cl
HETATM   21  C18 UNL     1       5.123   1.672   0.456  1.00  0.00     0.057 A 
HETATM   22  C19 UNL     1       3.781   1.402   0.608  1.00  0.00     0.044 A 
HETATM   23  N3  UNL     1       2.842   2.406   0.961  1.00  0.00    -0.340 N 
HETATM   24  H19 UNL     1       3.280   3.363   1.135  1.00  0.00     0.167 HD
ENDROOT
BRANCH   1  25
HETATM   25  O1  UNL     1      -3.290  -0.871   0.595  1.00  0.00    -0.378 OA
BRANCH  25  26
HETATM   26  C2  UNL     1      -4.210  -0.048  -0.058  1.00  0.00     0.114 C 
HETATM   27  C1  UNL     1      -5.529  -0.132   0.691  1.00  0.00     0.039 C 
HETATM   28  C3  UNL     1      -4.444  -0.392  -1.512  1.00  0.00     0.039 C 
ENDBRANCH  25  26
ENDBRANCH   1  25
TORSDOF 2
