REMARK  4 active torsions:
REMARK  status: ('A' for Active; 'I' for Inactive)
REMARK    1  A    between atoms: O1_2  and  C2_3 
REMARK    2  A    between atoms: C3_4  and  C4_5 
REMARK    3  A    between atoms: C4_5  and  N1_7 
REMARK    4  A    between atoms: N1_7  and  C5_8 
ROOT
HETATM    1  C2  UNL     1      -1.253   0.377  -0.305  1.00  0.00     0.087 A 
HETATM    2  C3  UNL     1      -0.584  -0.714   0.013  1.00  0.00     0.009 A 
HETATM    3  C11 UNL     1      -1.269  -2.018   0.297  1.00  0.00     0.160 A 
HETATM    4  N2  UNL     1      -2.700  -1.907   0.153  1.00  0.00    -0.385 N 
HETATM    5  C12 UNL     1      -3.463  -0.758  -0.188  1.00  0.00     0.041 A 
HETATM    6  C13 UNL     1      -4.835  -0.866  -0.265  1.00  0.00     0.030 A 
HETATM    7  C14 UNL     1      -5.531   0.276  -0.602  1.00  0.00     0.002 A 
HETATM    8  C15 UNL     1      -4.838   1.444  -0.839  1.00  0.00     0.001 A 
HETATM    9  C16 UNL     1      -3.456   1.483  -0.744  1.00  0.00     0.016 A 
HETATM   10  C17 UNL     1      -2.706   0.373  -0.412  1.00  0.00     0.024 A 
HETATM   11  H12 UNL     1      -3.191  -2.828   0.336  1.00  0.00     0.160 HD
ENDROOT
BRANCH   2  12
HETATM   12  C4  UNL     1       0.862  -0.962   0.181  1.00  0.00     0.213 C 
HETATM   13 CL1  UNL     1       1.204  -1.495   1.853  1.00  0.00    -0.097 Cl
BRANCH  12  14
HETATM   14  N1  UNL     1       1.709   0.117  -0.216  1.00  0.00    -0.369 N 
HETATM   15  H5  UNL     1       1.461   1.069  -0.558  1.00  0.00     0.161 HD
BRANCH  14  16
HETATM   16  C5  UNL     1       3.134  -0.026  -0.182  1.00  0.00     0.029 A 
HETATM   17  C6  UNL     1       4.028   0.969  -0.521  1.00  0.00     0.032 A 
HETATM   18  C7  UNL     1       5.396   0.833  -0.500  1.00  0.00     0.044 A 
HETATM   19  C8  UNL     1       5.951  -0.357  -0.122  1.00  0.00     0.116 A 
HETATM   20  F1  UNL     1       7.303  -0.406  -0.129  1.00  0.00    -0.206 F 
HETATM   21  C9  UNL     1       5.122  -1.384   0.227  1.00  0.00     0.044 A 
HETATM   22  C10 UNL     1       3.761  -1.196   0.188  1.00  0.00     0.032 A 
ENDBRANCH  14  16
ENDBRANCH  12  14
ENDBRANCH   2  12
BRANCH   1  23
HETATM   23  O1  UNL     1      -0.731   1.640  -0.577  1.00  0.00    -0.355 OA
HETATM   24  C1  UNL     1      -0.752   2.546   0.524  1.00  0.00     0.210 C 
ENDBRANCH   1  23
TORSDOF 4
