REMARK  4 active torsions:
REMARK  status: ('A' for Active; 'I' for Inactive)
REMARK    1  A    between atoms: C2_2  and  C3_3 
REMARK    2  A    between atoms: N1_7  and  C7_8 
REMARK    3  A    between atoms: C11_14  and  C12_15 
REMARK    4  A    between atoms: C17_21  and  O2_22 
ROOT
HETATM    1  C7  UNL     1       0.956  -0.752  -0.735  1.00  0.00     0.156 A 
HETATM    2  N2  UNL     1       1.119  -1.824  -1.435  1.00  0.00    -0.224 NA
HETATM    3  C8  UNL     1      -0.002  -2.601  -1.837  1.00  0.00     0.235 A 
HETATM    4  N3  UNL     1      -1.192  -2.243  -1.498  1.00  0.00    -0.243 NA
HETATM    5  C9  UNL     1      -1.410  -1.072  -0.715  1.00  0.00     0.081 A 
HETATM    6  C10 UNL     1      -2.724  -1.025  -0.475  1.00  0.00     0.040 C 
HETATM    7  C11 UNL     1      -3.430   0.014   0.305  1.00  0.00    -0.031 C 
HETATM    8  C15 UNL     1      -2.914   0.798   1.271  1.00  0.00     0.143 C 
HETATM    9  O1  UNL     1      -1.566   0.693   1.652  1.00  0.00    -0.348 OA
HETATM   10  C16 UNL     1      -0.398   0.583   0.916  1.00  0.00     0.231 C 
HETATM   11  C17 UNL     1      -0.235   1.845   0.055  1.00  0.00     0.292 C 
HETATM   12  O3  UNL     1      -0.489   1.045  -1.036  1.00  0.00    -0.330 OA
HETATM   13  C18 UNL     1      -0.343  -0.169  -0.301  1.00  0.00     0.199 A 
ENDROOT
BRANCH   1  14
HETATM   14  N1  UNL     1       2.289  -0.271  -0.534  1.00  0.00    -0.310 N 
HETATM   15  C5  UNL     1       3.023  -0.534   0.681  1.00  0.00     0.026 C 
HETATM   16  C4  UNL     1       3.973   0.351   0.858  1.00  0.00     0.010 C 
HETATM   17  C6  UNL     1       2.621  -1.702   1.499  1.00  0.00     0.070 C 
HETATM   18  C3  UNL     1       4.803   0.620  -0.132  1.00  0.00    -0.025 C 
HETATM   19  C20 UNL     1       4.133   0.937  -1.408  1.00  0.00     0.029 C 
HETATM   20  C19 UNL     1       2.882   0.493  -1.606  1.00  0.00     0.099 C 
BRANCH  18  21
HETATM   21  C2  UNL     1       6.251   0.607   0.003  1.00  0.00    -0.014 C 
HETATM   22  C1  UNL     1       7.558   0.663  -0.138  1.00  0.00     0.032 C 
ENDBRANCH  18  21
ENDBRANCH   1  14
BRANCH  11  23
HETATM   23  O2  UNL     1       0.996   2.454   0.128  1.00  0.00    -0.368 OA
HETATM   24  H19 UNL     1       1.113   2.783   1.055  1.00  0.00     0.212 HD
ENDBRANCH  11  23
BRANCH   7  25
HETATM   25  C12 UNL     1      -4.866   0.159  -0.071  1.00  0.00     0.012 C 
HETATM   26  C13 UNL     1      -5.564   1.224   0.697  1.00  0.00     0.015 C 
HETATM   27  C14 UNL     1      -5.574  -1.158   0.168  1.00  0.00     0.015 C 
ENDBRANCH   7  25
TORSDOF 4
