REMARK  3 active torsions:
REMARK  status: ('A' for Active; 'I' for Inactive)
REMARK    1  A    between atoms: C2_2  and  O1_3 
REMARK    2  A    between atoms: C2_2  and  C6_7 
REMARK    3  A    between atoms: O1_3  and  C3_4 
ROOT
HETATM    1  C6  UNL     1      -0.238  -0.822   0.306  1.00  0.00     0.063 C 
HETATM    2  N1  UNL     1       0.388   0.233   0.629  1.00  0.00    -0.272 NA
HETATM    3  C7  UNL     1      -0.275   1.401   1.118  1.00  0.00     0.270 C 
HETATM    4  N2  UNL     1       0.745   2.484   1.253  1.00  0.00    -0.373 N 
HETATM    5  C8  UNL     1       1.905   1.598   1.428  1.00  0.00     0.040 A 
HETATM    6  C9  UNL     1       2.425   0.759   2.346  1.00  0.00     0.029 A 
HETATM    7  C10 UNL     1       3.691   0.038   2.053  1.00  0.00     0.019 A 
HETATM    8  C11 UNL     1       3.884   0.539   0.845  1.00  0.00     0.019 A 
HETATM    9  I1  UNL     1       5.633  -0.196  -0.079  1.00  0.00    -0.046 I 
HETATM   10  C12 UNL     1       2.954   1.529   0.312  1.00  0.00     0.213 A 
HETATM   11  O2  UNL     1       2.320   1.344  -0.836  1.00  0.00    -0.350 OA
HETATM   12  C13 UNL     1       2.584   0.442  -1.772  1.00  0.00     0.345 C 
HETATM   13  O3  UNL     1       2.507  -0.934  -1.436  1.00  0.00    -0.338 OA
HETATM   14  C14 UNL     1       1.802  -1.817  -2.271  1.00  0.00     0.134 C 
HETATM   15  C15 UNL     1       0.847  -2.259  -1.427  1.00  0.00     0.003 C 
HETATM   16  C16 UNL     1       0.867  -1.736  -0.063  1.00  0.00     0.090 C 
HETATM   17  H12 UNL     1       1.374   3.305   1.335  1.00  0.00     0.161 HD
ENDROOT
BRANCH   1  18
HETATM   18  C2  UNL     1      -1.592  -1.397   0.223  1.00  0.00     0.071 C 
HETATM   19  C1  UNL     1      -1.856  -2.621  -0.196  1.00  0.00     0.073 C 
BRANCH  18  20
HETATM   20  O1  UNL     1      -2.427  -0.380   0.668  1.00  0.00    -0.349 OA
BRANCH  20  21
HETATM   21  C3  UNL     1      -3.665  -0.079   0.061  1.00  0.00     0.120 C 
HETATM   22  C4  UNL     1      -4.330   1.073   0.787  1.00  0.00     0.040 C 
HETATM   23  C5  UNL     1      -3.319   0.377  -1.363  1.00  0.00     0.040 C 
ENDBRANCH  20  21
ENDBRANCH  18  20
ENDBRANCH   1  18
TORSDOF 3
