REMARK  4 active torsions:
REMARK  status: ('A' for Active; 'I' for Inactive)
REMARK    1  A    between atoms: C5_5  and  N1_6 
REMARK    2  A    between atoms: N1_6  and  C6_7 
REMARK    3  A    between atoms: C10_13  and  O1_14 
REMARK    4  A    between atoms: O1_14  and  C11_15 
ROOT
HETATM    1  C1  UNL     1      -6.347   0.837  -1.679  1.00  0.00     0.049 C 
HETATM    2  C2  UNL     1      -5.168   0.738  -0.796  1.00  0.00    -0.041 A 
HETATM    3  C3  UNL     1      -4.068   1.594  -0.925  1.00  0.00     0.010 A 
HETATM    4  C4  UNL     1      -2.981   1.461  -0.069  1.00  0.00     0.030 A 
HETATM    5  C5  UNL     1      -3.002   0.495   0.887  1.00  0.00     0.035 A 
HETATM    6  C19 UNL     1      -4.058  -0.374   1.059  1.00  0.00     0.052 A 
HETATM    7  C20 UNL     1      -5.124  -0.218   0.195  1.00  0.00     0.052 A 
HETATM    8  C21 UNL     1      -6.263  -1.109   0.341  1.00  0.00     0.100 C 
HETATM    9  N4  UNL     1      -7.179  -1.803   0.467  1.00  0.00    -0.191 NA
ENDROOT
BRANCH   5  10
HETATM   10  N1  UNL     1      -1.932   0.338   1.767  1.00  0.00    -0.340 N 
HETATM   11  H6  UNL     1      -1.818  -0.434   2.462  1.00  0.00     0.167 HD
BRANCH  10  12
HETATM   12  C6  UNL     1      -0.722   0.987   2.107  1.00  0.00     0.144 A 
HETATM   13  N2  UNL     1      -0.680   2.001   2.994  1.00  0.00    -0.223 NA
HETATM   14  C7  UNL     1       0.502   2.604   3.300  1.00  0.00     0.236 A 
HETATM   15  N3  UNL     1       1.667   2.213   2.732  1.00  0.00    -0.241 NA
HETATM   16  C8  UNL     1       1.705   1.209   1.838  1.00  0.00     0.077 A 
HETATM   17  C9  UNL     1       2.860   0.764   1.228  1.00  0.00     0.072 A 
HETATM   18  C16 UNL     1       0.498   0.611   1.540  1.00  0.00     0.075 A 
HETATM   19  C10 UNL     1       2.881  -0.270   0.317  1.00  0.00     0.107 A 
HETATM   20  C14 UNL     1       1.686  -0.890  -0.002  1.00  0.00     0.136 A 
HETATM   21  C15 UNL     1       0.527  -0.426   0.624  1.00  0.00     0.121 A 
HETATM   22  O3  UNL     1       1.647  -1.923  -0.901  1.00  0.00    -0.344 OA
HETATM   23  O2  UNL     1      -0.633  -1.083   0.267  1.00  0.00    -0.345 OA
HETATM   24  C17 UNL     1      -0.787  -1.682  -1.021  1.00  0.00     0.202 C 
HETATM   25  C18 UNL     1       0.462  -2.312  -1.534  1.00  0.00     0.202 C 
BRANCH  19  26
HETATM   26  O1  UNL     1       4.020  -0.720  -0.295  1.00  0.00    -0.344 OA
BRANCH  26  27
HETATM   27  C11 UNL     1       5.318  -0.238  -0.108  1.00  0.00     0.121 C 
HETATM   28  C12 UNL     1       6.258  -1.335   0.362  1.00  0.00     0.040 C 
HETATM   29  C13 UNL     1       5.863   0.240  -1.438  1.00  0.00     0.040 C 
ENDBRANCH  26  27
ENDBRANCH  19  26
ENDBRANCH  10  12
ENDBRANCH   5  10
TORSDOF 4
