REMARK  0 active torsions:
REMARK  status: ('A' for Active; 'I' for Inactive)
ROOT
HETATM    1  C1  UNL     1       1.740   0.238  -3.945  1.00  0.00    -0.013 C 
HETATM    2  B1  UNL     1       1.920  -0.427  -2.492  1.00  0.00     0.349 B 
HETATM    3  C2  UNL     1       3.404  -0.229  -1.854  1.00  0.00    -0.062 C 
HETATM    4  C3  UNL     1       3.396   0.003  -0.570  1.00  0.00     0.032 C 
HETATM    5  C4  UNL     1       4.570   0.248   0.411  1.00  0.00     0.025 C 
HETATM    6  C5  UNL     1       4.163   0.467   1.663  1.00  0.00     0.131 C 
HETATM    7  F1  UNL     1       4.187   0.716   2.942  1.00  0.00    -0.205 F 
HETATM    8  C6  UNL     1       2.815   0.240   2.085  1.00  0.00     0.054 A 
HETATM    9 CL1  UNL     1       2.304  -1.175   1.136  1.00  0.00    -0.171 Cl
HETATM   10  C7  UNL     1       1.590   0.055   2.538  1.00  0.00     0.135 A 
HETATM   11  C8  UNL     1       0.208  -0.184   2.947  1.00  0.00     0.144 C 
HETATM   12  N1  UNL     1      -0.599  -0.602   1.898  1.00  0.00    -0.379 N 
HETATM   13  C9  UNL     1      -1.807  -1.292   2.271  1.00  0.00     0.269 C 
HETATM   14  N2  UNL     1      -2.019  -2.300   1.246  1.00  0.00    -0.268 NA
HETATM   15  C10 UNL     1      -1.147  -2.481   0.307  1.00  0.00     0.089 C 
HETATM   16  C11 UNL     1      -0.708  -1.364  -0.284  1.00  0.00     0.007 C 
HETATM   17  C12 UNL     1      -0.297  -0.983  -1.694  1.00  0.00     0.140 C 
HETATM   18  C13 UNL     1      -1.486  -0.210  -2.228  1.00  0.00     0.102 C 
HETATM   19  C14 UNL     1      -2.151   0.492  -1.124  1.00  0.00     0.080 C 
HETATM   20  C15 UNL     1      -1.814   0.649   0.155  1.00  0.00     0.102 C 
HETATM   21  O1  UNL     1      -2.447   1.425   1.141  1.00  0.00    -0.348 OA
HETATM   22  C16 UNL     1      -3.845   1.697   1.033  1.00  0.00     0.202 C 
HETATM   23  C17 UNL     1      -4.371   1.161  -0.283  1.00  0.00     0.202 C 
HETATM   24  O2  UNL     1      -3.376   1.175  -1.276  1.00  0.00    -0.351 OA
HETATM   25  C18 UNL     1      -0.575  -0.115   0.603  1.00  0.00     0.174 C 
HETATM   26  O3  UNL     1       0.776  -0.167  -1.591  1.00  0.00    -0.440 OA
ENDROOT
TORSDOF 0
