REMARK  4 active torsions:
REMARK  status: ('A' for Active; 'I' for Inactive)
REMARK    1  A    between atoms: C5_6  and  N2_7 
REMARK    2  A    between atoms: N2_7  and  C6_8 
REMARK    3  A    between atoms: C6_8  and  C7_9 
REMARK    4  A    between atoms: C7_9  and  C8_10 
ROOT
HETATM    1  N1  UNL     1       5.729  -2.179  -1.626  1.00  0.00    -0.192 NA
HETATM    2  C1  UNL     1       5.140  -1.307  -1.117  1.00  0.00     0.095 C 
HETATM    3  C2  UNL     1       4.409  -0.244  -0.475  1.00  0.00     0.023 C 
HETATM    4  C3  UNL     1       3.139  -0.557  -0.263  1.00  0.00     0.031 C 
HETATM    5  C4  UNL     1       2.173   0.362   0.381  1.00  0.00    -0.020 C 
HETATM    6  C5  UNL     1       1.191  -0.243   1.058  1.00  0.00     0.094 C 
HETATM    7  C16 UNL     1       2.208   1.821   0.339  1.00  0.00     0.009 C 
HETATM    8  C17 UNL     1       3.237   2.556  -0.128  1.00  0.00    -0.025 C 
HETATM    9  C18 UNL     1       4.548   2.242  -0.701  1.00  0.00     0.032 C 
HETATM   10  C19 UNL     1       5.186   0.987  -0.172  1.00  0.00     0.054 C 
ENDROOT
BRANCH   6  11
HETATM   11  N2  UNL     1       1.097  -1.652   1.141  1.00  0.00    -0.398 N 
HETATM   12  H3  UNL     1       2.061  -2.091   1.255  1.00  0.00     0.158 HD
BRANCH  11  13
HETATM   13  C6  UNL     1      -0.118  -2.444   1.092  1.00  0.00     0.125 C 
BRANCH  13  14
HETATM   14  C7  UNL     1      -0.791  -2.426  -0.234  1.00  0.00     0.080 C 
BRANCH  14  15
HETATM   15  C8  UNL     1      -1.252  -1.145  -0.758  1.00  0.00     0.051 A 
HETATM   16  N3  UNL     1      -0.549  -0.353  -1.631  1.00  0.00    -0.245 NA
HETATM   17  C9  UNL     1      -0.927   0.823  -2.082  1.00  0.00     0.234 A 
HETATM   18  N4  UNL     1      -2.082   1.412  -1.734  1.00  0.00    -0.241 NA
HETATM   19  C10 UNL     1      -2.864   0.731  -0.879  1.00  0.00     0.070 A 
HETATM   20  C11 UNL     1      -2.426  -0.497  -0.434  1.00  0.00     0.039 A 
HETATM   21  C15 UNL     1      -3.920   1.507  -0.705  1.00  0.00     0.032 C 
HETATM   22  C12 UNL     1      -3.044  -1.351   0.364  1.00  0.00     0.153 C 
HETATM   23  O1  UNL     1      -4.247  -1.398   1.073  1.00  0.00    -0.337 OA
HETATM   24  C13 UNL     1      -5.241  -0.463   1.475  1.00  0.00     0.343 C 
HETATM   25  O2  UNL     1      -4.844   0.851   1.351  1.00  0.00    -0.363 OA
HETATM   26  C14 UNL     1      -5.180   1.383   0.111  1.00  0.00     0.200 C 
ENDBRANCH  14  15
ENDBRANCH  13  14
ENDBRANCH  11  13
ENDBRANCH   6  11
TORSDOF 4
