REMARK  2 active torsions:
REMARK  status: ('A' for Active; 'I' for Inactive)
REMARK    1  A    between atoms: C2_2  and  O1_3 
REMARK    2  A    between atoms: O1_3  and  C3_4 
ROOT
HETATM    1  C3  UNL     1      -1.573  -0.369   0.288  1.00  0.00     0.132 C 
HETATM    2  C4  UNL     1      -0.415  -0.758  -0.354  1.00  0.00     0.082 C 
HETATM    3  C5  UNL     1      -0.765  -0.106  -1.503  1.00  0.00     0.150 C 
HETATM    4  N1  UNL     1      -0.754   0.822  -2.473  1.00  0.00    -0.252 NA
HETATM    5  C6  UNL     1       0.254   1.656  -2.741  1.00  0.00     0.232 C 
HETATM    6  N2  UNL     1       1.232   1.474  -1.837  1.00  0.00    -0.246 NA
HETATM    7  C7  UNL     1       0.995   1.906  -0.565  1.00  0.00     0.041 C 
HETATM    8  C8  UNL     1       0.118   1.788   0.478  1.00  0.00     0.067 C 
HETATM    9  C9  UNL     1      -1.197   1.884   0.847  1.00  0.00     0.107 C 
HETATM   10  C10 UNL     1      -2.044   0.817   0.754  1.00  0.00     0.138 C 
HETATM   11  O2  UNL     1      -3.380   0.798   1.094  1.00  0.00    -0.344 OA
HETATM   12  C11 UNL     1      -4.033   2.050   1.288  1.00  0.00     0.202 C 
HETATM   13  C12 UNL     1      -3.102   3.061   1.864  1.00  0.00     0.202 C 
HETATM   14  O3  UNL     1      -1.787   3.018   1.331  1.00  0.00    -0.346 OA
HETATM   15  C13 UNL     1       2.154   2.808  -0.386  1.00  0.00     0.097 C 
HETATM   16  C14 UNL     1       3.398   2.093  -0.108  1.00  0.00     0.181 A 
HETATM   17  C15 UNL     1       3.171   0.742  -0.030  1.00  0.00     0.171 A 
HETATM   18  F1  UNL     1       4.447   1.093   0.157  1.00  0.00    -0.378 F 
HETATM   19  C16 UNL     1       4.022  -0.489   0.172  1.00  0.00     0.058 C 
HETATM   20 CL1  UNL     1       5.788  -0.905   0.407  1.00  0.00    -0.085 Cl
HETATM   21  C17 UNL     1       3.196  -1.586   0.167  1.00  0.00    -0.045 C 
HETATM   22  C18 UNL     1       4.128  -2.771   0.372  1.00  0.00     0.046 C 
HETATM   23  C19 UNL     1       1.899  -2.286   0.086  1.00  0.00     0.155 C 
HETATM   24  N3  UNL     1       0.733  -1.540  -0.081  1.00  0.00    -0.382 N 
HETATM   25  H21 UNL     1       0.256  -1.653   0.867  1.00  0.00     0.160 HD
ENDROOT
BRANCH   1  26
HETATM   26  O1  UNL     1      -2.122  -1.637   0.304  1.00  0.00    -0.346 OA
BRANCH  26  27
HETATM   27  C2  UNL     1      -2.936  -2.211  -0.672  1.00  0.00     0.171 C 
HETATM   28  C1  UNL     1      -3.336  -3.638  -0.271  1.00  0.00     0.034 C 
ENDBRANCH  26  27
ENDBRANCH   1  26
TORSDOF 2
