REMARK  5 active torsions:
REMARK  status: ('A' for Active; 'I' for Inactive)
REMARK    1  A    between atoms: C5_5  and  N1_6 
REMARK    2  A    between atoms: N1_6  and  C6_7 
REMARK    3  A    between atoms: C10_14  and  O1_15 
REMARK    4  A    between atoms: O1_15  and  C11_16 
REMARK    5  A    between atoms: C18_24  and  O3_25 
ROOT
HETATM    1  C1  UNL     1       6.155   1.517  -1.485  1.00  0.00     0.049 C 
HETATM    2  C2  UNL     1       5.087   0.887  -0.682  1.00  0.00    -0.041 A 
HETATM    3  C3  UNL     1       4.926  -0.500  -0.730  1.00  0.00     0.010 A 
HETATM    4  C4  UNL     1       3.927  -1.078   0.022  1.00  0.00     0.030 A 
HETATM    5  C5  UNL     1       3.088  -0.332   0.816  1.00  0.00     0.034 A 
HETATM    6  C19 UNL     1       3.241   1.040   0.868  1.00  0.00     0.052 A 
HETATM    7  C20 UNL     1       4.232   1.604   0.120  1.00  0.00     0.052 A 
HETATM    8  C21 UNL     1       4.464   3.039   0.116  1.00  0.00     0.100 C 
HETATM    9  N5  UNL     1       4.639   4.198   0.113  1.00  0.00    -0.191 NA
ENDROOT
BRANCH   5  10
HETATM   10  N1  UNL     1       2.030  -0.857   1.625  1.00  0.00    -0.344 N 
HETATM   11  H6  UNL     1       1.935  -1.202   2.586  1.00  0.00     0.167 HD
BRANCH  10  12
HETATM   12  C6  UNL     1       0.853  -0.871   0.829  1.00  0.00     0.120 C 
HETATM   13  N2  UNL     1       0.456  -0.415  -0.293  1.00  0.00    -0.130 NA
HETATM   14  C7  UNL     1       1.246   0.352  -1.146  1.00  0.00     0.203 A 
HETATM   15  N3  UNL     1       0.065   0.752  -0.851  1.00  0.00    -0.256 N 
HETATM   16  C8  UNL     1      -0.529   1.925  -1.319  1.00  0.00     0.222 C 
HETATM   17  N4  UNL     1      -1.287   2.243  -0.317  1.00  0.00    -0.277 NA
HETATM   18  C9  UNL     1      -1.398   1.492   0.910  1.00  0.00     0.215 C 
HETATM   19  C10 UNL     1      -2.093   0.194   0.771  1.00  0.00     0.076 C 
HETATM   20  C14 UNL     1      -1.737  -1.095   0.933  1.00  0.00     0.019 C 
HETATM   21  C15 UNL     1      -0.391  -1.525   1.336  1.00  0.00     0.038 C 
HETATM   22  C18 UNL     1      -2.752  -2.149   0.699  1.00  0.00     0.179 C 
HETATM   23  C16 UNL     1      -0.266  -2.533   2.185  1.00  0.00     0.150 C 
HETATM   24  O2  UNL     1      -1.524  -2.997   2.531  1.00  0.00    -0.359 OA
HETATM   25  C17 UNL     1      -2.442  -3.374   1.527  1.00  0.00     0.211 C 
BRANCH  19  26
HETATM   26  O1  UNL     1      -3.408   0.404   0.382  1.00  0.00    -0.348 OA
BRANCH  26  27
HETATM   27  C11 UNL     1      -3.848   0.815  -0.875  1.00  0.00     0.120 C 
HETATM   28  C12 UNL     1      -5.365   0.829  -0.833  1.00  0.00     0.040 C 
HETATM   29  C13 UNL     1      -3.398  -0.072  -2.007  1.00  0.00     0.040 C 
ENDBRANCH  26  27
ENDBRANCH  19  26
BRANCH  22  30
HETATM   30  O3  UNL     1      -4.000  -1.669   1.118  1.00  0.00    -0.389 OA
HETATM   31  H22 UNL     1      -3.984  -1.720   2.120  1.00  0.00     0.210 HD
ENDBRANCH  22  30
ENDBRANCH  10  12
ENDBRANCH   5  10
TORSDOF 5
