REMARK  4 active torsions:
REMARK  status: ('A' for Active; 'I' for Inactive)
REMARK    1  A    between atoms: C5_5  and  C6_6 
REMARK    2  A    between atoms: C10_12  and  O1_13 
REMARK    3  A    between atoms: O1_13  and  C11_14 
REMARK    4  A    between atoms: C11_14  and  N3_16 
ROOT
HETATM    1  C1  UNL     1      -6.340  -0.736   0.163  1.00  0.00     0.049 C 
HETATM    2  C2  UNL     1      -4.957  -0.209   0.150  1.00  0.00    -0.041 A 
HETATM    3  C3  UNL     1      -4.495   0.592  -0.873  1.00  0.00     0.009 A 
HETATM    4  C4  UNL     1      -3.200   1.062  -0.849  1.00  0.00     0.014 A 
HETATM    5  C5  UNL     1      -2.289   0.772   0.178  1.00  0.00    -0.005 A 
HETATM    6  C17 UNL     1      -2.774  -0.028   1.186  1.00  0.00     0.037 A 
HETATM    7  C18 UNL     1      -4.066  -0.497   1.161  1.00  0.00     0.051 A 
HETATM    8  C19 UNL     1      -4.448  -1.323   2.273  1.00  0.00     0.100 C 
HETATM    9  N4  UNL     1      -4.765  -2.006   3.165  1.00  0.00    -0.191 NA
ENDROOT
BRANCH   5  10
HETATM   10  C6  UNL     1      -1.000   1.414  -0.027  1.00  0.00     0.081 A 
HETATM   11  N1  UNL     1      -1.050   2.759  -0.254  1.00  0.00    -0.240 NA
HETATM   12  C7  UNL     1       0.025   3.517  -0.471  1.00  0.00     0.234 A 
HETATM   13  N2  UNL     1       1.235   2.909  -0.465  1.00  0.00    -0.241 NA
HETATM   14  C8  UNL     1       1.322   1.565  -0.241  1.00  0.00     0.074 A 
HETATM   15  C9  UNL     1       2.589   1.024  -0.270  1.00  0.00     0.072 A 
HETATM   16  C15 UNL     1       0.225   0.784  -0.019  1.00  0.00     0.034 A 
HETATM   17  C10 UNL     1       2.705  -0.332  -0.067  1.00  0.00     0.107 A 
HETATM   18  C13 UNL     1       1.551  -1.088   0.155  1.00  0.00     0.112 A 
HETATM   19  C14 UNL     1       0.282  -0.557   0.186  1.00  0.00     0.017 A 
HETATM   20  O2  UNL     1       1.028  -2.332   0.396  1.00  0.00    -0.343 OA
HETATM   21  C16 UNL     1      -0.313  -1.866   0.438  1.00  0.00     0.218 A 
BRANCH  17  22
HETATM   22  O1  UNL     1       3.920  -0.981  -0.074  1.00  0.00    -0.313 OA
BRANCH  22  23
HETATM   23  C11 UNL     1       5.176  -0.428  -0.273  1.00  0.00     0.355 C 
HETATM   24  C12 UNL     1       5.968  -0.652   1.013  1.00  0.00     0.073 C 
BRANCH  23  25
HETATM   25  N3  UNL     1       5.885  -1.029  -1.397  1.00  0.00     0.107 N 
HETATM   26  H12 UNL     1       6.645  -0.428  -1.747  1.00  0.00     0.316 HD
HETATM   27  H13 UNL     1       6.170  -2.009  -1.206  1.00  0.00     0.316 HD
ENDBRANCH  23  25
ENDBRANCH  22  23
ENDBRANCH  17  22
ENDBRANCH   5  10
TORSDOF 4
