REMARK  3 active torsions:
REMARK  status: ('A' for Active; 'I' for Inactive)
REMARK    1  A    between atoms: C5_5  and  C6_6 
REMARK    2  A    between atoms: C6_6  and  N1_7 
REMARK    3  A    between atoms: N1_7  and  C7_8 
ROOT
HETATM    1  C1  UNL     1       6.230  -0.369   1.894  1.00  0.00     0.049 C 
HETATM    2  C2  UNL     1       5.256  -0.706   0.833  1.00  0.00    -0.044 A 
HETATM    3  C3  UNL     1       5.459  -1.313  -0.318  1.00  0.00    -0.014 A 
HETATM    4  C4  UNL     1       4.234  -1.477  -1.124  1.00  0.00     0.065 A 
HETATM    5  C5  UNL     1       3.193  -0.837  -0.243  1.00  0.00    -0.038 A 
HETATM    6  C19 UNL     1       3.834  -0.434   0.827  1.00  0.00     0.054 A 
HETATM    7  C20 UNL     1       3.159   0.196   1.912  1.00  0.00     0.100 C 
HETATM    8  N4  UNL     1       2.614   0.690   2.803  1.00  0.00    -0.191 NA
ENDROOT
BRANCH   5   9
HETATM    9  C6  UNL     1       1.911  -0.891  -0.900  1.00  0.00     0.157 C 
BRANCH   9  10
HETATM   10  N1  UNL     1       0.802  -0.229  -0.191  1.00  0.00    -0.370 N 
HETATM   11  H9  UNL     1       1.103   0.357   0.666  1.00  0.00     0.161 HD
BRANCH  10  12
HETATM   12  C7  UNL     1      -0.629  -0.237  -0.493  1.00  0.00     0.136 C 
HETATM   13  N2  UNL     1      -0.568  -1.487  -0.513  1.00  0.00    -0.225 NA
HETATM   14  C8  UNL     1      -1.333  -2.592  -0.704  1.00  0.00     0.229 C 
HETATM   15  N3  UNL     1      -2.259  -2.367   0.080  1.00  0.00    -0.280 NA
HETATM   16  C9  UNL     1      -3.460  -3.033   0.466  1.00  0.00     0.181 C 
HETATM   17  C10 UNL     1      -4.668  -2.136   0.034  1.00  0.00     0.140 C 
HETATM   18  C11 UNL     1      -5.952  -2.782   0.007  1.00  0.00     0.041 C 
HETATM   19  O1  UNL     1      -4.566  -0.913   0.722  1.00  0.00    -0.360 OA
HETATM   20  C12 UNL     1      -3.847  -0.103  -0.088  1.00  0.00     0.338 C 
HETATM   21  O2  UNL     1      -3.541   1.183   0.272  1.00  0.00    -0.362 OA
HETATM   22  C13 UNL     1      -2.667   1.649  -0.772  1.00  0.00     0.215 C 
HETATM   23  C14 UNL     1      -1.291   1.093  -0.610  1.00  0.00     0.043 C 
HETATM   24  C15 UNL     1      -0.458   2.165  -0.480  1.00  0.00     0.082 C 
HETATM   25  C16 UNL     1      -0.732   3.594  -0.536  1.00  0.00     0.232 C 
HETATM   26  O4  UNL     1       0.936   2.196  -0.252  1.00  0.00    -0.350 OA
HETATM   27  O3  UNL     1      -0.890   4.017   0.782  1.00  0.00    -0.383 OA
HETATM   28  C17 UNL     1       0.387   3.986   1.333  1.00  0.00     0.194 C 
HETATM   29  C18 UNL     1       1.411   3.267   0.532  1.00  0.00     0.201 C 
ENDBRANCH  10  12
ENDBRANCH   9  10
ENDBRANCH   5   9
TORSDOF 3
