REMARK  3 active torsions:
REMARK  status: ('A' for Active; 'I' for Inactive)
REMARK    1  A    between atoms: C5_5  and  N1_6 
REMARK    2  A    between atoms: N1_6  and  C6_7 
REMARK    3  A    between atoms: C12_18  and  C13_19 
ROOT
HETATM    1  C1  UNL     1       6.100   1.903   1.245  1.00  0.00     0.049 C 
HETATM    2  C2  UNL     1       4.985   1.177   0.585  1.00  0.00    -0.041 A 
HETATM    3  C3  UNL     1       4.425   1.674  -0.578  1.00  0.00     0.010 A 
HETATM    4  C4  UNL     1       3.403   1.027  -1.203  1.00  0.00     0.030 A 
HETATM    5  C5  UNL     1       2.899  -0.149  -0.687  1.00  0.00     0.035 A 
HETATM    6  C17 UNL     1       3.470  -0.650   0.492  1.00  0.00     0.052 A 
HETATM    7  C18 UNL     1       4.522   0.011   1.140  1.00  0.00     0.052 A 
HETATM    8  C19 UNL     1       5.122  -0.495   2.354  1.00  0.00     0.100 C 
HETATM    9  N4  UNL     1       5.613  -0.909   3.310  1.00  0.00    -0.191 NA
ENDROOT
BRANCH   5  10
HETATM   10  N1  UNL     1       1.885  -1.030  -1.110  1.00  0.00    -0.341 N 
HETATM   11  H6  UNL     1       1.883  -1.945  -1.656  1.00  0.00     0.167 HD
BRANCH  10  12
HETATM   12  C6  UNL     1       0.655  -0.484  -0.661  1.00  0.00     0.155 C 
HETATM   13  N2  UNL     1      -0.044   0.423  -0.208  1.00  0.00    -0.216 NA
HETATM   14  C7  UNL     1      -0.626   0.272   1.115  1.00  0.00     0.127 C 
HETATM   15  N3  UNL     1      -0.279  -0.868   1.692  1.00  0.00    -0.270 NA
HETATM   16  C16 UNL     1      -1.622   1.376   1.128  1.00  0.00     0.123 C 
HETATM   17  C8  UNL     1      -0.726  -1.938   0.695  1.00  0.00     0.210 C 
HETATM   18  C9  UNL     1      -0.652  -1.286  -0.680  1.00  0.00     0.205 C 
HETATM   19  O1  UNL     1      -0.430  -2.309  -1.627  1.00  0.00    -0.357 OA
HETATM   20  S1  UNL     1      -2.014  -0.265  -1.139  1.00  0.00    -0.016 SA
HETATM   21  C10 UNL     1      -1.589  -2.945  -2.017  1.00  0.00     0.198 C 
HETATM   22  C11 UNL     1      -2.553  -2.023  -2.766  1.00  0.00     0.211 C 
HETATM   23  O2  UNL     1      -3.227  -1.209  -1.824  1.00  0.00    -0.322 OA
HETATM   24  C12 UNL     1      -2.570   0.707   0.035  1.00  0.00    -0.014 C 
BRANCH  24  25
HETATM   25  C13 UNL     1      -4.003   0.987   0.136  1.00  0.00     0.015 C 
HETATM   26  C14 UNL     1      -4.497   0.500   1.487  1.00  0.00     0.015 C 
HETATM   27  C15 UNL     1      -4.348   2.452   0.015  1.00  0.00     0.015 C 
ENDBRANCH  24  25
ENDBRANCH  10  12
ENDBRANCH   5  10
TORSDOF 3
