REMARK  1 active torsions:
REMARK  status: ('A' for Active; 'I' for Inactive)
REMARK    1  A    between atoms: N2_5  and  C4_6 
ROOT
HETATM    1  N1  UNL     1       4.492  -1.240  -3.082  1.00  0.00    -0.192 NA
HETATM    2  C1  UNL     1       3.897  -1.005  -2.104  1.00  0.00     0.097 C 
HETATM    3  C2  UNL     1       3.187  -0.719  -0.887  1.00  0.00     0.042 A 
HETATM    4  C3  UNL     1       2.185   0.163  -0.937  1.00  0.00     0.116 A 
HETATM    5  N2  UNL     1       1.366   0.572   0.180  1.00  0.00    -0.316 N 
HETATM    6  C14 UNL     1       1.722  -0.068   1.396  1.00  0.00     0.094 A 
HETATM    7  C15 UNL     1       2.689  -0.936   1.525  1.00  0.00    -0.004 A 
HETATM    8  C16 UNL     1       3.543  -1.355   0.388  1.00  0.00     0.080 A 
ENDROOT
BRANCH   5   9
HETATM    9  C4  UNL     1       0.340   1.531   0.023  1.00  0.00     0.150 A 
HETATM   10  N3  UNL     1       0.828   2.770  -0.178  1.00  0.00    -0.223 NA
HETATM   11  C5  UNL     1       0.027   3.831  -0.345  1.00  0.00     0.236 A 
HETATM   12  N4  UNL     1      -1.322   3.659  -0.312  1.00  0.00    -0.241 NA
HETATM   13  C6  UNL     1      -1.852   2.453  -0.115  1.00  0.00     0.075 A 
HETATM   14  C7  UNL     1      -3.228   2.227  -0.061  1.00  0.00     0.035 A 
HETATM   15  C11 UNL     1      -1.025   1.376   0.055  1.00  0.00     0.075 A 
HETATM   16  C8  UNL     1      -3.739   0.951   0.157  1.00  0.00     0.042 A 
HETATM   17  C9  UNL     1      -2.823  -0.076   0.317  1.00  0.00     0.103 A 
HETATM   18  C10 UNL     1      -1.426   0.070   0.276  1.00  0.00     0.118 A 
HETATM   19  O2  UNL     1      -3.291  -1.368   0.538  1.00  0.00    -0.346 OA
HETATM   20  O1  UNL     1      -0.609  -1.038   0.449  1.00  0.00    -0.345 OA
HETATM   21  C12 UNL     1      -1.094  -2.268  -0.091  1.00  0.00     0.202 C 
HETATM   22  C13 UNL     1      -2.527  -2.514   0.209  1.00  0.00     0.202 C 
ENDBRANCH   5   9
TORSDOF 1
