REMARK  0 active torsions:
REMARK  status: ('A' for Active; 'I' for Inactive)
ROOT
HETATM    1  F1  UNL     1      -3.406  -0.600   0.545  1.00  0.00    -0.379 F 
HETATM    2  C1  UNL     1      -4.226  -1.620   0.975  1.00  0.00     0.158 A 
HETATM    3  C2  UNL     1      -4.860  -0.468   0.911  1.00  0.00     0.195 A 
HETATM    4  C3  UNL     1      -4.815   0.945   0.610  1.00  0.00     0.027 C 
HETATM    5  C4  UNL     1      -3.831   1.707   0.192  1.00  0.00     0.094 C 
HETATM    6  N1  UNL     1      -2.465   1.801  -0.188  1.00  0.00    -0.341 N 
HETATM    7  S1  UNL     1      -1.386   2.471   1.067  1.00  0.00    -0.051 SA
HETATM    8  C5  UNL     1      -0.175   3.596   0.319  1.00  0.00     0.143 C 
HETATM    9  C6  UNL     1       0.749   2.816  -0.549  1.00  0.00     0.095 C 
HETATM   10  N2  UNL     1       0.604   1.554  -0.663  1.00  0.00    -0.300 NA
HETATM   11  C7  UNL     1       1.504   0.831  -1.502  1.00  0.00     0.189 C 
HETATM   12  C8  UNL     1       2.590   0.208  -0.662  1.00  0.00    -0.005 A 
HETATM   13  C9  UNL     1       3.274   1.110   0.129  1.00  0.00     0.012 A 
HETATM   14  C10 UNL     1       4.294   0.649   0.947  1.00  0.00     0.001 A 
HETATM   15  C11 UNL     1       4.581  -0.700   0.934  1.00  0.00     0.003 A 
HETATM   16  C12 UNL     1       3.885  -1.569   0.140  1.00  0.00     0.037 A 
HETATM   17  C13 UNL     1       2.871  -1.141  -0.679  1.00  0.00     0.079 A 
HETATM   18  O1  UNL     1       2.107  -1.942  -1.520  1.00  0.00    -0.330 OA
HETATM   19  C14 UNL     1       1.403  -3.036  -0.935  1.00  0.00     0.325 C 
HETATM   20  N3  UNL     1       0.503  -2.430   0.041  1.00  0.00    -0.260 NA
HETATM   21  C15 UNL     1      -0.682  -2.828   0.235  1.00  0.00     0.189 C 
HETATM   22  N4  UNL     1      -2.019  -3.056   0.656  1.00  0.00    -0.400 NA
HETATM   23  C16 UNL     1      -2.891  -2.113   0.704  1.00  0.00     0.346 C 
HETATM   24  H4  UNL     1      -2.294   1.453  -1.176  1.00  0.00     0.173 HD
ENDROOT
TORSDOF 0
