REMARK  4 active torsions:
REMARK  status: ('A' for Active; 'I' for Inactive)
REMARK    1  A    between atoms: C5_5  and  N1_6 
REMARK    2  A    between atoms: N1_6  and  C6_7 
REMARK    3  A    between atoms: C13_17  and  O2_18 
REMARK    4  A    between atoms: O2_18  and  C14_19 
ROOT
HETATM    1  C1  UNL     1       6.940  -0.984   0.655  1.00  0.00     0.049 C 
HETATM    2  C2  UNL     1       5.537  -0.838   0.179  1.00  0.00    -0.041 A 
HETATM    3  C3  UNL     1       4.563  -1.627   0.761  1.00  0.00     0.010 A 
HETATM    4  C4  UNL     1       3.264  -1.483   0.311  1.00  0.00     0.030 A 
HETATM    5  C5  UNL     1       2.990  -0.576  -0.680  1.00  0.00     0.035 A 
HETATM    6  C19 UNL     1       3.997   0.205  -1.246  1.00  0.00     0.052 A 
HETATM    7  C20 UNL     1       5.305   0.084  -0.819  1.00  0.00     0.052 A 
HETATM    8  C21 UNL     1       6.376   0.877  -1.385  1.00  0.00     0.100 C 
HETATM    9  N4  UNL     1       7.236   1.503  -1.857  1.00  0.00    -0.191 NA
ENDROOT
BRANCH   5  10
HETATM   10  N1  UNL     1       1.743  -0.289  -1.273  1.00  0.00    -0.340 N 
HETATM   11  H6  UNL     1       1.188  -0.587  -2.079  1.00  0.00     0.167 HD
BRANCH  10  12
HETATM   12  C6  UNL     1       1.262   0.692  -0.389  1.00  0.00     0.142 C 
HETATM   13  N2  UNL     1       1.550   1.332   0.764  1.00  0.00    -0.224 NA
HETATM   14  C7  UNL     1       0.638   1.176   1.990  1.00  0.00     0.232 C 
HETATM   15  N3  UNL     1      -0.723   1.259   2.022  1.00  0.00    -0.244 NA
HETATM   16  C8  UNL     1      -1.782   1.816   1.309  1.00  0.00     0.311 C 
HETATM   17  O1  UNL     1      -1.040   2.771   0.411  1.00  0.00    -0.319 OA
HETATM   18  C17 UNL     1      -2.597   1.007   0.267  1.00  0.00     0.130 C 
HETATM   19  C9  UNL     1      -1.105   2.011  -0.848  1.00  0.00     0.087 C 
HETATM   20  C10 UNL     1      -0.087   1.083  -0.922  1.00  0.00     0.042 C 
HETATM   21  C18 UNL     1      -2.331   2.703  -1.371  1.00  0.00     0.241 C 
HETATM   22  C11 UNL     1      -0.463  -0.199  -1.726  1.00  0.00     0.021 C 
HETATM   23  C12 UNL     1      -1.571  -0.908  -1.064  1.00  0.00     0.040 C 
HETATM   24  C13 UNL     1      -2.704  -0.363  -0.091  1.00  0.00     0.103 C 
HETATM   25  O3  UNL     1      -3.375   2.109  -0.428  1.00  0.00    -0.342 OA
BRANCH  24  26
HETATM   26  O2  UNL     1      -3.584  -1.342   0.223  1.00  0.00    -0.344 OA
BRANCH  26  27
HETATM   27  C14 UNL     1      -4.984  -1.291   0.193  1.00  0.00     0.121 C 
HETATM   28  C15 UNL     1      -5.620  -2.600   0.598  1.00  0.00     0.040 C 
HETATM   29  C16 UNL     1      -5.471  -0.164   1.092  1.00  0.00     0.040 C 
ENDBRANCH  26  27
ENDBRANCH  24  26
ENDBRANCH  10  12
ENDBRANCH   5  10
TORSDOF 4
