REMARK  11 active torsions:
REMARK  status: ('A' for Active; 'I' for Inactive)
REMARK    1  A    between atoms: C2_2  and  C3_3 
REMARK    2  A    between atoms: C2_2  and  O3_8 
REMARK    3  A    between atoms: C3_3  and  O1_4 
REMARK    4  A    between atoms: O1_4  and  C4_5 
REMARK    5  A    between atoms: C4_5  and  C5_6 
REMARK    6  A    between atoms: C5_6  and  O2_7 
REMARK    7  A    between atoms: O3_8  and  C6_9 
REMARK    8  A    between atoms: C10_13  and  N5_28 
REMARK    9  A    between atoms: C11_15  and  N5_28 
REMARK   10  A    between atoms: C12_17  and  N3_18 
REMARK   11  A    between atoms: N3_18  and  C13_19 
ROOT
HETATM    1  C13 UNL     1       4.962   0.255   1.122  1.00  0.00     0.031 A 
HETATM    2  C14 UNL     1       5.158  -1.080   1.448  1.00  0.00     0.032 A 
HETATM    3  C15 UNL     1       6.308  -1.768   1.151  1.00  0.00     0.046 A 
HETATM    4  C16 UNL     1       7.299  -1.083   0.496  1.00  0.00     0.137 A 
HETATM    5  F1  UNL     1       8.428  -1.802   0.211  1.00  0.00    -0.204 F 
HETATM    6  C17 UNL     1       7.216   0.236   0.118  1.00  0.00     0.085 A 
HETATM    7  C18 UNL     1       8.307   0.901  -0.589  1.00  0.00     0.102 C 
HETATM    8  N4  UNL     1       9.180   1.449  -1.162  1.00  0.00    -0.191 NA
HETATM    9  C19 UNL     1       6.015   0.886   0.453  1.00  0.00     0.055 A 
ENDROOT
BRANCH   1  10
HETATM   10  N3  UNL     1       3.986   1.226   1.270  1.00  0.00    -0.358 N 
HETATM   11  H13 UNL     1       3.763   1.861   2.076  1.00  0.00     0.162 HD
BRANCH  10  12
HETATM   12  C12 UNL     1       2.985   1.580   0.212  1.00  0.00     0.182 A 
HETATM   13  C9  UNL     1       1.664   1.256  -0.054  1.00  0.00     0.088 A 
HETATM   14  C8  UNL     1       0.895   0.109   0.285  1.00  0.00     0.044 A 
HETATM   15  C10 UNL     1       0.385   1.057  -0.362  1.00  0.00     0.116 A 
HETATM   16  N5  UNL     1       1.680   0.852  -0.277  1.00  0.00     0.000 N 
HETATM   17  C11 UNL     1       1.269   1.927  -1.015  1.00  0.00     0.127 A 
HETATM   18  C7  UNL     1       0.154  -0.982   0.605  1.00  0.00     0.045 A 
HETATM   19  C6  UNL     1      -1.025  -0.645   0.068  1.00  0.00     0.157 A 
HETATM   20  N1  UNL     1      -0.858   0.623  -0.537  1.00  0.00    -0.251 NA
HETATM   21  N2  UNL     1       2.554   2.381  -1.022  1.00  0.00    -0.275 NA
BRANCH  19  22
HETATM   22  O3  UNL     1      -2.248  -0.750  -0.244  1.00  0.00    -0.328 OA
BRANCH  22  23
HETATM   23  C2  UNL     1      -3.350  -1.444  -0.158  1.00  0.00     0.150 C 
HETATM   24  C1  UNL     1      -3.913  -1.790  -1.555  1.00  0.00     0.042 C 
BRANCH  23  25
HETATM   25  C3  UNL     1      -4.514  -0.567   0.462  1.00  0.00     0.199 C 
BRANCH  25  26
HETATM   26  O1  UNL     1      -4.654   0.521  -0.351  1.00  0.00    -0.387 OA
BRANCH  26  27
HETATM   27  C4  UNL     1      -5.585   1.458  -0.054  1.00  0.00     0.193 C 
BRANCH  27  28
HETATM   28  C5  UNL     1      -7.020   1.025  -0.054  1.00  0.00     0.190 C 
BRANCH  28  29
HETATM   29  O2  UNL     1      -7.322   0.019   0.862  1.00  0.00    -0.399 OA
HETATM   30  H11 UNL     1      -7.885  -0.693   0.462  1.00  0.00     0.209 HD
ENDBRANCH  28  29
ENDBRANCH  27  28
ENDBRANCH  26  27
ENDBRANCH  25  26
ENDBRANCH  23  25
ENDBRANCH  22  23
ENDBRANCH  19  22
ENDBRANCH  10  12
ENDBRANCH   1  10
TORSDOF 11
