REMARK  2 active torsions:
REMARK  status: ('A' for Active; 'I' for Inactive)
REMARK    1  A    between atoms: O1_1  and  C1_2 
REMARK    2  A    between atoms: B1_5  and  C4_6 
ROOT
HETATM    1  C4  UNL     1      -0.743  -0.941   0.298  1.00  0.00    -0.021 C 
HETATM    2  N1  UNL     1      -0.520  -0.968   1.602  1.00  0.00    -0.262 NA
HETATM    3  C5  UNL     1       0.745  -1.389   2.114  1.00  0.00     0.231 C 
HETATM    4  N2  UNL     1       1.931  -1.710   2.572  1.00  0.00    -0.253 NA
HETATM    5  C6  UNL     1       2.940  -0.649   2.554  1.00  0.00     0.134 C 
HETATM    6  C7  UNL     1       3.727  -0.350   1.508  1.00  0.00     0.102 C 
HETATM    7  N3  UNL     1       4.676   0.207   0.623  1.00  0.00    -0.397 N 
HETATM    8  C8  UNL     1       4.334   1.199  -0.342  1.00  0.00     0.122 C 
HETATM    9  C9  UNL     1       3.554   0.870  -1.549  1.00  0.00     0.046 C 
HETATM   10  C10 UNL     1       2.250   0.267  -1.364  1.00  0.00    -0.029 C 
HETATM   11  C11 UNL     1       0.943  -0.084  -1.312  1.00  0.00    -0.026 C 
HETATM   12  C12 UNL     1       0.238  -1.299  -0.743  1.00  0.00     0.069 C 
HETATM   13  H8  UNL     1       5.676  -0.152   0.714  1.00  0.00     0.158 HD
ENDROOT
BRANCH   1  14
HETATM   14  B1  UNL     1      -2.198  -0.437   0.199  1.00  0.00     0.276 B 
HETATM   15  C3  UNL     1      -3.422  -1.428  -0.106  1.00  0.00    -0.009 C 
HETATM   16  C2  UNL     1      -4.495  -0.566  -0.708  1.00  0.00    -0.004 C 
HETATM   17  C1  UNL     1      -4.839   0.596  -0.153  1.00  0.00     0.040 C 
HETATM   18  C14 UNL     1      -4.099   0.982   1.092  1.00  0.00     0.091 C 
HETATM   19  C13 UNL     1      -2.617   1.007   0.694  1.00  0.00     0.140 C 
HETATM   20  F1  UNL     1      -2.541   1.849  -0.398  1.00  0.00    -0.260 F 
BRANCH  17  21
HETATM   21  O1  UNL     1      -5.855   1.312  -0.809  1.00  0.00    -0.365 OA
HETATM   22  H1  UNL     1      -6.058   2.252  -0.556  1.00  0.00     0.217 HD
ENDBRANCH  17  21
ENDBRANCH   1  14
TORSDOF 2
