REMARK  4 active torsions:
REMARK  status: ('A' for Active; 'I' for Inactive)
REMARK    1  A    between atoms: C2_2  and  O1_4 
REMARK    2  A    between atoms: O1_4  and  C4_5 
REMARK    3  A    between atoms: C8_11  and  N3_12 
REMARK    4  A    between atoms: N3_12  and  C9_13 
ROOT
HETATM    1  C9  UNL     1       3.363  -0.462   0.077  1.00  0.00     0.034 C 
HETATM    2  C10 UNL     1       3.911  -1.255   1.012  1.00  0.00     0.029 C 
HETATM    3  C11 UNL     1       5.319  -1.475   1.409  1.00  0.00    -0.001 C 
HETATM    4  C12 UNL     1       6.287  -0.623   1.180  1.00  0.00    -0.021 C 
HETATM    5  C13 UNL     1       6.401   0.711   0.535  1.00  0.00     0.077 C 
HETATM    6  C14 UNL     1       5.429   0.863  -0.566  1.00  0.00     0.028 C 
HETATM    7  C15 UNL     1       5.881   1.686  -1.673  1.00  0.00     0.095 C 
HETATM    8  N4  UNL     1       6.226   2.358  -2.563  1.00  0.00    -0.192 NA
HETATM    9  C16 UNL     1       4.195   0.405  -0.786  1.00  0.00     0.048 C 
ENDROOT
BRANCH   1  10
HETATM   10  N3  UNL     1       1.952  -0.440  -0.102  1.00  0.00    -0.340 N 
HETATM   11  H10 UNL     1       2.120  -1.173  -0.808  1.00  0.00     0.167 HD
BRANCH  10  12
HETATM   12  C8  UNL     1       1.154   0.441   0.659  1.00  0.00     0.144 A 
HETATM   13  N2  UNL     1       1.823   1.215   1.525  1.00  0.00    -0.223 NA
HETATM   14  C7  UNL     1       1.127   2.097   2.302  1.00  0.00     0.236 A 
HETATM   15  N1  UNL     1      -0.203   2.156   2.172  1.00  0.00    -0.241 NA
HETATM   16  C6  UNL     1      -0.921   1.408   1.326  1.00  0.00     0.077 A 
HETATM   17  C5  UNL     1      -2.298   1.459   1.181  1.00  0.00     0.072 A 
HETATM   18  C17 UNL     1      -0.213   0.522   0.546  1.00  0.00     0.075 A 
HETATM   19  C4  UNL     1      -2.976   0.639   0.269  1.00  0.00     0.107 A 
HETATM   20  C19 UNL     1      -2.180  -0.207  -0.459  1.00  0.00     0.136 A 
HETATM   21  C18 UNL     1      -0.813  -0.309  -0.367  1.00  0.00     0.121 A 
HETATM   22  O2  UNL     1      -2.836  -1.017  -1.357  1.00  0.00    -0.344 OA
HETATM   23  O3  UNL     1      -0.164  -1.216  -1.177  1.00  0.00    -0.345 OA
HETATM   24  C21 UNL     1      -0.806  -2.317  -1.780  1.00  0.00     0.202 C 
HETATM   25  C20 UNL     1      -2.284  -2.194  -1.899  1.00  0.00     0.202 C 
BRANCH  19  26
HETATM   26  O1  UNL     1      -4.318   0.865   0.305  1.00  0.00    -0.344 OA
BRANCH  26  27
HETATM   27  C2  UNL     1      -5.350   0.301  -0.403  1.00  0.00     0.121 C 
HETATM   28  C1  UNL     1      -6.085   1.409  -1.137  1.00  0.00     0.040 C 
HETATM   29  C3  UNL     1      -6.306  -0.381   0.556  1.00  0.00     0.040 C 
ENDBRANCH  26  27
ENDBRANCH  19  26
ENDBRANCH  10  12
ENDBRANCH   1  10
TORSDOF 4
