REMARK  6 active torsions:
REMARK  status: ('A' for Active; 'I' for Inactive)
REMARK    1  A    between atoms: C4_5  and  N2_6 
REMARK    2  A    between atoms: N2_6  and  C5_7 
REMARK    3  A    between atoms: C5_7  and  C6_8 
REMARK    4  A    between atoms: C8_11  and  C9_12 
REMARK    5  A    between atoms: C10_13  and  N3_14 
REMARK    6  A    between atoms: C11_15  and  N4_16 
ROOT
HETATM    1  N1  UNL     1      -4.841   3.251  -3.081  1.00  0.00    -0.191 NA
HETATM    2  C1  UNL     1      -4.388   2.638  -2.210  1.00  0.00     0.102 C 
HETATM    3  C2  UNL     1      -3.804   1.888  -1.135  1.00  0.00     0.085 A 
HETATM    4  C3  UNL     1      -3.431   0.592  -1.367  1.00  0.00     0.054 A 
HETATM    5  C4  UNL     1      -2.852  -0.225  -0.386  1.00  0.00     0.029 A 
HETATM    6  C14 UNL     1      -2.706   0.422   0.821  1.00  0.00     0.032 A 
HETATM    7  C15 UNL     1      -3.063   1.711   1.100  1.00  0.00     0.046 A 
HETATM    8  C16 UNL     1      -3.625   2.466   0.101  1.00  0.00     0.137 A 
HETATM    9  F1  UNL     1      -4.022   3.748   0.240  1.00  0.00    -0.204 F 
ENDROOT
BRANCH   5  10
HETATM   10  N2  UNL     1      -2.475  -1.563  -0.630  1.00  0.00    -0.386 N 
HETATM   11  H2  UNL     1      -2.683  -1.897  -1.621  1.00  0.00     0.160 HD
BRANCH  10  12
HETATM   12  C5  UNL     1      -1.867  -2.490   0.268  1.00  0.00     0.156 C 
BRANCH  12  13
HETATM   13  C6  UNL     1      -0.504  -2.004   0.685  1.00  0.00    -0.038 C 
HETATM   14  C7  UNL     1       0.109  -1.684   1.838  1.00  0.00     0.140 C 
HETATM   15  O1  UNL     1       1.427  -1.287   1.538  1.00  0.00    -0.353 OA
HETATM   16  C8  UNL     1       1.767  -2.038   0.362  1.00  0.00     0.155 C 
HETATM   17  C13 UNL     1       0.491  -1.793  -0.416  1.00  0.00     0.074 C 
BRANCH  16  18
HETATM   18  C9  UNL     1       2.982  -1.574  -0.299  1.00  0.00     0.016 C 
HETATM   19  C10 UNL     1       3.618  -0.457  -0.042  1.00  0.00     0.053 C 
BRANCH  19  20
HETATM   20  N3  UNL     1       4.792  -0.183  -0.800  1.00  0.00    -0.277 NA
HETATM   21  C11 UNL     1       5.125   1.070  -0.915  1.00  0.00     0.334 C 
BRANCH  21  22
HETATM   22  N4  UNL     1       4.347   2.092  -0.310  1.00  0.00    -0.248 NA
HETATM   23  C12 UNL     1       4.928   3.254  -0.135  1.00  0.00     0.201 C 
HETATM   24 CL1  UNL     1       3.622   4.176   0.623  1.00  0.00    -0.076 Cl
ENDBRANCH  21  22
ENDBRANCH  19  20
ENDBRANCH  16  18
ENDBRANCH  12  13
ENDBRANCH  10  12
ENDBRANCH   5  10
TORSDOF 6
