REMARK  4 active torsions:
REMARK  status: ('A' for Active; 'I' for Inactive)
REMARK    1  A    between atoms: C2_2  and  O1_4 
REMARK    2  A    between atoms: O1_4  and  C4_5 
REMARK    3  A    between atoms: C4_5  and  C13_18 
REMARK    4  A    between atoms: C5_6  and  C6_7 
ROOT
HETATM    1  C6  UNL     1       0.921   0.562   1.386  1.00  0.00     0.163 C 
HETATM    2  C7  UNL     1       2.075   0.262   2.349  1.00  0.00     0.233 C 
HETATM    3  N1  UNL     1       2.401   1.642   2.670  1.00  0.00    -0.257 NA
HETATM    4  C8  UNL     1       2.177   2.444   1.622  1.00  0.00     0.208 C 
HETATM    5  N2  UNL     1       1.785   1.490   0.593  1.00  0.00    -0.306 N 
HETATM    6  C9  UNL     1       2.257   1.485  -0.792  1.00  0.00     0.192 C 
HETATM    7  F1  UNL     1       2.166   2.755  -1.186  1.00  0.00    -0.186 F 
HETATM    8  C10 UNL     1       2.723   0.381  -1.486  1.00  0.00     0.063 C 
HETATM    9  C11 UNL     1       3.228  -0.902  -0.863  1.00  0.00     0.021 C 
HETATM   10  C12 UNL     1       3.434  -1.163   0.457  1.00  0.00     0.085 C 
HETATM   11  N3  UNL     1       3.085  -0.529   1.724  1.00  0.00    -0.375 N 
HETATM   12  H15 UNL     1       3.878  -0.771   2.376  1.00  0.00     0.161 HD
ENDROOT
BRANCH   1  13
HETATM   13  C5  UNL     1       0.474  -0.598   0.648  1.00  0.00     0.042 C 
HETATM   14  C4  UNL     1      -0.479  -0.485  -0.264  1.00  0.00     0.102 C 
BRANCH  14  15
HETATM   15  O1  UNL     1      -0.925  -1.606  -0.991  1.00  0.00    -0.344 OA
BRANCH  15  16
HETATM   16  C2  UNL     1      -1.388  -2.771  -0.372  1.00  0.00     0.121 C 
HETATM   17  C1  UNL     1      -1.815  -3.850  -1.344  1.00  0.00     0.040 C 
HETATM   18  C3  UNL     1      -2.637  -2.372   0.423  1.00  0.00     0.040 C 
ENDBRANCH  15  16
ENDBRANCH  14  15
BRANCH  14  19
HETATM   19  C13 UNL     1      -1.136   0.779  -0.588  1.00  0.00     0.123 C 
HETATM   20  C14 UNL     1      -2.102   0.887  -1.513  1.00  0.00     0.174 C 
HETATM   21  O2  UNL     1      -2.722   2.071  -1.821  1.00  0.00    -0.358 OA
HETATM   22  C15 UNL     1      -2.668   3.229  -1.019  1.00  0.00     0.201 C 
HETATM   23  C16 UNL     1      -1.694   3.092   0.125  1.00  0.00     0.202 C 
HETATM   24  O3  UNL     1      -0.851   1.989   0.005  1.00  0.00    -0.344 OA
ENDBRANCH  14  19
ENDBRANCH   1  13
TORSDOF 4
