REMARK  1 active torsions:
REMARK  status: ('A' for Active; 'I' for Inactive)
REMARK    1  A    between atoms: N3_7  and  C5_8 
ROOT
HETATM    1  C5  UNL     1       3.687   0.903   0.029  1.00  0.00     0.059 A 
HETATM    2  C6  UNL     1       3.802   2.263   0.068  1.00  0.00     0.034 A 
HETATM    3  C7  UNL     1       5.068   2.762   0.216  1.00  0.00     0.046 A 
HETATM    4  C8  UNL     1       6.188   1.968   0.323  1.00  0.00     0.137 A 
HETATM    5  F1  UNL     1       7.425   2.514   0.463  1.00  0.00    -0.204 F 
HETATM    6  C9  UNL     1       6.090   0.590   0.285  1.00  0.00     0.085 A 
HETATM    7  C10 UNL     1       7.217  -0.310   0.402  1.00  0.00     0.102 C 
HETATM    8  N4  UNL     1       8.125  -1.016   0.485  1.00  0.00    -0.191 NA
HETATM    9  C11 UNL     1       4.781   0.115   0.132  1.00  0.00     0.057 A 
ENDROOT
BRANCH   1  10
HETATM   10  N3  UNL     1       2.539   0.108  -0.087  1.00  0.00    -0.246 N 
HETATM   11  N2  UNL     1       1.816  -1.029  -0.284  1.00  0.00    -0.177 N 
HETATM   12  C4  UNL     1       2.246  -2.209  -0.457  1.00  0.00     0.254 A 
HETATM   13  N1  UNL     1       0.867  -2.166  -0.486  1.00  0.00    -0.240 N 
HETATM   14  C3  UNL     1       0.057  -3.078  -0.824  1.00  0.00     0.106 C 
HETATM   15  C2  UNL     1      -1.298  -2.328  -0.613  1.00  0.00     0.076 C 
HETATM   16  C1  UNL     1      -1.879  -2.884   0.668  1.00  0.00     0.026 C 
HETATM   17  S2  UNL     1      -0.936  -0.551  -0.498  1.00  0.00    -0.189 SA
HETATM   18  C20 UNL     1      -1.773   0.592  -1.239  1.00  0.00    -0.002 A 
HETATM   19  H21 UNL     1      -0.606  -0.130   0.897  1.00  0.00     0.096 HD
HETATM   20  O2  UNL     1      -2.386  -0.641  -1.563  1.00  0.00     0.000 OA
HETATM   21  C14 UNL     1      -1.100   1.949  -0.882  1.00  0.00     0.115 C 
HETATM   22  C13 UNL     1       0.223   1.400  -0.358  1.00  0.00     0.013 C 
HETATM   23  S1  UNL     1      -1.851   2.710   0.582  1.00  0.00    -0.128 SA
HETATM   24  C12 UNL     1       1.387   0.948   0.162  1.00  0.00     0.116 C 
HETATM   25  C15 UNL     1      -2.557   1.391   1.607  1.00  0.00     0.044 C 
HETATM   26  C16 UNL     1      -3.854   1.403   1.181  1.00  0.00     0.006 C 
HETATM   27  C17 UNL     1      -5.174   0.666   1.412  1.00  0.00     0.195 C 
HETATM   28  O1  UNL     1      -5.476   0.152   0.048  1.00  0.00    -0.387 OA
HETATM   29  C18 UNL     1      -4.218  -0.101  -0.378  1.00  0.00     0.168 C 
HETATM   30  C19 UNL     1      -3.859  -0.660  -1.707  1.00  0.00     0.028 C 
ENDBRANCH   1  10
TORSDOF 1
