REMARK  6 active torsions:
REMARK  status: ('A' for Active; 'I' for Inactive)
REMARK    1  A    between atoms: C2_2  and  N2_10 
REMARK    2  A    between atoms: C3_3  and  C4_4 
REMARK    3  A    between atoms: C5_5  and  C6_7 
REMARK    4  A    between atoms: N2_10  and  C8_11 
REMARK    5  A    between atoms: C12_17  and  O1_18 
REMARK    6  A    between atoms: O1_18  and  C13_19 
ROOT
HETATM    1  C6  UNL     1       7.700  -0.748   0.129  1.00  0.00     0.194 C 
HETATM    2  C7  UNL     1       8.125  -0.978   1.519  1.00  0.00     0.066 C 
HETATM    3  N1  UNL     1       8.458  -1.169   2.615  1.00  0.00    -0.197 NA
ENDROOT
BRANCH   1   4
HETATM    4  C5  UNL     1       6.239  -0.867   0.089  1.00  0.00     0.106 C 
HETATM    5  C4  UNL     1       5.401   0.067  -0.282  1.00  0.00     0.041 C 
HETATM    6  F1  UNL     1       5.778  -2.084   0.490  1.00  0.00    -0.210 F 
BRANCH   5   7
HETATM    7  C3  UNL     1       3.968  -0.181  -0.272  1.00  0.00     0.027 C 
HETATM    8  C2  UNL     1       3.084   0.731  -0.639  1.00  0.00     0.007 C 
HETATM    9  C1  UNL     1       3.505   2.094  -1.093  1.00  0.00     0.068 C 
BRANCH   8  10
HETATM   10  N2  UNL     1       1.687   0.465  -0.618  1.00  0.00    -0.344 N 
HETATM   11  H8  UNL     1       1.745   0.101  -1.584  1.00  0.00     0.167 HD
BRANCH  10  12
HETATM   12  C8  UNL     1       0.922   0.763   0.534  1.00  0.00     0.144 A 
HETATM   13  N3  UNL     1       1.633   1.297   1.539  1.00  0.00    -0.223 NA
HETATM   14  C9  UNL     1       0.992   1.624   2.701  1.00  0.00     0.236 A 
HETATM   15  N4  UNL     1      -0.326   1.405   2.814  1.00  0.00    -0.241 NA
HETATM   16  C10 UNL     1      -1.072   0.874   1.836  1.00  0.00     0.077 A 
HETATM   17  C11 UNL     1      -2.448   0.650   1.965  1.00  0.00     0.072 A 
HETATM   18  C18 UNL     1      -0.421   0.551   0.676  1.00  0.00     0.075 A 
HETATM   19  C12 UNL     1      -3.188   0.092   0.913  1.00  0.00     0.107 A 
HETATM   20  C16 UNL     1      -2.451  -0.198  -0.203  1.00  0.00     0.136 A 
HETATM   21  C17 UNL     1      -1.103   0.007  -0.365  1.00  0.00     0.121 A 
HETATM   22  O3  UNL     1      -3.160  -0.750  -1.252  1.00  0.00    -0.344 OA
HETATM   23  O2  UNL     1      -0.501  -0.341  -1.563  1.00  0.00    -0.345 OA
HETATM   24  C19 UNL     1      -1.316  -0.363  -2.720  1.00  0.00     0.202 C 
HETATM   25  C20 UNL     1      -2.517  -1.262  -2.405  1.00  0.00     0.202 C 
BRANCH  19  26
HETATM   26  O1  UNL     1      -4.497  -0.057   1.201  1.00  0.00    -0.344 OA
BRANCH  26  27
HETATM   27  C13 UNL     1      -5.558  -0.553   0.475  1.00  0.00     0.121 C 
HETATM   28  C14 UNL     1      -6.079  -1.796   1.216  1.00  0.00     0.040 C 
HETATM   29  C15 UNL     1      -6.736   0.398   0.398  1.00  0.00     0.040 C 
ENDBRANCH  26  27
ENDBRANCH  19  26
ENDBRANCH  10  12
ENDBRANCH   8  10
ENDBRANCH   5   7
ENDBRANCH   1   4
TORSDOF 6
