REMARK  2 active torsions:
REMARK  status: ('A' for Active; 'I' for Inactive)
REMARK    1  A    between atoms: C2_2  and  O1_4 
REMARK    2  A    between atoms: O1_4  and  C4_5 
ROOT
HETATM    1  C4  UNL     1      -2.061  -0.923  -0.282  1.00  0.00     0.107 A 
HETATM    2  C5  UNL     1      -1.473  -2.185  -0.423  1.00  0.00     0.072 A 
HETATM    3  C6  UNL     1      -0.108  -2.385  -0.406  1.00  0.00     0.076 A 
HETATM    4  N1  UNL     1       0.492  -3.583  -0.514  1.00  0.00    -0.241 NA
HETATM    5  C7  UNL     1       1.846  -3.689  -0.464  1.00  0.00     0.234 A 
HETATM    6  N2  UNL     1       2.635  -2.617  -0.308  1.00  0.00    -0.240 NA
HETATM    7  C8  UNL     1       2.102  -1.362  -0.193  1.00  0.00     0.084 A 
HETATM    8  C9  UNL     1       3.098  -0.324  -0.037  1.00  0.00    -0.005 A 
HETATM    9  C10 UNL     1       3.455   0.815  -0.728  1.00  0.00     0.017 A 
HETATM   10  C11 UNL     1       4.438   1.675  -0.319  1.00  0.00     0.045 A 
HETATM   11  C12 UNL     1       5.143   1.440   0.840  1.00  0.00     0.137 A 
HETATM   12  F1  UNL     1       6.083   2.375   1.117  1.00  0.00    -0.204 F 
HETATM   13  C13 UNL     1       4.832   0.316   1.574  1.00  0.00     0.084 A 
HETATM   14  C14 UNL     1       5.599   0.122   2.769  1.00  0.00     0.102 C 
HETATM   15  N3  UNL     1       6.209  -0.051   3.737  1.00  0.00    -0.191 NA
HETATM   16  C15 UNL     1       3.837  -0.534   1.139  1.00  0.00     0.039 A 
HETATM   17  C16 UNL     1       0.732  -1.324  -0.248  1.00  0.00     0.059 A 
HETATM   18  C17 UNL     1       0.197  -0.067  -0.103  1.00  0.00     0.119 A 
HETATM   19  C18 UNL     1      -1.165   0.103  -0.124  1.00  0.00     0.136 A 
HETATM   20  O2  UNL     1      -1.702   1.372   0.019  1.00  0.00    -0.344 OA
HETATM   21  C19 UNL     1      -0.943   2.504  -0.443  1.00  0.00     0.202 C 
HETATM   22  C20 UNL     1       0.463   2.380   0.102  1.00  0.00     0.202 C 
HETATM   23  O3  UNL     1       0.939   1.075   0.072  1.00  0.00    -0.345 OA
ENDROOT
BRANCH   1  24
HETATM   24  O1  UNL     1      -3.408  -0.974  -0.331  1.00  0.00    -0.344 OA
BRANCH  24  25
HETATM   25  C2  UNL     1      -4.387  -0.009  -0.240  1.00  0.00     0.121 C 
HETATM   26  C1  UNL     1      -5.265  -0.321   0.981  1.00  0.00     0.040 C 
HETATM   27  C3  UNL     1      -5.276   0.067  -1.467  1.00  0.00     0.040 C 
ENDBRANCH  24  25
ENDBRANCH   1  24
TORSDOF 2
