REMARK  7 active torsions:
REMARK  status: ('A' for Active; 'I' for Inactive)
REMARK    1  A    between atoms: C7_7  and  N1_8 
REMARK    2  A    between atoms: N1_8  and  C8_9 
REMARK    3  A    between atoms: C11_14  and  C12_15 
REMARK    4  A    between atoms: C12_15  and  O1_16 
REMARK    5  A    between atoms: O1_16  and  C13_17 
REMARK    6  A    between atoms: C13_17  and  C14_18 
REMARK    7  A    between atoms: C21_27  and  O4_28 
ROOT
HETATM    1  C1  UNL     1       7.268   3.778   0.756  1.00  0.00     0.018 C 
HETATM    2  C2  UNL     1       6.697   2.927   0.123  1.00  0.00    -0.078 C 
HETATM    3  C3  UNL     1       6.016   1.910  -0.622  1.00  0.00     0.019 A 
HETATM    4  C4  UNL     1       6.538   1.546  -1.844  1.00  0.00     0.021 A 
HETATM    5  C5  UNL     1       5.887   0.564  -2.557  1.00  0.00     0.004 A 
HETATM    6  C6  UNL     1       4.757   0.002  -2.017  1.00  0.00     0.029 A 
HETATM    7  C7  UNL     1       4.189   0.326  -0.799  1.00  0.00     0.034 A 
HETATM    8  C23 UNL     1       4.878   1.305  -0.138  1.00  0.00     0.050 A 
ENDROOT
BRANCH   7   9
HETATM    9  N1  UNL     1       3.036  -0.366  -0.436  1.00  0.00    -0.344 N 
HETATM   10  H5  UNL     1       2.623  -1.088  -1.068  1.00  0.00     0.167 HD
BRANCH   9  11
HETATM   11  C8  UNL     1       2.315  -0.194   0.770  1.00  0.00     0.111 A 
HETATM   12  N2  UNL     1       2.915   0.241   1.807  1.00  0.00    -0.228 NA
HETATM   13  C9  UNL     1       2.230   0.425   3.044  1.00  0.00     0.235 A 
HETATM   14  N3  UNL     1       0.987   0.171   3.222  1.00  0.00    -0.246 NA
HETATM   15  C10 UNL     1       0.215  -0.337   2.107  1.00  0.00     0.045 A 
HETATM   16  C11 UNL     1      -1.065  -0.755   2.092  1.00  0.00     0.067 C 
HETATM   17  C22 UNL     1       0.856  -0.489   0.783  1.00  0.00     0.137 A 
BRANCH  16  18
HETATM   18  C12 UNL     1      -1.969  -1.287   1.038  1.00  0.00     0.102 C 
HETATM   19  C18 UNL     1      -3.015  -1.637   1.680  1.00  0.00     0.108 C 
HETATM   20  O3  UNL     1      -4.156  -1.998   2.529  1.00  0.00    -0.350 OA
HETATM   21  C21 UNL     1      -3.949  -2.196   0.613  1.00  0.00     0.179 C 
HETATM   22  C19 UNL     1      -4.198  -3.449   2.530  1.00  0.00     0.178 C 
HETATM   23  C20 UNL     1      -3.916  -3.693   1.028  1.00  0.00     0.065 C 
BRANCH  18  24
HETATM   24  O1  UNL     1      -1.434  -1.232  -0.194  1.00  0.00    -0.346 OA
BRANCH  24  25
HETATM   25  C13 UNL     1      -1.891  -0.699  -1.397  1.00  0.00     0.207 C 
BRANCH  25  26
HETATM   26  C14 UNL     1      -2.771   0.509  -1.303  1.00  0.00     0.145 C 
HETATM   27  C15 UNL     1      -1.988   1.718  -0.838  1.00  0.00     0.036 C 
HETATM   28  C16 UNL     1      -2.670   2.847  -1.584  1.00  0.00     0.029 C 
HETATM   29  C17 UNL     1      -3.674   2.157  -2.461  1.00  0.00     0.168 C 
HETATM   30  O2  UNL     1      -3.164   0.870  -2.608  1.00  0.00    -0.384 OA
ENDBRANCH  25  26
ENDBRANCH  24  25
ENDBRANCH  18  24
BRANCH  21  31
HETATM   31  O4  UNL     1      -5.252  -1.746   0.784  1.00  0.00    -0.389 OA
HETATM   32  H22 UNL     1      -5.936  -2.439   0.634  1.00  0.00     0.210 HD
ENDBRANCH  21  31
ENDBRANCH  16  18
ENDBRANCH   9  11
ENDBRANCH   7   9
TORSDOF 7
