REMARK  4 active torsions:
REMARK  status: ('A' for Active; 'I' for Inactive)
REMARK    1  A    between atoms: C2_2  and  O1_4 
REMARK    2  A    between atoms: O1_4  and  C4_5 
REMARK    3  A    between atoms: C8_11  and  N3_12 
REMARK    4  A    between atoms: N3_12  and  C9_13 
ROOT
HETATM    1  C4  UNL     1      -1.546   0.846  -0.812  1.00  0.00     0.107 A 
HETATM    2  C5  UNL     1      -0.666   1.896  -0.969  1.00  0.00     0.072 A 
HETATM    3  C6  UNL     1       0.488   2.052  -0.233  1.00  0.00     0.077 A 
HETATM    4  N1  UNL     1       1.304   3.103  -0.433  1.00  0.00    -0.241 NA
HETATM    5  C7  UNL     1       2.403   3.202   0.311  1.00  0.00     0.236 A 
HETATM    6  N2  UNL     1       2.711   2.282   1.249  1.00  0.00    -0.223 NA
HETATM    7  C8  UNL     1       1.922   1.209   1.485  1.00  0.00     0.144 A 
HETATM    8  C15 UNL     1       0.779   1.097   0.718  1.00  0.00     0.075 A 
HETATM    9  C16 UNL     1      -0.065   0.011   0.929  1.00  0.00     0.121 A 
HETATM   10  C17 UNL     1      -1.209  -0.102   0.167  1.00  0.00     0.136 A 
HETATM   11  O2  UNL     1      -1.966  -1.214   0.465  1.00  0.00    -0.344 OA
HETATM   12  C18 UNL     1      -1.543  -2.409   1.028  1.00  0.00     0.202 C 
HETATM   13  C19 UNL     1      -0.135  -2.315   1.536  1.00  0.00     0.202 C 
HETATM   14  O3  UNL     1       0.169  -0.980   1.866  1.00  0.00    -0.345 OA
ENDROOT
BRANCH   7  15
HETATM   15  N3  UNL     1       2.258   0.231   2.491  1.00  0.00    -0.340 N 
HETATM   16  H10 UNL     1       1.935   0.210   3.485  1.00  0.00     0.167 HD
BRANCH  15  17
HETATM   17  C9  UNL     1       3.132  -0.832   2.086  1.00  0.00     0.034 C 
HETATM   18  C10 UNL     1       4.055  -0.562   1.146  1.00  0.00     0.030 C 
HETATM   19  C11 UNL     1       4.937  -1.656   0.745  1.00  0.00     0.015 C 
HETATM   20  C12 UNL     1       4.957  -2.802   1.399  1.00  0.00    -0.014 C 
HETATM   21  C13 UNL     1       4.138  -2.989   2.359  1.00  0.00    -0.012 C 
HETATM   22  C14 UNL     1       3.129  -2.198   2.595  1.00  0.00     0.042 C 
ENDBRANCH  15  17
ENDBRANCH   7  15
BRANCH   1  23
HETATM   23  O1  UNL     1      -2.707   0.603  -1.485  1.00  0.00    -0.344 OA
BRANCH  23  24
HETATM   24  C2  UNL     1      -3.307   1.343  -2.503  1.00  0.00     0.121 C 
HETATM   25  C1  UNL     1      -4.660   1.889  -2.140  1.00  0.00     0.040 C 
HETATM   26  C3  UNL     1      -3.419   0.540  -3.776  1.00  0.00     0.040 C 
ENDBRANCH  23  24
ENDBRANCH   1  23
TORSDOF 4
