REMARK  5 active torsions:
REMARK  status: ('A' for Active; 'I' for Inactive)
REMARK    1  A    between atoms: C2_2  and  C3_3 
REMARK    2  A    between atoms: C6_7  and  N1_8 
REMARK    3  A    between atoms: C7_9  and  N2_10 
REMARK    4  A    between atoms: C8_11  and  N3_12 
REMARK    5  A    between atoms: N3_12  and  C9_13 
ROOT
HETATM    1  N2  UNL     1      -1.657   0.470   0.379  1.00  0.00    -0.237 NA
HETATM    2  C8  UNL     1      -1.751   0.557  -0.916  1.00  0.00     0.208 C 
ENDROOT
BRANCH   1   3
HETATM    3  C7  UNL     1      -0.711   1.226   1.118  1.00  0.00     0.238 C 
HETATM    4  N1  UNL     1       0.552   1.321   1.029  1.00  0.00    -0.200 NA
BRANCH   4   5
HETATM    5  C6  UNL     1       1.391   0.651   0.105  1.00  0.00     0.269 C 
HETATM    6  O1  UNL     1       1.131  -0.521  -0.634  1.00  0.00    -0.289 OA
HETATM    7  C5  UNL     1       2.044  -1.566  -0.887  1.00  0.00     0.142 C 
HETATM    8  C4  UNL     1       3.381  -1.527  -0.773  1.00  0.00     0.004 C 
HETATM    9  C3  UNL     1       4.299  -0.416  -0.360  1.00  0.00     0.029 C 
HETATM   10  C15 UNL     1       3.673   0.873  -0.891  1.00  0.00     0.161 C 
HETATM   11  N4  UNL     1       2.553   1.239  -0.050  1.00  0.00    -0.248 NA
BRANCH   9  12
HETATM   12  C2  UNL     1       4.315  -0.407   1.160  1.00  0.00     0.006 C 
HETATM   13  C1  UNL     1       5.201   0.661   1.717  1.00  0.00     0.006 C 
ENDBRANCH   9  12
ENDBRANCH   4   5
ENDBRANCH   1   3
BRANCH   2  14
HETATM   14  N3  UNL     1      -2.756  -0.267  -1.543  1.00  0.00    -0.351 N 
HETATM   15  H11 UNL     1      -2.456  -0.744  -2.424  1.00  0.00     0.166 HD
BRANCH  14  16
HETATM   16  C9  UNL     1      -4.009  -0.273  -0.828  1.00  0.00     0.034 A 
HETATM   17  C10 UNL     1      -4.979   0.555  -1.370  1.00  0.00     0.032 A 
HETATM   18  C11 UNL     1      -6.192   0.581  -0.694  1.00  0.00     0.046 A 
HETATM   19  C12 UNL     1      -6.395  -0.177   0.442  1.00  0.00     0.138 A 
HETATM   20  F1  UNL     1      -7.604  -0.133   1.097  1.00  0.00    -0.204 F 
HETATM   21  C13 UNL     1      -5.399  -0.985   0.942  1.00  0.00     0.074 A 
HETATM   22 CL1  UNL     1      -5.609  -1.966   2.381  1.00  0.00    -0.081 Cl
HETATM   23  C14 UNL     1      -4.157  -1.056   0.309  1.00  0.00     0.056 A 
ENDBRANCH  14  16
ENDBRANCH   2  14
TORSDOF 5
