REMARK  2 active torsions:
REMARK  status: ('A' for Active; 'I' for Inactive)
REMARK    1  A    between atoms: C11_12  and  C12_13 
REMARK    2  A    between atoms: C12_13  and  C13_14 
ROOT
HETATM    1  C1  UNL     1      -4.284  -0.912  -1.666  1.00  0.00     0.044 C 
HETATM    2  C2  UNL     1      -3.930  -1.469  -0.357  1.00  0.00    -0.079 C 
HETATM    3  C3  UNL     1      -4.354  -0.573   0.508  1.00  0.00     0.004 C 
HETATM    4  C4  UNL     1      -4.962   0.640   0.922  1.00  0.00     0.014 C 
HETATM    5  C5  UNL     1      -4.477   1.298   1.928  1.00  0.00    -0.009 C 
HETATM    6  C6  UNL     1      -3.209   1.580   1.928  1.00  0.00     0.099 C 
HETATM    7  N1  UNL     1      -2.225   1.015   1.036  1.00  0.00    -0.375 N 
HETATM    8  C7  UNL     1      -1.613  -0.027   1.758  1.00  0.00     0.129 C 
HETATM    9  C8  UNL     1      -0.129   0.077   2.075  1.00  0.00     0.079 C 
HETATM   10  C9  UNL     1       0.549   0.022   0.756  1.00  0.00     0.034 C 
HETATM   11  C10 UNL     1       1.335   0.399  -0.195  1.00  0.00     0.005 C 
HETATM   12  C11 UNL     1       2.160   0.638  -1.398  1.00  0.00     0.014 C 
HETATM   13  C17 UNL     1       1.805   1.980  -2.029  1.00  0.00     0.037 C 
HETATM   14  C18 UNL     1       0.291   1.976  -2.331  1.00  0.00     0.194 C 
HETATM   15  O2  UNL     1      -0.397   1.779  -1.102  1.00  0.00    -0.304 OA
HETATM   16  N2  UNL     1      -1.678   1.515  -1.268  1.00  0.00    -0.188 NA
HETATM   17  C19 UNL     1      -2.473   1.862  -0.104  1.00  0.00     0.240 C 
HETATM   18  N3  UNL     1       0.061  -1.051   0.025  1.00  0.00    -0.247 NA
HETATM   19  C20 UNL     1       0.110  -2.291   0.110  1.00  0.00     0.232 C 
HETATM   20  N4  UNL     1      -0.659  -2.609  -1.048  1.00  0.00    -0.258 NA
HETATM   21  C21 UNL     1      -1.940  -2.767  -1.086  1.00  0.00     0.095 C 
HETATM   22  C22 UNL     1      -3.248  -2.779  -0.366  1.00  0.00     0.080 C 
HETATM   23  H26 UNL     1      -2.045   2.036  -2.092  1.00  0.00     0.155 HD
ENDROOT
BRANCH  12  24
HETATM   24  C12 UNL     1       3.615   0.724  -1.004  1.00  0.00     0.040 C 
BRANCH  24  25
HETATM   25  C13 UNL     1       4.134  -0.530  -0.340  1.00  0.00     0.122 C 
HETATM   26  C14 UNL     1       5.582  -0.277  -0.019  1.00  0.00     0.034 C 
HETATM   27  C15 UNL     1       5.560  -0.024   1.477  1.00  0.00     0.029 C 
HETATM   28  C16 UNL     1       4.319  -0.800   1.870  1.00  0.00     0.168 C 
HETATM   29  O1  UNL     1       3.430  -0.687   0.827  1.00  0.00    -0.386 OA
ENDBRANCH  24  25
ENDBRANCH  12  24
TORSDOF 2
