REMARK  7 active torsions:
REMARK  status: ('A' for Active; 'I' for Inactive)
REMARK    1  A    between atoms: C1_2  and  C2_3 
REMARK    2  A    between atoms: C2_3  and  C3_4 
REMARK    3  A    between atoms: C3_4  and  N1_5 
REMARK    4  A    between atoms: N1_5  and  C4_6 
REMARK    5  A    between atoms: C8_12  and  O1_13 
REMARK    6  A    between atoms: O1_13  and  C9_14 
REMARK    7  A    between atoms: C9_14  and  C10_15 
ROOT
HETATM    1  C4  UNL     1      -2.700   0.134  -0.313  1.00  0.00     0.140 A 
HETATM    2  N2  UNL     1      -3.094   0.138  -1.584  1.00  0.00    -0.224 NA
HETATM    3  C5  UNL     1      -2.272  -0.011  -2.630  1.00  0.00     0.236 A 
HETATM    4  N3  UNL     1      -0.951  -0.179  -2.447  1.00  0.00    -0.241 NA
HETATM    5  C6  UNL     1      -0.465  -0.197  -1.218  1.00  0.00     0.077 A 
HETATM    6  C7  UNL     1       0.885  -0.369  -1.003  1.00  0.00     0.072 A 
HETATM    7  C8  UNL     1       1.431  -0.394   0.266  1.00  0.00     0.107 A 
HETATM    8  C14 UNL     1       0.536  -0.235   1.326  1.00  0.00     0.136 A 
HETATM    9  C15 UNL     1      -0.806  -0.065   1.096  1.00  0.00     0.121 A 
HETATM   10  C16 UNL     1      -1.346  -0.040  -0.160  1.00  0.00     0.075 A 
HETATM   11  O3  UNL     1      -1.550   0.076   2.231  1.00  0.00    -0.345 OA
HETATM   12  C17 UNL     1      -0.994   0.670   3.388  1.00  0.00     0.202 C 
HETATM   13  C18 UNL     1       0.219  -0.201   3.742  1.00  0.00     0.202 C 
HETATM   14  O4  UNL     1       1.077  -0.259   2.602  1.00  0.00    -0.344 OA
ENDROOT
BRANCH   7  15
HETATM   15  O1  UNL     1       2.786  -0.565   0.497  1.00  0.00    -0.346 OA
BRANCH  15  16
HETATM   16  C9  UNL     1       3.598  -0.717  -0.675  1.00  0.00     0.207 C 
BRANCH  16  17
HETATM   17  C10 UNL     1       5.021  -0.889  -0.203  1.00  0.00     0.145 C 
HETATM   18  C11 UNL     1       5.519   0.354   0.484  1.00  0.00     0.036 C 
HETATM   19  C12 UNL     1       5.971   1.199  -0.679  1.00  0.00     0.029 C 
HETATM   20  C13 UNL     1       5.934   0.225  -1.830  1.00  0.00     0.168 C 
HETATM   21  O2  UNL     1       5.847  -1.044  -1.308  1.00  0.00    -0.384 OA
ENDBRANCH  16  17
ENDBRANCH  15  16
ENDBRANCH   7  15
BRANCH   1  22
HETATM   22  N1  UNL     1      -3.637   0.305   0.728  1.00  0.00    -0.374 N 
HETATM   23  H7  UNL     1      -3.630   0.352   1.756  1.00  0.00     0.161 HD
BRANCH  22  24
HETATM   24  C3  UNL     1      -5.014   0.468   0.359  1.00  0.00     0.122 C 
BRANCH  24  25
HETATM   25  C2  UNL     1      -5.608  -0.746  -0.332  1.00  0.00     0.034 C 
BRANCH  25  26
HETATM   26  C1  UNL     1      -7.062  -0.363  -0.632  1.00  0.00     0.116 C 
HETATM   27 CL1  UNL     1      -7.112   1.070  -1.683  1.00  0.00    -0.130 Cl
ENDBRANCH  25  26
ENDBRANCH  24  25
ENDBRANCH  22  24
ENDBRANCH   1  22
TORSDOF 7
