REMARK  4 active torsions:
REMARK  status: ('A' for Active; 'I' for Inactive)
REMARK    1  A    between atoms: C12_14  and  N3_15 
REMARK    2  A    between atoms: C17_22  and  O3_23 
REMARK    3  A    between atoms: O3_23  and  C18_24 
REMARK    4  A    between atoms: C18_24  and  C19_25 
ROOT
HETATM    1  C1  UNL     1      -7.570   0.661   1.069  1.00  0.00     0.018 C 
HETATM    2  C2  UNL     1      -6.583   0.248   0.472  1.00  0.00    -0.075 C 
HETATM    3  C3  UNL     1      -5.442  -0.247  -0.244  1.00  0.00     0.044 A 
HETATM    4  C4  UNL     1      -5.718  -0.778  -1.492  1.00  0.00     0.023 A 
HETATM    5  C5  UNL     1      -4.662  -1.269  -2.223  1.00  0.00     0.002 A 
HETATM    6  C6  UNL     1      -3.402  -1.205  -1.674  1.00  0.00     0.012 A 
HETATM    7  C7  UNL     1      -3.096  -0.684  -0.439  1.00  0.00     0.015 A 
HETATM    8  C8  UNL     1      -4.172  -0.176   0.323  1.00  0.00     0.061 A 
HETATM    9  N1  UNL     1      -4.394   0.443   1.622  1.00  0.00    -0.349 N 
HETATM   10  C9  UNL     1      -3.646   0.429   2.878  1.00  0.00     0.208 C 
HETATM   11  N2  UNL     1      -2.568  -0.310   3.222  1.00  0.00    -0.244 NA
HETATM   12  C10 UNL     1      -1.579  -0.882   2.301  1.00  0.00     0.057 C 
HETATM   13  C11 UNL     1      -1.739  -1.619   1.174  1.00  0.00     0.054 C 
HETATM   14  C12 UNL     1      -1.717  -0.718  -0.072  1.00  0.00     0.236 C 
HETATM   15  C13 UNL     1      -0.576  -1.155  -0.753  1.00  0.00     0.228 C 
HETATM   16  O1  UNL     1      -0.505  -0.628  -2.073  1.00  0.00    -0.374 OA
HETATM   17  C14 UNL     1       0.462  -1.363  -2.796  1.00  0.00     0.195 C 
HETATM   18  C15 UNL     1       1.788  -0.829  -2.303  1.00  0.00     0.201 C 
HETATM   19  O2  UNL     1       1.818  -0.920  -0.912  1.00  0.00    -0.348 OA
HETATM   20  C16 UNL     1       0.702  -0.764  -0.074  1.00  0.00     0.111 C 
HETATM   21  C17 UNL     1       1.325  -0.306   1.026  1.00  0.00     0.100 C 
HETATM   22  C23 UNL     1       0.823  -0.039   2.366  1.00  0.00     0.041 C 
HETATM   23  C24 UNL     1      -0.363  -0.338   2.954  1.00  0.00     0.034 C 
HETATM   24  H5  UNL     1      -5.264   1.012   1.666  1.00  0.00     0.166 HD
ENDROOT
BRANCH  14  25
HETATM   25  N3  UNL     1      -1.381   0.687   0.284  1.00  0.00     0.099 N 
HETATM   26  H8  UNL     1      -0.806   1.149  -0.420  1.00  0.00     0.314 HD
HETATM   27  H9  UNL     1      -2.206   1.251   0.493  1.00  0.00     0.314 HD
ENDBRANCH  14  25
BRANCH  21  28
HETATM   28  O3  UNL     1       2.671  -0.001   1.008  1.00  0.00    -0.346 OA
BRANCH  28  29
HETATM   29  C18 UNL     1       3.148   1.196   0.420  1.00  0.00     0.207 C 
BRANCH  29  30
HETATM   30  C19 UNL     1       4.650   1.326   0.514  1.00  0.00     0.145 C 
HETATM   31  C20 UNL     1       5.375   0.279  -0.306  1.00  0.00     0.036 C 
HETATM   32  C21 UNL     1       6.777   0.896  -0.333  1.00  0.00     0.029 C 
HETATM   33  C22 UNL     1       6.452   2.356  -0.242  1.00  0.00     0.168 C 
HETATM   34  O4  UNL     1       5.099   2.512  -0.072  1.00  0.00    -0.384 OA
ENDBRANCH  29  30
ENDBRANCH  28  29
ENDBRANCH  21  28
TORSDOF 4
