REMARK  0 active torsions:
REMARK  status: ('A' for Active; 'I' for Inactive)
ROOT
HETATM    1  C1  UNL     1       4.148   0.789  -1.018  1.00  0.00     0.071 C 
HETATM    2  C2  UNL     1       3.317  -0.469  -1.001  1.00  0.00     0.044 A 
HETATM    3  N1  UNL     1       3.708  -1.403  -1.918  1.00  0.00    -0.246 NA
HETATM    4  C3  UNL     1       2.980  -2.529  -1.923  1.00  0.00     0.235 A 
HETATM    5  N2  UNL     1       1.960  -2.642  -1.055  1.00  0.00    -0.224 NA
HETATM    6  C4  UNL     1       1.573  -1.730  -0.155  1.00  0.00     0.135 A 
HETATM    7  C5  UNL     1       2.267  -0.536  -0.077  1.00  0.00     0.035 A 
HETATM    8  C6  UNL     1       2.136   0.685   0.784  1.00  0.00     0.212 C 
HETATM    9  O1  UNL     1       1.076   1.478   0.478  1.00  0.00    -0.384 OA
HETATM   10  C7  UNL     1       0.898   2.585   1.200  1.00  0.00     0.194 C 
HETATM   11  C8  UNL     1      -0.389   3.394   0.920  1.00  0.00     0.196 C 
HETATM   12  O2  UNL     1      -1.490   2.559   1.176  1.00  0.00    -0.365 OA
HETATM   13  C9  UNL     1      -1.641   1.554   0.259  1.00  0.00     0.338 C 
HETATM   14  O3  UNL     1      -2.688   0.729   0.664  1.00  0.00    -0.358 OA
HETATM   15  C10 UNL     1      -2.838  -0.335  -0.227  1.00  0.00     0.143 C 
HETATM   16  C11 UNL     1      -4.087   0.193  -0.955  1.00  0.00     0.044 C 
HETATM   17  C12 UNL     1      -3.429  -1.552   0.287  1.00  0.00     0.016 C 
HETATM   18  C13 UNL     1      -3.056  -2.664   0.894  1.00  0.00    -0.030 C 
HETATM   19  C14 UNL     1      -1.774  -2.877   0.658  1.00  0.00     0.004 C 
HETATM   20  C15 UNL     1      -0.871  -1.883   0.044  1.00  0.00     0.149 C 
HETATM   21  N3  UNL     1       0.465  -2.436   0.425  1.00  0.00    -0.371 N 
HETATM   22  H21 UNL     1       0.572  -3.246   1.050  1.00  0.00     0.161 HD
ENDROOT
TORSDOF 0
