REMARK  8 active torsions:
REMARK  status: ('A' for Active; 'I' for Inactive)
REMARK    1  A    between atoms: C4_4  and  C5_5 
REMARK    2  A    between atoms: C5_5  and  C6_6 
REMARK    3  A    between atoms: C6_6  and  C7_7 
REMARK    4  A    between atoms: C7_7  and  N1_9 
REMARK    5  A    between atoms: N1_9  and  C9_10 
REMARK    6  A    between atoms: C13_16  and  O1_17 
REMARK    7  A    between atoms: O1_17  and  C14_18 
REMARK    8  A    between atoms: C14_18  and  C15_19 
ROOT
HETATM    1  C1  UNL     1       8.326   4.113   1.487  1.00  0.00     0.017 C 
HETATM    2  C2  UNL     1       7.894   2.998   1.301  1.00  0.00    -0.090 C 
HETATM    3  C3  UNL     1       7.362   1.688   1.086  1.00  0.00     0.060 C 
HETATM    4  C4  UNL     1       6.075   1.641   0.663  1.00  0.00    -0.008 C 
ENDROOT
BRANCH   4   5
HETATM    5  C5  UNL     1       5.721   0.246   0.502  1.00  0.00     0.045 C 
BRANCH   5   6
HETATM    6  C6  UNL     1       5.178  -0.921   0.289  1.00  0.00     0.011 C 
BRANCH   6   7
HETATM    7  C7  UNL     1       3.909  -1.566  -0.138  1.00  0.00     0.021 C 
HETATM    8  C8  UNL     1       3.930  -2.841  -0.179  1.00  0.00     0.042 C 
BRANCH   7   9
HETATM    9  N1  UNL     1       2.851  -0.731  -0.425  1.00  0.00    -0.341 N 
HETATM   10  H8  UNL     1       2.841  -0.440   0.609  1.00  0.00     0.167 HD
BRANCH   9  11
HETATM   11  C9  UNL     1       1.784   0.119  -0.688  1.00  0.00     0.144 A 
HETATM   12  N2  UNL     1       2.237   1.167  -1.407  1.00  0.00    -0.223 NA
HETATM   13  C10 UNL     1       1.405   2.156  -1.803  1.00  0.00     0.236 A 
HETATM   14  N3  UNL     1       0.114   2.070  -1.457  1.00  0.00    -0.241 NA
HETATM   15  C11 UNL     1      -0.365   1.059  -0.749  1.00  0.00     0.077 A 
HETATM   16  C12 UNL     1      -1.684   0.938  -0.349  1.00  0.00     0.072 A 
HETATM   17  C21 UNL     1       0.458   0.038  -0.337  1.00  0.00     0.075 A 
HETATM   18  C13 UNL     1      -2.216  -0.097   0.404  1.00  0.00     0.107 A 
HETATM   19  C19 UNL     1      -1.265  -1.085   0.763  1.00  0.00     0.136 A 
HETATM   20  C20 UNL     1       0.077  -1.045   0.409  1.00  0.00     0.121 A 
HETATM   21  O4  UNL     1      -1.578  -2.229   1.523  1.00  0.00    -0.344 OA
HETATM   22  O3  UNL     1       1.002  -2.000   0.767  1.00  0.00    -0.345 OA
HETATM   23  C22 UNL     1       0.683  -3.159   1.531  1.00  0.00     0.202 C 
HETATM   24  C23 UNL     1      -0.795  -3.407   1.276  1.00  0.00     0.202 C 
BRANCH  18  25
HETATM   25  O1  UNL     1      -3.405  -0.392   0.872  1.00  0.00    -0.346 OA
BRANCH  25  26
HETATM   26  C14 UNL     1      -4.688   0.004   0.938  1.00  0.00     0.207 C 
BRANCH  26  27
HETATM   27  C15 UNL     1      -5.339   0.066  -0.436  1.00  0.00     0.145 C 
HETATM   28  C16 UNL     1      -6.809   0.391  -0.351  1.00  0.00     0.036 C 
HETATM   29  C17 UNL     1      -7.043   1.064  -1.704  1.00  0.00     0.029 C 
HETATM   30  C18 UNL     1      -5.733   1.825  -1.795  1.00  0.00     0.168 C 
HETATM   31  O2  UNL     1      -4.782   0.950  -1.294  1.00  0.00    -0.384 OA
ENDBRANCH  26  27
ENDBRANCH  25  26
ENDBRANCH  18  25
ENDBRANCH   9  11
ENDBRANCH   7   9
ENDBRANCH   6   7
ENDBRANCH   5   6
ENDBRANCH   4   5
TORSDOF 8
