REMARK  5 active torsions:
REMARK  status: ('A' for Active; 'I' for Inactive)
REMARK    1  A    between atoms: C10_11  and  C11_12 
REMARK    2  A    between atoms: C11_12  and  O1_13 
REMARK    3  A    between atoms: C11_12  and  S1_20 
REMARK    4  A    between atoms: O1_13  and  C12_14 
REMARK    5  A    between atoms: C12_14  and  C13_15 
ROOT
HETATM    1  C1  UNL     1       5.633  -1.909  -2.004  1.00  0.00     0.043 C 
HETATM    2  C2  UNL     1       5.224  -1.254  -0.723  1.00  0.00    -0.084 C 
HETATM    3  C3  UNL     1       5.609  -2.026   0.300  1.00  0.00    -0.023 C 
HETATM    4  C4  UNL     1       5.301  -1.600   1.704  1.00  0.00     0.001 C 
HETATM    5  C5  UNL     1       4.730  -0.693   2.535  1.00  0.00     0.055 C 
HETATM    6  C6  UNL     1       3.993   0.515   2.919  1.00  0.00     0.276 C 
HETATM    7  N1  UNL     1       3.514   1.288   1.806  1.00  0.00     0.093 N 
HETATM    8  C7  UNL     1       2.451   0.622   1.162  1.00  0.00     0.258 C 
HETATM    9  C8  UNL     1       1.250   1.561   0.839  1.00  0.00     0.079 C 
HETATM   10  C9  UNL     1       0.971   0.524  -0.186  1.00  0.00    -0.044 C 
HETATM   11  C10 UNL     1      -0.142   0.026  -0.727  1.00  0.00     0.053 C 
HETATM   12  C19 UNL     1       2.458   0.390  -0.256  1.00  0.00    -0.022 C 
HETATM   13  C20 UNL     1       3.262   0.140  -1.313  1.00  0.00    -0.013 C 
HETATM   14  C21 UNL     1       4.651   0.088  -0.815  1.00  0.00     0.061 C 
HETATM   15  H9  UNL     1       3.170   2.201   2.184  1.00  0.00     0.316 HD
ENDROOT
BRANCH  11  16
HETATM   16  C11 UNL     1      -1.519   0.387  -0.448  1.00  0.00     0.122 C 
BRANCH  16  17
HETATM   17  O1  UNL     1      -2.540  -0.311  -1.141  1.00  0.00    -0.340 OA
BRANCH  17  18
HETATM   18  C12 UNL     1      -2.984  -1.488  -0.494  1.00  0.00     0.210 C 
BRANCH  18  19
HETATM   19  C13 UNL     1      -4.042  -2.238  -1.225  1.00  0.00     0.170 C 
HETATM   20  C14 UNL     1      -5.309  -1.475  -1.471  1.00  0.00     0.052 C 
HETATM   21  C15 UNL     1      -6.270  -2.669  -1.580  1.00  0.00     0.120 C 
HETATM   22  N2  UNL     1      -5.723  -3.486  -0.500  1.00  0.00    -0.205 NA
HETATM   23  O2  UNL     1      -4.403  -3.370  -0.508  1.00  0.00    -0.298 OA
HETATM   24  H21 UNL     1      -6.137  -3.113   0.384  1.00  0.00     0.153 HD
ENDBRANCH  18  19
ENDBRANCH  17  18
ENDBRANCH  16  17
BRANCH  16  25
HETATM   25  S1  UNL     1      -2.102   1.540   0.594  1.00  0.00    -0.007 SA
HETATM   26  C16 UNL     1      -3.940   1.812   0.777  1.00  0.00     0.266 C 
HETATM   27  O3  UNL     1      -4.284   2.689  -0.208  1.00  0.00    -0.378 OA
HETATM   28  C17 UNL     1      -3.487   3.809  -0.306  1.00  0.00     0.196 C 
HETATM   29  C18 UNL     1      -2.498   3.952   0.820  1.00  0.00     0.211 C 
HETATM   30  O4  UNL     1      -1.368   3.154   0.634  1.00  0.00    -0.321 OA
ENDBRANCH  16  25
ENDBRANCH  11  16
TORSDOF 5
