REMARK  7 active torsions:
REMARK  status: ('A' for Active; 'I' for Inactive)
REMARK    1  A    between atoms: C1_1  and  N1_6 
REMARK    2  A    between atoms: C2_2  and  C3_3 
REMARK    3  A    between atoms: N1_6  and  P1_7 
REMARK    4  A    between atoms: P1_7  and  C6_8 
REMARK    5  A    between atoms: C10_14  and  O1_15 
REMARK    6  A    between atoms: O1_15  and  C11_16 
REMARK    7  A    between atoms: C11_16  and  C12_17 
ROOT
HETATM    1  C6  UNL     1       2.373  -0.353   0.596  1.00  0.00     0.107 A 
HETATM    2  N2  UNL     1       2.915   0.884   0.673  1.00  0.00    -0.238 NA
HETATM    3  C7  UNL     1       2.170   1.963   0.408  1.00  0.00     0.234 A 
HETATM    4  N3  UNL     1       0.882   1.839   0.063  1.00  0.00    -0.241 NA
HETATM    5  C8  UNL     1       0.348   0.625  -0.013  1.00  0.00     0.076 A 
HETATM    6  C9  UNL     1      -0.959   0.462  -0.361  1.00  0.00     0.072 A 
HETATM    7  C10 UNL     1      -1.682  -0.697  -0.491  1.00  0.00     0.107 A 
HETATM    8  C15 UNL     1      -0.927  -1.849  -0.219  1.00  0.00     0.136 A 
HETATM    9  C16 UNL     1       0.430  -1.774   0.147  1.00  0.00     0.120 A 
HETATM   10  C17 UNL     1       1.050  -0.542   0.246  1.00  0.00     0.061 A 
HETATM   11  O3  UNL     1       1.307  -2.802   0.446  1.00  0.00    -0.345 OA
HETATM   12  C18 UNL     1       0.868  -4.156   0.294  1.00  0.00     0.202 C 
HETATM   13  C19 UNL     1      -0.405  -4.208  -0.522  1.00  0.00     0.202 C 
HETATM   14  O4  UNL     1      -1.312  -3.188  -0.248  1.00  0.00    -0.344 OA
ENDROOT
BRANCH   7  15
HETATM   15  O1  UNL     1      -2.887  -1.079  -0.795  1.00  0.00    -0.346 OA
BRANCH  15  16
HETATM   16  C11 UNL     1      -4.094  -0.654  -1.122  1.00  0.00     0.208 C 
BRANCH  16  17
HETATM   17  C12 UNL     1      -4.883   0.163  -0.125  1.00  0.00     0.150 C 
HETATM   18  C13 UNL     1      -4.224   1.450   0.133  1.00  0.00     0.041 C 
HETATM   19  C14 UNL     1      -5.205   2.370   0.877  1.00  0.00     0.063 C 
HETATM   20  P2  UNL     1      -6.808   1.573   0.359  1.00  0.00     0.012 P 
HETATM   21  O2  UNL     1      -6.112   0.415  -0.756  1.00  0.00    -0.359 OA
HETATM   22  H13 UNL     1      -7.606   2.501  -0.425  1.00  0.00     0.087 HD
ENDBRANCH  16  17
ENDBRANCH  15  16
ENDBRANCH   7  15
BRANCH   1  23
HETATM   23  P1  UNL     1       3.383  -1.840   0.957  1.00  0.00     0.132 P 
BRANCH  23  24
HETATM   24  N1  UNL     1       5.008  -1.707   0.966  1.00  0.00    -0.198 NA
BRANCH  24  25
HETATM   25  C1  UNL     1       5.601  -0.472   0.701  1.00  0.00     0.039 C 
HETATM   26  C2  UNL     1       6.122   0.594   0.472  1.00  0.00    -0.046 C 
BRANCH  26  27
HETATM   27  C3  UNL     1       6.757   1.852   0.182  1.00  0.00    -0.003 A 
HETATM   28  C4  UNL     1       7.776   2.499  -0.492  1.00  0.00    -0.005 A 
HETATM   29  C5  UNL     1       6.891   3.340   0.308  1.00  0.00     0.076 A 
ENDBRANCH  26  27
ENDBRANCH  24  25
ENDBRANCH  23  24
ENDBRANCH   1  23
TORSDOF 7
