REMARK  3 active torsions:
REMARK  status: ('A' for Active; 'I' for Inactive)
REMARK    1  A    between atoms: B1_1  and  C1_2 
REMARK    2  A    between atoms: C3_4  and  N1_5 
REMARK    3  A    between atoms: N1_5  and  C4_6 
ROOT
HETATM    1  C4  UNL     1      -0.463  -0.678   0.409  1.00  0.00     0.160 A 
HETATM    2  N2  UNL     1      -0.693  -1.819   1.057  1.00  0.00    -0.222 NA
HETATM    3  C5  UNL     1       0.244  -2.568   1.642  1.00  0.00     0.238 A 
HETATM    4  N3  UNL     1       1.548  -2.169   1.596  1.00  0.00    -0.215 NA
HETATM    5  C6  UNL     1       1.860  -1.006   0.949  1.00  0.00     0.202 A 
HETATM    6  C7  UNL     1       0.845  -0.266   0.358  1.00  0.00     0.129 A 
HETATM    7  N4  UNL     1       1.033   0.969  -0.330  1.00  0.00    -0.379 N 
HETATM    8  C8  UNL     1       2.118   1.418  -1.153  1.00  0.00     0.161 C 
HETATM    9  C9  UNL     1       3.443   0.938  -0.774  1.00  0.00    -0.007 A 
HETATM   10  C10 UNL     1       4.355   1.630  -1.577  1.00  0.00     0.011 A 
HETATM   11  C11 UNL     1       5.713   1.410  -1.473  1.00  0.00     0.001 A 
HETATM   12  C12 UNL     1       6.236   0.501  -0.577  1.00  0.00     0.003 A 
HETATM   13  C13 UNL     1       5.351  -0.203   0.235  1.00  0.00     0.038 A 
HETATM   14  C14 UNL     1       3.999   0.037   0.111  1.00  0.00     0.086 A 
HETATM   15  O1  UNL     1       3.246  -0.754   1.002  1.00  0.00    -0.289 OA
HETATM   16  H6  UNL     1       0.192   1.596  -0.147  1.00  0.00     0.160 HD
ENDROOT
BRANCH   1  17
HETATM   17  N1  UNL     1      -1.486   0.084  -0.205  1.00  0.00    -0.339 N 
HETATM   18  H4  UNL     1      -1.438   0.960  -0.752  1.00  0.00     0.167 HD
BRANCH  17  19
HETATM   19  C3  UNL     1      -2.871  -0.220  -0.227  1.00  0.00     0.033 A 
HETATM   20  C2  UNL     1      -3.943   0.665  -0.379  1.00  0.00     0.026 A 
HETATM   21  C1  UNL     1      -5.262   0.297  -0.405  1.00  0.00    -0.069 A 
HETATM   22  C17 UNL     1      -5.600  -1.028  -0.276  1.00  0.00     0.111 A 
HETATM   23  C16 UNL     1      -4.564  -1.921  -0.126  1.00  0.00     0.044 A 
HETATM   24  F1  UNL     1      -6.911  -1.340  -0.308  1.00  0.00    -0.207 F 
HETATM   25  C15 UNL     1      -3.243  -1.538  -0.101  1.00  0.00     0.032 A 
BRANCH  21  26
HETATM   26  B1  UNL     1      -6.323   1.432  -0.584  1.00  0.00     0.178 B 
HETATM   27  H1  UNL     1      -7.032   1.353  -1.545  1.00  0.00    -0.026 HD
HETATM   28  H2  UNL     1      -6.707   2.099   0.328  1.00  0.00    -0.026 HD
ENDBRANCH  21  26
ENDBRANCH  17  19
ENDBRANCH   1  17
TORSDOF 3
