REMARK  5 active torsions:
REMARK  status: ('A' for Active; 'I' for Inactive)
REMARK    1  A    between atoms: C7_7  and  N1_8 
REMARK    2  A    between atoms: N1_8  and  C8_9 
REMARK    3  A    between atoms: C12_13  and  O1_14 
REMARK    4  A    between atoms: O1_14  and  C13_15 
REMARK    5  A    between atoms: C13_15  and  C14_16 
ROOT
HETATM    1  C1  UNL     1       6.632   1.527  -3.062  1.00  0.00     0.018 C 
HETATM    2  C2  UNL     1       6.119   1.694  -1.970  1.00  0.00    -0.078 C 
HETATM    3  C3  UNL     1       5.511   1.870  -0.683  1.00  0.00     0.019 A 
HETATM    4  C4  UNL     1       6.078   2.752   0.216  1.00  0.00     0.021 A 
HETATM    5  C5  UNL     1       5.487   2.910   1.438  1.00  0.00     0.004 A 
HETATM    6  C6  UNL     1       4.356   2.210   1.764  1.00  0.00     0.029 A 
HETATM    7  C7  UNL     1       3.734   1.311   0.915  1.00  0.00     0.035 A 
HETATM    8  C23 UNL     1       4.373   1.193  -0.300  1.00  0.00     0.050 A 
ENDROOT
BRANCH   7   9
HETATM    9  N1  UNL     1       2.566   0.605   1.285  1.00  0.00    -0.341 N 
HETATM   10  H5  UNL     1       2.204   0.830   2.243  1.00  0.00     0.167 HD
BRANCH   9  11
HETATM   11  C8  UNL     1       1.860  -0.347   0.507  1.00  0.00     0.132 C 
HETATM   12  C9  UNL     1       0.743  -0.925   1.042  1.00  0.00     0.090 C 
HETATM   13  C10 UNL     1       0.057  -2.017   0.533  1.00  0.00     0.108 C 
HETATM   14  C11 UNL     1      -1.116  -2.155  -0.189  1.00  0.00     0.135 C 
HETATM   15  O4  UNL     1       0.867  -3.067   0.934  1.00  0.00    -0.346 OA
HETATM   16  C12 UNL     1      -1.827  -1.007  -0.519  1.00  0.00     0.106 C 
HETATM   17  O3  UNL     1      -1.371  -3.498  -0.462  1.00  0.00    -0.344 OA
HETATM   18  C18 UNL     1      -1.140   0.147  -0.810  1.00  0.00     0.059 C 
HETATM   19  C19 UNL     1      -0.597   0.872  -1.856  1.00  0.00     0.121 C 
HETATM   20  N2  UNL     1       0.752   0.767  -1.673  1.00  0.00    -0.254 NA
HETATM   21  C20 UNL     1       1.365  -0.429  -1.761  1.00  0.00     0.234 C 
HETATM   22  N3  UNL     1       2.114  -0.797  -0.713  1.00  0.00    -0.224 NA
HETATM   23  C21 UNL     1      -0.259  -4.319  -0.779  1.00  0.00     0.202 C 
HETATM   24  C22 UNL     1       0.563  -4.405   0.514  1.00  0.00     0.202 C 
BRANCH  16  25
HETATM   25  O1  UNL     1      -3.070  -1.423  -0.443  1.00  0.00    -0.346 OA
BRANCH  25  26
HETATM   26  C13 UNL     1      -4.355  -1.042  -0.583  1.00  0.00     0.207 C 
BRANCH  26  27
HETATM   27  C14 UNL     1      -4.716   0.063   0.389  1.00  0.00     0.145 C 
HETATM   28  C15 UNL     1      -4.005   1.352   0.087  1.00  0.00     0.036 C 
HETATM   29  C16 UNL     1      -5.067   2.404   0.442  1.00  0.00     0.029 C 
HETATM   30  C17 UNL     1      -6.143   1.538   1.073  1.00  0.00     0.168 C 
HETATM   31  O2  UNL     1      -6.063   0.420   0.244  1.00  0.00    -0.384 OA
ENDBRANCH  26  27
ENDBRANCH  25  26
ENDBRANCH  16  25
ENDBRANCH   9  11
ENDBRANCH   7   9
TORSDOF 5
