REMARK  5 active torsions:
REMARK  status: ('A' for Active; 'I' for Inactive)
REMARK    1  A    between atoms: C7_7  and  N1_8 
REMARK    2  A    between atoms: N1_8  and  C8_9 
REMARK    3  A    between atoms: C15_19  and  O2_20 
REMARK    4  A    between atoms: O2_20  and  C16_21 
REMARK    5  A    between atoms: C16_21  and  C17_22 
ROOT
HETATM    1  C1  UNL     1       6.020  -0.606  -4.965  1.00  0.00     0.018 C 
HETATM    2  C2  UNL     1       5.855  -0.769  -3.785  1.00  0.00    -0.078 C 
HETATM    3  C3  UNL     1       5.679  -0.962  -2.354  1.00  0.00     0.019 A 
HETATM    4  C4  UNL     1       6.165  -2.043  -1.653  1.00  0.00     0.021 A 
HETATM    5  C5  UNL     1       5.935  -2.135  -0.279  1.00  0.00     0.004 A 
HETATM    6  C6  UNL     1       5.230  -1.164   0.399  1.00  0.00     0.029 A 
HETATM    7  C7  UNL     1       4.750  -0.091  -0.304  1.00  0.00     0.035 A 
HETATM    8  C22 UNL     1       4.962   0.033  -1.682  1.00  0.00     0.050 A 
ENDROOT
BRANCH   7   9
HETATM    9  N1  UNL     1       3.999   1.013   0.267  1.00  0.00    -0.340 N 
HETATM   10  H5  UNL     1       4.206   1.962   0.632  1.00  0.00     0.167 HD
BRANCH   9  11
HETATM   11  C8  UNL     1       2.734   0.407   0.170  1.00  0.00     0.140 C 
HETATM   12  N2  UNL     1       1.867  -0.600  -0.165  1.00  0.00    -0.215 NA
HETATM   13  C9  UNL     1       0.898  -0.781   0.899  1.00  0.00     0.130 C 
HETATM   14  N3  UNL     1       0.699  -0.217   2.104  1.00  0.00    -0.260 NA
HETATM   15  C21 UNL     1      -0.466  -1.309   0.810  1.00  0.00     0.145 C 
HETATM   16  C10 UNL     1       0.544   1.222   1.746  1.00  0.00     0.182 C 
HETATM   17  C11 UNL     1       1.661   1.413   0.679  1.00  0.00     0.039 C 
HETATM   18  C14 UNL     1      -0.691   1.239   0.926  1.00  0.00     0.003 C 
HETATM   19  C12 UNL     1       1.582   2.716   0.274  1.00  0.00     0.148 C 
HETATM   20  O1  UNL     1       0.467   3.393   0.906  1.00  0.00    -0.358 OA
HETATM   21  C13 UNL     1      -0.806   2.697   0.682  1.00  0.00     0.214 C 
HETATM   22  C15 UNL     1      -1.295   0.026   0.660  1.00  0.00     0.060 C 
BRANCH  22  23
HETATM   23  O2  UNL     1      -2.586   0.486   0.308  1.00  0.00    -0.352 OA
BRANCH  23  24
HETATM   24  C16 UNL     1      -3.583  -0.515   0.295  1.00  0.00     0.207 C 
BRANCH  24  25
HETATM   25  C17 UNL     1      -4.914   0.023  -0.177  1.00  0.00     0.145 C 
HETATM   26  C18 UNL     1      -5.969  -1.061  -0.183  1.00  0.00     0.036 C 
HETATM   27  C19 UNL     1      -6.958  -0.682   0.891  1.00  0.00     0.029 C 
HETATM   28  C20 UNL     1      -6.319   0.540   1.505  1.00  0.00     0.168 C 
HETATM   29  O3  UNL     1      -5.427   1.037   0.588  1.00  0.00    -0.384 OA
ENDBRANCH  24  25
ENDBRANCH  23  24
ENDBRANCH  22  23
ENDBRANCH   9  11
ENDBRANCH   7   9
TORSDOF 5
