REMARK  7 active torsions:
REMARK  status: ('A' for Active; 'I' for Inactive)
REMARK    1  A    between atoms: C3_4  and  C4_5 
REMARK    2  A    between atoms: C4_5  and  N1_6 
REMARK    3  A    between atoms: N1_6  and  C5_7 
REMARK    4  A    between atoms: C9_13  and  O2_14 
REMARK    5  A    between atoms: O2_14  and  C10_15 
REMARK    6  A    between atoms: C10_15  and  C11_16 
REMARK    7  A    between atoms: C16_22  and  N3_23 
ROOT
HETATM    1  C5  UNL     1       2.469   0.294   0.476  1.00  0.00     0.099 C 
HETATM    2  N2  UNL     1       2.597  -0.932   0.271  1.00  0.00    -0.275 NA
HETATM    3  C6  UNL     1       2.084  -1.945  -0.512  1.00  0.00     0.177 C 
HETATM    4  C7  UNL     1       1.119  -1.623  -1.633  1.00  0.00     0.196 C 
HETATM    5  O1  UNL     1      -0.010  -1.026  -1.353  1.00  0.00    -0.359 OA
HETATM    6  C8  UNL     1      -1.115  -0.441  -1.079  1.00  0.00     0.171 C 
HETATM    7  C9  UNL     1      -1.412   0.642  -0.396  1.00  0.00     0.092 C 
HETATM    8  C15 UNL     1      -0.586   1.602   0.303  1.00  0.00     0.057 C 
HETATM    9  C16 UNL     1       0.651   1.964   0.599  1.00  0.00    -0.007 C 
HETATM   10  C17 UNL     1       1.645   1.266  -0.217  1.00  0.00     0.128 C 
ENDROOT
BRANCH   1  11
HETATM   11  N1  UNL     1       3.388   0.699   1.516  1.00  0.00    -0.375 N 
HETATM   12  H7  UNL     1       3.054   1.473   2.180  1.00  0.00     0.161 HD
BRANCH  11  13
HETATM   13  C4  UNL     1       4.742   0.147   1.734  1.00  0.00     0.149 C 
BRANCH  13  14
HETATM   14  C3  UNL     1       5.566   0.656   0.603  1.00  0.00     0.011 C 
HETATM   15  C2  UNL     1       6.252   0.097  -0.399  1.00  0.00     0.005 C 
HETATM   16  C1  UNL     1       6.273  -1.384  -0.519  1.00  0.00     0.061 C 
HETATM   17 CL1  UNL     1       7.063   1.261  -1.471  1.00  0.00    -0.090 Cl
ENDBRANCH  13  14
ENDBRANCH  11  13
ENDBRANCH   1  11
BRANCH   9  18
HETATM   18  N3  UNL     1       1.182   3.045   1.391  1.00  0.00    -0.306 NA
HETATM   19  H23 UNL     1       1.000   2.914   2.405  1.00  0.00     0.124 HD
HETATM   20  H24 UNL     1       0.928   2.782   2.384  1.00  0.00     0.124 HD
ENDBRANCH   9  18
BRANCH   7  21
HETATM   21  O2  UNL     1      -2.740   0.757  -0.452  1.00  0.00    -0.347 OA
BRANCH  21  22
HETATM   22  C10 UNL     1      -3.636   0.185   0.457  1.00  0.00     0.207 C 
BRANCH  22  23
HETATM   23  C11 UNL     1      -5.013   0.305  -0.184  1.00  0.00     0.145 C 
HETATM   24  C12 UNL     1      -6.081  -0.426   0.573  1.00  0.00     0.036 C 
HETATM   25  C13 UNL     1      -7.063  -0.797  -0.548  1.00  0.00     0.029 C 
HETATM   26  C14 UNL     1      -6.360  -0.279  -1.783  1.00  0.00     0.168 C 
HETATM   27  O3  UNL     1      -5.021  -0.378  -1.419  1.00  0.00    -0.384 OA
ENDBRANCH  22  23
ENDBRANCH  21  22
ENDBRANCH   7  21
TORSDOF 7
