REMARK  5 active torsions:
REMARK  status: ('A' for Active; 'I' for Inactive)
REMARK    1  A    between atoms: C7_7  and  N1_8 
REMARK    2  A    between atoms: N1_8  and  C8_9 
REMARK    3  A    between atoms: C13_16  and  O1_17 
REMARK    4  A    between atoms: O1_17  and  C14_18 
REMARK    5  A    between atoms: C14_18  and  C15_19 
ROOT
HETATM    1  C1  UNL     1      -8.221  -0.420  -0.755  1.00  0.00     0.018 C 
HETATM    2  C2  UNL     1      -7.143  -0.931  -0.605  1.00  0.00    -0.078 C 
HETATM    3  C3  UNL     1      -5.860  -1.541  -0.404  1.00  0.00     0.019 A 
HETATM    4  C4  UNL     1      -5.809  -2.918  -0.378  1.00  0.00     0.021 A 
HETATM    5  C5  UNL     1      -4.585  -3.510  -0.186  1.00  0.00     0.004 A 
HETATM    6  C6  UNL     1      -3.456  -2.759  -0.027  1.00  0.00     0.029 A 
HETATM    7  C7  UNL     1      -3.459  -1.358  -0.046  1.00  0.00     0.035 A 
HETATM    8  C20 UNL     1      -4.716  -0.828  -0.242  1.00  0.00     0.050 A 
ENDROOT
BRANCH   7   9
HETATM    9  N1  UNL     1      -2.263  -0.616   0.123  1.00  0.00    -0.340 N 
HETATM   10  H5  UNL     1      -1.402  -1.202   0.260  1.00  0.00     0.167 HD
BRANCH   9  11
HETATM   11  C8  UNL     1      -2.108   0.794   0.127  1.00  0.00     0.143 A 
HETATM   12  N2  UNL     1      -3.069   1.712  -0.029  1.00  0.00    -0.223 NA
HETATM   13  C9  UNL     1      -2.913   3.025  -0.023  1.00  0.00     0.236 A 
HETATM   14  N3  UNL     1      -1.669   3.513   0.157  1.00  0.00    -0.241 NA
HETATM   15  C10 UNL     1      -0.619   2.685   0.325  1.00  0.00     0.075 A 
HETATM   16  C11 UNL     1      -0.862   1.330   0.307  1.00  0.00     0.053 A 
HETATM   17  C19 UNL     1       0.673   2.899   0.516  1.00  0.00     0.070 A 
HETATM   18  C12 UNL     1       0.317   0.755   0.491  1.00  0.00     0.028 A 
HETATM   19  C13 UNL     1       1.309   1.589   0.629  1.00  0.00     0.083 A 
BRANCH  19  20
HETATM   20  O1  UNL     1       2.652   1.278   0.835  1.00  0.00    -0.348 OA
BRANCH  20  21
HETATM   21  C14 UNL     1       3.344   0.278   0.172  1.00  0.00     0.207 C 
BRANCH  21  22
HETATM   22  C15 UNL     1       4.788   0.124   0.558  1.00  0.00     0.145 C 
HETATM   23  C16 UNL     1       5.404  -0.855  -0.452  1.00  0.00     0.036 C 
HETATM   24  C17 UNL     1       6.874  -0.600  -0.174  1.00  0.00     0.029 C 
HETATM   25  C18 UNL     1       6.864   0.860   0.218  1.00  0.00     0.168 C 
HETATM   26  O2  UNL     1       5.539   1.250   0.333  1.00  0.00    -0.384 OA
ENDBRANCH  21  22
ENDBRANCH  20  21
ENDBRANCH  19  20
ENDBRANCH   9  11
ENDBRANCH   7   9
TORSDOF 5
