REMARK  5 active torsions:
REMARK  status: ('A' for Active; 'I' for Inactive)
REMARK    1  A    between atoms: C4_5  and  N1_6 
REMARK    2  A    between atoms: N1_6  and  C5_7 
REMARK    3  A    between atoms: C12_15  and  O1_16 
REMARK    4  A    between atoms: O1_16  and  C13_17 
REMARK    5  A    between atoms: C13_17  and  C14_18 
ROOT
HETATM    1  C5  UNL     1       2.173  -1.402  -0.999  1.00  0.00     0.121 A 
HETATM    2  C6  UNL     1       1.432  -1.943  -2.115  1.00  0.00    -0.003 A 
HETATM    3  N2  UNL     1       1.170  -1.246  -1.005  1.00  0.00     0.000 N 
HETATM    4  C7  UNL     1       0.459  -0.493  -0.175  1.00  0.00     0.082 A 
HETATM    5  C8  UNL     1       1.283  -0.366   0.799  1.00  0.00    -0.015 A 
HETATM    6  C9  UNL     1       0.868  -0.760  -0.365  1.00  0.00     0.058 A 
HETATM    7  C10 UNL     1      -0.237  -0.825  -1.444  1.00  0.00     0.144 A 
HETATM    8  C11 UNL     1      -1.506  -0.150  -1.108  1.00  0.00     0.114 A 
HETATM    9  C12 UNL     1      -0.748   0.099   0.078  1.00  0.00     0.095 A 
HETATM   10  O3  UNL     1      -2.616  -0.079  -1.919  1.00  0.00    -0.347 OA
HETATM   11  C18 UNL     1      -2.399  -0.101  -3.335  1.00  0.00     0.201 C 
HETATM   12  C19 UNL     1      -0.964  -0.411  -3.665  1.00  0.00     0.196 C 
HETATM   13  O4  UNL     1      -0.418  -1.395  -2.812  1.00  0.00    -0.368 OA
ENDROOT
BRANCH   1  14
HETATM   14  N1  UNL     1       3.179  -0.432  -1.289  1.00  0.00    -0.381 N 
HETATM   15  H3  UNL     1       3.065  -0.142  -2.307  1.00  0.00     0.160 HD
BRANCH  14  16
HETATM   16  C4  UNL     1       4.231   0.197  -0.574  1.00  0.00     0.030 A 
HETATM   17  C3  UNL     1       4.553  -0.094   0.733  1.00  0.00     0.032 A 
HETATM   18  C2  UNL     1       5.552   0.499   1.466  1.00  0.00     0.046 A 
HETATM   19  C1  UNL     1       6.267   1.470   0.779  1.00  0.00     0.138 A 
HETATM   20  F1  UNL     1       7.276   2.134   1.375  1.00  0.00    -0.204 F 
HETATM   21  C21 UNL     1       5.987   1.798  -0.526  1.00  0.00     0.074 A 
HETATM   22  C20 UNL     1       4.976   1.164  -1.192  1.00  0.00     0.056 A 
HETATM   23 CL1  UNL     1       6.920   3.036  -1.361  1.00  0.00    -0.081 Cl
ENDBRANCH  14  16
ENDBRANCH   1  14
BRANCH   9  24
HETATM   24  O1  UNL     1      -1.992   0.722   0.366  1.00  0.00    -0.349 OA
BRANCH  24  25
HETATM   25  C13 UNL     1      -2.773  -0.346   1.063  1.00  0.00     0.207 C 
BRANCH  25  26
HETATM   26  C14 UNL     1      -4.105   0.145   1.339  1.00  0.00     0.145 C 
HETATM   27  C15 UNL     1      -4.123   1.363   2.238  1.00  0.00     0.036 C 
HETATM   28  C16 UNL     1      -4.388   0.794   3.590  1.00  0.00     0.029 C 
HETATM   29  C17 UNL     1      -4.832  -0.600   3.318  1.00  0.00     0.168 C 
HETATM   30  O2  UNL     1      -4.808  -0.866   1.981  1.00  0.00    -0.384 OA
ENDBRANCH  25  26
ENDBRANCH  24  25
ENDBRANCH   9  24
TORSDOF 5
