REMARK  7 active torsions:
REMARK  status: ('A' for Active; 'I' for Inactive)
REMARK    1  A    between atoms: O1_1  and  C1_2 
REMARK    2  A    between atoms: C1_2  and  O2_3 
REMARK    3  A    between atoms: O2_3  and  C2_4 
REMARK    4  A    between atoms: N1_6  and  C4_7 
REMARK    5  A    between atoms: C12_18  and  O3_19 
REMARK    6  A    between atoms: O3_19  and  C13_20 
REMARK    7  A    between atoms: C13_20  and  C14_21 
ROOT
HETATM    1  C2  UNL     1      -0.635   0.603   0.255  1.00  0.00     0.090 C 
HETATM    2  C3  UNL     1      -1.963   0.267   0.222  1.00  0.00     0.232 C 
HETATM    3  N1  UNL     1      -2.417  -1.006  -0.385  1.00  0.00    -0.334 N 
HETATM    4  C9  UNL     1      -2.257  -2.303  -1.102  1.00  0.00     0.211 C 
HETATM    5  N2  UNL     1      -1.302  -2.305  -0.261  1.00  0.00    -0.237 NA
HETATM    6  C10 UNL     1      -0.380  -3.365  -0.151  1.00  0.00     0.228 C 
HETATM    7  N3  UNL     1       0.729  -2.907  -0.760  1.00  0.00    -0.276 NA
HETATM    8  C11 UNL     1       0.687  -1.598  -1.310  1.00  0.00     0.214 C 
HETATM    9  C12 UNL     1       1.384  -0.492  -0.660  1.00  0.00     0.065 C 
HETATM   10  C17 UNL     1       0.827   0.500   0.025  1.00  0.00     0.041 C 
ENDROOT
BRANCH   9  11
HETATM   11  O3  UNL     1       2.744  -0.399  -0.716  1.00  0.00    -0.351 OA
BRANCH  11  12
HETATM   12  C13 UNL     1       3.515   0.789  -0.672  1.00  0.00     0.206 C 
BRANCH  12  13
HETATM   13  C14 UNL     1       4.957   0.353  -0.766  1.00  0.00     0.138 C 
HETATM   14  C15 UNL     1       5.247  -0.736   0.194  1.00  0.00    -0.031 C 
HETATM   15  B1  UNL     1       6.229   0.779   1.575  1.00  0.00     0.179 B 
HETATM   16  C16 UNL     1       5.858   2.104   0.367  1.00  0.00     0.103 C 
HETATM   17  O4  UNL     1       5.890   1.321  -0.749  1.00  0.00    -0.394 OA
ENDBRANCH  12  13
ENDBRANCH  11  12
ENDBRANCH   9  11
BRANCH   1  18
HETATM   18  O2  UNL     1      -1.165   1.737   0.915  1.00  0.00    -0.355 OA
BRANCH  18  19
HETATM   19  C1  UNL     1      -0.306   2.477   1.740  1.00  0.00     0.335 C 
BRANCH  19  20
HETATM   20  O1  UNL     1      -1.088   3.480   2.327  1.00  0.00    -0.377 OA
HETATM   21  H1  UNL     1      -1.666   3.145   3.054  1.00  0.00     0.212 HD
ENDBRANCH  19  20
ENDBRANCH  18  19
ENDBRANCH   1  18
BRANCH   3  22
HETATM   22  C4  UNL     1      -3.804  -0.828  -0.030  1.00  0.00     0.019 A 
HETATM   23  C5  UNL     1      -4.578  -1.231   0.967  1.00  0.00     0.028 A 
HETATM   24  C6  UNL     1      -5.991  -0.803   0.936  1.00  0.00     0.040 A 
HETATM   25  C7  UNL     1      -6.035  -0.093  -0.171  1.00  0.00     0.099 A 
HETATM   26  F1  UNL     1      -7.178   0.484  -0.561  1.00  0.00    -0.210 F 
HETATM   27  C8  UNL     1      -4.739  -0.016  -0.889  1.00  0.00     0.127 A 
ENDBRANCH   3  22
TORSDOF 7
