REMARK  6 active torsions:
REMARK  status: ('A' for Active; 'I' for Inactive)
REMARK    1  A    between atoms: O1_2  and  C2_3 
REMARK    2  A    between atoms: C2_3  and  C3_4 
REMARK    3  A    between atoms: C3_4  and  O2_5 
REMARK    4  A    between atoms: O2_5  and  C4_6 
REMARK    5  A    between atoms: C8_12  and  N3_13 
REMARK    6  A    between atoms: N3_13  and  C9_14 
ROOT
HETATM    1  C9  UNL     1      -3.778  -0.373  -0.344  1.00  0.00     0.035 A 
HETATM    2  C10 UNL     1      -4.873   0.276  -0.854  1.00  0.00     0.032 A 
HETATM    3  C11 UNL     1      -5.917   0.728  -0.088  1.00  0.00     0.046 A 
HETATM    4  C12 UNL     1      -5.864   0.518   1.261  1.00  0.00     0.135 A 
HETATM    5  F1  UNL     1      -6.857   0.940   2.075  1.00  0.00    -0.205 F 
HETATM    6  C13 UNL     1      -4.747  -0.137   1.732  1.00  0.00     0.066 A 
HETATM    7  S1  UNL     1      -4.699  -0.349   3.286  1.00  0.00     0.038 SA
HETATM    8  N4  UNL     1      -4.644  -0.504   4.529  1.00  0.00    -0.103 N 
HETATM    9  C14 UNL     1      -3.680  -0.606   1.003  1.00  0.00     0.053 A 
ENDROOT
BRANCH   1  10
HETATM   10  N3  UNL     1      -2.777  -0.764  -1.264  1.00  0.00    -0.340 N 
HETATM   11  H10 UNL     1      -2.807  -0.534  -2.280  1.00  0.00     0.167 HD
BRANCH  10  12
HETATM   12  C8  UNL     1      -1.568  -1.490  -1.165  1.00  0.00     0.144 A 
HETATM   13  N2  UNL     1      -1.638  -2.794  -1.456  1.00  0.00    -0.223 NA
HETATM   14  C7  UNL     1      -0.510  -3.558  -1.388  1.00  0.00     0.236 A 
HETATM   15  N1  UNL     1       0.672  -3.029  -1.035  1.00  0.00    -0.241 NA
HETATM   16  C6  UNL     1       0.782  -1.740  -0.738  1.00  0.00     0.077 A 
HETATM   17  C5  UNL     1       1.953  -1.157  -0.371  1.00  0.00     0.072 A 
HETATM   18  C15 UNL     1      -0.354  -0.932  -0.798  1.00  0.00     0.075 A 
HETATM   19  C4  UNL     1       2.024   0.201  -0.064  1.00  0.00     0.107 A 
HETATM   20  C17 UNL     1       0.875   0.966  -0.135  1.00  0.00     0.136 A 
HETATM   21  C16 UNL     1      -0.321   0.423  -0.499  1.00  0.00     0.121 A 
HETATM   22  O3  UNL     1       0.864   2.315   0.155  1.00  0.00    -0.344 OA
HETATM   23  O4  UNL     1      -1.465   1.197  -0.568  1.00  0.00    -0.345 OA
HETATM   24  C19 UNL     1      -1.578   2.396   0.139  1.00  0.00     0.202 C 
HETATM   25  C18 UNL     1      -0.290   3.033   0.532  1.00  0.00     0.202 C 
BRANCH  19  26
HETATM   26  O2  UNL     1       3.236   0.793   0.312  1.00  0.00    -0.346 OA
BRANCH  26  27
HETATM   27  C3  UNL     1       4.358  -0.098   0.342  1.00  0.00     0.201 C 
BRANCH  27  28
HETATM   28  C2  UNL     1       5.613   0.601   0.745  1.00  0.00     0.193 C 
BRANCH  28  29
HETATM   29  O1  UNL     1       6.723  -0.233   0.787  1.00  0.00    -0.394 OA
HETATM   30  C1  UNL     1       7.017  -0.819  -0.428  1.00  0.00     0.201 C 
ENDBRANCH  28  29
ENDBRANCH  27  28
ENDBRANCH  26  27
ENDBRANCH  19  26
ENDBRANCH  10  12
ENDBRANCH   1  10
TORSDOF 6
