REMARK  8 active torsions:
REMARK  status: ('A' for Active; 'I' for Inactive)
REMARK    1  A    between atoms: O1_1  and  C1_2 
REMARK    2  A    between atoms: C2_4  and  C3_5 
REMARK    3  A    between atoms: C3_5  and  N1_6 
REMARK    4  A    between atoms: N1_6  and  C4_7 
REMARK    5  A    between atoms: C7_12  and  C8_13 
REMARK    6  A    between atoms: C8_13  and  O2_14 
REMARK    7  A    between atoms: O2_14  and  C9_15 
REMARK    8  A    between atoms: C9_15  and  C10_16 
ROOT
HETATM    1  C4  UNL     1       3.064  -0.874  -0.014  1.00  0.00     0.107 A 
HETATM    2  N2  UNL     1       2.417  -1.884  -0.492  1.00  0.00    -0.229 NA
HETATM    3  C5  UNL     1       1.006  -1.827  -0.728  1.00  0.00     0.235 A 
HETATM    4  N3  UNL     1       0.377  -0.721  -0.447  1.00  0.00    -0.246 NA
HETATM    5  C6  UNL     1       1.024   0.413   0.076  1.00  0.00     0.045 A 
HETATM    6  C7  UNL     1       0.242   1.463   0.310  1.00  0.00     0.067 C 
HETATM    7  C18 UNL     1       2.468   0.429   0.344  1.00  0.00     0.137 A 
ENDROOT
BRANCH   6   8
HETATM    8  C8  UNL     1      -1.186   1.397   0.027  1.00  0.00     0.102 C 
HETATM    9  C14 UNL     1      -1.893   2.486   0.289  1.00  0.00     0.103 C 
HETATM   10  C15 UNL     1      -1.179   3.666   0.840  1.00  0.00     0.235 C 
HETATM   11  O5  UNL     1      -3.257   2.659   0.104  1.00  0.00    -0.348 OA
HETATM   12  O4  UNL     1      -2.015   4.737   1.053  1.00  0.00    -0.383 OA
HETATM   13  C16 UNL     1      -2.740   4.999  -0.085  1.00  0.00     0.194 C 
HETATM   14  C17 UNL     1      -3.819   3.919  -0.208  1.00  0.00     0.201 C 
BRANCH   8  15
HETATM   15  O2  UNL     1      -1.720   0.240  -0.483  1.00  0.00    -0.346 OA
BRANCH  15  16
HETATM   16  C9  UNL     1      -3.094  -0.026  -0.456  1.00  0.00     0.207 C 
BRANCH  16  17
HETATM   17  C10 UNL     1      -3.380  -1.381  -1.077  1.00  0.00     0.145 C 
HETATM   18  C11 UNL     1      -2.693  -2.517  -0.388  1.00  0.00     0.036 C 
HETATM   19  C12 UNL     1      -3.822  -3.332   0.215  1.00  0.00     0.029 C 
HETATM   20  C13 UNL     1      -4.946  -2.314   0.172  1.00  0.00     0.168 C 
HETATM   21  O3  UNL     1      -4.729  -1.686  -1.071  1.00  0.00    -0.384 OA
ENDBRANCH  16  17
ENDBRANCH  15  16
ENDBRANCH   8  15
ENDBRANCH   6   8
BRANCH   1  22
HETATM   22  N1  UNL     1       4.482  -1.059   0.177  1.00  0.00    -0.374 N 
HETATM   23  H5  UNL     1       5.022  -0.275   0.555  1.00  0.00     0.161 HD
BRANCH  22  24
HETATM   24  C3  UNL     1       5.123  -2.328  -0.160  1.00  0.00     0.152 C 
BRANCH  24  25
HETATM   25  C2  UNL     1       6.570  -2.296   0.114  1.00  0.00     0.042 C 
HETATM   26  C1  UNL     1       7.442  -1.420   0.586  1.00  0.00     0.134 C 
HETATM   27 CL1  UNL     1       7.447   0.228   1.176  1.00  0.00    -0.057 Cl
BRANCH  26  28
HETATM   28  O1  UNL     1       8.803  -1.485   0.810  1.00  0.00    -0.351 OA
HETATM   29  H1  UNL     1       9.492  -1.923   0.247  1.00  0.00     0.218 HD
ENDBRANCH  26  28
ENDBRANCH  24  25
ENDBRANCH  22  24
ENDBRANCH   1  22
TORSDOF 8
