REMARK  3 active torsions:
REMARK  status: ('A' for Active; 'I' for Inactive)
REMARK    1  A    between atoms: N1_1  and  C1_2 
REMARK    2  A    between atoms: C3_5  and  N3_6 
REMARK    3  A    between atoms: N3_6  and  C4_7 
ROOT
HETATM    1  C1  UNL     1      -1.187   0.071  -1.576  1.00  0.00     0.159 C 
HETATM    2  C2  UNL     1      -0.145   0.795  -1.261  1.00  0.00     0.176 C 
HETATM    3  N2  UNL     1       1.122   0.180  -1.096  1.00  0.00    -0.217 NA
HETATM    4  C3  UNL     1       1.277  -0.596  -0.012  1.00  0.00     0.247 C 
HETATM    5  O1  UNL     1       0.256  -0.776   0.868  1.00  0.00    -0.301 OA
HETATM    6  C10 UNL     1      -0.531   0.124   1.561  1.00  0.00     0.296 C 
HETATM    7  N4  UNL     1      -1.652  -0.579   2.096  1.00  0.00    -0.397 N 
HETATM    8  C11 UNL     1      -2.580  -1.155   1.204  1.00  0.00     0.157 C 
HETATM    9  C12 UNL     1      -3.432  -0.272   0.414  1.00  0.00    -0.007 A 
HETATM   10  C13 UNL     1      -4.478   0.224   1.207  1.00  0.00     0.011 A 
HETATM   11  C14 UNL     1      -5.483   1.076   0.790  1.00  0.00     0.001 A 
HETATM   12  C15 UNL     1      -5.486   1.497  -0.520  1.00  0.00     0.003 A 
HETATM   13  C16 UNL     1      -4.473   1.030  -1.326  1.00  0.00     0.038 A 
HETATM   14  C17 UNL     1      -3.485   0.184  -0.889  1.00  0.00     0.085 A 
HETATM   15  O2  UNL     1      -2.535  -0.176  -1.874  1.00  0.00    -0.292 OA
HETATM   16  H10 UNL     1      -1.477  -1.129   2.951  1.00  0.00     0.155 HD
ENDROOT
BRANCH   4  17
HETATM   17  N3  UNL     1       2.563  -1.176   0.096  1.00  0.00    -0.321 N 
HETATM   18  H4  UNL     1       2.588  -2.184   0.356  1.00  0.00     0.169 HD
BRANCH  17  19
HETATM   19  C4  UNL     1       3.733  -0.411  -0.131  1.00  0.00     0.037 A 
HETATM   20  C5  UNL     1       3.832   0.918  -0.406  1.00  0.00     0.032 A 
HETATM   21  C6  UNL     1       5.008   1.581  -0.620  1.00  0.00     0.046 A 
HETATM   22  C7  UNL     1       6.203   0.901  -0.565  1.00  0.00     0.138 A 
HETATM   23  F1  UNL     1       7.370   1.563  -0.778  1.00  0.00    -0.204 F 
HETATM   24  C8  UNL     1       6.163  -0.451  -0.290  1.00  0.00     0.074 A 
HETATM   25 CL1  UNL     1       7.672  -1.370  -0.208  1.00  0.00    -0.081 Cl
HETATM   26  C9  UNL     1       4.938  -1.079  -0.079  1.00  0.00     0.056 A 
ENDBRANCH  17  19
ENDBRANCH   4  17
BRANCH   1  27
HETATM   27  N1  UNL     1      -0.445  -1.125  -1.614  1.00  0.00    -0.379 N 
HETATM   28  H1  UNL     1       0.214  -1.933  -1.762  1.00  0.00     0.158 HD
HETATM   29  H2  UNL     1      -0.014  -2.066  -1.524  1.00  0.00     0.158 HD
ENDBRANCH   1  27
TORSDOF 3
