REMARK  5 active torsions:
REMARK  status: ('A' for Active; 'I' for Inactive)
REMARK    1  A    between atoms: N1_1  and  C1_2 
REMARK    2  A    between atoms: C4_6  and  C5_7 
REMARK    3  A    between atoms: C5_7  and  O2_8 
REMARK    4  A    between atoms: O2_8  and  C6_9 
REMARK    5  A    between atoms: N3_13  and  C9_14 
ROOT
HETATM    1  C6  UNL     1       0.580   0.664  -0.616  1.00  0.00     0.086 C 
HETATM    2  C7  UNL     1       0.487  -0.587  -0.114  1.00  0.00    -0.027 C 
HETATM    3  C8  UNL     1       0.653  -1.561   0.995  1.00  0.00     0.148 C 
HETATM    4  N2  UNL     1      -0.575  -2.246   1.384  1.00  0.00    -0.229 NA
HETATM    5  N3  UNL     1      -1.797  -1.680   0.989  1.00  0.00    -0.278 N 
HETATM    6  C15 UNL     1      -1.497  -0.950  -0.154  1.00  0.00     0.065 C 
HETATM    7  C16 UNL     1      -1.786   0.256  -0.569  1.00  0.00     0.106 C 
HETATM    8  O3  UNL     1      -3.097   0.709  -0.276  1.00  0.00    -0.348 OA
HETATM    9  C17 UNL     1      -3.191   2.166  -0.103  1.00  0.00     0.201 C 
HETATM   10  C18 UNL     1      -2.347   2.708  -1.221  1.00  0.00     0.196 C 
HETATM   11  O4  UNL     1      -1.002   2.416  -1.034  1.00  0.00    -0.370 OA
HETATM   12  C19 UNL     1      -0.721   1.077  -1.305  1.00  0.00     0.236 C 
HETATM   13  C20 UNL     1      -0.362  -1.513  -1.069  1.00  0.00     0.099 C 
HETATM   14  H13 UNL     1      -0.607  -2.417   2.406  1.00  0.00     0.147 HD
ENDROOT
BRANCH   1  15
HETATM   15  O2  UNL     1       1.923   0.890  -0.181  1.00  0.00    -0.349 OA
BRANCH  15  16
HETATM   16  C5  UNL     1       2.866   1.335  -1.160  1.00  0.00     0.209 C 
BRANCH  16  17
HETATM   17  C4  UNL     1       4.201   1.614  -0.555  1.00  0.00     0.178 C 
HETATM   18  C1  UNL     1       4.881   0.307  -0.184  1.00  0.00     0.250 C 
HETATM   19  C2  UNL     1       5.111  -0.283  -1.561  1.00  0.00     0.064 C 
HETATM   20  C3  UNL     1       5.147   0.925  -2.439  1.00  0.00     0.170 C 
HETATM   21  O1  UNL     1       5.035   2.041  -1.612  1.00  0.00    -0.381 OA
BRANCH  18  22
HETATM   22  N1  UNL     1       4.013  -0.522   0.630  1.00  0.00     0.085 N 
HETATM   23  H1  UNL     1       4.196  -1.551   0.504  1.00  0.00     0.313 HD
HETATM   24  H2  UNL     1       4.300  -0.346   1.636  1.00  0.00     0.313 HD
ENDBRANCH  18  22
ENDBRANCH  16  17
ENDBRANCH  15  16
ENDBRANCH   1  15
BRANCH   5  25
HETATM   25  C9  UNL     1      -3.163  -1.476   1.270  1.00  0.00     0.053 A 
HETATM   26  C10 UNL     1      -3.361  -1.155   2.614  1.00  0.00     0.034 A 
HETATM   27  C11 UNL     1      -4.621  -0.952   3.137  1.00  0.00     0.046 A 
HETATM   28  C12 UNL     1      -5.681  -1.081   2.269  1.00  0.00     0.138 A 
HETATM   29  F1  UNL     1      -6.962  -0.904   2.673  1.00  0.00    -0.204 F 
HETATM   30  C13 UNL     1      -5.449  -1.399   0.949  1.00  0.00     0.074 A 
HETATM   31 CL1  UNL     1      -6.821  -1.560  -0.149  1.00  0.00    -0.081 Cl
HETATM   32  C14 UNL     1      -4.212  -1.606   0.401  1.00  0.00     0.058 A 
ENDBRANCH   5  25
TORSDOF 5
