REMARK  6 active torsions:
REMARK  status: ('A' for Active; 'I' for Inactive)
REMARK    1  A    between atoms: O1_2  and  C2_3 
REMARK    2  A    between atoms: C2_3  and  C3_4 
REMARK    3  A    between atoms: C3_4  and  O2_5 
REMARK    4  A    between atoms: O2_5  and  C4_6 
REMARK    5  A    between atoms: C8_12  and  N3_13 
REMARK    6  A    between atoms: N3_13  and  C9_14 
ROOT
HETATM    1  C9  UNL     1       4.082  -0.273   0.322  1.00  0.00     0.031 A 
HETATM    2  C10 UNL     1       4.715   0.720  -0.322  1.00  0.00     0.008 A 
HETATM    3  C11 UNL     1       6.157   0.339  -0.547  1.00  0.00     0.079 A 
HETATM    4  C12 UNL     1       6.227  -1.020   0.069  1.00  0.00     0.028 A 
HETATM    5  C13 UNL     1       7.366  -1.887   0.153  1.00  0.00     0.095 C 
HETATM    6  N4  UNL     1       8.284  -2.589   0.227  1.00  0.00    -0.192 NA
HETATM    7  C14 UNL     1       5.021  -1.351   0.563  1.00  0.00     0.047 A 
ENDROOT
BRANCH   1   8
HETATM    8  N3  UNL     1       2.693  -0.019   0.591  1.00  0.00    -0.340 N 
HETATM    9  H10 UNL     1       2.771  -0.011   1.622  1.00  0.00     0.167 HD
BRANCH   8  10
HETATM   10  C8  UNL     1       1.855   0.106  -0.534  1.00  0.00     0.144 A 
HETATM   11  N2  UNL     1       2.443  -0.014  -1.727  1.00  0.00    -0.223 NA
HETATM   12  C7  UNL     1       1.694   0.094  -2.867  1.00  0.00     0.236 A 
HETATM   13  N1  UNL     1       0.374   0.321  -2.766  1.00  0.00    -0.241 NA
HETATM   14  C6  UNL     1      -0.248   0.447  -1.586  1.00  0.00     0.077 A 
HETATM   15  C5  UNL     1      -1.596   0.677  -1.475  1.00  0.00     0.072 A 
HETATM   16  C15 UNL     1       0.502   0.338  -0.438  1.00  0.00     0.075 A 
HETATM   17  C4  UNL     1      -2.287   0.814  -0.297  1.00  0.00     0.107 A 
HETATM   18  C17 UNL     1      -1.474   0.695   0.843  1.00  0.00     0.136 A 
HETATM   19  C16 UNL     1      -0.114   0.463   0.773  1.00  0.00     0.121 A 
HETATM   20  O3  UNL     1      -1.965   0.799   2.135  1.00  0.00    -0.344 OA
HETATM   21  O4  UNL     1       0.595   0.362   1.959  1.00  0.00    -0.345 OA
HETATM   22  C19 UNL     1       0.023  -0.217   3.117  1.00  0.00     0.202 C 
HETATM   23  C18 UNL     1      -1.413   0.168   3.267  1.00  0.00     0.202 C 
BRANCH  17  24
HETATM   24  O2  UNL     1      -3.591   1.038  -0.057  1.00  0.00    -0.346 OA
BRANCH  24  25
HETATM   25  C3  UNL     1      -4.696   1.198  -0.853  1.00  0.00     0.201 C 
BRANCH  25  26
HETATM   26  C2  UNL     1      -5.022   0.012  -1.703  1.00  0.00     0.193 C 
BRANCH  26  27
HETATM   27  O1  UNL     1      -5.264  -1.113  -0.921  1.00  0.00    -0.394 OA
HETATM   28  C1  UNL     1      -6.311  -0.982  -0.051  1.00  0.00     0.201 C 
ENDBRANCH  26  27
ENDBRANCH  25  26
ENDBRANCH  24  25
ENDBRANCH  17  24
ENDBRANCH   8  10
ENDBRANCH   1   8
TORSDOF 6
