REMARK  0 active torsions:
REMARK  status: ('A' for Active; 'I' for Inactive)
ROOT
HETATM    1  N1  UNL     1       6.291   0.433   1.480  1.00  0.00    -0.191 NA
HETATM    2  C1  UNL     1       5.307  -0.032   1.085  1.00  0.00     0.102 C 
HETATM    3  C2  UNL     1       4.066  -0.594   0.587  1.00  0.00     0.084 C 
HETATM    4  C3  UNL     1       2.953   0.127   0.687  1.00  0.00     0.056 C 
HETATM    5  C4  UNL     1       1.563  -0.102   0.307  1.00  0.00     0.046 C 
HETATM    6  C5  UNL     1       0.957  -1.244   0.214  1.00  0.00     0.015 C 
HETATM    7  B1  UNL     1       1.756  -2.841   0.550  1.00  0.00     0.257 B 
HETATM    8  C6  UNL     1       3.404  -2.947  -0.019  1.00  0.00    -0.060 C 
HETATM    9  C7  UNL     1       4.197  -1.909   0.026  1.00  0.00     0.132 C 
HETATM   10  F1  UNL     1       5.396  -2.160  -0.604  1.00  0.00    -0.205 F 
HETATM   11  N2  UNL     1      -0.311  -1.725  -0.106  1.00  0.00    -0.255 N 
HETATM   12  C8  UNL     1      -0.458  -2.664  -0.975  1.00  0.00     0.234 A 
HETATM   13  N3  UNL     1      -1.630  -2.173  -0.389  1.00  0.00    -0.233 N 
HETATM   14  C9  UNL     1      -2.830  -2.610  -0.550  1.00  0.00     0.252 C 
HETATM   15  O1  UNL     1      -2.966  -1.529   0.346  1.00  0.00    -0.344 OA
HETATM   16  C10 UNL     1      -3.375  -0.238  -0.098  1.00  0.00     0.180 C 
HETATM   17  C11 UNL     1      -2.665   0.836   0.736  1.00  0.00     0.054 C 
HETATM   18  C12 UNL     1      -2.981   2.199   0.258  1.00  0.00    -0.025 C 
HETATM   19  C13 UNL     1      -2.089   3.048  -0.206  1.00  0.00    -0.003 C 
HETATM   20  C14 UNL     1      -0.668   2.987  -0.401  1.00  0.00     0.017 C 
HETATM   21  C15 UNL     1       0.463   2.376  -0.338  1.00  0.00     0.088 C 
HETATM   22  N4  UNL     1       0.997   1.151   0.056  1.00  0.00    -0.365 N 
HETATM   23  H12 UNL     1       0.836   1.208   1.112  1.00  0.00     0.165 HD
ENDROOT
TORSDOF 0
