REMARK  1 active torsions:
REMARK  status: ('A' for Active; 'I' for Inactive)
REMARK    1  A    between atoms: C4_5  and  N1_6 
ROOT
HETATM    1  N1  UNL     1      -1.132   0.842   0.924  1.00  0.00    -0.277 N 
HETATM    2  N2  UNL     1      -1.488   2.093   1.495  1.00  0.00    -0.291 N 
HETATM    3  C5  UNL     1      -0.543   3.185   1.568  1.00  0.00     0.223 C 
HETATM    4  N3  UNL     1       0.655   2.991   1.092  1.00  0.00    -0.245 NA
HETATM    5  C6  UNL     1       1.022   1.736   0.515  1.00  0.00     0.063 C 
HETATM    6  C7  UNL     1       1.944   1.619  -0.428  1.00  0.00     0.041 C 
HETATM    7  C8  UNL     1       2.355   0.337  -1.053  1.00  0.00     0.202 C 
HETATM    8  O1  UNL     1       3.704   0.224  -1.227  1.00  0.00    -0.373 OA
HETATM    9  C9  UNL     1       4.299  -0.911  -0.743  1.00  0.00     0.195 C 
HETATM   10  C10 UNL     1       3.532  -2.175  -1.107  1.00  0.00     0.201 C 
HETATM   11  O2  UNL     1       2.146  -1.999  -0.775  1.00  0.00    -0.351 OA
HETATM   12  C11 UNL     1       1.695  -0.759  -0.346  1.00  0.00     0.077 C 
HETATM   13  C12 UNL     1       0.762  -0.701   0.611  1.00  0.00     0.041 C 
HETATM   14  C13 UNL     1       0.254   0.596   1.097  1.00  0.00     0.185 C 
HETATM   15  H3  UNL     1      -2.407   2.401   1.911  1.00  0.00     0.188 HD
ENDROOT
BRANCH   1  16
HETATM   16  C4  UNL     1      -2.209   0.140   0.338  1.00  0.00     0.053 A 
HETATM   17  C3  UNL     1      -3.513   0.487   0.587  1.00  0.00     0.034 A 
HETATM   18  C2  UNL     1      -4.574  -0.180   0.018  1.00  0.00     0.046 A 
HETATM   19  C1  UNL     1      -4.393  -1.243  -0.843  1.00  0.00     0.138 A 
HETATM   20  F1  UNL     1      -5.431  -1.906  -1.408  1.00  0.00    -0.204 F 
HETATM   21  C15 UNL     1      -3.087  -1.625  -1.121  1.00  0.00     0.074 A 
HETATM   22  C14 UNL     1      -2.061  -0.922  -0.523  1.00  0.00     0.058 A 
HETATM   23 CL1  UNL     1      -2.829  -2.969  -2.209  1.00  0.00    -0.081 Cl
ENDBRANCH   1  16
TORSDOF 1
