REMARK  0 active torsions:
REMARK  status: ('A' for Active; 'I' for Inactive)
ROOT
HETATM    1  C1  UNL     1       4.553  -0.418  -1.266  1.00  0.00     0.023 C 
HETATM    2  C2  UNL     1       3.272  -0.386  -1.445  1.00  0.00    -0.009 C 
HETATM    3  C3  UNL     1       2.959   1.052  -1.545  1.00  0.00     0.039 C 
HETATM    4  C4  UNL     1       3.931   2.142  -1.439  1.00  0.00     0.099 C 
HETATM    5  N1  UNL     1       4.729   3.011  -1.363  1.00  0.00    -0.191 NA
HETATM    6  C5  UNL     1       1.991   1.934  -1.723  1.00  0.00    -0.051 C 
HETATM    7  B1  UNL     1       0.983   3.485  -1.930  1.00  0.00     0.245 B 
HETATM    8  S1  UNL     1      -0.795   3.208  -1.931  1.00  0.00    -0.228 SA
HETATM    9  C6  UNL     1      -1.628   1.629  -1.755  1.00  0.00     0.069 C 
HETATM   10  C7  UNL     1      -2.544   1.701  -0.793  1.00  0.00     0.036 C 
HETATM   11  C8  UNL     1      -3.464   0.561  -0.355  1.00  0.00     0.197 C 
HETATM   12  O1  UNL     1      -3.159   0.336   0.930  1.00  0.00    -0.385 OA
HETATM   13  C9  UNL     1      -3.762  -0.622   1.679  1.00  0.00     0.194 C 
HETATM   14  C10 UNL     1      -2.737  -0.643   2.924  1.00  0.00     0.196 C 
HETATM   15  O2  UNL     1      -1.581  -0.941   2.310  1.00  0.00    -0.365 OA
HETATM   16  C11 UNL     1      -0.390  -1.072   2.870  1.00  0.00     0.343 C 
HETATM   17  O3  UNL     1       0.517  -1.371   1.793  1.00  0.00    -0.338 OA
HETATM   18  C12 UNL     1       1.810  -1.665   2.036  1.00  0.00     0.139 C 
HETATM   19  C13 UNL     1       1.826  -1.484   0.737  1.00  0.00     0.054 C 
HETATM   20  C14 UNL     1       1.113  -1.167  -0.476  1.00  0.00     0.076 C 
HETATM   21  N2  UNL     1      -0.121  -0.891  -0.490  1.00  0.00    -0.243 NA
HETATM   22  C15 UNL     1      -0.885  -0.569  -1.642  1.00  0.00     0.234 C 
HETATM   23  N3  UNL     1      -1.547   0.304  -2.324  1.00  0.00    -0.237 NA
HETATM   24  C16 UNL     1       2.136  -1.277  -1.557  1.00  0.00     0.255 C 
HETATM   25  F1  UNL     1       2.643  -2.587  -1.552  1.00  0.00    -0.238 F 
HETATM   26  H4  UNL     1      -1.596   4.337  -2.069  1.00  0.00     0.083 HD
ENDROOT
TORSDOF 0
