REMARK  1 active torsions:
REMARK  status: ('A' for Active; 'I' for Inactive)
REMARK    1  A    between atoms: C4_5  and  N2_6 
ROOT
HETATM    1  N1  UNL     1       6.931  -0.478   2.351  1.00  0.00    -0.191 NA
HETATM    2  C1  UNL     1       6.069  -0.143   1.656  1.00  0.00     0.102 C 
HETATM    3  C2  UNL     1       5.020   0.275   0.780  1.00  0.00     0.085 A 
HETATM    4  C3  UNL     1       3.798  -0.411   0.777  1.00  0.00     0.055 A 
HETATM    5  C4  UNL     1       2.689  -0.125  -0.012  1.00  0.00     0.033 A 
HETATM    6  C17 UNL     1       2.965   0.963  -0.820  1.00  0.00     0.032 A 
HETATM    7  C18 UNL     1       4.117   1.697  -0.893  1.00  0.00     0.046 A 
HETATM    8  C19 UNL     1       5.150   1.327  -0.068  1.00  0.00     0.137 A 
HETATM    9  F1  UNL     1       6.309   1.990  -0.078  1.00  0.00    -0.204 F 
ENDROOT
BRANCH   5  10
HETATM   10  N2  UNL     1       1.423  -0.852   0.029  1.00  0.00    -0.359 N 
HETATM   11  C5  UNL     1       1.426  -1.414   1.367  1.00  0.00     0.269 C 
HETATM   12  N3  UNL     1       0.188  -1.880   1.849  1.00  0.00    -0.282 N 
HETATM   13  C6  UNL     1      -0.083  -2.840   2.655  1.00  0.00     0.195 A 
HETATM   14  N4  UNL     1      -1.040  -2.053   2.093  1.00  0.00    -0.163 NA
HETATM   15  C7  UNL     1      -2.104  -2.241   1.432  1.00  0.00     0.092 C 
HETATM   16  C8  UNL     1      -2.430  -0.856   1.269  1.00  0.00     0.048 C 
HETATM   17  C9  UNL     1      -3.275  -0.037   0.673  1.00  0.00     0.070 C 
HETATM   18  C10 UNL     1      -4.275  -0.747  -0.146  1.00  0.00     0.232 C 
HETATM   19  O4  UNL     1      -3.642   1.314   0.473  1.00  0.00    -0.353 OA
HETATM   20  O1  UNL     1      -4.119  -0.320  -1.502  1.00  0.00    -0.383 OA
HETATM   21  C11 UNL     1      -2.804  -0.582  -1.893  1.00  0.00     0.194 C 
HETATM   22  O2  UNL     1      -1.873   0.140  -1.081  1.00  0.00     0.000 OA
HETATM   23  C12 UNL     1      -0.487  -0.010  -1.336  1.00  0.00    -0.032 A 
HETATM   24  O3  UNL     1      -2.057   1.462  -1.750  1.00  0.00     0.000 OA
HETATM   25  C13 UNL     1      -0.710   1.183  -1.943  1.00  0.00     0.010 A 
HETATM   26  C16 UNL     1       0.804  -0.713  -1.264  1.00  0.00     0.164 C 
HETATM   27  C14 UNL     1      -2.407   2.655  -1.054  1.00  0.00     0.029 C 
HETATM   28  C15 UNL     1      -2.607   2.289   0.424  1.00  0.00     0.175 C 
ENDBRANCH   5  10
TORSDOF 1
