REMARK  8 active torsions:
REMARK  status: ('A' for Active; 'I' for Inactive)
REMARK    1  A    between atoms: C2_2  and  C4_5 
REMARK    2  A    between atoms: C5_7  and  C6_8 
REMARK    3  A    between atoms: C7_9  and  N2_10 
REMARK    4  A    between atoms: N2_10  and  C8_11 
REMARK    5  A    between atoms: C12_17  and  O1_18 
REMARK    6  A    between atoms: O1_18  and  C13_19 
REMARK    7  A    between atoms: C13_19  and  C14_20 
REMARK    8  A    between atoms: C14_20  and  O2_21 
ROOT
HETATM    1  C1  UNL     1      -7.593   0.109  -1.189  1.00  0.00     0.038 C 
HETATM    2  C2  UNL     1      -6.417  -0.150  -0.603  1.00  0.00     0.073 C 
HETATM    3  C3  UNL     1      -5.432   0.850  -0.922  1.00  0.00     0.101 C 
HETATM    4  N1  UNL     1      -4.642   1.679  -1.184  1.00  0.00    -0.191 NA
ENDROOT
BRANCH   2   5
HETATM    5  C4  UNL     1      -6.195  -1.293   0.235  1.00  0.00     0.136 C 
HETATM    6  F1  UNL     1      -7.281  -2.119   0.404  1.00  0.00    -0.205 F 
HETATM    7  C5  UNL     1      -5.144  -1.728   0.893  1.00  0.00     0.045 C 
BRANCH   7   8
HETATM    8  C6  UNL     1      -3.793  -1.255   1.053  1.00  0.00     0.020 C 
HETATM    9  C7  UNL     1      -2.656  -1.606   1.685  1.00  0.00     0.090 C 
BRANCH   9  10
HETATM   10  N2  UNL     1      -1.454  -0.792   1.566  1.00  0.00    -0.350 N 
HETATM   11  H6  UNL     1      -1.900  -0.454   2.447  1.00  0.00     0.166 HD
BRANCH  10  12
HETATM   12  C8  UNL     1      -0.721  -1.138   0.394  1.00  0.00     0.142 A 
HETATM   13  N3  UNL     1      -1.263  -2.092  -0.382  1.00  0.00    -0.224 NA
HETATM   14  C9  UNL     1      -0.635  -2.502  -1.514  1.00  0.00     0.236 A 
HETATM   15  N4  UNL     1       0.507  -1.910  -1.779  1.00  0.00    -0.241 NA
HETATM   16  C10 UNL     1       1.076  -0.956  -1.030  1.00  0.00     0.075 A 
HETATM   17  C11 UNL     1       2.264  -0.485  -1.488  1.00  0.00     0.072 A 
HETATM   18  C17 UNL     1       0.460  -0.527   0.116  1.00  0.00     0.050 A 
HETATM   19  C12 UNL     1       2.864   0.488  -0.726  1.00  0.00     0.105 A 
HETATM   20  C15 UNL     1       2.262   0.942   0.439  1.00  0.00     0.111 A 
HETATM   21  C16 UNL     1       1.030   0.448   0.903  1.00  0.00     0.018 A 
HETATM   22  O4  UNL     1       3.062   1.935   1.046  1.00  0.00    -0.346 OA
HETATM   23  C18 UNL     1       0.191   0.765   2.067  1.00  0.00     0.210 C 
HETATM   24  O3  UNL     1       0.892   1.871   2.684  1.00  0.00    -0.384 OA
HETATM   25  C19 UNL     1       2.097   1.475   3.214  1.00  0.00     0.194 C 
HETATM   26  C20 UNL     1       3.275   2.066   2.461  1.00  0.00     0.202 C 
BRANCH  19  27
HETATM   27  O1  UNL     1       4.086   1.004  -1.157  1.00  0.00    -0.346 OA
BRANCH  27  28
HETATM   28  C13 UNL     1       4.680   0.525  -2.349  1.00  0.00     0.201 C 
BRANCH  28  29
HETATM   29  C14 UNL     1       6.006   1.231  -2.618  1.00  0.00     0.190 C 
BRANCH  29  30
HETATM   30  O2  UNL     1       6.854   0.973  -1.532  1.00  0.00    -0.399 OA
HETATM   31  H13 UNL     1       6.545   0.188  -0.998  1.00  0.00     0.209 HD
ENDBRANCH  29  30
ENDBRANCH  28  29
ENDBRANCH  27  28
ENDBRANCH  19  27
ENDBRANCH  10  12
ENDBRANCH   9  10
ENDBRANCH   7   8
ENDBRANCH   2   5
TORSDOF 8
