REMARK  5 active torsions:
REMARK  status: ('A' for Active; 'I' for Inactive)
REMARK    1  A    between atoms: O1_2  and  C2_3 
REMARK    2  A    between atoms: C2_3  and  C3_4 
REMARK    3  A    between atoms: C3_4  and  O2_5 
REMARK    4  A    between atoms: O2_5  and  C4_6 
REMARK    5  A    between atoms: C8_10  and  C9_11 
ROOT
HETATM    1  C9  UNL     1      -3.785   0.455   0.411  1.00  0.00    -0.034 A 
HETATM    2  C10 UNL     1      -4.836   0.309   1.302  1.00  0.00     0.014 A 
HETATM    3  C11 UNL     1      -5.951   1.110   1.241  1.00  0.00     0.045 A 
HETATM    4  C12 UNL     1      -6.060   2.101   0.273  1.00  0.00     0.137 A 
HETATM    5  F1  UNL     1      -7.157   2.913   0.188  1.00  0.00    -0.204 F 
HETATM    6  C13 UNL     1      -5.017   2.279  -0.646  1.00  0.00     0.084 A 
HETATM    7  C14 UNL     1      -5.135   3.317  -1.658  1.00  0.00     0.102 C 
HETATM    8  N1  UNL     1      -5.214   4.155  -2.472  1.00  0.00    -0.191 NA
HETATM    9  C15 UNL     1      -3.900   1.447  -0.553  1.00  0.00     0.037 A 
ENDROOT
BRANCH   1  10
HETATM   10  C8  UNL     1      -2.578  -0.370   0.399  1.00  0.00     0.021 C 
HETATM   11  C7  UNL     1      -1.281  -0.135   0.332  1.00  0.00    -0.018 A 
HETATM   12  C6  UNL     1      -0.671   1.213   0.245  1.00  0.00     0.071 A 
HETATM   13  C16 UNL     1      -0.450  -1.350   0.345  1.00  0.00     0.111 A 
HETATM   14  C5  UNL     1       0.825   1.133   0.189  1.00  0.00     0.018 A 
HETATM   15  C4  UNL     1       1.564   0.032   0.203  1.00  0.00     0.101 A 
HETATM   16  C17 UNL     1       0.858  -1.231   0.284  1.00  0.00     0.135 A 
HETATM   17  O3  UNL     1       1.705  -2.350   0.291  1.00  0.00    -0.344 OA
HETATM   18  C18 UNL     1       1.133  -3.651   0.116  1.00  0.00     0.202 C 
HETATM   19  C19 UNL     1      -0.144  -3.649   0.972  1.00  0.00     0.202 C 
HETATM   20  O4  UNL     1      -0.970  -2.638   0.419  1.00  0.00    -0.345 OA
BRANCH  15  21
HETATM   21  O2  UNL     1       2.899   0.320   0.137  1.00  0.00    -0.346 OA
BRANCH  21  22
HETATM   22  C3  UNL     1       3.777  -0.538  -0.561  1.00  0.00     0.201 C 
BRANCH  22  23
HETATM   23  C2  UNL     1       5.106   0.233  -0.622  1.00  0.00     0.193 C 
BRANCH  23  24
HETATM   24  O1  UNL     1       5.502   0.464   0.710  1.00  0.00    -0.394 OA
HETATM   25  C1  UNL     1       6.695   1.168   0.695  1.00  0.00     0.201 C 
ENDBRANCH  23  24
ENDBRANCH  22  23
ENDBRANCH  21  22
ENDBRANCH  15  21
ENDBRANCH   1  10
TORSDOF 5
