REMARK  6 active torsions:
REMARK  status: ('A' for Active; 'I' for Inactive)
REMARK    1  A    between atoms: C2_2  and  N1_3 
REMARK    2  A    between atoms: N1_3  and  C3_4 
REMARK    3  A    between atoms: C8_11  and  O1_12 
REMARK    4  A    between atoms: O1_12  and  C9_13 
REMARK    5  A    between atoms: C9_13  and  C10_14 
REMARK    6  A    between atoms: C10_14  and  O2_15 
ROOT
HETATM    1  C3  UNL     1      -3.868   0.255  -0.365  1.00  0.00     0.117 C 
HETATM    2  C4  UNL     1      -2.798  -0.559  -0.352  1.00  0.00     0.086 A 
HETATM    3  N2  UNL     1      -3.104  -1.944  -0.316  1.00  0.00    -0.242 NA
HETATM    4  C5  UNL     1      -2.133  -2.790  -0.397  1.00  0.00     0.233 A 
HETATM    5  N3  UNL     1      -0.776  -2.381  -0.515  1.00  0.00    -0.243 NA
HETATM    6  C6  UNL     1      -0.471  -1.128  -0.536  1.00  0.00     0.073 A 
HETATM    7  C7  UNL     1       0.954  -0.847  -0.665  1.00  0.00     0.064 C 
HETATM    8  C8  UNL     1       2.121  -0.431  -0.134  1.00  0.00     0.072 C 
HETATM    9  C12 UNL     1       2.292   0.016   1.283  1.00  0.00     0.237 C 
HETATM   10  O3  UNL     1       1.032  -0.113   1.844  1.00  0.00    -0.360 OA
HETATM   11  P1  UNL     1       0.666   1.061   3.068  1.00  0.00     0.014 P 
HETATM   12  C13 UNL     1      -1.138   1.574   2.898  1.00  0.00     0.086 C 
HETATM   13  C14 UNL     1      -1.780   0.660   1.839  1.00  0.00     0.175 C 
HETATM   14  O4  UNL     1      -1.099   0.811   0.666  1.00  0.00    -0.373 OA
HETATM   15  C15 UNL     1      -1.447   0.008  -0.391  1.00  0.00     0.226 A 
HETATM   16  H17 UNL     1       0.794   0.434   4.369  1.00  0.00     0.087 HD
ENDROOT
BRANCH   1  17
HETATM   17  N1  UNL     1      -5.196  -0.308  -0.343  1.00  0.00    -0.374 N 
HETATM   18  H4  UNL     1      -5.683  -0.925   0.355  1.00  0.00     0.164 HD
BRANCH  17  19
HETATM   19  C2  UNL     1      -5.956   0.056  -1.483  1.00  0.00     0.077 C 
HETATM   20  C1  UNL     1      -6.821  -0.551  -2.274  1.00  0.00     0.029 C 
ENDBRANCH  17  19
ENDBRANCH   1  17
BRANCH   8  21
HETATM   21  O1  UNL     1       3.347  -0.325  -0.716  1.00  0.00    -0.351 OA
BRANCH  21  22
HETATM   22  C9  UNL     1       3.954   0.847  -1.210  1.00  0.00     0.201 C 
BRANCH  22  23
HETATM   23  C10 UNL     1       5.285   0.496  -1.832  1.00  0.00     0.193 C 
BRANCH  23  24
HETATM   24  O2  UNL     1       6.186  -0.094  -0.979  1.00  0.00    -0.394 OA
HETATM   25  C11 UNL     1       6.499   0.730   0.090  1.00  0.00     0.201 C 
ENDBRANCH  23  24
ENDBRANCH  22  23
ENDBRANCH  21  22
ENDBRANCH   8  21
TORSDOF 6
