REMARK  8 active torsions:
REMARK  status: ('A' for Active; 'I' for Inactive)
REMARK    1  A    between atoms: C1_2  and  C2_3 
REMARK    2  A    between atoms: C4_5  and  N1_6 
REMARK    3  A    between atoms: N1_6  and  C5_7 
REMARK    4  A    between atoms: C8_12  and  C9_13 
REMARK    5  A    between atoms: C9_13  and  O2_14 
REMARK    6  A    between atoms: O2_14  and  C10_15 
REMARK    7  A    between atoms: C10_15  and  C11_16 
REMARK    8  A    between atoms: C11_16  and  O3_17 
ROOT
HETATM    1  C5  UNL     1      -0.111  -0.770  -1.927  1.00  0.00     0.139 A 
HETATM    2  N2  UNL     1       0.230  -1.215  -3.152  1.00  0.00    -0.224 NA
HETATM    3  C6  UNL     1      -0.180  -2.421  -3.608  1.00  0.00     0.234 A 
HETATM    4  N3  UNL     1      -0.945  -3.176  -2.803  1.00  0.00    -0.253 NA
HETATM    5  C7  UNL     1      -1.318  -2.796  -1.581  1.00  0.00     0.131 A 
HETATM    6  C8  UNL     1      -0.910  -1.551  -1.079  1.00  0.00     0.029 A 
ENDROOT
BRANCH   1   7
HETATM    7  N1  UNL     1       0.238   0.459  -1.310  1.00  0.00    -0.340 N 
HETATM    8  H3  UNL     1      -0.313   1.341  -1.358  1.00  0.00     0.167 HD
BRANCH   7   9
HETATM    9  C4  UNL     1       1.465   0.476  -0.553  1.00  0.00     0.034 A 
HETATM   10  C3  UNL     1       1.781   1.586   0.240  1.00  0.00     0.045 A 
HETATM   11  C2  UNL     1       2.975   1.523   0.928  1.00  0.00     0.025 A 
HETATM   12  C14 UNL     1       3.873   0.484   0.909  1.00  0.00     0.047 A 
HETATM   13  C13 UNL     1       3.538  -0.595   0.121  1.00  0.00     0.027 A 
HETATM   14 CL1  UNL     1       5.367   0.508   1.827  1.00  0.00    -0.083 Cl
HETATM   15  C12 UNL     1       2.354  -0.578  -0.587  1.00  0.00     0.031 A 
BRANCH  11  16
HETATM   16  C1  UNL     1       3.325   2.667   1.762  1.00  0.00     0.271 C 
HETATM   17  O1  UNL     1       2.848   3.781   2.091  1.00  0.00    -0.301 OA
ENDBRANCH  11  16
ENDBRANCH   7   9
ENDBRANCH   1   7
BRANCH   6  18
HETATM   18  C9  UNL     1      -1.337  -1.137   0.285  1.00  0.00     0.211 C 
BRANCH  18  19
HETATM   19  O2  UNL     1      -2.371  -0.206   0.258  1.00  0.00    -0.384 OA
BRANCH  19  20
HETATM   20  C10 UNL     1      -2.732   0.160   1.536  1.00  0.00     0.194 C 
BRANCH  20  21
HETATM   21  C11 UNL     1      -3.871   1.164   1.542  1.00  0.00     0.190 C 
BRANCH  21  22
HETATM   22  O3  UNL     1      -3.578   2.336   0.883  1.00  0.00    -0.399 OA
HETATM   23  H12 UNL     1      -4.214   2.571   0.162  1.00  0.00     0.209 HD
ENDBRANCH  21  22
ENDBRANCH  20  21
ENDBRANCH  19  20
ENDBRANCH  18  19
ENDBRANCH   6  18
TORSDOF 8
