REMARK  8 active torsions:
REMARK  status: ('A' for Active; 'I' for Inactive)
REMARK    1  A    between atoms: O1_2  and  C2_3 
REMARK    2  A    between atoms: C2_3  and  C3_4 
REMARK    3  A    between atoms: C3_4  and  C4_5 
REMARK    4  A    between atoms: C7_8  and  N1_9 
REMARK    5  A    between atoms: N1_9  and  C8_10 
REMARK    6  A    between atoms: C12_14  and  O2_15 
REMARK    7  A    between atoms: O2_15  and  C13_16 
REMARK    8  A    between atoms: C13_16  and  O3_17 
ROOT
HETATM    1  C4  UNL     1      -2.751   0.234   1.012  1.00  0.00     0.003 C 
HETATM    2  C5  UNL     1      -2.097   1.413   0.815  1.00  0.00     0.024 C 
HETATM    3  C6  UNL     1      -0.782   1.635   1.587  1.00  0.00     0.121 C 
HETATM    4  C7  UNL     1       0.089   0.997   0.434  1.00  0.00     0.184 C 
HETATM    5  N2  UNL     1      -0.284   1.737  -0.704  1.00  0.00    -0.245 NA
HETATM    6  C15 UNL     1      -1.283   2.519  -0.945  1.00  0.00     0.204 C 
HETATM    7  N3  UNL     1      -2.497   2.458  -0.113  1.00  0.00    -0.354 N 
HETATM    8  C16 UNL     1      -0.432  -0.431   0.522  1.00  0.00     0.131 C 
HETATM    9  C17 UNL     1      -1.707  -0.815   0.828  1.00  0.00     0.110 C 
HETATM   10  O4  UNL     1      -2.272  -2.065   1.017  1.00  0.00    -0.346 OA
HETATM   11  C18 UNL     1      -1.529  -3.193   0.515  1.00  0.00     0.202 C 
HETATM   12  C19 UNL     1      -0.360  -2.673  -0.336  1.00  0.00     0.202 C 
HETATM   13  O5  UNL     1       0.290  -1.599   0.310  1.00  0.00    -0.346 OA
HETATM   14  H19 UNL     1      -3.483   2.735   0.162  1.00  0.00     0.166 HD
ENDROOT
BRANCH   4  15
HETATM   15  N1  UNL     1       1.460   0.977   0.781  1.00  0.00    -0.356 N 
HETATM   16  H10 UNL     1       1.723   1.350   1.735  1.00  0.00     0.162 HD
BRANCH  15  17
HETATM   17  C8  UNL     1       2.494   0.498  -0.050  1.00  0.00     0.032 A 
HETATM   18  C9  UNL     1       2.241   0.003  -1.309  1.00  0.00     0.029 A 
HETATM   19  C10 UNL     1       3.244  -0.465  -2.119  1.00  0.00     0.005 A 
HETATM   20  C11 UNL     1       4.547  -0.443  -1.668  1.00  0.00     0.037 A 
HETATM   21  C12 UNL     1       4.866   0.043  -0.413  1.00  0.00     0.073 A 
HETATM   22  C14 UNL     1       3.811   0.498   0.349  1.00  0.00     0.066 A 
BRANCH  21  23
HETATM   23  O2  UNL     1       6.124   0.122   0.156  1.00  0.00    -0.326 OA
BRANCH  23  24
HETATM   24  C13 UNL     1       7.315  -0.283  -0.446  1.00  0.00     0.341 C 
BRANCH  24  25
HETATM   25  O3  UNL     1       7.507   0.435  -1.606  1.00  0.00    -0.377 OA
HETATM   26  H16 UNL     1       7.249   1.373  -1.465  1.00  0.00     0.212 HD
ENDBRANCH  24  25
ENDBRANCH  23  24
ENDBRANCH  21  23
ENDBRANCH  15  17
ENDBRANCH   4  15
BRANCH   1  27
HETATM   27  C3  UNL     1      -4.195   0.295   1.236  1.00  0.00     0.070 C 
BRANCH  27  28
HETATM   28  C2  UNL     1      -4.992  -0.657   0.409  1.00  0.00     0.171 C 
BRANCH  28  29
HETATM   29  O1  UNL     1      -4.928  -0.542  -0.952  1.00  0.00    -0.396 OA
HETATM   30  C1  UNL     1      -5.411   0.605  -1.500  1.00  0.00     0.201 C 
ENDBRANCH  28  29
ENDBRANCH  27  28
ENDBRANCH   1  27
TORSDOF 8
