REMARK  4 active torsions:
REMARK  status: ('A' for Active; 'I' for Inactive)
REMARK    1  A    between atoms: O1_1  and  C1_2 
REMARK    2  A    between atoms: C2_3  and  C3_4 
REMARK    3  A    between atoms: C5_8  and  C6_9 
REMARK    4  A    between atoms: C13_17  and  C14_18 
ROOT
HETATM    1  C3  UNL     1       1.998  -1.020   1.313  1.00  0.00     0.075 A 
HETATM    2  N1  UNL     1       1.307  -1.392   2.381  1.00  0.00    -0.241 NA
HETATM    3  C4  UNL     1       0.004  -1.141   2.518  1.00  0.00     0.234 A 
HETATM    4  N2  UNL     1      -0.537  -0.485   1.487  1.00  0.00    -0.243 NA
HETATM    5  C5  UNL     1       0.109  -0.087   0.388  1.00  0.00     0.079 A 
HETATM    6  C13 UNL     1       1.450  -0.352   0.261  1.00  0.00     0.056 A 
ENDROOT
BRANCH   5   7
HETATM    7  C6  UNL     1      -0.656   0.650  -0.682  1.00  0.00     0.183 C 
HETATM    8  C7  UNL     1      -1.491   1.640  -0.000  1.00  0.00     0.003 C 
HETATM    9  C8  UNL     1      -2.672   2.233   0.143  1.00  0.00    -0.024 C 
HETATM   10  C9  UNL     1      -3.951   2.041  -0.549  1.00  0.00     0.054 C 
HETATM   11  C10 UNL     1      -4.318   0.629  -0.789  1.00  0.00    -0.022 C 
HETATM   12  C11 UNL     1      -3.782  -0.468  -1.296  1.00  0.00     0.015 C 
HETATM   13  C12 UNL     1      -2.463  -0.694  -1.871  1.00  0.00     0.111 C 
HETATM   14  N3  UNL     1      -1.295  -0.232  -1.588  1.00  0.00    -0.286 NA
ENDBRANCH   5   7
BRANCH   6  15
HETATM   15  C14 UNL     1       2.170   0.066  -0.915  1.00  0.00     0.112 A 
HETATM   16  C15 UNL     1       3.324   0.167  -1.677  1.00  0.00     0.180 A 
HETATM   17  O2  UNL     1       2.163   0.676  -2.118  1.00  0.00    -0.317 OA
ENDBRANCH   6  15
BRANCH   1  18
HETATM   18  C2  UNL     1       3.393  -1.382   1.352  1.00  0.00     0.056 C 
HETATM   19  C1  UNL     1       4.595  -1.421   0.840  1.00  0.00     0.133 C 
BRANCH  19  20
HETATM   20  O1  UNL     1       5.917  -1.808   0.964  1.00  0.00    -0.373 OA
HETATM   21  H1  UNL     1       6.311  -2.297   1.762  1.00  0.00     0.216 HD
ENDBRANCH  19  20
ENDBRANCH   1  18
TORSDOF 4
