REMARK  7 active torsions:
REMARK  status: ('A' for Active; 'I' for Inactive)
REMARK    1  A    between atoms: O1_2  and  C2_3 
REMARK    2  A    between atoms: C2_3  and  C3_4 
REMARK    3  A    between atoms: C3_4  and  C4_5 
REMARK    4  A    between atoms: C12_15  and  N1_16 
REMARK    5  A    between atoms: N1_16  and  C13_17 
REMARK    6  A    between atoms: C16_20  and  N2_21 
REMARK    7  A    between atoms: C17_22  and  C18_23 
ROOT
HETATM    1  C4  UNL     1      -3.202  -0.263  -0.737  1.00  0.00    -0.018 A 
HETATM    2  C5  UNL     1      -2.503   0.745  -1.362  1.00  0.00     0.042 A 
HETATM    3  C6  UNL     1      -1.126   0.731  -1.256  1.00  0.00     0.067 A 
HETATM    4  C7  UNL     1      -0.382  -0.195  -0.585  1.00  0.00     0.053 A 
HETATM    5  C8  UNL     1      -1.101  -1.207   0.040  1.00  0.00     0.117 A 
HETATM    6  C9  UNL     1      -2.486  -1.221  -0.048  1.00  0.00     0.109 A 
HETATM    7  O2  UNL     1      -3.033  -2.317   0.645  1.00  0.00    -0.346 OA
HETATM    8  C10 UNL     1      -2.424  -3.605   0.552  1.00  0.00     0.202 C 
HETATM    9  C11 UNL     1      -0.934  -3.552   0.757  1.00  0.00     0.202 C 
HETATM   10  O3  UNL     1      -0.460  -2.198   0.748  1.00  0.00    -0.345 OA
HETATM   11  C12 UNL     1       0.923   0.093  -0.687  1.00  0.00     0.045 A 
HETATM   12  C20 UNL     1       1.029   1.327  -1.504  1.00  0.00     0.207 A 
HETATM   13  N3  UNL     1      -0.352   1.625  -1.799  1.00  0.00    -0.283 NA
ENDROOT
BRANCH  11  14
HETATM   14  N1  UNL     1       1.938  -0.725  -0.068  1.00  0.00    -0.357 N 
HETATM   15  H13 UNL     1       1.752  -1.685   0.217  1.00  0.00     0.166 HD
BRANCH  14  16
HETATM   16  C13 UNL     1       3.169  -0.009   0.067  1.00  0.00     0.033 A 
HETATM   17  C14 UNL     1       3.062   1.085   0.894  1.00  0.00     0.032 A 
HETATM   18  C15 UNL     1       4.154   1.889   1.138  1.00  0.00     0.032 A 
HETATM   19  C16 UNL     1       5.335   1.546   0.522  1.00  0.00     0.039 A 
HETATM   20  C17 UNL     1       5.370   0.437  -0.294  1.00  0.00     0.030 A 
HETATM   21  C19 UNL     1       4.329  -0.390  -0.571  1.00  0.00     0.046 A 
BRANCH  19  22
HETATM   22  N2  UNL     1       6.498   2.337   0.726  1.00  0.00    -0.398 N 
HETATM   23  H16 UNL     1       7.379   2.430   1.257  1.00  0.00     0.156 HD
HETATM   24  H17 UNL     1       6.332   3.111   0.036  1.00  0.00     0.156 HD
ENDBRANCH  19  22
BRANCH  20  25
HETATM   25  C18 UNL     1       6.648   0.115  -0.912  1.00  0.00     0.272 C 
HETATM   26  O4  UNL     1       7.851   0.374  -1.092  1.00  0.00    -0.301 OA
ENDBRANCH  20  25
ENDBRANCH  14  16
ENDBRANCH  11  14
BRANCH   1  27
HETATM   27  C3  UNL     1      -4.697  -0.399  -0.743  1.00  0.00     0.068 C 
BRANCH  27  28
HETATM   28  C2  UNL     1      -5.260   0.026   0.611  1.00  0.00     0.171 C 
BRANCH  28  29
HETATM   29  O1  UNL     1      -4.975   1.325   0.944  1.00  0.00    -0.396 OA
HETATM   30  C1  UNL     1      -5.464   2.280   0.087  1.00  0.00     0.201 C 
ENDBRANCH  28  29
ENDBRANCH  27  28
ENDBRANCH   1  27
TORSDOF 7
