REMARK  0 active torsions:
REMARK  status: ('A' for Active; 'I' for Inactive)
ROOT
HETATM    1  C1  UNL     1      -4.231  -1.322  -0.469  1.00  0.00     0.052 C 
HETATM    2  C2  UNL     1      -3.199  -0.285  -0.410  1.00  0.00    -0.009 C 
HETATM    3  C3  UNL     1      -3.441   0.783   0.387  1.00  0.00     0.011 C 
HETATM    4  C4  UNL     1      -2.476   1.787   0.935  1.00  0.00     0.001 C 
HETATM    5  C5  UNL     1      -1.157   1.996   0.679  1.00  0.00     0.009 C 
HETATM    6  C6  UNL     1      -0.170   1.504  -0.316  1.00  0.00    -0.029 C 
HETATM    7  C7  UNL     1       0.866   1.297   0.493  1.00  0.00    -0.010 C 
HETATM    8  C8  UNL     1       1.032   1.479   1.948  1.00  0.00     0.072 C 
HETATM    9  C9  UNL     1       1.726   0.231   2.507  1.00  0.00     0.018 C 
HETATM   10  C10 UNL     1       1.480  -0.773   1.634  1.00  0.00     0.101 C 
HETATM   11  O1  UNL     1       1.030  -2.087   1.172  1.00  0.00    -0.346 OA
HETATM   12  C11 UNL     1      -0.347  -1.968   0.678  1.00  0.00     0.202 C 
HETATM   13  C12 UNL     1      -0.512  -2.364  -0.741  1.00  0.00     0.204 C 
HETATM   14  O2  UNL     1      -1.929  -2.104  -1.115  1.00  0.00    -0.332 OA
HETATM   15  C13 UNL     1      -2.050  -0.656  -1.271  1.00  0.00     0.165 C 
HETATM   16  N1  UNL     1      -1.293   0.132  -2.013  1.00  0.00    -0.262 NA
HETATM   17  C14 UNL     1      -0.494   1.329  -1.748  1.00  0.00     0.191 C 
HETATM   18  C15 UNL     1       1.849  -0.451   0.222  1.00  0.00     0.135 C 
HETATM   19  C16 UNL     1       2.279   0.784   0.362  1.00  0.00     0.112 C 
HETATM   20  O3  UNL     1       3.565   1.250   0.361  1.00  0.00    -0.345 OA
HETATM   21  C17 UNL     1       4.394   0.710  -0.694  1.00  0.00     0.202 C 
HETATM   22  C18 UNL     1       3.573  -0.306  -1.464  1.00  0.00     0.202 C 
HETATM   23  O4  UNL     1       2.190  -0.162  -1.097  1.00  0.00    -0.344 OA
ENDROOT
TORSDOF 0
