REMARK  10 active torsions:
REMARK  status: ('A' for Active; 'I' for Inactive)
REMARK    1  A    between atoms: B1_1  and  C1_2 
REMARK    2  A    between atoms: C1_2  and  C2_3 
REMARK    3  A    between atoms: C2_3  and  O1_4 
REMARK    4  A    between atoms: O1_4  and  C3_5 
REMARK    5  A    between atoms: C5_7  and  N1_8 
REMARK    6  A    between atoms: N1_8  and  C6_9 
REMARK    7  A    between atoms: C16_21  and  O2_22 
REMARK    8  A    between atoms: O2_22  and  C17_23 
REMARK    9  A    between atoms: C17_23  and  C18_24 
REMARK   10  A    between atoms: C18_24  and  O3_25 
ROOT
HETATM    1  C3  UNL     1       0.870   0.114   0.014  1.00  0.00     0.183 C 
HETATM    2  C4  UNL     1      -0.275  -0.790   0.391  1.00  0.00    -0.002 C 
HETATM    3  C5  UNL     1      -1.132  -1.710  -0.096  1.00  0.00     0.132 C 
HETATM    4  N2  UNL     1      -0.690  -2.939   0.616  1.00  0.00    -0.247 NA
HETATM    5  C13 UNL     1       0.341  -2.647   1.410  1.00  0.00     0.099 C 
HETATM    6  C14 UNL     1       1.048  -1.398   1.953  1.00  0.00     0.062 C 
HETATM    7  C15 UNL     1      -0.199  -0.432   1.897  1.00  0.00     0.053 C 
HETATM    8  C16 UNL     1       1.866  -0.710   0.856  1.00  0.00     0.164 C 
ENDROOT
BRANCH   3   9
HETATM    9  N1  UNL     1      -1.991  -1.068  -1.061  1.00  0.00    -0.340 N 
HETATM   10  H8  UNL     1      -1.478  -0.816  -1.932  1.00  0.00     0.167 HD
BRANCH   9  11
HETATM   11  C6  UNL     1      -3.371  -0.810  -0.851  1.00  0.00     0.039 A 
HETATM   12  C7  UNL     1      -4.156  -1.859  -1.278  1.00  0.00     0.033 A 
HETATM   13  C8  UNL     1      -5.548  -1.787  -1.153  1.00  0.00     0.044 A 
HETATM   14  C9  UNL     1      -6.162  -0.678  -0.606  1.00  0.00     0.117 A 
HETATM   15  F1  UNL     1      -7.511  -0.578  -0.471  1.00  0.00    -0.206 F 
HETATM   16  C10 UNL     1      -5.339   0.328  -0.201  1.00  0.00     0.051 A 
HETATM   17  C11 UNL     1      -3.962   0.309  -0.302  1.00  0.00    -0.032 A 
HETATM   18  C12 UNL     1      -3.027   1.364   0.118  1.00  0.00     0.050 C 
ENDBRANCH   9  11
ENDBRANCH   3   9
BRANCH   1  19
HETATM   19  O1  UNL     1       0.570   1.338   0.496  1.00  0.00    -0.380 OA
BRANCH  19  20
HETATM   20  C2  UNL     1       0.621   2.381  -0.405  1.00  0.00     0.158 C 
BRANCH  20  21
HETATM   21  C1  UNL     1       0.250   3.638   0.360  1.00  0.00    -0.033 C 
BRANCH  21  22
HETATM   22  B1  UNL     1       0.274   4.911  -0.579  1.00  0.00     0.137 B 
HETATM   23  H1  UNL     1       1.290   5.195  -1.115  1.00  0.00    -0.032 HD
HETATM   24  H2  UNL     1      -0.486   5.781  -0.376  1.00  0.00    -0.032 HD
ENDBRANCH  21  22
ENDBRANCH  20  21
ENDBRANCH  19  20
ENDBRANCH   1  19
BRANCH   8  25
HETATM   25  O2  UNL     1       2.908  -0.002   1.312  1.00  0.00    -0.380 OA
BRANCH  25  26
HETATM   26  C17 UNL     1       4.092  -0.486   0.766  1.00  0.00     0.194 C 
BRANCH  26  27
HETATM   27  C18 UNL     1       4.195  -0.387  -0.718  1.00  0.00     0.193 C 
BRANCH  27  28
HETATM   28  O3  UNL     1       5.386  -0.870  -1.256  1.00  0.00    -0.394 OA
HETATM   29  C19 UNL     1       5.630  -2.193  -1.004  1.00  0.00     0.201 C 
ENDBRANCH  27  28
ENDBRANCH  26  27
ENDBRANCH  25  26
ENDBRANCH   8  25
TORSDOF 10
