REMARK  7 active torsions:
REMARK  status: ('A' for Active; 'I' for Inactive)
REMARK    1  A    between atoms: O1_2  and  C2_3 
REMARK    2  A    between atoms: C2_3  and  O2_4 
REMARK    3  A    between atoms: O2_4  and  C3_5 
REMARK    4  A    between atoms: C6_10  and  C7_11 
REMARK    5  A    between atoms: C11_17  and  N3_18 
REMARK    6  A    between atoms: N3_18  and  C12_19 
REMARK    7  A    between atoms: C16_23  and  O5_24 
ROOT
HETATM    1  C7  UNL     1       0.326   0.259  -1.356  1.00  0.00     0.046 A 
HETATM    2  C8  UNL     1       0.616   1.348  -2.159  1.00  0.00     0.044 A 
HETATM    3  C9  UNL     1       2.011   1.708  -2.525  1.00  0.00     0.071 C 
HETATM    4  N1  UNL     1      -0.309   2.175  -2.668  1.00  0.00    -0.246 NA
HETATM    5  C10 UNL     1      -1.593   1.955  -2.398  1.00  0.00     0.235 A 
HETATM    6  N2  UNL     1      -1.973   0.934  -1.633  1.00  0.00    -0.224 NA
HETATM    7  C11 UNL     1      -1.024   0.108  -1.127  1.00  0.00     0.140 A 
ENDROOT
BRANCH   1   8
HETATM    8  C6  UNL     1       1.365  -0.632  -0.830  1.00  0.00     0.215 C 
HETATM    9  C3  UNL     1       2.025   0.032   0.354  1.00  0.00     0.295 C 
HETATM   10  O3  UNL     1       1.380  -0.388   1.505  1.00  0.00    -0.356 OA
HETATM   11  C4  UNL     1       1.687  -1.710   1.740  1.00  0.00     0.197 C 
HETATM   12  C5  UNL     1       1.546  -2.517   0.475  1.00  0.00     0.195 C 
HETATM   13  O4  UNL     1       0.785  -1.846  -0.483  1.00  0.00    -0.374 OA
BRANCH   9  14
HETATM   14  O2  UNL     1       3.366  -0.305   0.467  1.00  0.00    -0.334 OA
BRANCH  14  15
HETATM   15  C2  UNL     1       4.261   0.723   0.447  1.00  0.00     0.340 C 
BRANCH  15  16
HETATM   16  O1  UNL     1       5.559   0.171   0.577  1.00  0.00    -0.372 OA
HETATM   17  C1  UNL     1       6.497   1.199   0.549  1.00  0.00     0.204 C 
ENDBRANCH  15  16
ENDBRANCH  14  15
ENDBRANCH   9  14
ENDBRANCH   1   8
BRANCH   7  18
HETATM   18  N3  UNL     1      -1.575  -0.979  -0.344  1.00  0.00    -0.340 N 
HETATM   19  H16 UNL     1      -1.495  -2.016  -0.205  1.00  0.00     0.167 HD
BRANCH  18  20
HETATM   20  C12 UNL     1      -2.598  -0.509   0.567  1.00  0.00     0.036 A 
HETATM   21  C13 UNL     1      -2.218   0.376   1.569  1.00  0.00     0.029 A 
HETATM   22  C14 UNL     1      -3.147   0.900   2.448  1.00  0.00     0.005 A 
HETATM   23  C15 UNL     1      -4.482   0.520   2.308  1.00  0.00     0.037 A 
HETATM   24  C16 UNL     1      -4.835  -0.359   1.305  1.00  0.00     0.070 A 
HETATM   25  C18 UNL     1      -3.909  -0.892   0.418  1.00  0.00     0.066 A 
BRANCH  24  26
HETATM   26  O5  UNL     1      -6.164  -0.680   1.230  1.00  0.00    -0.356 OA
HETATM   27  C17 UNL     1      -6.785  -1.527   0.315  1.00  0.00     0.210 C 
ENDBRANCH  24  26
ENDBRANCH  18  20
ENDBRANCH   7  18
TORSDOF 7
