REMARK  11 active torsions:
REMARK  status: ('A' for Active; 'I' for Inactive)
REMARK    1  A    between atoms: O1_2  and  C2_3 
REMARK    2  A    between atoms: C2_3  and  C3_4 
REMARK    3  A    between atoms: C3_4  and  O2_5 
REMARK    4  A    between atoms: O2_5  and  C4_6 
REMARK    5  A    between atoms: C6_8  and  O3_9 
REMARK    6  A    between atoms: O3_9  and  C7_10 
REMARK    7  A    between atoms: C7_10  and  C8_11 
REMARK    8  A    between atoms: C8_11  and  O4_12 
REMARK    9  A    between atoms: C10_14  and  N1_15 
REMARK   10  A    between atoms: N1_15  and  C11_16 
REMARK   11  A    between atoms: C15_20  and  O5_21 
ROOT
HETATM    1  C4  UNL     1       2.499  -0.433   1.295  1.00  0.00     0.073 A 
HETATM    2  C5  UNL     1       1.659  -0.582   0.220  1.00  0.00     0.074 A 
HETATM    3  C6  UNL     1       0.313  -0.841   0.270  1.00  0.00     0.087 A 
HETATM    4  C9  UNL     1      -0.229  -0.962   1.559  1.00  0.00     0.072 A 
HETATM    5  C10 UNL     1      -1.553  -1.230   1.898  1.00  0.00     0.144 A 
HETATM    6  N2  UNL     1      -1.967  -1.333   3.152  1.00  0.00    -0.223 NA
HETATM    7  C18 UNL     1      -1.109  -1.179   4.181  1.00  0.00     0.236 A 
HETATM    8  N3  UNL     1       0.188  -0.918   3.961  1.00  0.00    -0.241 NA
HETATM    9  C19 UNL     1       0.598  -0.816   2.684  1.00  0.00     0.077 A 
HETATM   10  C20 UNL     1       1.956  -0.553   2.544  1.00  0.00     0.069 A 
ENDROOT
BRANCH   5  11
HETATM   11  N1  UNL     1      -2.426  -1.377   0.777  1.00  0.00    -0.340 N 
HETATM   12  H14 UNL     1      -2.597  -2.206   0.164  1.00  0.00     0.167 HD
BRANCH  11  13
HETATM   13  C11 UNL     1      -3.191  -0.206   0.435  1.00  0.00     0.036 A 
HETATM   14  C12 UNL     1      -3.210   0.899   1.287  1.00  0.00     0.029 A 
HETATM   15  C13 UNL     1      -3.923   2.045   1.016  1.00  0.00     0.005 A 
HETATM   16  C14 UNL     1      -4.654   2.081  -0.172  1.00  0.00     0.037 A 
HETATM   17  C15 UNL     1      -4.674   1.019  -1.056  1.00  0.00     0.070 A 
HETATM   18  C17 UNL     1      -3.935  -0.097  -0.718  1.00  0.00     0.066 A 
BRANCH  17  19
HETATM   19  O5  UNL     1      -5.394   1.044  -2.233  1.00  0.00    -0.356 OA
HETATM   20  C16 UNL     1      -6.151   2.184  -2.582  1.00  0.00     0.210 C 
ENDBRANCH  17  19
ENDBRANCH  11  13
ENDBRANCH   5  11
BRANCH   3  21
HETATM   21  O3  UNL     1      -0.676  -1.017  -0.633  1.00  0.00    -0.348 OA
BRANCH  21  22
HETATM   22  C7  UNL     1      -0.572  -0.992  -2.012  1.00  0.00     0.201 C 
BRANCH  22  23
HETATM   23  C8  UNL     1       0.286  -2.053  -2.640  1.00  0.00     0.190 C 
BRANCH  23  24
HETATM   24  O4  UNL     1      -0.228  -3.334  -2.319  1.00  0.00    -0.399 OA
HETATM   25  H13 UNL     1      -0.218  -3.403  -1.336  1.00  0.00     0.209 HD
ENDBRANCH  23  24
ENDBRANCH  22  23
ENDBRANCH  21  22
ENDBRANCH   3  21
BRANCH   1  26
HETATM   26  O2  UNL     1       3.842  -0.173   1.032  1.00  0.00    -0.349 OA
BRANCH  26  27
HETATM   27  C3  UNL     1       4.323  -0.072  -0.298  1.00  0.00     0.201 C 
BRANCH  27  28
HETATM   28  C2  UNL     1       5.786   0.210  -0.314  1.00  0.00     0.193 C 
BRANCH  28  29
HETATM   29  O1  UNL     1       6.036   1.414   0.341  1.00  0.00    -0.394 OA
HETATM   30  C1  UNL     1       7.368   1.743   0.365  1.00  0.00     0.201 C 
ENDBRANCH  28  29
ENDBRANCH  27  28
ENDBRANCH  26  27
ENDBRANCH   1  26
TORSDOF 11
