REMARK  6 active torsions:
REMARK  status: ('A' for Active; 'I' for Inactive)
REMARK    1  A    between atoms: C2_2  and  C3_3 
REMARK    2  A    between atoms: C3_3  and  O1_4 
REMARK    3  A    between atoms: O1_4  and  C4_5 
REMARK    4  A    between atoms: C4_5  and  C5_6 
REMARK    5  A    between atoms: C11_15  and  N3_16 
REMARK    6  A    between atoms: N3_16  and  C12_17 
ROOT
HETATM    1  C5  UNL     1      -0.848   1.066   0.901  1.00  0.00     0.082 C 
HETATM    2  C6  UNL     1       0.230   1.708   1.019  1.00  0.00     0.025 A 
HETATM    3  O2  UNL     1      -0.428   2.746   1.484  1.00  0.00     0.000 OA
HETATM    4  C7  UNL     1      -0.114   3.848   1.848  1.00  0.00     0.030 A 
HETATM    5  C8  UNL     1       1.184   3.910   1.688  1.00  0.00     0.020 A 
HETATM    6  C9  UNL     1       2.176   2.953   1.215  1.00  0.00     0.070 A 
HETATM    7  N1  UNL     1       3.500   2.980   1.061  1.00  0.00    -0.241 NA
HETATM    8  C10 UNL     1       3.983   1.758   0.586  1.00  0.00     0.236 A 
HETATM    9  N2  UNL     1       3.321   0.561   0.264  1.00  0.00    -0.223 NA
HETATM   10  C11 UNL     1       1.950   0.557   0.429  1.00  0.00     0.143 A 
HETATM   11  C18 UNL     1       1.617   1.759   0.869  1.00  0.00     0.052 A 
HETATM   12  C19 UNL     1      -1.429   3.239   1.821  1.00  0.00     0.191 A 
HETATM   13  O3  UNL     1      -1.590   1.766   1.784  1.00  0.00    -0.351 OA
ENDROOT
BRANCH  10  14
HETATM   14  N3  UNL     1       1.674  -0.719   0.158  1.00  0.00    -0.340 N 
HETATM   15  H12 UNL     1       1.433  -1.092   1.092  1.00  0.00     0.167 HD
BRANCH  14  16
HETATM   16  C12 UNL     1       1.792  -1.381  -1.125  1.00  0.00     0.033 A 
HETATM   17  C13 UNL     1       2.319  -0.657  -2.144  1.00  0.00     0.032 A 
HETATM   18  C14 UNL     1       2.479  -1.197  -3.428  1.00  0.00     0.044 A 
HETATM   19  C15 UNL     1       2.048  -2.505  -3.506  1.00  0.00     0.116 A 
HETATM   20  F1  UNL     1       2.161  -3.134  -4.724  1.00  0.00    -0.206 F 
HETATM   21  C16 UNL     1       1.509  -3.285  -2.513  1.00  0.00     0.044 A 
HETATM   22  C17 UNL     1       1.378  -2.682  -1.260  1.00  0.00     0.032 A 
ENDBRANCH  14  16
ENDBRANCH  10  14
BRANCH   1  23
HETATM   23  C4  UNL     1      -0.758   0.014  -0.035  1.00  0.00     0.233 C 
BRANCH  23  24
HETATM   24  O1  UNL     1      -1.019  -1.283   0.382  1.00  0.00    -0.385 OA
BRANCH  24  25
HETATM   25  C3  UNL     1      -2.199  -1.615   0.912  1.00  0.00     0.167 C 
BRANCH  25  26
HETATM   26  C2  UNL     1      -3.420  -1.443   0.047  1.00  0.00     0.022 C 
HETATM   27  C1  UNL     1      -4.665  -1.923   0.830  1.00  0.00     0.007 C 
ENDBRANCH  25  26
ENDBRANCH  24  25
ENDBRANCH  23  24
ENDBRANCH   1  23
TORSDOF 6
