REMARK  5 active torsions:
REMARK  status: ('A' for Active; 'I' for Inactive)
REMARK    1  A    between atoms: O1_1  and  C1_2 
REMARK    2  A    between atoms: C1_2  and  C2_3 
REMARK    3  A    between atoms: C2_3  and  O2_4 
REMARK    4  A    between atoms: O2_4  and  C3_5 
REMARK    5  A    between atoms: C4_6  and  C5_7 
ROOT
HETATM    1  C5  UNL     1       1.706  -0.607   1.593  1.00  0.00     0.072 A 
HETATM    2  N1  UNL     1       1.586  -1.741   2.354  1.00  0.00    -0.241 NA
HETATM    3  C6  UNL     1       0.452  -2.017   2.999  1.00  0.00     0.235 A 
HETATM    4  N2  UNL     1      -0.664  -1.239   2.971  1.00  0.00    -0.224 NA
HETATM    5  C7  UNL     1      -0.663  -0.121   2.264  1.00  0.00     0.135 A 
HETATM    6  C8  UNL     1       0.564   0.085   1.628  1.00  0.00     0.040 A 
HETATM    7  C9  UNL     1       0.507   1.313   0.782  1.00  0.00     0.212 C 
HETATM    8  O3  UNL     1      -0.158   1.074  -0.383  1.00  0.00    -0.384 OA
HETATM    9  C10 UNL     1       0.261   0.124  -1.236  1.00  0.00     0.194 C 
HETATM   10  C11 UNL     1      -0.693  -0.017  -2.432  1.00  0.00     0.193 C 
HETATM   11  O4  UNL     1      -1.988  -0.364  -2.017  1.00  0.00    -0.389 OA
HETATM   12  C12 UNL     1      -2.856  -0.221  -3.092  1.00  0.00     0.168 C 
HETATM   13  C13 UNL     1      -4.255  -0.678  -2.923  1.00  0.00     0.032 C 
HETATM   14  C14 UNL     1      -4.921  -0.314  -1.661  1.00  0.00     0.001 C 
HETATM   15  C15 UNL     1      -5.101   0.143  -0.471  1.00  0.00     0.020 C 
HETATM   16  C16 UNL     1      -4.928   0.730   0.828  1.00  0.00    -0.023 C 
HETATM   17  C17 UNL     1      -4.139   1.280   1.724  1.00  0.00    -0.011 C 
HETATM   18  C18 UNL     1      -2.689   1.401   1.297  1.00  0.00     0.148 C 
HETATM   19  N3  UNL     1      -1.860   0.612   2.225  1.00  0.00    -0.371 N 
HETATM   20  H25 UNL     1      -2.336   0.635   3.181  1.00  0.00     0.161 HD
ENDROOT
BRANCH   1  21
HETATM   21  C4  UNL     1       2.896  -0.209   0.771  1.00  0.00     0.056 C 
HETATM   22  C3  UNL     1       3.658  -1.275   0.729  1.00  0.00     0.137 C 
BRANCH  22  23
HETATM   23  O2  UNL     1       4.682  -0.705  -0.060  1.00  0.00    -0.361 OA
BRANCH  23  24
HETATM   24  C2  UNL     1       5.968  -0.582   0.499  1.00  0.00     0.200 C 
BRANCH  24  25
HETATM   25  C1  UNL     1       6.803   0.468  -0.165  1.00  0.00     0.190 C 
BRANCH  25  26
HETATM   26  O1  UNL     1       6.125   1.698  -0.023  1.00  0.00    -0.399 OA
HETATM   27  H1  UNL     1       5.818   1.800   0.910  1.00  0.00     0.209 HD
ENDBRANCH  25  26
ENDBRANCH  24  25
ENDBRANCH  23  24
ENDBRANCH  22  23
ENDBRANCH   1  21
TORSDOF 5
