REMARK  6 active torsions:
REMARK  status: ('A' for Active; 'I' for Inactive)
REMARK    1  A    between atoms: O1_2  and  C2_3 
REMARK    2  A    between atoms: C2_3  and  C3_4 
REMARK    3  A    between atoms: C3_4  and  O2_5 
REMARK    4  A    between atoms: O2_5  and  C4_6 
REMARK    5  A    between atoms: C8_12  and  N3_13 
REMARK    6  A    between atoms: N3_13  and  C9_14 
ROOT
HETATM    1  C4  UNL     1       1.943   0.092  -0.895  1.00  0.00     0.107 A 
HETATM    2  C5  UNL     1       1.411   0.663  -2.061  1.00  0.00     0.072 A 
HETATM    3  C6  UNL     1       0.045   0.540  -2.337  1.00  0.00     0.077 A 
HETATM    4  N1  UNL     1      -0.511   1.071  -3.459  1.00  0.00    -0.241 NA
HETATM    5  C7  UNL     1      -1.827   0.929  -3.699  1.00  0.00     0.236 A 
HETATM    6  N2  UNL     1      -2.655   0.257  -2.847  1.00  0.00    -0.223 NA
HETATM    7  C8  UNL     1      -2.165  -0.287  -1.728  1.00  0.00     0.144 A 
HETATM    8  C15 UNL     1      -0.795  -0.141  -1.473  1.00  0.00     0.075 A 
HETATM    9  C16 UNL     1      -0.230  -0.684  -0.343  1.00  0.00     0.121 A 
HETATM   10  C17 UNL     1       1.106  -0.597  -0.016  1.00  0.00     0.136 A 
HETATM   11  O3  UNL     1       1.648  -1.162   1.144  1.00  0.00    -0.344 OA
HETATM   12  C18 UNL     1       0.752  -1.683   2.107  1.00  0.00     0.202 C 
HETATM   13  C19 UNL     1      -0.370  -2.372   1.359  1.00  0.00     0.202 C 
HETATM   14  O4  UNL     1      -1.020  -1.380   0.565  1.00  0.00    -0.345 OA
ENDROOT
BRANCH   7  15
HETATM   15  N3  UNL     1      -2.903  -1.029  -0.743  1.00  0.00    -0.340 N 
HETATM   16  H10 UNL     1      -2.930  -2.084  -0.639  1.00  0.00     0.167 HD
BRANCH  15  17
HETATM   17  C9  UNL     1      -3.699  -0.317   0.225  1.00  0.00     0.033 A 
HETATM   18  C10 UNL     1      -4.335  -0.919   1.317  1.00  0.00     0.032 A 
HETATM   19  C11 UNL     1      -5.093  -0.194   2.195  1.00  0.00     0.044 A 
HETATM   20  C12 UNL     1      -5.231   1.154   1.997  1.00  0.00     0.116 A 
HETATM   21  F1  UNL     1      -5.984   1.916   2.850  1.00  0.00    -0.206 F 
HETATM   22  C13 UNL     1      -4.629   1.817   0.935  1.00  0.00     0.044 A 
HETATM   23  C14 UNL     1      -3.864   1.067   0.056  1.00  0.00     0.032 A 
ENDBRANCH  15  17
ENDBRANCH   7  15
BRANCH   1  24
HETATM   24  O2  UNL     1       3.274   0.183  -0.580  1.00  0.00    -0.346 OA
BRANCH  24  25
HETATM   25  C3  UNL     1       4.286   0.803  -1.279  1.00  0.00     0.201 C 
BRANCH  25  26
HETATM   26  C2  UNL     1       5.616   0.675  -0.599  1.00  0.00     0.193 C 
BRANCH  26  27
HETATM   27  O1  UNL     1       5.768   1.192   0.637  1.00  0.00    -0.394 OA
HETATM   28  C1  UNL     1       4.950   0.683   1.607  1.00  0.00     0.201 C 
ENDBRANCH  26  27
ENDBRANCH  25  26
ENDBRANCH  24  25
ENDBRANCH   1  24
TORSDOF 6
