REMARK  6 active torsions:
REMARK  status: ('A' for Active; 'I' for Inactive)
REMARK    1  A    between atoms: O1_2  and  C2_3 
REMARK    2  A    between atoms: C2_3  and  C3_4 
REMARK    3  A    between atoms: C3_4  and  O2_5 
REMARK    4  A    between atoms: O2_5  and  C4_6 
REMARK    5  A    between atoms: C8_12  and  N3_13 
REMARK    6  A    between atoms: N3_13  and  C9_14 
ROOT
HETATM    1  C4  UNL     1       1.510  -0.201  -1.010  1.00  0.00     0.106 C 
HETATM    2  C5  UNL     1       1.179  -1.014  -2.048  1.00  0.00     0.072 C 
HETATM    3  C6  UNL     1      -0.091  -0.488  -2.540  1.00  0.00     0.096 A 
HETATM    4  N1  UNL     1      -0.541  -0.580  -3.767  1.00  0.00    -0.242 NA
HETATM    5  C7  UNL     1      -1.791   0.047  -3.952  1.00  0.00     0.231 A 
HETATM    6  N2  UNL     1      -2.126   0.551  -2.770  1.00  0.00    -0.237 NA
HETATM    7  C8  UNL     1      -1.128   0.239  -1.854  1.00  0.00     0.224 A 
HETATM    8  C15 UNL     1      -0.630   1.137  -0.852  1.00  0.00     0.140 C 
HETATM    9  C16 UNL     1       0.642   0.872  -0.449  1.00  0.00     0.136 C 
HETATM   10  O3  UNL     1       1.260   1.605   0.553  1.00  0.00    -0.344 OA
HETATM   11  C17 UNL     1       0.515   2.189   1.630  1.00  0.00     0.202 C 
HETATM   12  C18 UNL     1      -0.933   2.378   1.215  1.00  0.00     0.202 C 
HETATM   13  O4  UNL     1      -1.087   2.212  -0.173  1.00  0.00    -0.346 OA
ENDROOT
BRANCH   7  14
HETATM   14  N3  UNL     1      -1.818  -0.887  -0.953  1.00  0.00    -0.351 N 
HETATM   15  H10 UNL     1      -1.341  -1.810  -0.878  1.00  0.00     0.163 HD
BRANCH  14  16
HETATM   16  C9  UNL     1      -3.038  -0.635  -0.279  1.00  0.00     0.030 A 
HETATM   17  C10 UNL     1      -3.802   0.504  -0.328  1.00  0.00     0.032 A 
HETATM   18  C11 UNL     1      -4.971   0.668   0.379  1.00  0.00     0.044 A 
HETATM   19  C12 UNL     1      -5.439  -0.341   1.195  1.00  0.00     0.116 A 
HETATM   20  F1  UNL     1      -6.581  -0.246   1.918  1.00  0.00    -0.206 F 
HETATM   21  C13 UNL     1      -4.662  -1.479   1.233  1.00  0.00     0.044 A 
HETATM   22  C14 UNL     1      -3.492  -1.648   0.528  1.00  0.00     0.032 A 
ENDBRANCH  14  16
ENDBRANCH   7  14
BRANCH   1  23
HETATM   23  O2  UNL     1       2.763  -0.514  -0.439  1.00  0.00    -0.346 OA
BRANCH  23  24
HETATM   24  C3  UNL     1       2.952  -0.739   0.934  1.00  0.00     0.201 C 
BRANCH  24  25
HETATM   25  C2  UNL     1       4.447  -1.041   1.105  1.00  0.00     0.193 C 
BRANCH  25  26
HETATM   26  O1  UNL     1       5.177   0.040   0.666  1.00  0.00    -0.394 OA
HETATM   27  C1  UNL     1       6.547  -0.171   0.794  1.00  0.00     0.201 C 
ENDBRANCH  25  26
ENDBRANCH  24  25
ENDBRANCH  23  24
ENDBRANCH   1  23
TORSDOF 6
