REMARK  5 active torsions:
REMARK  status: ('A' for Active; 'I' for Inactive)
REMARK    1  A    between atoms: C2_2  and  C3_3 
REMARK    2  A    between atoms: C4_4  and  C5_5 
REMARK    3  A    between atoms: C6_6  and  C7_7 
REMARK    4  A    between atoms: C7_7  and  N1_8 
REMARK    5  A    between atoms: N1_8  and  C8_9 
ROOT
HETATM    1  C8  UNL     1      -1.046  -0.828  -0.975  1.00  0.00     0.133 A 
HETATM    2  N2  UNL     1      -0.783  -2.138  -0.726  1.00  0.00    -0.224 NA
HETATM    3  C9  UNL     1      -1.805  -2.928  -0.393  1.00  0.00     0.235 A 
HETATM    4  N3  UNL     1      -2.992  -2.321  -0.342  1.00  0.00    -0.246 NA
HETATM    5  C10 UNL     1      -3.278  -1.035  -0.583  1.00  0.00     0.048 A 
HETATM    6  C11 UNL     1      -2.290  -0.156  -0.932  1.00  0.00     0.014 A 
HETATM    7  C12 UNL     1      -2.011   1.243  -1.273  1.00  0.00     0.071 C 
HETATM    8  C13 UNL     1      -1.616   2.025  -0.006  1.00  0.00     0.172 C 
HETATM    9  O1  UNL     1      -2.705   2.384   0.712  1.00  0.00    -0.389 OA
HETATM   10  C14 UNL     1      -3.658   1.534   1.067  1.00  0.00     0.193 C 
HETATM   11  C15 UNL     1      -3.500   0.393   1.989  1.00  0.00     0.193 C 
HETATM   12  O2  UNL     1      -4.716  -0.264   2.034  1.00  0.00    -0.389 OA
HETATM   13  C16 UNL     1      -5.028  -1.192   1.134  1.00  0.00     0.173 C 
HETATM   14  C17 UNL     1      -4.758  -1.004  -0.311  1.00  0.00     0.086 C 
ENDROOT
BRANCH   1  15
HETATM   15  N1  UNL     1       0.225  -0.210  -1.256  1.00  0.00    -0.371 N 
HETATM   16  H12 UNL     1       0.345   0.785  -1.432  1.00  0.00     0.161 HD
BRANCH  15  17
HETATM   17  C7  UNL     1       1.517  -0.860  -1.319  1.00  0.00     0.148 C 
BRANCH  17  18
HETATM   18  C6  UNL     1       2.582   0.095  -1.629  1.00  0.00    -0.007 C 
HETATM   19  C5  UNL     1       3.650   0.404  -0.913  1.00  0.00    -0.003 C 
BRANCH  19  20
HETATM   20  C4  UNL     1       3.919  -0.211   0.365  1.00  0.00    -0.004 C 
HETATM   21  C3  UNL     1       4.990   0.106   1.073  1.00  0.00    -0.027 C 
BRANCH  21  22
HETATM   22  C2  UNL     1       6.065   1.065   0.767  1.00  0.00     0.022 C 
HETATM   23  C1  UNL     1       7.378   0.297   0.722  1.00  0.00     0.009 C 
ENDBRANCH  21  22
ENDBRANCH  19  20
ENDBRANCH  17  18
ENDBRANCH  15  17
ENDBRANCH   1  15
TORSDOF 5
