REMARK  8 active torsions:
REMARK  status: ('A' for Active; 'I' for Inactive)
REMARK    1  A    between atoms: C2_2  and  C3_3 
REMARK    2  A    between atoms: C2_2  and  N1_8 
REMARK    3  A    between atoms: C4_4  and  C5_5 
REMARK    4  A    between atoms: N1_8  and  C7_9 
REMARK    5  A    between atoms: C11_15  and  O1_16 
REMARK    6  A    between atoms: O1_16  and  C12_17 
REMARK    7  A    between atoms: C12_17  and  C13_18 
REMARK    8  A    between atoms: C13_18  and  O2_19 
ROOT
HETATM    1  C7  UNL     1       1.526  -0.371   1.191  1.00  0.00     0.144 A 
HETATM    2  N2  UNL     1       1.961   0.257   2.284  1.00  0.00    -0.223 NA
HETATM    3  C8  UNL     1       1.073   0.938   3.063  1.00  0.00     0.236 A 
HETATM    4  N3  UNL     1      -0.210   0.930   2.671  1.00  0.00    -0.241 NA
HETATM    5  C9  UNL     1      -0.696   0.319   1.591  1.00  0.00     0.077 A 
HETATM    6  C10 UNL     1      -2.036   0.390   1.303  1.00  0.00     0.072 A 
HETATM    7  C11 UNL     1      -2.430  -0.277   0.162  1.00  0.00     0.107 A 
HETATM    8  C15 UNL     1      -1.541  -0.969  -0.634  1.00  0.00     0.136 A 
HETATM    9  C16 UNL     1      -0.198  -1.015  -0.307  1.00  0.00     0.121 A 
HETATM   10  C17 UNL     1       0.208  -0.358   0.820  1.00  0.00     0.075 A 
HETATM   11  O3  UNL     1       0.707  -1.706  -1.097  1.00  0.00    -0.345 OA
HETATM   12  C18 UNL     1       0.261  -2.837  -1.822  1.00  0.00     0.202 C 
HETATM   13  C19 UNL     1      -1.154  -2.763  -2.269  1.00  0.00     0.202 C 
HETATM   14  O4  UNL     1      -1.885  -1.659  -1.793  1.00  0.00    -0.344 OA
ENDROOT
BRANCH   1  15
HETATM   15  N1  UNL     1       2.544  -1.041   0.467  1.00  0.00    -0.341 N 
HETATM   16  H9  UNL     1       2.870  -1.623  -0.328  1.00  0.00     0.167 HD
BRANCH  15  17
HETATM   17  C2  UNL     1       3.894  -1.003   0.926  1.00  0.00     0.024 C 
HETATM   18  C1  UNL     1       4.334  -1.896   1.801  1.00  0.00     0.043 C 
BRANCH  17  19
HETATM   19  C3  UNL     1       4.831   0.035   0.437  1.00  0.00     0.027 C 
HETATM   20  C4  UNL     1       4.375   0.918  -0.436  1.00  0.00     0.012 C 
BRANCH  20  21
HETATM   21  C5  UNL     1       5.220   2.000  -0.994  1.00  0.00     0.189 C 
HETATM   22  C6  UNL     1       4.942   2.250  -2.462  1.00  0.00     0.049 C 
HETATM   23  F1  UNL     1       6.565   1.718  -0.875  1.00  0.00    -0.246 F 
ENDBRANCH  20  21
ENDBRANCH  17  19
ENDBRANCH  15  17
ENDBRANCH   1  15
BRANCH   7  24
HETATM   24  O1  UNL     1      -3.770  -0.271  -0.225  1.00  0.00    -0.346 OA
BRANCH  24  25
HETATM   25  C12 UNL     1      -4.763   0.409   0.523  1.00  0.00     0.201 C 
BRANCH  25  26
HETATM   26  C13 UNL     1      -6.082   0.212  -0.170  1.00  0.00     0.193 C 
BRANCH  26  27
HETATM   27  O2  UNL     1      -7.133   0.830   0.465  1.00  0.00    -0.394 OA
HETATM   28  C14 UNL     1      -6.980   2.205   0.572  1.00  0.00     0.201 C 
ENDBRANCH  26  27
ENDBRANCH  25  26
ENDBRANCH  24  25
ENDBRANCH   7  24
TORSDOF 8
