REMARK  0 active torsions:
REMARK  status: ('A' for Active; 'I' for Inactive)
ROOT
HETATM    1  C1  UNL     1      -1.389  -2.387   1.806  1.00  0.00     0.053 C 
HETATM    2  C2  UNL     1      -0.829  -1.366   1.176  1.00  0.00     0.095 C 
HETATM    3  O1  UNL     1       0.502  -1.044   1.049  1.00  0.00    -0.349 OA
HETATM    4  C3  UNL     1       1.598  -1.873   1.286  1.00  0.00     0.180 C 
HETATM    5  C4  UNL     1       2.921  -1.193   1.011  1.00  0.00     0.071 C 
HETATM    6  C5  UNL     1       3.018  -0.747  -0.410  1.00  0.00     0.009 A 
HETATM    7  C6  UNL     1       2.954   0.514  -0.877  1.00  0.00     0.041 A 
HETATM    8  C7  UNL     1       3.128   0.007  -2.259  1.00  0.00     0.072 A 
HETATM    9  C8  UNL     1       3.192  -1.251  -1.791  1.00  0.00     0.127 A 
HETATM   10  F1  UNL     1       3.351  -2.492  -2.359  1.00  0.00    -0.205 F 
HETATM   11  N1  UNL     1       2.790   1.808  -0.302  1.00  0.00    -0.374 N 
HETATM   12  C9  UNL     1       1.619   2.163   0.427  1.00  0.00     0.229 C 
HETATM   13  N2  UNL     1       0.403   2.066  -0.328  1.00  0.00    -0.406 NA
HETATM   14  C10 UNL     1      -0.764   2.067   0.224  1.00  0.00     0.438 C 
HETATM   15  N3  UNL     1      -0.262   2.183   1.546  1.00  0.00    -0.256 NA
HETATM   16  C11 UNL     1      -0.885   1.480   2.421  1.00  0.00     0.085 C 
HETATM   17  C12 UNL     1      -2.181   1.338   2.218  1.00  0.00     0.073 C 
HETATM   18  C13 UNL     1      -2.425   0.567   1.003  1.00  0.00     0.107 C 
HETATM   19  C14 UNL     1      -1.859  -0.553   0.581  1.00  0.00     0.134 C 
HETATM   20  O2  UNL     1      -2.299  -1.059  -0.618  1.00  0.00    -0.344 OA
HETATM   21  C15 UNL     1      -3.470  -0.659  -1.305  1.00  0.00     0.202 C 
HETATM   22  C16 UNL     1      -3.593   0.841  -1.158  1.00  0.00     0.202 C 
HETATM   23  O3  UNL     1      -3.408   1.141   0.212  1.00  0.00    -0.346 OA
HETATM   24  H8  UNL     1       3.566   2.525  -0.424  1.00  0.00     0.161 HD
ENDROOT
TORSDOF 0
