REMARK  4 active torsions:
REMARK  status: ('A' for Active; 'I' for Inactive)
REMARK    1  A    between atoms: O1_2  and  C2_3 
REMARK    2  A    between atoms: C2_3  and  C3_4 
REMARK    3  A    between atoms: C3_4  and  O2_5 
REMARK    4  A    between atoms: O2_5  and  C4_6 
ROOT
HETATM    1  C4  UNL     1       1.112  -1.614  -0.934  1.00  0.00     0.125 C 
HETATM    2  C5  UNL     1       1.603  -0.637  -0.191  1.00  0.00     0.078 C 
HETATM    3  C6  UNL     1       1.204   0.575   0.494  1.00  0.00     0.099 C 
HETATM    4  N1  UNL     1       0.507   1.583   0.986  1.00  0.00    -0.258 NA
HETATM    5  C7  UNL     1       1.312   2.513   1.738  1.00  0.00     0.228 C 
HETATM    6  N2  UNL     1       0.878   3.740   1.675  1.00  0.00    -0.262 NA
HETATM    7  C8  UNL     1      -0.321   4.031   0.891  1.00  0.00     0.295 C 
HETATM    8  N3  UNL     1      -1.408   3.193   1.310  1.00  0.00    -0.275 NA
HETATM    9  C9  UNL     1      -2.464   3.544   1.866  1.00  0.00     0.257 A 
HETATM   10  C10 UNL     1      -3.747   3.071   2.429  1.00  0.00     0.093 A 
HETATM   11  C11 UNL     1      -4.063   1.751   2.439  1.00  0.00     0.130 A 
HETATM   12  F1  UNL     1      -2.934   2.265   1.945  1.00  0.00    -0.366 F 
HETATM   13  C12 UNL     1      -4.151   0.315   2.194  1.00  0.00     0.015 C 
HETATM   14  C13 UNL     1      -3.582  -0.536   1.400  1.00  0.00    -0.002 C 
HETATM   15  C14 UNL     1      -2.553  -0.218   0.374  1.00  0.00     0.195 C 
HETATM   16  O3  UNL     1      -3.034  -0.628  -0.902  1.00  0.00    -0.385 OA
HETATM   17  C15 UNL     1      -3.145  -2.049  -0.833  1.00  0.00     0.194 C 
HETATM   18  C16 UNL     1      -1.749  -2.628  -0.677  1.00  0.00     0.193 C 
HETATM   19  O4  UNL     1      -1.022  -2.295  -1.800  1.00  0.00    -0.386 OA
HETATM   20  C17 UNL     1       0.322  -2.568  -1.725  1.00  0.00     0.209 C 
ENDROOT
BRANCH   1  21
HETATM   21  O2  UNL     1       2.448  -2.013  -0.890  1.00  0.00    -0.372 OA
BRANCH  21  22
HETATM   22  C3  UNL     1       3.202  -1.849  -2.090  1.00  0.00     0.195 C 
BRANCH  22  23
HETATM   23  C2  UNL     1       4.619  -2.251  -1.886  1.00  0.00     0.193 C 
BRANCH  23  24
HETATM   24  O1  UNL     1       5.219  -1.497  -0.907  1.00  0.00    -0.394 OA
HETATM   25  C1  UNL     1       5.216  -0.152  -1.212  1.00  0.00     0.201 C 
ENDBRANCH  23  24
ENDBRANCH  22  23
ENDBRANCH  21  22
ENDBRANCH   1  21
TORSDOF 4
