REMARK  6 active torsions:
REMARK  status: ('A' for Active; 'I' for Inactive)
REMARK    1  A    between atoms: O1_2  and  C2_3 
REMARK    2  A    between atoms: C2_3  and  C3_4 
REMARK    3  A    between atoms: C3_4  and  O2_5 
REMARK    4  A    between atoms: O2_5  and  C4_6 
REMARK    5  A    between atoms: C12_16  and  N1_17 
REMARK    6  A    between atoms: N1_17  and  C13_18 
ROOT
HETATM    1  C4  UNL     1       2.530  -0.444  -0.003  1.00  0.00     0.105 A 
HETATM    2  C5  UNL     1       1.986   0.571   0.751  1.00  0.00     0.049 A 
HETATM    3  C6  UNL     1       0.676   0.927   0.762  1.00  0.00    -0.027 A 
HETATM    4  C7  UNL     1      -0.212   0.234  -0.037  1.00  0.00     0.036 A 
HETATM    5  C8  UNL     1       0.256  -0.790  -0.814  1.00  0.00     0.116 A 
HETATM    6  C9  UNL     1       1.604  -1.132  -0.805  1.00  0.00     0.136 A 
HETATM    7  O3  UNL     1       1.861  -2.209  -1.675  1.00  0.00    -0.344 OA
HETATM    8  C10 UNL     1       0.892  -3.215  -1.949  1.00  0.00     0.202 C 
HETATM    9  C11 UNL     1      -0.459  -2.656  -2.250  1.00  0.00     0.202 C 
HETATM   10  O4  UNL     1      -0.700  -1.426  -1.579  1.00  0.00    -0.345 OA
HETATM   11  C12 UNL     1      -1.629   0.635  -0.012  1.00  0.00     0.281 C 
HETATM   12  O5  UNL     1      -1.842   1.761   0.735  1.00  0.00    -0.275 OA
HETATM   13  N2  UNL     1      -1.150   1.901   1.851  1.00  0.00    -0.199 NA
HETATM   14  C20 UNL     1       0.277   2.064   1.652  1.00  0.00     0.157 C 
HETATM   15  H22 UNL     1      -1.328   1.251   2.620  1.00  0.00     0.154 HD
ENDROOT
BRANCH  11  16
HETATM   16  N1  UNL     1      -2.518  -0.467   0.274  1.00  0.00    -0.362 N 
HETATM   17  H14 UNL     1      -2.199  -1.457   0.449  1.00  0.00     0.162 HD
BRANCH  16  18
HETATM   18  C13 UNL     1      -3.986  -0.145   0.315  1.00  0.00     0.005 A 
HETATM   19  C14 UNL     1      -4.388   0.279   1.735  1.00  0.00     0.010 A 
HETATM   20  C15 UNL     1      -6.182   0.684   1.822  1.00  0.00     0.123 A 
HETATM   21  C16 UNL     1      -6.062   0.359   0.559  1.00  0.00    -0.103 A 
HETATM   22  C17 UNL     1      -5.954   0.126  -0.330  1.00  0.00    -0.106 A 
HETATM   23  C18 UNL     1      -5.765  -0.220  -1.624  1.00  0.00     0.100 A 
HETATM   24  C19 UNL     1      -4.128  -0.478  -1.213  1.00  0.00     0.068 A 
ENDBRANCH  16  18
ENDBRANCH  11  16
BRANCH   1  25
HETATM   25  O2  UNL     1       3.772  -0.952  -0.162  1.00  0.00    -0.346 OA
BRANCH  25  26
HETATM   26  C3  UNL     1       4.994  -0.627   0.376  1.00  0.00     0.201 C 
BRANCH  26  27
HETATM   27  C2  UNL     1       5.463   0.761   0.057  1.00  0.00     0.193 C 
BRANCH  27  28
HETATM   28  O1  UNL     1       6.726   0.968   0.665  1.00  0.00    -0.394 OA
HETATM   29  C1  UNL     1       7.112   2.256   0.340  1.00  0.00     0.201 C 
ENDBRANCH  27  28
ENDBRANCH  26  27
ENDBRANCH  25  26
ENDBRANCH   1  25
TORSDOF 6
