REMARK  2 active torsions:
REMARK  status: ('A' for Active; 'I' for Inactive)
REMARK    1  A    between atoms: C7_7  and  N1_8 
REMARK    2  A    between atoms: N1_8  and  C8_9 
ROOT
HETATM    1  C1  UNL     1       5.724  -3.692  -1.526  1.00  0.00     0.018 C 
HETATM    2  C2  UNL     1       5.300  -2.662  -1.073  1.00  0.00    -0.078 C 
HETATM    3  C3  UNL     1       4.813  -1.410  -0.524  1.00  0.00     0.019 A 
HETATM    4  C4  UNL     1       5.696  -0.424  -0.169  1.00  0.00     0.021 A 
HETATM    5  C5  UNL     1       5.319   0.798   0.360  1.00  0.00     0.004 A 
HETATM    6  C6  UNL     1       3.979   1.056   0.547  1.00  0.00     0.029 A 
HETATM    7  C7  UNL     1       3.078   0.074   0.195  1.00  0.00     0.034 A 
HETATM    8  C20 UNL     1       3.486  -1.146  -0.334  1.00  0.00     0.050 A 
ENDROOT
BRANCH   7   9
HETATM    9  N1  UNL     1       1.674   0.220   0.331  1.00  0.00    -0.353 N 
HETATM   10  H5  UNL     1       1.591  -0.103   1.309  1.00  0.00     0.166 HD
BRANCH   9  11
HETATM   11  C8  UNL     1       0.468   0.593  -0.271  1.00  0.00     0.087 C 
HETATM   12  C9  UNL     1       0.287   1.706  -1.052  1.00  0.00     0.148 C 
HETATM   13  N2  UNL     1      -0.929   2.400  -1.559  1.00  0.00    -0.270 NA
HETATM   14  C10 UNL     1      -2.109   2.379  -0.923  1.00  0.00     0.128 C 
HETATM   15  C11 UNL     1      -2.864   1.207  -0.385  1.00  0.00     0.019 C 
HETATM   16  C12 UNL     1      -2.749  -0.110  -0.799  1.00  0.00     0.115 C 
HETATM   17  C19 UNL     1      -3.829   1.347   0.727  1.00  0.00     0.210 C 
HETATM   18  O1  UNL     1      -3.881  -0.503  -1.442  1.00  0.00    -0.345 OA
HETATM   19  C15 UNL     1      -1.540  -0.999  -0.576  1.00  0.00     0.138 C 
HETATM   20  C13 UNL     1      -3.958  -1.816  -1.952  1.00  0.00     0.202 C 
HETATM   21  C14 UNL     1      -3.100  -2.710  -1.090  1.00  0.00     0.202 C 
HETATM   22  O2  UNL     1      -1.734  -2.230  -1.101  1.00  0.00    -0.343 OA
HETATM   23  C16 UNL     1      -0.604  -0.345   0.076  1.00  0.00     0.133 C 
HETATM   24  O3  UNL     1      -0.552  -0.528   1.508  1.00  0.00    -0.344 OA
HETATM   25  C17 UNL     1      -1.059   0.654   2.137  1.00  0.00     0.202 C 
HETATM   26  C18 UNL     1      -2.444   0.696   2.561  1.00  0.00     0.194 C 
HETATM   27  O4  UNL     1      -3.510   0.558   1.801  1.00  0.00    -0.384 OA
ENDBRANCH   9  11
ENDBRANCH   7   9
TORSDOF 2
