REMARK  6 active torsions:
REMARK  status: ('A' for Active; 'I' for Inactive)
REMARK    1  A    between atoms: C9_11  and  C10_12 
REMARK    2  A    between atoms: C10_12  and  C11_13 
REMARK    3  A    between atoms: C11_13  and  O1_14 
REMARK    4  A    between atoms: O1_14  and  C12_15 
REMARK    5  A    between atoms: C12_15  and  C13_16 
REMARK    6  A    between atoms: C13_16  and  O2_17 
ROOT
HETATM    1  C1  UNL     1      -6.727   4.402  -1.058  1.00  0.00     0.017 C 
HETATM    2  C2  UNL     1      -6.004   3.450  -0.964  1.00  0.00    -0.082 C 
HETATM    3  C3  UNL     1      -5.086   2.281  -0.839  1.00  0.00    -0.001 C 
HETATM    4  C4  UNL     1      -3.910   2.005  -0.210  1.00  0.00     0.042 C 
HETATM    5  C5  UNL     1      -2.912   2.731   0.677  1.00  0.00     0.013 C 
HETATM    6  C6  UNL     1      -1.946   1.939   1.001  1.00  0.00     0.068 C 
HETATM    7  C7  UNL     1      -0.770   1.299   1.507  1.00  0.00     0.105 A 
HETATM    8  N1  UNL     1      -0.037   1.248   2.445  1.00  0.00    -0.402 NA
HETATM    9  C8  UNL     1       0.790   1.109   3.357  1.00  0.00     0.299 A 
HETATM   10  N2  UNL     1       1.474   0.218   2.683  1.00  0.00    -0.230 NA
HETATM   11  C9  UNL     1       1.118  -0.178   1.457  1.00  0.00     0.072 A 
HETATM   12  C15 UNL     1      -0.006   0.367   0.880  1.00  0.00     0.051 A 
HETATM   13  C16 UNL     1      -0.219  -0.275  -0.243  1.00  0.00     0.151 C 
HETATM   14  O3  UNL     1      -0.967  -0.585  -1.379  1.00  0.00    -0.360 OA
HETATM   15  C17 UNL     1      -1.743  -1.779  -1.245  1.00  0.00     0.200 C 
HETATM   16  C18 UNL     1      -2.483  -2.203  -2.439  1.00  0.00     0.194 C 
HETATM   17  O4  UNL     1      -3.412  -1.264  -2.897  1.00  0.00    -0.385 OA
HETATM   18  C19 UNL     1      -4.176  -0.917  -1.783  1.00  0.00     0.195 C 
HETATM   19  C20 UNL     1      -5.312  -0.048  -2.114  1.00  0.00     0.000 C 
HETATM   20  C21 UNL     1      -5.513   1.171  -1.654  1.00  0.00     0.014 C 
ENDROOT
BRANCH  11  21
HETATM   21  C10 UNL     1       1.953  -1.115   0.914  1.00  0.00     0.032 C 
BRANCH  21  22
HETATM   22  C11 UNL     1       3.113  -1.572   1.710  1.00  0.00     0.197 C 
BRANCH  22  23
HETATM   23  O1  UNL     1       4.308  -1.566   1.046  1.00  0.00    -0.385 OA
BRANCH  23  24
HETATM   24  C12 UNL     1       4.782  -0.365   0.607  1.00  0.00     0.194 C 
BRANCH  24  25
HETATM   25  C13 UNL     1       6.101  -0.645  -0.132  1.00  0.00     0.193 C 
BRANCH  25  26
HETATM   26  O2  UNL     1       6.953  -1.245   0.795  1.00  0.00    -0.394 OA
HETATM   27  C14 UNL     1       8.184  -1.557   0.265  1.00  0.00     0.201 C 
ENDBRANCH  25  26
ENDBRANCH  24  25
ENDBRANCH  23  24
ENDBRANCH  22  23
ENDBRANCH  21  22
ENDBRANCH  11  21
TORSDOF 6
