REMARK  0 active torsions:
REMARK  status: ('A' for Active; 'I' for Inactive)
ROOT
HETATM    1  C1  UNL     1       4.456  -1.385  -1.267  1.00  0.00     0.036 C 
HETATM    2  C2  UNL     1       3.412  -2.019  -0.414  1.00  0.00    -0.018 C 
HETATM    3  C3  UNL     1       2.288  -1.370  -0.164  1.00  0.00     0.007 C 
HETATM    4  C4  UNL     1       1.091  -1.667   0.597  1.00  0.00     0.138 C 
HETATM    5  N1  UNL     1       0.528  -2.784   0.908  1.00  0.00    -0.224 NA
HETATM    6  C5  UNL     1      -0.645  -2.947   1.657  1.00  0.00     0.231 C 
HETATM    7  N2  UNL     1      -1.845  -2.619   1.808  1.00  0.00    -0.257 NA
HETATM    8  C6  UNL     1      -2.666  -1.716   1.066  1.00  0.00     0.317 C 
HETATM    9  O1  UNL     1      -2.576  -1.955  -0.281  1.00  0.00    -0.369 OA
HETATM   10  C7  UNL     1      -3.412  -1.158  -1.043  1.00  0.00     0.189 C 
HETATM   11  C8  UNL     1      -3.180   0.313  -0.945  1.00  0.00     0.146 C 
HETATM   12  N3  UNL     1      -1.888   0.769  -1.392  1.00  0.00    -0.389 N 
HETATM   13  C9  UNL     1      -0.519   0.662  -1.047  1.00  0.00     0.041 C 
HETATM   14  C10 UNL     1      -0.308   1.506  -0.010  1.00  0.00     0.117 C 
HETATM   15  O2  UNL     1      -0.824   2.793  -0.050  1.00  0.00    -0.347 OA
HETATM   16  C11 UNL     1      -0.143   3.738   0.785  1.00  0.00     0.201 C 
HETATM   17  C12 UNL     1       1.054   3.232   1.477  1.00  0.00     0.197 C 
HETATM   18  O3  UNL     1       1.518   1.975   1.219  1.00  0.00    -0.358 OA
HETATM   19  C13 UNL     1       0.504   1.074   1.235  1.00  0.00     0.285 C 
HETATM   20  N4  UNL     1       0.896  -0.269   0.771  1.00  0.00    -0.324 N 
HETATM   21  C14 UNL     1       1.665  -0.085  -0.490  1.00  0.00     0.131 C 
HETATM   22  C15 UNL     1       0.608  -0.178  -1.621  1.00  0.00     0.089 C 
HETATM   23  H12 UNL     1      -1.517   1.408  -2.163  1.00  0.00     0.159 HD
ENDROOT
TORSDOF 0
