REMARK  1 active torsions:
REMARK  status: ('A' for Active; 'I' for Inactive)
REMARK    1  A    between atoms: C5_5  and  N1_6 
ROOT
HETATM    1  N1  UNL     1       0.802  -1.180   0.495  1.00  0.00    -0.257 N 
HETATM    2  N2  UNL     1       0.876  -2.572   0.766  1.00  0.00    -0.287 N 
HETATM    3  C6  UNL     1       0.032  -3.609   0.221  1.00  0.00     0.224 C 
HETATM    4  N3  UNL     1      -1.002  -3.427  -0.556  1.00  0.00    -0.247 NA
HETATM    5  C7  UNL     1      -1.952  -2.360  -0.492  1.00  0.00     0.040 C 
HETATM    6  C8  UNL     1      -3.235  -2.643  -0.833  1.00  0.00     0.026 C 
HETATM    7  C9  UNL     1      -4.418  -1.659  -0.835  1.00  0.00     0.197 C 
HETATM    8  O1  UNL     1      -4.081  -0.473  -0.452  1.00  0.00    -0.385 OA
HETATM    9  C10 UNL     1      -4.611   0.712  -0.327  1.00  0.00     0.194 C 
HETATM   10  C11 UNL     1      -3.563   1.704   0.321  1.00  0.00     0.202 C 
HETATM   11  O2  UNL     1      -2.434   1.752  -0.487  1.00  0.00    -0.344 OA
HETATM   12  C12 UNL     1      -1.116   1.882  -0.154  1.00  0.00     0.126 C 
HETATM   13  C13 UNL     1      -0.720   3.135  -0.119  1.00  0.00     0.177 C 
HETATM   14  O3  UNL     1       0.555   3.588   0.185  1.00  0.00    -0.335 OA
HETATM   15  C14 UNL     1       1.568   2.606   0.290  1.00  0.00     0.351 C 
HETATM   16  O4  UNL     1       1.068   1.324   0.432  1.00  0.00    -0.321 OA
HETATM   17  C15 UNL     1      -0.148   0.805   0.151  1.00  0.00     0.131 C 
HETATM   18  C16 UNL     1      -0.362  -0.503   0.166  1.00  0.00     0.076 C 
HETATM   19  C17 UNL     1      -1.712  -0.984  -0.132  1.00  0.00     0.121 C 
HETATM   20  H4  UNL     1       1.615  -2.909   1.430  1.00  0.00     0.188 HD
ENDROOT
BRANCH   1  21
HETATM   21  C5  UNL     1       2.093  -0.543   0.595  1.00  0.00     0.053 A 
HETATM   22  C4  UNL     1       2.556  -0.246   1.889  1.00  0.00     0.017 A 
HETATM   23  C3  UNL     1       3.988   0.481   2.371  1.00  0.00     0.123 A 
HETATM   24  C2  UNL     1       4.427   0.592   1.097  1.00  0.00    -0.102 A 
HETATM   25  C1  UNL     1       4.721   0.662   0.188  1.00  0.00    -0.103 A 
HETATM   26  C20 UNL     1       5.116   0.749  -1.128  1.00  0.00     0.121 A 
HETATM   27  C19 UNL     1       3.675   0.032  -1.639  1.00  0.00    -0.012 A 
HETATM   28  C18 UNL     1       2.607  -0.410  -0.841  1.00  0.00     0.028 A 
ENDBRANCH   1  21
TORSDOF 1
