REMARK  2 active torsions:
REMARK  status: ('A' for Active; 'I' for Inactive)
REMARK    1  A    between atoms: C7_8  and  N2_9 
REMARK    2  A    between atoms: N2_9  and  C8_10 
ROOT
HETATM    1  C1  UNL     1      -5.903  -1.425   0.220  1.00  0.00     0.018 C 
HETATM    2  C2  UNL     1      -4.971  -0.263   0.328  1.00  0.00     0.030 A 
HETATM    3  C3  UNL     1      -3.824  -0.552   1.226  1.00  0.00    -0.007 A 
HETATM    4  C4  UNL     1      -2.693  -0.348   0.581  1.00  0.00    -0.010 A 
HETATM    5  C5  UNL     1      -1.475  -0.588   1.335  1.00  0.00     0.161 C 
HETATM    6  N1  UNL     1      -0.233  -0.411   0.617  1.00  0.00    -0.379 N 
HETATM    7  C6  UNL     1       0.068   0.501  -0.444  1.00  0.00     0.129 A 
HETATM    8  C7  UNL     1       1.355   1.056  -0.326  1.00  0.00     0.160 A 
HETATM    9  N3  UNL     1       1.779   1.942  -1.223  1.00  0.00    -0.222 NA
HETATM   10  C14 UNL     1       0.935   2.275  -2.236  1.00  0.00     0.238 A 
HETATM   11  N4  UNL     1      -0.310   1.771  -2.402  1.00  0.00    -0.215 NA
HETATM   12  C15 UNL     1      -0.772   0.865  -1.499  1.00  0.00     0.202 A 
HETATM   13  O1  UNL     1      -2.079   0.399  -1.764  1.00  0.00    -0.290 OA
HETATM   14  C16 UNL     1      -2.998   0.079  -0.762  1.00  0.00     0.082 A 
HETATM   15  C17 UNL     1      -4.321   0.136  -0.945  1.00  0.00     0.019 A 
HETATM   16  H8  UNL     1       0.625  -0.997   0.850  1.00  0.00     0.160 HD
ENDROOT
BRANCH   8  17
HETATM   17  N2  UNL     1       2.134   0.583   0.776  1.00  0.00    -0.339 N 
HETATM   18  H9  UNL     1       1.938   0.381   1.773  1.00  0.00     0.167 HD
BRANCH  17  19
HETATM   19  C8  UNL     1       3.503   0.343   0.427  1.00  0.00     0.035 A 
HETATM   20  C9  UNL     1       4.399   1.251  -0.094  1.00  0.00     0.032 A 
HETATM   21  C10 UNL     1       5.686   0.863  -0.423  1.00  0.00     0.046 A 
HETATM   22  C11 UNL     1       6.100  -0.439  -0.240  1.00  0.00     0.138 A 
HETATM   23  F1  UNL     1       7.375  -0.747  -0.583  1.00  0.00    -0.204 F 
HETATM   24  C12 UNL     1       5.219  -1.367   0.280  1.00  0.00     0.074 A 
HETATM   25 CL1  UNL     1       5.824  -3.003   0.450  1.00  0.00    -0.081 Cl
HETATM   26  C13 UNL     1       3.922  -0.981   0.615  1.00  0.00     0.056 A 
ENDBRANCH  17  19
ENDBRANCH   8  17
TORSDOF 2
