REMARK  5 active torsions:
REMARK  status: ('A' for Active; 'I' for Inactive)
REMARK    1  A    between atoms: C7_7  and  C8_8 
REMARK    2  A    between atoms: C12_14  and  O1_15 
REMARK    3  A    between atoms: O1_15  and  C13_16 
REMARK    4  A    between atoms: C13_16  and  C14_17 
REMARK    5  A    between atoms: C14_17  and  O2_18 
ROOT
HETATM    1  C1  UNL     1      -6.244   3.306   1.694  1.00  0.00     0.018 C 
HETATM    2  C2  UNL     1      -5.631   2.426   1.144  1.00  0.00    -0.078 C 
HETATM    3  C3  UNL     1      -4.890   1.397   0.478  1.00  0.00     0.017 A 
HETATM    4  C4  UNL     1      -5.513   0.180   0.358  1.00  0.00     0.020 A 
HETATM    5  C5  UNL     1      -4.849  -0.845  -0.272  1.00  0.00     0.002 A 
HETATM    6  C6  UNL     1      -3.589  -0.636  -0.766  1.00  0.00     0.014 A 
HETATM    7  C7  UNL     1      -2.897   0.557  -0.684  1.00  0.00    -0.005 A 
HETATM    8  C21 UNL     1      -3.622   1.554  -0.036  1.00  0.00     0.034 A 
ENDROOT
BRANCH   7   9
HETATM    9  C8  UNL     1      -1.566   0.971  -1.091  1.00  0.00     0.084 A 
HETATM   10  N1  UNL     1      -1.650   1.987  -1.974  1.00  0.00    -0.240 NA
HETATM   11  C9  UNL     1      -0.540   2.533  -2.499  1.00  0.00     0.234 A 
HETATM   12  N2  UNL     1       0.708   2.089  -2.165  1.00  0.00    -0.241 NA
HETATM   13  C10 UNL     1       0.824   1.078  -1.285  1.00  0.00     0.076 A 
HETATM   14  C11 UNL     1       2.028   0.567  -0.865  1.00  0.00     0.072 A 
HETATM   15  C18 UNL     1      -0.314   0.521  -0.747  1.00  0.00     0.059 A 
HETATM   16  C12 UNL     1       2.115  -0.474   0.070  1.00  0.00     0.107 A 
HETATM   17  C16 UNL     1       0.913  -0.987   0.574  1.00  0.00     0.136 A 
HETATM   18  C17 UNL     1      -0.313  -0.498   0.175  1.00  0.00     0.119 A 
HETATM   19  O4  UNL     1       0.937  -2.026   1.511  1.00  0.00    -0.344 OA
HETATM   20  O3  UNL     1      -1.441  -1.058   0.729  1.00  0.00    -0.345 OA
HETATM   21  C19 UNL     1      -1.473  -2.234   1.493  1.00  0.00     0.202 C 
HETATM   22  C20 UNL     1      -0.148  -2.964   1.415  1.00  0.00     0.202 C 
BRANCH  16  23
HETATM   23  O1  UNL     1       3.258  -0.905   0.419  1.00  0.00    -0.346 OA
BRANCH  23  24
HETATM   24  C13 UNL     1       4.445  -1.331   0.761  1.00  0.00     0.201 C 
BRANCH  24  25
HETATM   25  C14 UNL     1       5.251  -0.179   1.386  1.00  0.00     0.193 C 
BRANCH  25  26
HETATM   26  O2  UNL     1       5.407   0.862   0.531  1.00  0.00    -0.394 OA
HETATM   27  C15 UNL     1       6.058   0.635  -0.652  1.00  0.00     0.201 C 
ENDBRANCH  25  26
ENDBRANCH  24  25
ENDBRANCH  23  24
ENDBRANCH  16  23
ENDBRANCH   7   9
TORSDOF 5
