REMARK  5 active torsions:
REMARK  status: ('A' for Active; 'I' for Inactive)
REMARK    1  A    between atoms: O1_2  and  C2_3 
REMARK    2  A    between atoms: C2_3  and  C3_4 
REMARK    3  A    between atoms: C7_9  and  N1_10 
REMARK    4  A    between atoms: C8_11  and  C9_12 
REMARK    5  A    between atoms: C9_12  and  O3_13 
ROOT
HETATM    1  C3  UNL     1      -2.908  -0.124   0.557  1.00  0.00     0.209 C 
HETATM    2  O2  UNL     1      -1.887   0.467  -0.233  1.00  0.00    -0.349 OA
HETATM    3  C4  UNL     1      -1.031   1.399   0.367  1.00  0.00     0.132 C 
HETATM    4  C5  UNL     1       0.233   1.664   0.105  1.00  0.00     0.003 C 
HETATM    5  C6  UNL     1       0.945   0.921  -0.961  1.00  0.00     0.091 C 
HETATM    6  C7  UNL     1       2.138   0.251  -0.407  1.00  0.00     0.075 C 
HETATM    7  C10 UNL     1       2.417  -1.037  -0.327  1.00  0.00     0.128 C 
HETATM    8 CL1  UNL     1       3.570  -2.252   0.182  1.00  0.00    -0.062 Cl
HETATM    9  N2  UNL     1       1.438  -1.949  -0.814  1.00  0.00    -0.355 N 
HETATM   10  C11 UNL     1       0.642  -2.868  -0.053  1.00  0.00     0.086 C 
HETATM   11  C12 UNL     1      -0.474  -3.141   0.600  1.00  0.00     0.003 C 
HETATM   12  C13 UNL     1      -1.297  -1.905   0.498  1.00  0.00     0.084 C 
HETATM   13  C14 UNL     1      -2.526  -1.536   0.942  1.00  0.00     0.111 C 
HETATM   14  F1  UNL     1      -3.738  -1.775   1.609  1.00  0.00    -0.212 F 
HETATM   15  H15 UNL     1       1.422  -1.806  -1.845  1.00  0.00     0.166 HD
ENDROOT
BRANCH   6  16
HETATM   16  N1  UNL     1       3.313   0.731   0.189  1.00  0.00    -0.264 NA
HETATM   17  C8  UNL     1       4.485   0.756  -0.387  1.00  0.00     0.115 C 
BRANCH  17  18
HETATM   18  C9  UNL     1       5.750   1.263   0.232  1.00  0.00     0.210 C 
BRANCH  18  19
HETATM   19  O3  UNL     1       5.435   2.109   1.290  1.00  0.00    -0.396 OA
HETATM   20  H14 UNL     1       5.372   3.041   0.945  1.00  0.00     0.209 HD
ENDBRANCH  18  19
ENDBRANCH  17  18
ENDBRANCH   6  16
BRANCH   1  21
HETATM   21  C2  UNL     1      -4.157  -0.289  -0.270  1.00  0.00     0.206 C 
BRANCH  21  22
HETATM   22  O1  UNL     1      -4.612   0.910  -0.760  1.00  0.00    -0.393 OA
HETATM   23  C1  UNL     1      -4.932   1.807   0.226  1.00  0.00     0.201 C 
ENDBRANCH  21  22
ENDBRANCH   1  21
TORSDOF 5
