REMARK  9 active torsions:
REMARK  status: ('A' for Active; 'I' for Inactive)
REMARK    1  A    between atoms: O1_1  and  C1_2 
REMARK    2  A    between atoms: C1_2  and  C2_3 
REMARK    3  A    between atoms: C2_3  and  O2_4 
REMARK    4  A    between atoms: O2_4  and  C3_5 
REMARK    5  A    between atoms: N3_12  and  C8_13 
REMARK    6  A    between atoms: C15_22  and  O3_23 
REMARK    7  A    between atoms: O3_23  and  C16_24 
REMARK    8  A    between atoms: C16_24  and  C17_25 
REMARK    9  A    between atoms: C17_25  and  O4_26 
ROOT
HETATM    1  C3  UNL     1      -1.807  -0.833  -0.259  1.00  0.00     0.128 C 
HETATM    2  C4  UNL     1      -2.113  -1.921  -1.059  1.00  0.00     0.062 C 
HETATM    3  C5  UNL     1      -1.628  -2.776  -2.228  1.00  0.00     0.142 C 
HETATM    4  N1  UNL     1      -0.520  -2.852  -3.063  1.00  0.00    -0.275 NA
HETATM    5  C6  UNL     1       0.436  -1.801  -2.677  1.00  0.00     0.222 C 
HETATM    6  N2  UNL     1       0.827  -0.609  -2.637  1.00  0.00    -0.264 NA
HETATM    7  C7  UNL     1       2.015  -0.062  -2.027  1.00  0.00     0.274 C 
HETATM    8  N3  UNL     1       1.887  -0.137  -0.536  1.00  0.00    -0.359 N 
HETATM    9  C14 UNL     1       0.611  -0.640  -0.066  1.00  0.00     0.160 C 
HETATM   10  C15 UNL     1      -0.572   0.224  -0.198  1.00  0.00     0.177 C 
ENDROOT
BRANCH   8  11
HETATM   11  C8  UNL     1       2.983   0.274   0.278  1.00  0.00     0.056 A 
HETATM   12  C9  UNL     1       3.349  -0.808   1.091  1.00  0.00     0.031 A 
HETATM   13  C10 UNL     1       4.401  -0.687   1.999  1.00  0.00     0.005 A 
HETATM   14  C11 UNL     1       5.076   0.509   2.084  1.00  0.00     0.044 A 
HETATM   15  C12 UNL     1       4.712   1.549   1.291  1.00  0.00     0.140 A 
HETATM   16  F1  UNL     1       5.312   2.766   1.299  1.00  0.00    -0.204 F 
HETATM   17  C13 UNL     1       3.680   1.457   0.389  1.00  0.00     0.099 A 
HETATM   18 CL1  UNL     1       3.096   2.672  -0.695  1.00  0.00    -0.079 Cl
ENDBRANCH   8  11
BRANCH  10  19
HETATM   19  O3  UNL     1      -0.810   0.855  -1.400  1.00  0.00    -0.379 OA
BRANCH  19  20
HETATM   20  C16 UNL     1      -1.435   2.072  -1.176  1.00  0.00     0.194 C 
BRANCH  20  21
HETATM   21  C17 UNL     1      -0.663   3.051  -0.361  1.00  0.00     0.190 C 
BRANCH  21  22
HETATM   22  O4  UNL     1      -1.463   4.215  -0.246  1.00  0.00    -0.399 OA
HETATM   23  H21 UNL     1      -0.962   4.994   0.055  1.00  0.00     0.209 HD
ENDBRANCH  21  22
ENDBRANCH  20  21
ENDBRANCH  19  20
ENDBRANCH  10  19
BRANCH   1  24
HETATM   24  O2  UNL     1      -2.981  -1.104   0.369  1.00  0.00    -0.372 OA
BRANCH  24  25
HETATM   25  C2  UNL     1      -3.461  -0.607   1.577  1.00  0.00     0.195 C 
BRANCH  25  26
HETATM   26  C1  UNL     1      -4.835  -1.241   1.824  1.00  0.00     0.190 C 
BRANCH  26  27
HETATM   27  O1  UNL     1      -4.687  -2.625   1.883  1.00  0.00    -0.399 OA
HETATM   28  H1  UNL     1      -5.197  -2.937   2.692  1.00  0.00     0.209 HD
ENDBRANCH  26  27
ENDBRANCH  25  26
ENDBRANCH  24  25
ENDBRANCH   1  24
TORSDOF 9
