REMARK  2 active torsions:
REMARK  status: ('A' for Active; 'I' for Inactive)
REMARK    1  A    between atoms: C6_6  and  N1_7 
REMARK    2  A    between atoms: N1_7  and  C7_8 
ROOT
HETATM    1  C1  UNL     1      -2.988  -2.387   0.014  1.00  0.00     0.027 C 
HETATM    2  C2  UNL     1      -2.673  -1.169   0.402  1.00  0.00     0.026 C 
HETATM    3  C3  UNL     1      -2.568  -0.035   1.334  1.00  0.00     0.080 C 
HETATM    4  C4  UNL     1      -1.270   0.215   1.670  1.00  0.00     0.053 C 
HETATM    5  C5  UNL     1      -0.730  -0.033   0.301  1.00  0.00     0.051 C 
HETATM    6  C6  UNL     1       0.568  -0.054  -0.059  1.00  0.00     0.141 C 
HETATM    7  N2  UNL     1       0.820  -0.446  -1.400  1.00  0.00    -0.226 NA
HETATM    8  C13 UNL     1      -0.201  -0.759  -2.151  1.00  0.00     0.207 C 
HETATM    9  N3  UNL     1      -1.574  -0.755  -1.757  1.00  0.00    -0.345 N 
HETATM   10  C14 UNL     1      -1.986  -0.146  -0.483  1.00  0.00     0.198 C 
HETATM   11  O1  UNL     1      -2.769   0.864  -0.746  1.00  0.00    -0.350 OA
HETATM   12  C15 UNL     1      -3.230   1.901  -0.101  1.00  0.00     0.198 C 
HETATM   13  C16 UNL     1      -4.395   1.656   0.898  1.00  0.00     0.202 C 
HETATM   14  O2  UNL     1      -3.700   0.728   1.830  1.00  0.00    -0.348 OA
HETATM   15  H9  UNL     1      -2.193  -1.217  -2.459  1.00  0.00     0.164 HD
ENDROOT
BRANCH   6  16
HETATM   16  N1  UNL     1       1.581   0.187   0.907  1.00  0.00    -0.340 N 
HETATM   17  H4  UNL     1       1.335   0.397   1.873  1.00  0.00     0.167 HD
BRANCH  16  18
HETATM   18  C7  UNL     1       2.904   0.118   0.445  1.00  0.00     0.035 A 
HETATM   19  C8  UNL     1       3.587   1.242   0.008  1.00  0.00     0.032 A 
HETATM   20  C9  UNL     1       4.896   1.074  -0.437  1.00  0.00     0.046 A 
HETATM   21  C10 UNL     1       5.463  -0.193  -0.428  1.00  0.00     0.138 A 
HETATM   22  F1  UNL     1       6.742  -0.268  -0.879  1.00  0.00    -0.204 F 
HETATM   23  C11 UNL     1       4.778  -1.303   0.008  1.00  0.00     0.074 A 
HETATM   24 CL1  UNL     1       5.569  -2.882  -0.012  1.00  0.00    -0.081 Cl
HETATM   25  C12 UNL     1       3.471  -1.146   0.454  1.00  0.00     0.056 A 
ENDBRANCH  16  18
ENDBRANCH   6  16
TORSDOF 2
