REMARK  7 active torsions:
REMARK  status: ('A' for Active; 'I' for Inactive)
REMARK    1  A    between atoms: C2_2  and  C3_3 
REMARK    2  A    between atoms: C8_11  and  N3_12 
REMARK    3  A    between atoms: N3_12  and  C9_13 
REMARK    4  A    between atoms: C16_22  and  O2_23 
REMARK    5  A    between atoms: O2_23  and  C17_24 
REMARK    6  A    between atoms: C17_24  and  C18_25 
REMARK    7  A    between atoms: C18_25  and  O3_26 
ROOT
HETATM    1  C3  UNL     1       1.275  -1.601  -1.181  1.00  0.00     0.178 C 
HETATM    2  O1  UNL     1       0.100  -1.065  -1.560  1.00  0.00    -0.375 OA
HETATM    3  C4  UNL     1      -1.006  -1.185  -0.768  1.00  0.00     0.213 C 
HETATM    4  C5  UNL     1      -1.044  -0.004   0.109  1.00  0.00     0.040 A 
HETATM    5  C6  UNL     1       0.081   0.632   0.650  1.00  0.00     0.072 A 
HETATM    6  N1  UNL     1      -0.024   1.725   1.426  1.00  0.00    -0.241 NA
HETATM    7  C7  UNL     1      -1.242   2.224   1.691  1.00  0.00     0.235 A 
HETATM    8  N2  UNL     1      -2.305   1.604   1.167  1.00  0.00    -0.224 NA
HETATM    9  C8  UNL     1      -2.262   0.519   0.394  1.00  0.00     0.140 A 
HETATM   10  C15 UNL     1       1.504   0.256   0.494  1.00  0.00     0.067 C 
HETATM   11  C16 UNL     1       2.069  -0.692  -0.277  1.00  0.00     0.077 C 
ENDROOT
BRANCH   9  12
HETATM   12  N3  UNL     1      -3.443  -0.093  -0.078  1.00  0.00    -0.340 N 
HETATM   13  H10 UNL     1      -3.557  -1.024  -0.526  1.00  0.00     0.167 HD
BRANCH  12  14
HETATM   14  C9  UNL     1      -4.756   0.446  -0.018  1.00  0.00     0.035 A 
HETATM   15  C10 UNL     1      -4.934   1.810   0.156  1.00  0.00     0.032 A 
HETATM   16  C11 UNL     1      -6.165   2.423   0.236  1.00  0.00     0.046 A 
HETATM   17  C12 UNL     1      -7.311   1.663   0.141  1.00  0.00     0.138 A 
HETATM   18  F1  UNL     1      -8.571   2.147   0.202  1.00  0.00    -0.204 F 
HETATM   19  C13 UNL     1      -7.199   0.302  -0.034  1.00  0.00     0.074 A 
HETATM   20 CL1  UNL     1      -8.591  -0.768  -0.169  1.00  0.00    -0.081 Cl
HETATM   21  C14 UNL     1      -5.936  -0.237  -0.104  1.00  0.00     0.056 A 
ENDBRANCH  12  14
ENDBRANCH   9  12
BRANCH   1  22
HETATM   22  C2  UNL     1       1.285  -3.023  -0.723  1.00  0.00     0.034 C 
HETATM   23  C1  UNL     1       2.693  -3.514  -0.341  1.00  0.00     0.008 C 
ENDBRANCH   1  22
BRANCH  11  24
HETATM   24  O2  UNL     1       3.431  -0.681  -0.100  1.00  0.00    -0.351 OA
BRANCH  24  25
HETATM   25  C17 UNL     1       4.291   0.355  -0.531  1.00  0.00     0.201 C 
BRANCH  25  26
HETATM   26  C18 UNL     1       5.679   0.061  -0.028  1.00  0.00     0.193 C 
BRANCH  26  27
HETATM   27  O3  UNL     1       6.625   0.997  -0.378  1.00  0.00    -0.394 OA
HETATM   28  C19 UNL     1       6.395   2.275   0.067  1.00  0.00     0.201 C 
ENDBRANCH  26  27
ENDBRANCH  25  26
ENDBRANCH  24  25
ENDBRANCH  11  24
TORSDOF 7
