REMARK  8 active torsions:
REMARK  status: ('A' for Active; 'I' for Inactive)
REMARK    1  A    between atoms: O1_2  and  C2_3 
REMARK    2  A    between atoms: C2_3  and  C3_4 
REMARK    3  A    between atoms: C3_4  and  O2_5 
REMARK    4  A    between atoms: O2_5  and  C4_6 
REMARK    5  A    between atoms: N1_9  and  C7_10 
REMARK    6  A    between atoms: C7_10  and  C8_11 
REMARK    7  A    between atoms: C8_11  and  N2_12 
REMARK    8  A    between atoms: N2_12  and  C9_13 
ROOT
HETATM    1  C4  UNL     1       2.075   0.799  -0.204  1.00  0.00     0.106 A 
HETATM    2  C5  UNL     1       0.784   0.632  -0.443  1.00  0.00     0.066 A 
HETATM    3  C6  UNL     1      -0.062  -0.121   0.474  1.00  0.00     0.037 A 
HETATM    4  N1  UNL     1      -1.310  -0.248   0.186  1.00  0.00    -0.292 NA
HETATM    5  C15 UNL     1       0.490  -0.733   1.715  1.00  0.00     0.126 A 
HETATM    6  C16 UNL     1       1.945  -0.455   1.834  1.00  0.00     0.088 A 
HETATM    7  C17 UNL     1       2.723   0.235   0.996  1.00  0.00     0.131 A 
HETATM    8  O3  UNL     1       4.071   0.386   1.283  1.00  0.00    -0.344 OA
HETATM    9  C18 UNL     1       4.451   0.257   2.663  1.00  0.00     0.202 C 
HETATM   10  C19 UNL     1       3.928  -1.080   3.122  1.00  0.00     0.202 C 
HETATM   11  O4  UNL     1       2.500  -1.013   2.987  1.00  0.00    -0.350 OA
ENDROOT
BRANCH   4  12
HETATM   12  C7  UNL     1      -2.176  -0.990   1.076  1.00  0.00     0.168 C 
BRANCH  12  13
HETATM   13  C8  UNL     1      -3.614  -0.521   0.902  1.00  0.00     0.141 C 
BRANCH  13  14
HETATM   14  N2  UNL     1      -4.083  -0.715  -0.440  1.00  0.00    -0.388 N 
HETATM   15  H13 UNL     1      -3.414  -1.141  -1.128  1.00  0.00     0.159 HD
BRANCH  14  16
HETATM   16  C9  UNL     1      -5.384  -0.376  -0.910  1.00  0.00     0.029 A 
HETATM   17  C10 UNL     1      -5.765  -0.591  -2.217  1.00  0.00     0.032 A 
HETATM   18  C11 UNL     1      -7.024  -0.264  -2.677  1.00  0.00     0.046 A 
HETATM   19  C12 UNL     1      -7.944   0.304  -1.796  1.00  0.00     0.138 A 
HETATM   20  F1  UNL     1      -9.186   0.615  -2.292  1.00  0.00    -0.204 F 
HETATM   21  C13 UNL     1      -7.606   0.543  -0.461  1.00  0.00     0.074 A 
HETATM   22 CL1  UNL     1      -8.773   1.249   0.604  1.00  0.00    -0.081 Cl
HETATM   23  C14 UNL     1      -6.323   0.186  -0.076  1.00  0.00     0.056 A 
ENDBRANCH  14  16
ENDBRANCH  13  14
ENDBRANCH  12  13
ENDBRANCH   4  12
BRANCH   1  24
HETATM   24  O2  UNL     1       2.959   1.510  -1.037  1.00  0.00    -0.346 OA
BRANCH  24  25
HETATM   25  C3  UNL     1       3.886   0.746  -1.812  1.00  0.00     0.201 C 
BRANCH  25  26
HETATM   26  C2  UNL     1       4.728   1.683  -2.624  1.00  0.00     0.193 C 
BRANCH  26  27
HETATM   27  O1  UNL     1       5.656   1.027  -3.411  1.00  0.00    -0.394 OA
HETATM   28  C1  UNL     1       6.563   0.253  -2.694  1.00  0.00     0.201 C 
ENDBRANCH  26  27
ENDBRANCH  25  26
ENDBRANCH  24  25
ENDBRANCH   1  24
TORSDOF 8
