REMARK  4 active torsions:
REMARK  status: ('A' for Active; 'I' for Inactive)
REMARK    1  A    between atoms: C2_2  and  C3_3 
REMARK    2  A    between atoms: C3_3  and  N1_4 
REMARK    3  A    between atoms: C6_8  and  N3_9 
REMARK    4  A    between atoms: N3_9  and  C7_10 
ROOT
HETATM    1  C3  UNL     1      -2.628  -0.072   0.418  1.00  0.00     0.107 C 
HETATM    2  C4  UNL     1      -1.847  -0.911   1.417  1.00  0.00     0.159 C 
HETATM    3  N2  UNL     1      -0.547  -1.375   0.847  1.00  0.00    -0.386 N 
HETATM    4  C5  UNL     1      -0.187  -0.943  -0.534  1.00  0.00     0.076 C 
HETATM    5  C6  UNL     1       0.453   0.250  -0.724  1.00  0.00     0.155 C 
HETATM    6  N4  UNL     1      -0.865   0.886  -0.973  1.00  0.00    -0.206 NA
HETATM    7  C13 UNL     1      -1.814  -0.032  -0.864  1.00  0.00     0.172 C 
HETATM    8  O1  UNL     1      -1.736  -0.776  -2.139  1.00  0.00    -0.330 OA
HETATM    9  C14 UNL     1      -0.558  -1.707  -1.851  1.00  0.00     0.238 C 
HETATM   10  H10 UNL     1      -0.220  -1.943   1.700  1.00  0.00     0.159 HD
ENDROOT
BRANCH   5  11
HETATM   11  N3  UNL     1       1.610   1.078  -0.783  1.00  0.00    -0.339 N 
HETATM   12  H11 UNL     1       1.450   2.044  -1.119  1.00  0.00     0.167 HD
BRANCH  11  13
HETATM   13  C7  UNL     1       2.856   0.578  -0.407  1.00  0.00     0.035 A 
HETATM   14  C8  UNL     1       4.010   1.335  -0.440  1.00  0.00     0.032 A 
HETATM   15  C9  UNL     1       5.262   0.881  -0.078  1.00  0.00     0.046 A 
HETATM   16  C10 UNL     1       5.351  -0.429   0.347  1.00  0.00     0.138 A 
HETATM   17  F1  UNL     1       6.585  -0.876   0.704  1.00  0.00    -0.204 F 
HETATM   18  C11 UNL     1       4.225  -1.243   0.403  1.00  0.00     0.074 A 
HETATM   19 CL1  UNL     1       4.422  -2.888   0.952  1.00  0.00    -0.081 Cl
HETATM   20  C12 UNL     1       2.978  -0.746   0.029  1.00  0.00     0.056 A 
ENDBRANCH  11  13
ENDBRANCH   5  11
BRANCH   1  21
HETATM   21  C2  UNL     1      -2.898   1.307   0.930  1.00  0.00     0.036 C 
HETATM   22  C1  UNL     1      -3.603   2.100  -0.143  1.00  0.00     0.008 C 
ENDBRANCH   1  21
BRANCH   1  23
HETATM   23  N1  UNL     1      -3.866  -0.718   0.079  1.00  0.00    -0.414 N 
HETATM   24  H6  UNL     1      -4.695  -0.097   0.041  1.00  0.00     0.151 HD
HETATM   25  H7  UNL     1      -4.003  -1.651   0.481  1.00  0.00     0.151 HD
ENDBRANCH   1  23
TORSDOF 4
