REMARK  4 active torsions:
REMARK  status: ('A' for Active; 'I' for Inactive)
REMARK    1  A    between atoms: C5_5  and  C6_6 
REMARK    2  A    between atoms: C13_17  and  C14_18 
REMARK    3  A    between atoms: C14_18  and  C15_19 
REMARK    4  A    between atoms: C15_19  and  N3_20 
ROOT
HETATM    1  C6  UNL     1       1.563   0.551   1.301  1.00  0.00     0.079 A 
HETATM    2  N1  UNL     1       1.699   1.024   2.546  1.00  0.00    -0.241 NA
HETATM    3  C7  UNL     1       0.651   1.248   3.344  1.00  0.00     0.234 A 
HETATM    4  N2  UNL     1      -0.596   1.004   2.920  1.00  0.00    -0.241 NA
HETATM    5  C8  UNL     1      -0.871   0.534   1.709  1.00  0.00     0.069 A 
HETATM    6  C9  UNL     1       0.285   0.310   0.892  1.00  0.00     0.024 A 
HETATM    7  C10 UNL     1      -0.018  -0.184  -0.410  1.00  0.00     0.214 C 
HETATM    8  O1  UNL     1       0.373  -0.199  -1.618  1.00  0.00    -0.362 OA
HETATM    9  C11 UNL     1      -0.608  -0.961  -2.294  1.00  0.00     0.338 C 
HETATM   10  O2  UNL     1      -1.870  -0.589  -2.182  1.00  0.00    -0.363 OA
HETATM   11  C12 UNL     1      -2.799  -0.513  -1.302  1.00  0.00     0.204 C 
HETATM   12  C13 UNL     1      -2.908  -0.166   0.101  1.00  0.00    -0.052 C 
HETATM   13  C16 UNL     1      -2.200   0.206   1.154  1.00  0.00     0.037 C 
ENDROOT
BRANCH   1  14
HETATM   14  C5  UNL     1       2.788   0.345   0.562  1.00  0.00    -0.007 A 
HETATM   15  C4  UNL     1       3.206   0.739  -0.689  1.00  0.00     0.014 A 
HETATM   16  C3  UNL     1       4.426   0.398  -1.215  1.00  0.00     0.007 A 
HETATM   17  C2  UNL     1       5.303  -0.375  -0.486  1.00  0.00    -0.062 A 
HETATM   18  C1  UNL     1       6.597  -0.687  -1.149  1.00  0.00     0.048 C 
HETATM   19  C18 UNL     1       4.951  -0.805   0.775  1.00  0.00     0.007 A 
HETATM   20  C17 UNL     1       3.717  -0.439   1.262  1.00  0.00     0.014 A 
ENDBRANCH   1  14
BRANCH  12  21
HETATM   21  C14 UNL     1      -4.367  -0.353   0.526  1.00  0.00     0.066 C 
BRANCH  21  22
HETATM   22  C15 UNL     1      -5.178   0.738  -0.112  1.00  0.00     0.271 C 
BRANCH  22  23
HETATM   23  N3  UNL     1      -6.590   0.642   0.302  1.00  0.00     0.078 N 
HETATM   24  H17 UNL     1      -6.808  -0.373   0.448  1.00  0.00     0.312 HD
HETATM   25  H18 UNL     1      -7.220   1.097  -0.405  1.00  0.00     0.312 HD
ENDBRANCH  22  23
ENDBRANCH  21  22
ENDBRANCH  12  21
TORSDOF 4
