REMARK  5 active torsions:
REMARK  status: ('A' for Active; 'I' for Inactive)
REMARK    1  A    between atoms: C5_5  and  N1_6 
REMARK    2  A    between atoms: N1_6  and  C6_7 
REMARK    3  A    between atoms: C12_14  and  O2_15 
REMARK    4  A    between atoms: O2_15  and  C13_16 
REMARK    5  A    between atoms: C13_16  and  C14_17 
ROOT
HETATM    1  C6  UNL     1      -1.080   0.765   0.503  1.00  0.00     0.157 C 
HETATM    2  C7  UNL     1       0.033   0.686  -0.212  1.00  0.00     0.093 C 
HETATM    3  C8  UNL     1       0.631   1.934  -0.754  1.00  0.00     0.082 C 
HETATM    4  C9  UNL     1       1.036   2.604   0.587  1.00  0.00     0.057 C 
HETATM    5  C10 UNL     1       2.127   3.494   0.430  1.00  0.00     0.008 C 
HETATM    6  C11 UNL     1       3.178   2.684   0.108  1.00  0.00     0.135 C 
HETATM    7  O1  UNL     1       3.312   1.402  -0.052  1.00  0.00    -0.330 OA
HETATM    8  C12 UNL     1       3.291   0.116  -0.300  1.00  0.00     0.289 C 
HETATM    9  C15 UNL     1       2.053  -0.703   0.052  1.00  0.00     0.236 C 
HETATM   10  O3  UNL     1       0.902  -0.295  -0.654  1.00  0.00    -0.347 OA
HETATM   11  C16 UNL     1      -0.275   2.959   1.124  1.00  0.00     0.101 C 
HETATM   12  N3  UNL     1      -1.163   2.009   1.181  1.00  0.00    -0.244 NA
ENDROOT
BRANCH   1  13
HETATM   13  N1  UNL     1      -1.821  -0.435   0.367  1.00  0.00    -0.339 N 
HETATM   14  H6  UNL     1      -1.378  -1.375   0.390  1.00  0.00     0.167 HD
BRANCH  13  15
HETATM   15  C5  UNL     1      -3.173  -0.756   0.193  1.00  0.00     0.033 A 
HETATM   16  C4  UNL     1      -3.712  -0.716  -1.095  1.00  0.00     0.030 A 
HETATM   17  C3  UNL     1      -5.033  -1.029  -1.310  1.00  0.00     0.009 A 
HETATM   18  C2  UNL     1      -5.852  -1.392  -0.235  1.00  0.00    -0.062 A 
HETATM   19  C1  UNL     1      -7.303  -1.748  -0.407  1.00  0.00     0.048 C 
HETATM   20  C18 UNL     1      -5.280  -1.421   1.041  1.00  0.00     0.009 A 
HETATM   21  C17 UNL     1      -3.952  -1.108   1.264  1.00  0.00     0.030 A 
ENDBRANCH  13  15
ENDBRANCH   1  13
BRANCH   8  22
HETATM   22  O2  UNL     1       4.423  -0.470   0.341  1.00  0.00    -0.354 OA
BRANCH  22  23
HETATM   23  C13 UNL     1       5.265  -1.131  -0.490  1.00  0.00     0.217 C 
BRANCH  23  24
HETATM   24  C14 UNL     1       6.381  -1.666   0.382  1.00  0.00     0.106 C 
HETATM   25  N2  UNL     1       6.979  -2.760   0.087  1.00  0.00    -0.314 NA
HETATM   26  H16 UNL     1       7.731  -3.193   0.607  1.00  0.00     0.185 HD
ENDBRANCH  23  24
ENDBRANCH  22  23
ENDBRANCH   8  22
TORSDOF 5
