REMARK  4 active torsions:
REMARK  status: ('A' for Active; 'I' for Inactive)
REMARK    1  A    between atoms: C5_5  and  C6_6 
REMARK    2  A    between atoms: C8_8  and  O1_9 
REMARK    3  A    between atoms: O1_9  and  C9_10 
REMARK    4  A    between atoms: C9_10  and  C10_11 
ROOT
HETATM    1  C1  UNL     1      -2.827   2.816  -0.607  1.00  0.00     0.038 C 
HETATM    2  C2  UNL     1      -3.582   2.061   0.446  1.00  0.00    -0.004 C 
HETATM    3  C3  UNL     1      -2.971   0.959   0.921  1.00  0.00     0.032 C 
HETATM    4  C4  UNL     1      -1.656   0.465   0.490  1.00  0.00     0.092 C 
HETATM    5  C5  UNL     1      -1.452  -0.678  -0.372  1.00  0.00     0.160 C 
HETATM    6  N3  UNL     1      -1.729  -2.007  -0.018  1.00  0.00    -0.309 NA
HETATM    7  C13 UNL     1      -2.303  -2.765  -0.915  1.00  0.00     0.076 A 
HETATM    8  C14 UNL     1      -3.298  -2.150  -1.591  1.00  0.00     0.193 A 
HETATM    9  C15 UNL     1      -3.617  -1.897  -0.202  1.00  0.00     0.084 A 
HETATM   10 CL1  UNL     1      -4.158  -0.694  -1.432  1.00  0.00    -0.195 Cl
HETATM   11  C16 UNL     1      -3.925  -1.784   1.052  1.00  0.00     0.020 C 
HETATM   12  C17 UNL     1      -4.012  -0.842   2.093  1.00  0.00     0.115 C 
HETATM   13  N4  UNL     1      -3.599   0.314   1.992  1.00  0.00    -0.266 NA
ENDROOT
BRANCH   5  14
HETATM   14  C6  UNL     1       0.099  -0.798  -0.378  1.00  0.00     0.064 A 
HETATM   15  C7  UNL     1       0.970   0.036   0.258  1.00  0.00     0.087 A 
HETATM   16  C8  UNL     1       2.356  -0.156   0.193  1.00  0.00     0.167 A 
HETATM   17  N1  UNL     1       2.739  -1.208  -0.535  1.00  0.00    -0.218 NA
HETATM   18  C12 UNL     1       1.944  -2.059  -1.180  1.00  0.00     0.236 A 
HETATM   19  N2  UNL     1       0.626  -1.837  -1.089  1.00  0.00    -0.244 NA
BRANCH  16  20
HETATM   20  O1  UNL     1       3.006   0.796   0.905  1.00  0.00    -0.334 OA
BRANCH  20  21
HETATM   21  C9  UNL     1       4.346   0.954   1.079  1.00  0.00     0.177 C 
BRANCH  21  22
HETATM   22  C10 UNL     1       5.212   1.235  -0.099  1.00  0.00     0.022 C 
HETATM   23  C11 UNL     1       5.264   0.219  -1.178  1.00  0.00     0.007 C 
ENDBRANCH  21  22
ENDBRANCH  20  21
ENDBRANCH  16  20
ENDBRANCH   5  14
TORSDOF 4
