REMARK  0 active torsions:
REMARK  status: ('A' for Active; 'I' for Inactive)
ROOT
HETATM    1  C1  UNL     1       2.929  -3.116   0.268  1.00  0.00     0.081 C 
HETATM    2  C2  UNL     1       2.819  -2.549   1.444  1.00  0.00     0.035 C 
HETATM    3  C3  UNL     1       2.260  -1.238   1.129  1.00  0.00     0.026 C 
HETATM    4  C4  UNL     1       2.997  -0.146   0.784  1.00  0.00     0.135 C 
HETATM    5  O1  UNL     1       3.030   1.228   0.411  1.00  0.00    -0.361 OA
HETATM    6  C5  UNL     1       2.536   1.526  -0.902  1.00  0.00     0.200 C 
HETATM    7  C6  UNL     1       1.365   2.479  -0.706  1.00  0.00     0.194 C 
HETATM    8  O2  UNL     1       0.404   1.846   0.119  1.00  0.00    -0.387 OA
HETATM    9  C7  UNL     1      -0.719   2.613   0.154  1.00  0.00     0.193 C 
HETATM   10  C8  UNL     1      -1.770   2.075   1.106  1.00  0.00     0.194 C 
HETATM   11  O3  UNL     1      -2.162   0.811   0.838  1.00  0.00    -0.379 OA
HETATM   12  C9  UNL     1      -2.617   0.494  -0.402  1.00  0.00     0.151 C 
HETATM   13  C10 UNL     1      -1.465  -0.353  -0.987  1.00  0.00     0.030 C 
HETATM   14  C11 UNL     1      -1.463  -1.413  -0.146  1.00  0.00     0.015 C 
HETATM   15  N1  UNL     1      -0.365  -2.331   0.076  1.00  0.00    -0.375 N 
HETATM   16  C12 UNL     1       0.894  -2.434  -0.578  1.00  0.00     0.271 C 
HETATM   17  N2  UNL     1       1.785  -3.476  -0.200  1.00  0.00    -0.268 NA
HETATM   18  C13 UNL     1      -2.756  -1.545   0.571  1.00  0.00     0.027 A 
HETATM   19  C14 UNL     1      -4.173  -1.275   0.751  1.00  0.00     0.015 A 
HETATM   20  C15 UNL     1      -3.623  -0.676  -0.355  1.00  0.00     0.040 A 
HETATM   21  H14 UNL     1      -0.405  -3.060   0.802  1.00  0.00     0.161 HD
ENDROOT
TORSDOF 0
