REMARK  7 active torsions:
REMARK  status: ('A' for Active; 'I' for Inactive)
REMARK    1  A    between atoms: C2_2  and  O1_3 
REMARK    2  A    between atoms: O1_3  and  C3_4 
REMARK    3  A    between atoms: C5_6  and  O2_7 
REMARK    4  A    between atoms: O2_7  and  C6_8 
REMARK    5  A    between atoms: C6_8  and  C7_9 
REMARK    6  A    between atoms: C7_9  and  O3_10 
REMARK    7  A    between atoms: C9_12  and  C10_13 
ROOT
HETATM    1  C3  UNL     1       2.635   0.391   0.018  1.00  0.00     0.073 A 
HETATM    2  C4  UNL     1       1.375   0.934   0.122  1.00  0.00     0.074 A 
HETATM    3  C5  UNL     1       0.228   0.297  -0.263  1.00  0.00     0.086 A 
HETATM    4  C8  UNL     1       0.384  -0.987  -0.793  1.00  0.00     0.056 A 
HETATM    5  C9  UNL     1      -0.628  -1.789  -1.235  1.00  0.00     0.084 A 
HETATM    6  N1  UNL     1      -0.425  -3.019  -1.737  1.00  0.00    -0.240 NA
HETATM    7  C16 UNL     1       0.791  -3.533  -1.834  1.00  0.00     0.234 A 
HETATM    8  N2  UNL     1       1.847  -2.793  -1.413  1.00  0.00    -0.241 NA
HETATM    9  C17 UNL     1       1.655  -1.546  -0.903  1.00  0.00     0.076 A 
HETATM   10  C18 UNL     1       2.787  -0.874  -0.504  1.00  0.00     0.069 A 
ENDROOT
BRANCH   5  11
HETATM   11  C10 UNL     1      -1.994  -1.286  -1.158  1.00  0.00     0.005 C 
HETATM   12  C11 UNL     1      -2.851  -0.631  -1.926  1.00  0.00    -0.012 C 
HETATM   13  C12 UNL     1      -4.121  -0.884  -1.663  1.00  0.00     0.020 C 
HETATM   14  C13 UNL     1      -4.098  -1.223  -0.245  1.00  0.00    -0.060 C 
HETATM   15  C14 UNL     1      -5.293  -1.278   0.652  1.00  0.00     0.048 C 
HETATM   16  C15 UNL     1      -2.829  -1.462   0.051  1.00  0.00     0.021 C 
ENDBRANCH   5  11
BRANCH   3  17
HETATM   17  O2  UNL     1      -1.089   0.659  -0.242  1.00  0.00    -0.348 OA
BRANCH  17  18
HETATM   18  C6  UNL     1      -1.692   1.822   0.200  1.00  0.00     0.201 C 
BRANCH  18  19
HETATM   19  C7  UNL     1      -1.525   2.147   1.649  1.00  0.00     0.190 C 
BRANCH  19  20
HETATM   20  O3  UNL     1      -2.214   3.362   1.884  1.00  0.00    -0.399 OA
HETATM   21  H11 UNL     1      -1.725   4.117   1.509  1.00  0.00     0.209 HD
ENDBRANCH  19  20
ENDBRANCH  18  19
ENDBRANCH  17  18
ENDBRANCH   3  17
BRANCH   1  22
HETATM   22  O1  UNL     1       3.694   1.201   0.468  1.00  0.00    -0.351 OA
BRANCH  22  23
HETATM   23  C2  UNL     1       5.013   0.722   0.397  1.00  0.00     0.171 C 
HETATM   24  C1  UNL     1       6.016   1.729   0.925  1.00  0.00     0.034 C 
ENDBRANCH  22  23
ENDBRANCH   1  22
TORSDOF 7
