REMARK  3 active torsions:
REMARK  status: ('A' for Active; 'I' for Inactive)
REMARK    1  A    between atoms: O1_2  and  C2_3 
REMARK    2  A    between atoms: C7_10  and  N3_11 
REMARK    3  A    between atoms: N3_11  and  C8_12 
ROOT
HETATM    1  C2  UNL     1       3.863   0.663   0.403  1.00  0.00     0.203 C 
HETATM    2  C3  UNL     1       3.774   0.117   1.776  1.00  0.00     0.014 C 
HETATM    3  C4  UNL     1       2.749  -0.224   2.578  1.00  0.00     0.031 C 
HETATM    4  C5  UNL     1       1.343  -0.083   2.147  1.00  0.00     0.074 A 
HETATM    5  N1  UNL     1       0.512   0.055   3.161  1.00  0.00    -0.241 NA
HETATM    6  C6  UNL     1      -0.803   0.206   2.969  1.00  0.00     0.236 A 
HETATM    7  N2  UNL     1      -1.324   0.222   1.707  1.00  0.00    -0.223 NA
HETATM    8  C7  UNL     1      -0.499   0.084   0.654  1.00  0.00     0.144 A 
HETATM    9  C15 UNL     1       0.845  -0.071   0.875  1.00  0.00     0.075 A 
HETATM   10  C16 UNL     1       1.553  -0.235  -0.369  1.00  0.00     0.117 C 
HETATM   11  C17 UNL     1       2.852   0.094  -0.530  1.00  0.00     0.113 C 
HETATM   12  O2  UNL     1       3.333  -0.153  -1.831  1.00  0.00    -0.347 OA
HETATM   13  C18 UNL     1       2.747  -1.238  -2.525  1.00  0.00     0.202 C 
HETATM   14  C19 UNL     1       1.271  -0.941  -2.642  1.00  0.00     0.202 C 
HETATM   15  O3  UNL     1       0.727  -0.766  -1.345  1.00  0.00    -0.345 OA
ENDROOT
BRANCH   8  16
HETATM   16  N3  UNL     1      -1.090   0.131  -0.636  1.00  0.00    -0.340 N 
HETATM   17  H8  UNL     1      -1.115   0.169  -1.662  1.00  0.00     0.167 HD
BRANCH  16  18
HETATM   18  C8  UNL     1      -2.539   0.149  -0.594  1.00  0.00     0.033 A 
HETATM   19  C9  UNL     1      -3.463   0.945  -1.228  1.00  0.00     0.030 A 
HETATM   20  C10 UNL     1      -4.827   0.787  -1.055  1.00  0.00     0.009 A 
HETATM   21  C11 UNL     1      -5.321  -0.188  -0.229  1.00  0.00    -0.062 A 
HETATM   22  C12 UNL     1      -6.795  -0.286  -0.100  1.00  0.00     0.048 C 
HETATM   23  C13 UNL     1      -4.456  -1.013   0.430  1.00  0.00     0.009 A 
HETATM   24  C14 UNL     1      -3.093  -0.838   0.243  1.00  0.00     0.030 A 
ENDBRANCH  16  18
ENDBRANCH   8  16
BRANCH   1  25
HETATM   25  O1  UNL     1       5.142   0.347  -0.063  1.00  0.00    -0.380 OA
HETATM   26  C1  UNL     1       5.880   1.511  -0.287  1.00  0.00     0.202 C 
ENDBRANCH   1  25
TORSDOF 3
