REMARK  4 active torsions:
REMARK  status: ('A' for Active; 'I' for Inactive)
REMARK    1  A    between atoms: C2_2  and  O1_3 
REMARK    2  A    between atoms: O1_3  and  C3_4 
REMARK    3  A    between atoms: C7_10  and  N3_11 
REMARK    4  A    between atoms: N3_11  and  C8_12 
ROOT
HETATM    1  C3  UNL     1      -3.409   0.945  -0.031  1.00  0.00     0.107 A 
HETATM    2  C4  UNL     1      -2.946   2.238   0.050  1.00  0.00     0.072 A 
HETATM    3  C5  UNL     1      -1.602   2.589   0.021  1.00  0.00     0.077 A 
HETATM    4  N1  UNL     1      -1.177   3.830   0.092  1.00  0.00    -0.241 NA
HETATM    5  C6  UNL     1       0.123   4.164   0.080  1.00  0.00     0.236 A 
HETATM    6  N2  UNL     1       1.089   3.188  -0.013  1.00  0.00    -0.223 NA
HETATM    7  C7  UNL     1       0.653   1.905  -0.092  1.00  0.00     0.144 A 
HETATM    8  C15 UNL     1      -0.683   1.523  -0.092  1.00  0.00     0.075 A 
HETATM    9  C16 UNL     1      -1.040   0.222  -0.189  1.00  0.00     0.121 A 
HETATM   10  C17 UNL     1      -2.446  -0.061  -0.157  1.00  0.00     0.136 A 
HETATM   11  O2  UNL     1      -2.780  -1.404  -0.255  1.00  0.00    -0.344 OA
HETATM   12  C18 UNL     1      -1.848  -2.450  -0.359  1.00  0.00     0.202 C 
HETATM   13  C19 UNL     1      -0.495  -2.062   0.179  1.00  0.00     0.202 C 
HETATM   14  O3  UNL     1      -0.109  -0.805  -0.307  1.00  0.00    -0.345 OA
ENDROOT
BRANCH   7  15
HETATM   15  N3  UNL     1       1.703   1.018  -0.045  1.00  0.00    -0.340 N 
HETATM   16  H8  UNL     1       1.363   0.114   0.301  1.00  0.00     0.167 HD
BRANCH  15  17
HETATM   17  C8  UNL     1       2.951   0.382  -0.058  1.00  0.00     0.033 A 
HETATM   18  C9  UNL     1       3.383  -0.440  -1.086  1.00  0.00     0.030 A 
HETATM   19  C10 UNL     1       4.589  -1.093  -1.082  1.00  0.00     0.009 A 
HETATM   20  C11 UNL     1       5.322  -0.847   0.045  1.00  0.00    -0.062 A 
HETATM   21  C12 UNL     1       6.631  -1.555   0.165  1.00  0.00     0.048 C 
HETATM   22  C13 UNL     1       5.044  -0.056   1.161  1.00  0.00     0.009 A 
HETATM   23  C14 UNL     1       3.801   0.562   1.056  1.00  0.00     0.030 A 
ENDBRANCH  15  17
ENDBRANCH   7  15
BRANCH   1  24
HETATM   24  O1  UNL     1      -4.520   0.301  -0.008  1.00  0.00    -0.348 OA
BRANCH  24  25
HETATM   25  C2  UNL     1      -5.687  -0.262   0.036  1.00  0.00     0.171 C 
HETATM   26  C1  UNL     1      -6.320  -0.357   1.427  1.00  0.00     0.034 C 
ENDBRANCH  24  25
ENDBRANCH   1  24
TORSDOF 4
