REMARK  4 active torsions:
REMARK  status: ('A' for Active; 'I' for Inactive)
REMARK    1  A    between atoms: C2_2  and  O1_3 
REMARK    2  A    between atoms: O1_3  and  S1_4 
REMARK    3  A    between atoms: C7_10  and  N2_11 
REMARK    4  A    between atoms: N2_11  and  C8_12 
ROOT
HETATM    1  S1  UNL     1      -3.409  -0.361   0.844  1.00  0.00     0.009 SA
HETATM    2  C3  UNL     1      -2.578  -1.026   2.073  1.00  0.00     0.053 A 
HETATM    3  C4  UNL     1      -1.302  -1.165   1.822  1.00  0.00     0.003 A 
HETATM    4  C5  UNL     1      -0.598  -1.799   2.937  1.00  0.00     0.048 C 
HETATM    5  C6  UNL     1       0.724  -1.716   2.927  1.00  0.00     0.088 C 
HETATM    6  N1  UNL     1       1.313  -1.663   1.798  1.00  0.00    -0.228 NA
HETATM    7  C7  UNL     1       0.717  -1.042   0.651  1.00  0.00     0.142 C 
HETATM    8  C15 UNL     1      -0.589  -0.774   0.624  1.00  0.00     0.058 A 
HETATM    9  C16 UNL     1      -1.066  -0.160  -0.577  1.00  0.00     0.125 A 
HETATM   10  C17 UNL     1      -2.365   0.080  -0.587  1.00  0.00     0.160 A 
HETATM   11  O2  UNL     1      -2.987   0.673  -1.673  1.00  0.00    -0.338 OA
HETATM   12  C18 UNL     1      -2.180   1.209  -2.701  1.00  0.00     0.203 C 
HETATM   13  C19 UNL     1      -0.996   0.269  -2.921  1.00  0.00     0.202 C 
HETATM   14  O3  UNL     1      -0.281   0.180  -1.678  1.00  0.00    -0.345 OA
ENDROOT
BRANCH   7  15
HETATM   15  N2  UNL     1       1.665  -0.789  -0.388  1.00  0.00    -0.340 N 
HETATM   16  H7  UNL     1       1.701  -0.988  -1.430  1.00  0.00     0.167 HD
BRANCH  15  17
HETATM   17  C8  UNL     1       2.936  -0.152  -0.360  1.00  0.00     0.033 A 
HETATM   18  C9  UNL     1       3.447   0.999  -0.927  1.00  0.00     0.030 A 
HETATM   19  C10 UNL     1       4.744   1.399  -0.727  1.00  0.00     0.009 A 
HETATM   20  C11 UNL     1       5.597   0.649   0.062  1.00  0.00    -0.062 A 
HETATM   21  C12 UNL     1       6.997   1.112   0.249  1.00  0.00     0.048 C 
HETATM   22  C13 UNL     1       5.101  -0.504   0.636  1.00  0.00     0.009 A 
HETATM   23  C14 UNL     1       3.784  -0.927   0.444  1.00  0.00     0.030 A 
ENDBRANCH  15  17
ENDBRANCH   7  15
BRANCH   1  24
HETATM   24  O1  UNL     1      -5.044  -0.788   0.452  1.00  0.00    -0.320 OA
BRANCH  24  25
HETATM   25  C2  UNL     1      -5.952   0.240   0.669  1.00  0.00     0.180 C 
HETATM   26  C1  UNL     1      -7.192  -0.042  -0.166  1.00  0.00     0.035 C 
ENDBRANCH  24  25
ENDBRANCH   1  24
TORSDOF 4
