REMARK  5 active torsions:
REMARK  status: ('A' for Active; 'I' for Inactive)
REMARK    1  A    between atoms: N1_1  and  C1_2 
REMARK    2  A    between atoms: C1_2  and  C2_3 
REMARK    3  A    between atoms: C10_14  and  C11_15 
REMARK    4  A    between atoms: C11_15  and  N4_16 
REMARK    5  A    between atoms: N4_16  and  C12_17 
ROOT
HETATM    1  C2  UNL     1       2.562   0.145  -0.503  1.00  0.00    -0.051 C 
HETATM    2  C3  UNL     1       1.867  -0.779   0.221  1.00  0.00     0.005 C 
HETATM    3  O1  UNL     1       0.986  -1.675   0.875  1.00  0.00     0.000 OA
HETATM    4  C4  UNL     1      -0.115  -2.203   0.019  1.00  0.00     0.063 C 
HETATM    5  C5  UNL     1       0.313  -1.679  -1.272  1.00  0.00     0.046 A 
HETATM    6  N2  UNL     1       0.885  -1.471  -2.769  1.00  0.00    -0.258 NA
HETATM    7  C6  UNL     1       0.727  -0.256  -2.309  1.00  0.00     0.073 A 
HETATM    8  C7  UNL     1       0.601   0.629  -1.951  1.00  0.00     0.103 A 
HETATM    9  N3  UNL     1       0.432   1.687  -1.505  1.00  0.00    -0.273 NA
HETATM   10  C8  UNL     1       1.593   1.680  -2.367  1.00  0.00     0.117 A 
HETATM   11  C9  UNL     1       2.745   1.196  -1.465  1.00  0.00     0.051 C 
HETATM   12  C10 UNL     1       0.211   0.066  -1.003  1.00  0.00     0.125 A 
ENDROOT
BRANCH  12  13
HETATM   13  C11 UNL     1      -0.464   0.437   0.148  1.00  0.00     0.098 C 
BRANCH  13  14
HETATM   14  N4  UNL     1      -1.194   0.164   1.352  1.00  0.00    -0.367 N 
HETATM   15  H13 UNL     1      -0.696  -0.103   2.258  1.00  0.00     0.165 HD
BRANCH  14  16
HETATM   16  C12 UNL     1      -2.635   0.245   1.346  1.00  0.00     0.033 A 
HETATM   17  C13 UNL     1      -3.334  -0.061   2.483  1.00  0.00     0.032 A 
HETATM   18  C14 UNL     1      -4.694   0.040   2.412  1.00  0.00     0.046 A 
HETATM   19  C15 UNL     1      -5.364   0.424   1.279  1.00  0.00     0.138 A 
HETATM   20  F1  UNL     1      -6.703   0.502   1.277  1.00  0.00    -0.204 F 
HETATM   21  C16 UNL     1      -4.655   0.737   0.113  1.00  0.00     0.074 A 
HETATM   22 CL1  UNL     1      -5.445   1.230  -1.355  1.00  0.00    -0.081 Cl
HETATM   23  C17 UNL     1      -3.280   0.628   0.211  1.00  0.00     0.056 A 
ENDBRANCH  14  16
ENDBRANCH  13  14
ENDBRANCH  12  13
BRANCH   1  24
HETATM   24  C1  UNL     1       3.947  -0.085   0.049  1.00  0.00     0.301 C 
BRANCH  24  25
HETATM   25  N1  UNL     1       4.003  -1.108   1.059  1.00  0.00     0.082 N 
HETATM   26  H1  UNL     1       4.750  -0.848   1.757  1.00  0.00     0.313 HD
HETATM   27  H2  UNL     1       4.150  -2.070   0.667  1.00  0.00     0.313 HD
ENDBRANCH  24  25
ENDBRANCH   1  24
TORSDOF 5
