REMARK  3 active torsions:
REMARK  status: ('A' for Active; 'I' for Inactive)
REMARK    1  A    between atoms: C3_3  and  C4_4 
REMARK    2  A    between atoms: C11_12  and  O1_13 
REMARK    3  A    between atoms: O1_13  and  C12_14 
ROOT
HETATM    1  C4  UNL     1       5.221   0.494   0.044  1.00  0.00     0.026 C 
HETATM    2  C5  UNL     1       3.925   0.820  -0.091  1.00  0.00     0.028 C 
HETATM    3  C6  UNL     1       3.180  -0.302  -0.697  1.00  0.00     0.178 C 
HETATM    4  N1  UNL     1       1.770  -0.051  -0.871  1.00  0.00    -0.369 N 
HETATM    5  C7  UNL     1       0.906   0.702  -0.047  1.00  0.00     0.129 C 
HETATM    6  C8  UNL     1      -0.335   0.289   0.090  1.00  0.00    -0.007 C 
HETATM    7  C9  UNL     1      -1.067  -0.865  -0.464  1.00  0.00     0.070 C 
HETATM    8  C10 UNL     1      -2.381  -0.626  -1.032  1.00  0.00     0.012 C 
HETATM    9  C11 UNL     1      -3.451  -1.126  -0.395  1.00  0.00     0.066 C 
HETATM   10  C14 UNL     1      -4.288  -1.809   0.598  1.00  0.00     0.231 C 
HETATM   11  O2  UNL     1      -3.675  -2.348   1.695  1.00  0.00    -0.383 OA
HETATM   12  C15 UNL     1      -3.535  -1.486   2.795  1.00  0.00     0.194 C 
HETATM   13  C16 UNL     1      -3.034  -0.164   2.304  1.00  0.00     0.194 C 
HETATM   14  O3  UNL     1      -1.840  -0.376   1.681  1.00  0.00    -0.385 OA
HETATM   15  C17 UNL     1      -1.477   0.735   0.903  1.00  0.00     0.206 C 
HETATM   16  N2  UNL     1       1.181   1.898   0.695  1.00  0.00    -0.226 NA
HETATM   17  C18 UNL     1       2.316   2.507   0.874  1.00  0.00     0.209 C 
HETATM   18  N3  UNL     1       3.586   2.124   0.364  1.00  0.00    -0.353 N 
HETATM   19  H9  UNL     1       1.322  -0.465  -1.693  1.00  0.00     0.161 HD
HETATM   20  H27 UNL     1       4.338   2.846   0.315  1.00  0.00     0.166 HD
ENDROOT
BRANCH   1  21
HETATM   21  C3  UNL     1       5.742  -0.785  -0.362  1.00  0.00    -0.002 C 
HETATM   22  C2  UNL     1       7.032  -1.087  -0.218  1.00  0.00    -0.031 C 
HETATM   23  C1  UNL     1       7.896  -0.045   0.378  1.00  0.00     0.036 C 
ENDBRANCH   1  21
BRANCH   9  24
HETATM   24  O1  UNL     1      -4.445  -0.661  -1.306  1.00  0.00    -0.354 OA
BRANCH  24  25
HETATM   25  C12 UNL     1      -5.093   0.559  -1.051  1.00  0.00     0.171 C 
HETATM   26  C13 UNL     1      -6.108   0.882  -2.123  1.00  0.00     0.034 C 
ENDBRANCH  24  25
ENDBRANCH   9  24
TORSDOF 3
