REMARK  5 active torsions:
REMARK  status: ('A' for Active; 'I' for Inactive)
REMARK    1  A    between atoms: C2_2  and  O1_3 
REMARK    2  A    between atoms: O1_3  and  C3_4 
REMARK    3  A    between atoms: C4_5  and  C5_6 
REMARK    4  A    between atoms: C9_11  and  N1_12 
REMARK    5  A    between atoms: N1_12  and  C10_13 
ROOT
HETATM    1  C3  UNL     1      -3.091   0.291   0.167  1.00  0.00     0.086 A 
HETATM    2  C4  UNL     1      -3.264  -0.987  -0.550  1.00  0.00    -0.047 A 
HETATM    3  C7  UNL     1      -2.237  -1.718  -0.950  1.00  0.00     0.146 A 
HETATM    4  O2  UNL     1      -0.941  -1.294  -0.700  1.00  0.00    -0.316 OA
HETATM    5  C8  UNL     1      -0.626  -0.107  -0.033  1.00  0.00     0.146 A 
HETATM    6  C9  UNL     1       0.716   0.240   0.174  1.00  0.00     0.165 A 
HETATM    7  N2  UNL     1       0.931   1.394   0.822  1.00  0.00    -0.221 NA
HETATM    8  C17 UNL     1      -0.115   2.125   1.221  1.00  0.00     0.235 A 
HETATM    9  N3  UNL     1      -1.419   1.792   1.022  1.00  0.00    -0.243 NA
HETATM   10  C18 UNL     1      -1.685   0.649   0.380  1.00  0.00     0.083 A 
ENDROOT
BRANCH   6  11
HETATM   11  N1  UNL     1       1.717  -0.616  -0.296  1.00  0.00    -0.339 N 
HETATM   12  H11 UNL     1       1.401  -1.503  -0.795  1.00  0.00     0.167 HD
BRANCH  11  13
HETATM   13  C10 UNL     1       3.107  -0.486  -0.211  1.00  0.00     0.033 A 
HETATM   14  C11 UNL     1       3.789   0.557   0.377  1.00  0.00     0.030 A 
HETATM   15  C12 UNL     1       5.155   0.707   0.473  1.00  0.00     0.009 A 
HETATM   16  C13 UNL     1       5.943  -0.285  -0.072  1.00  0.00    -0.062 A 
HETATM   17  C14 UNL     1       7.410  -0.235  -0.031  1.00  0.00     0.048 C 
HETATM   18  C15 UNL     1       5.336  -1.362  -0.679  1.00  0.00     0.009 A 
HETATM   19  C16 UNL     1       3.964  -1.432  -0.730  1.00  0.00     0.030 A 
ENDBRANCH  11  13
ENDBRANCH   6  11
BRANCH   1  20
HETATM   20  O1  UNL     1      -3.770   1.337  -0.501  1.00  0.00     0.000 OA
BRANCH  20  21
HETATM   21  C2  UNL     1      -3.767   2.648  -0.035  1.00  0.00    -0.011 C 
HETATM   22  C1  UNL     1      -4.872   2.682  -0.788  1.00  0.00     0.011 C 
ENDBRANCH  20  21
ENDBRANCH   1  20
BRANCH   2  23
HETATM   23  C5  UNL     1      -4.640  -1.461  -0.828  1.00  0.00     0.032 C 
HETATM   24  C6  UNL     1      -5.371  -1.643   0.481  1.00  0.00     0.010 C 
ENDBRANCH   2  23
TORSDOF 5
