REMARK  8 active torsions:
REMARK  status: ('A' for Active; 'I' for Inactive)
REMARK    1  A    between atoms: C6_7  and  O1_8 
REMARK    2  A    between atoms: O1_8  and  C7_9 
REMARK    3  A    between atoms: C7_9  and  C8_10 
REMARK    4  A    between atoms: C8_10  and  O2_11 
REMARK    5  A    between atoms: O2_11  and  C9_12 
REMARK    6  A    between atoms: C9_12  and  C10_13 
REMARK    7  A    between atoms: C11_14  and  C12_15 
REMARK    8  A    between atoms: C14_18  and  N3_19 
ROOT
HETATM    1  O2  UNL     1       1.240  -1.681  -0.049  1.00  0.00    -0.385 OA
ENDROOT
BRANCH   1   2
HETATM    2  C8  UNL     1      -0.004  -1.769   0.516  1.00  0.00     0.194 C 
BRANCH   2   3
HETATM    3  C7  UNL     1      -1.133  -1.279  -0.368  1.00  0.00     0.194 C 
BRANCH   3   4
HETATM    4  O1  UNL     1      -2.387  -1.397   0.271  1.00  0.00    -0.379 OA
BRANCH   4   5
HETATM    5  C6  UNL     1      -3.321  -0.915  -0.646  1.00  0.00     0.153 C 
HETATM    6  C2  UNL     1      -4.012   0.221   0.022  1.00  0.00    -0.040 C 
HETATM    7  C1  UNL     1      -3.940   1.682  -0.229  1.00  0.00     0.048 C 
HETATM    8  C3  UNL     1      -4.830  -0.134   1.006  1.00  0.00     0.088 C 
HETATM    9  N1  UNL     1      -4.967  -1.513   1.321  1.00  0.00    -0.398 N 
HETATM   10  C4  UNL     1      -4.830  -2.567   0.337  1.00  0.00     0.122 C 
HETATM   11  H5  UNL     1      -5.176  -1.894   2.280  1.00  0.00     0.158 HD
HETATM   12  C5  UNL     1      -4.406  -1.929  -0.965  1.00  0.00     0.056 C 
ENDBRANCH   4   5
ENDBRANCH   3   4
ENDBRANCH   2   3
ENDBRANCH   1   2
BRANCH   1  13
HETATM   13  C9  UNL     1       1.639  -0.400  -0.407  1.00  0.00     0.195 C 
BRANCH  13  14
HETATM   14  C10 UNL     1       1.703   0.559   0.691  1.00  0.00     0.001 C 
HETATM   15  C11 UNL     1       2.601   1.331   1.279  1.00  0.00     0.029 C 
BRANCH  15  16
HETATM   16  C12 UNL     1       3.994   1.390   0.862  1.00  0.00     0.052 A 
HETATM   17  N2  UNL     1       4.539   0.731  -0.099  1.00  0.00    -0.284 NA
HETATM   18  C13 UNL     1       5.925   1.044  -0.217  1.00  0.00     0.200 A 
HETATM   19  C14 UNL     1       6.146   2.036   0.865  1.00  0.00     0.005 A 
HETATM   20  C15 UNL     1       5.005   2.230   1.491  1.00  0.00     0.051 A 
BRANCH  19  21
HETATM   21  N3  UNL     1       7.321   2.707   1.240  1.00  0.00    -0.305 NA
HETATM   22  H21 UNL     1       8.162   2.881   0.670  1.00  0.00     0.124 HD
HETATM   23  H22 UNL     1       8.160   2.865   0.630  1.00  0.00     0.124 HD
ENDBRANCH  19  21
ENDBRANCH  15  16
ENDBRANCH  13  14
ENDBRANCH   1  13
TORSDOF 8
