REMARK  5 active torsions:
REMARK  status: ('A' for Active; 'I' for Inactive)
REMARK    1  A    between atoms: C2_2  and  O1_3 
REMARK    2  A    between atoms: O1_3  and  C3_4 
REMARK    3  A    between atoms: C7_10  and  N3_11 
REMARK    4  A    between atoms: N3_11  and  C8_12 
REMARK    5  A    between atoms: C12_16  and  C13_17 
ROOT
HETATM    1  C3  UNL     1       3.200  -0.162   0.681  1.00  0.00     0.072 C 
HETATM    2  C4  UNL     1       2.044   0.132   1.299  1.00  0.00     0.067 C 
HETATM    3  C5  UNL     1       0.745  -0.432   1.710  1.00  0.00     0.072 A 
HETATM    4  N1  UNL     1       0.639  -0.564   3.066  1.00  0.00    -0.241 NA
HETATM    5  C6  UNL     1      -0.447  -1.053   3.676  1.00  0.00     0.235 A 
HETATM    6  N2  UNL     1      -1.511  -1.448   2.984  1.00  0.00    -0.224 NA
HETATM    7  C7  UNL     1      -1.505  -1.359   1.658  1.00  0.00     0.140 A 
HETATM    8  C15 UNL     1      -0.409  -0.867   1.036  1.00  0.00     0.040 A 
HETATM    9  C16 UNL     1       0.029  -0.643  -0.400  1.00  0.00     0.212 C 
HETATM   10  O2  UNL     1       1.136  -1.524  -0.470  1.00  0.00    -0.384 OA
HETATM   11  C17 UNL     1       1.894  -1.448  -1.570  1.00  0.00     0.194 C 
HETATM   12  C18 UNL     1       3.037  -2.404  -1.422  1.00  0.00     0.194 C 
HETATM   13  O3  UNL     1       3.838  -2.214  -0.329  1.00  0.00    -0.383 OA
HETATM   14  C19 UNL     1       4.231  -0.936  -0.045  1.00  0.00     0.232 C 
ENDROOT
BRANCH   7  15
HETATM   15  N3  UNL     1      -2.467  -1.684   0.648  1.00  0.00    -0.340 N 
HETATM   16  H8  UNL     1      -2.602  -2.603   0.184  1.00  0.00     0.167 HD
BRANCH  15  17
HETATM   17  C8  UNL     1      -3.310  -0.599   0.269  1.00  0.00     0.034 A 
HETATM   18  C9  UNL     1      -3.178   0.650   0.852  1.00  0.00     0.029 A 
HETATM   19  C10 UNL     1      -3.953   1.750   0.536  1.00  0.00     0.003 A 
HETATM   20  C11 UNL     1      -4.930   1.613  -0.424  1.00  0.00     0.008 A 
HETATM   21  C12 UNL     1      -5.099   0.382  -1.035  1.00  0.00    -0.042 A 
HETATM   22  C14 UNL     1      -4.301  -0.689  -0.686  1.00  0.00     0.037 A 
BRANCH  21  23
HETATM   23  C13 UNL     1      -6.145   0.207  -2.077  1.00  0.00     0.153 C 
HETATM   24 CL1  UNL     1      -5.533   0.539  -3.709  1.00  0.00    -0.126 Cl
ENDBRANCH  21  23
ENDBRANCH  15  17
ENDBRANCH   7  15
BRANCH   1  25
HETATM   25  O1  UNL     1       3.903   1.060   0.760  1.00  0.00    -0.353 OA
BRANCH  25  26
HETATM   26  C2  UNL     1       3.872   2.052  -0.216  1.00  0.00     0.171 C 
HETATM   27  C1  UNL     1       4.657   3.286   0.176  1.00  0.00     0.034 C 
ENDBRANCH  25  26
ENDBRANCH   1  25
TORSDOF 5
