REMARK  6 active torsions:
REMARK  status: ('A' for Active; 'I' for Inactive)
REMARK    1  A    between atoms: C2_2  and  C3_3 
REMARK    2  A    between atoms: C7_9  and  N3_10 
REMARK    3  A    between atoms: N3_10  and  C8_11 
REMARK    4  A    between atoms: C8_11  and  C9_12 
REMARK    5  A    between atoms: C9_12  and  C10_13 
REMARK    6  A    between atoms: C10_13  and  C11_14 
ROOT
HETATM    1  C3  UNL     1      -3.390   0.231   0.965  1.00  0.00    -0.055 C 
HETATM    2  C4  UNL     1      -2.362  -0.225   1.828  1.00  0.00     0.037 C 
HETATM    3  C5  UNL     1      -1.012  -0.417   1.291  1.00  0.00     0.070 A 
HETATM    4  N1  UNL     1      -1.270  -1.711   1.524  1.00  0.00    -0.241 NA
HETATM    5  C6  UNL     1      -0.363  -2.698   1.195  1.00  0.00     0.235 A 
HETATM    6  N2  UNL     1       0.808  -2.298   0.610  1.00  0.00    -0.224 NA
HETATM    7  C7  UNL     1       0.916  -0.965   0.446  1.00  0.00     0.139 A 
HETATM    8  C12 UNL     1       0.055   0.166   0.754  1.00  0.00     0.040 A 
HETATM    9  C13 UNL     1       0.499   1.540   0.337  1.00  0.00     0.212 C 
HETATM   10  O1  UNL     1      -0.237   1.819  -0.702  1.00  0.00    -0.384 OA
HETATM   11  C14 UNL     1      -0.827   2.211  -1.705  1.00  0.00     0.194 C 
HETATM   12  C15 UNL     1      -2.206   1.547  -2.145  1.00  0.00     0.194 C 
HETATM   13  O2  UNL     1      -3.133   1.704  -1.154  1.00  0.00    -0.385 OA
HETATM   14  C16 UNL     1      -3.080   0.682  -0.277  1.00  0.00     0.202 C 
ENDROOT
BRANCH   7  15
HETATM   15  N3  UNL     1       2.180  -0.793  -0.122  1.00  0.00    -0.351 N 
HETATM   16  H8  UNL     1       2.198   0.160  -0.709  1.00  0.00     0.166 HD
BRANCH  15  17
HETATM   17  C8  UNL     1       3.440  -0.810  -0.597  1.00  0.00     0.085 C 
BRANCH  17  18
HETATM   18  C9  UNL     1       4.570  -0.840  -1.086  1.00  0.00    -0.009 C 
BRANCH  18  19
HETATM   19  C10 UNL     1       5.782  -0.571  -0.337  1.00  0.00     0.043 C 
BRANCH  19  20
HETATM   20  C11 UNL     1       6.609  -1.609   0.316  1.00  0.00     0.118 C 
HETATM   21 CL1  UNL     1       5.859  -2.465   1.645  1.00  0.00    -0.130 Cl
ENDBRANCH  19  20
ENDBRANCH  18  19
ENDBRANCH  17  18
ENDBRANCH  15  17
ENDBRANCH   7  15
BRANCH   1  22
HETATM   22  C2  UNL     1      -4.873   0.522   1.156  1.00  0.00     0.032 C 
HETATM   23  C1  UNL     1      -5.777  -0.305   0.305  1.00  0.00     0.010 C 
ENDBRANCH   1  22
TORSDOF 6
