REMARK  1 active torsions:
REMARK  status: ('A' for Active; 'I' for Inactive)
REMARK    1  A    between atoms: C1_2  and  C2_3 
ROOT
HETATM    1  C2  UNL     1       3.455   0.694   0.517  1.00  0.00     0.076 C 
HETATM    2  C3  UNL     1       3.438  -0.751   0.247  1.00  0.00     0.012 C 
HETATM    3  C4  UNL     1       2.233  -1.355   0.314  1.00  0.00     0.023 C 
HETATM    4  C5  UNL     1       1.554  -2.673   0.165  1.00  0.00    -0.004 C 
HETATM    5  C6  UNL     1       0.254  -2.620   0.381  1.00  0.00     0.086 C 
HETATM    6  N1  UNL     1      -0.741  -1.710   0.720  1.00  0.00    -0.350 N 
HETATM    7  C7  UNL     1      -1.098  -0.453   0.201  1.00  0.00     0.144 A 
HETATM    8  N2  UNL     1       0.011   0.212  -0.016  1.00  0.00    -0.188 NA
HETATM    9  C8  UNL     1      -0.030   1.461  -0.487  1.00  0.00     0.271 A 
HETATM   10  N3  UNL     1      -1.176   2.069  -0.748  1.00  0.00    -0.206 NA
HETATM   11  C9  UNL     1      -2.354   1.404  -0.534  1.00  0.00     0.075 A 
HETATM   12  C10 UNL     1      -3.564   1.949  -0.778  1.00  0.00     0.032 A 
HETATM   13  C11 UNL     1      -4.716   1.192  -0.532  1.00  0.00     0.002 A 
HETATM   14  C12 UNL     1      -4.615  -0.115  -0.039  1.00  0.00     0.001 A 
HETATM   15  C13 UNL     1      -3.381  -0.723   0.230  1.00  0.00     0.018 A 
HETATM   16  C14 UNL     1      -2.321   0.109  -0.047  1.00  0.00     0.039 A 
HETATM   17  O2  UNL     1       1.245   1.102  -0.314  1.00  0.00    -0.318 OA
HETATM   18  C15 UNL     1       2.093   1.293   0.808  1.00  0.00     0.191 C 
HETATM   19  H7  UNL     1      -1.458  -1.801   1.501  1.00  0.00     0.166 HD
ENDROOT
BRANCH   1  20
HETATM   20  C1  UNL     1       3.997   1.433  -0.657  1.00  0.00     0.238 C 
HETATM   21  O1  UNL     1       4.225   0.521  -1.418  1.00  0.00    -0.306 OA
ENDBRANCH   1  20
TORSDOF 1
