REMARK  8 active torsions:
REMARK  status: ('A' for Active; 'I' for Inactive)
REMARK    1  A    between atoms: C2_2  and  O1_3 
REMARK    2  A    between atoms: O1_3  and  C3_4 
REMARK    3  A    between atoms: C3_4  and  C4_5 
REMARK    4  A    between atoms: C5_6  and  O2_7 
REMARK    5  A    between atoms: N1_10  and  C8_11 
REMARK    6  A    between atoms: N2_12  and  C9_13 
REMARK    7  A    between atoms: C9_13  and  N3_14 
REMARK    8  A    between atoms: N3_14  and  C10_15 
ROOT
HETATM    1  O2  UNL     1      -1.781  -1.362   0.993  1.00  0.00     0.000 OA
HETATM    2  C6  UNL     1      -1.296  -1.719  -0.248  1.00  0.00     0.056 A 
HETATM    3  C7  UNL     1      -0.718  -2.105  -1.588  1.00  0.00     0.072 C 
HETATM    4  N1  UNL     1      -0.543  -1.450   0.765  1.00  0.00    -0.245 N 
ENDROOT
BRANCH   4   5
HETATM    5  C8  UNL     1       0.864  -1.532   0.573  1.00  0.00     0.229 C 
HETATM    6  N2  UNL     1       0.836  -0.247   0.681  1.00  0.00    -0.263 NA
BRANCH   6   7
HETATM    7  C9  UNL     1       2.020   0.601   0.593  1.00  0.00     0.272 C 
BRANCH   7   8
HETATM    8  N3  UNL     1       3.203  -0.231   0.434  1.00  0.00    -0.372 N 
HETATM    9  H14 UNL     1       3.091  -1.288   0.399  1.00  0.00     0.161 HD
BRANCH   8  10
HETATM   10  C10 UNL     1       4.481   0.346   0.328  1.00  0.00     0.030 A 
HETATM   11  C11 UNL     1       4.604   1.720   0.377  1.00  0.00     0.030 A 
HETATM   12  C12 UNL     1       5.866   2.245   0.270  1.00  0.00     0.011 A 
HETATM   13  C13 UNL     1       7.005   1.484   0.117  1.00  0.00    -0.040 A 
HETATM   14  C14 UNL     1       8.337   2.119   0.008  1.00  0.00     0.050 C 
HETATM   15  C15 UNL     1       6.842   0.116   0.073  1.00  0.00     0.042 A 
HETATM   16 CL1  UNL     1       8.233  -0.939  -0.119  1.00  0.00    -0.084 Cl
HETATM   17  C16 UNL     1       5.593  -0.448   0.177  1.00  0.00     0.053 A 
ENDBRANCH   8  10
ENDBRANCH   7   8
ENDBRANCH   6   7
ENDBRANCH   4   5
BRANCH   1  18
HETATM   18  C5  UNL     1      -3.181  -1.425   1.174  1.00  0.00     0.136 C 
HETATM   19  C4  UNL     1      -3.955  -0.334   1.011  1.00  0.00     0.106 C 
HETATM   20  O4  UNL     1      -5.248  -0.702   1.254  1.00  0.00    -0.348 OA
HETATM   21  C18 UNL     1      -5.867  -1.845   0.705  1.00  0.00     0.202 C 
HETATM   22  C17 UNL     1      -4.989  -3.039   0.920  1.00  0.00     0.202 C 
HETATM   23  O3  UNL     1      -3.787  -2.621   1.527  1.00  0.00    -0.344 OA
BRANCH  19  24
HETATM   24  C3  UNL     1      -3.266   0.895   0.641  1.00  0.00     0.235 C 
BRANCH  24  25
HETATM   25  O1  UNL     1      -3.705   1.391  -0.569  1.00  0.00    -0.385 OA
BRANCH  25  26
HETATM   26  C2  UNL     1      -5.031   1.706  -0.566  1.00  0.00     0.163 C 
HETATM   27  C1  UNL     1      -5.500   2.273  -1.900  1.00  0.00     0.033 C 
ENDBRANCH  25  26
ENDBRANCH  24  25
ENDBRANCH  19  24
ENDBRANCH   1  18
TORSDOF 8
