REMARK  4 active torsions:
REMARK  status: ('A' for Active; 'I' for Inactive)
REMARK    1  A    between atoms: C2_2  and  C3_3 
REMARK    2  A    between atoms: C7_8  and  O2_9 
REMARK    3  A    between atoms: C8_10  and  O3_11 
REMARK    4  A    between atoms: O3_11  and  C9_12 
ROOT
HETATM    1  C3  UNL     1      -3.645  -0.007  -0.479  1.00  0.00     0.169 C 
HETATM    2  C4  UNL     1      -2.286   0.217  -1.031  1.00  0.00     0.064 C 
HETATM    3  C5  UNL     1      -1.635   1.537  -0.588  1.00  0.00     0.171 C 
HETATM    4  O1  UNL     1      -0.322   1.431  -1.180  1.00  0.00    -0.376 OA
HETATM    5  C6  UNL     1       0.808   2.055  -0.707  1.00  0.00     0.216 C 
HETATM    6  C7  UNL     1       1.916   1.584  -0.093  1.00  0.00     0.108 C 
HETATM    7  C8  UNL     1       2.948   0.740   0.539  1.00  0.00     0.098 C 
HETATM    8  C11 UNL     1       2.849  -0.567   0.688  1.00  0.00     0.041 C 
HETATM    9  C12 UNL     1       2.151  -1.843   0.542  1.00  0.00     0.231 C 
HETATM   10  O4  UNL     1       0.890  -1.725  -0.089  1.00  0.00    -0.276 OA
HETATM   11  N1  UNL     1       0.321  -2.962  -0.037  1.00  0.00    -0.261 N 
HETATM   12  C13 UNL     1      -1.036  -3.131   0.422  1.00  0.00     0.225 C 
HETATM   13  N2  UNL     1      -2.058  -3.229  -0.348  1.00  0.00    -0.267 NA
HETATM   14  C14 UNL     1      -3.421  -3.395   0.042  1.00  0.00     0.267 C 
HETATM   15  N3  UNL     1      -4.019  -2.084   0.227  1.00  0.00    -0.185 NA
HETATM   16  O5  UNL     1      -4.016  -1.316  -0.861  1.00  0.00    -0.295 OA
HETATM   17  H19 UNL     1       0.783  -3.867  -0.309  1.00  0.00     0.195 HD
HETATM   18  H23 UNL     1      -4.991  -2.185   0.636  1.00  0.00     0.155 HD
ENDROOT
BRANCH   7  19
HETATM   19  O3  UNL     1       4.044   1.474   0.963  1.00  0.00    -0.349 OA
BRANCH  19  20
HETATM   20  C9  UNL     1       5.089   1.635   0.029  1.00  0.00     0.171 C 
HETATM   21  C10 UNL     1       6.251   2.451   0.576  1.00  0.00     0.034 C 
ENDBRANCH  19  20
ENDBRANCH   7  19
BRANCH   6  22
HETATM   22  O2  UNL     1       2.093   2.980  -0.202  1.00  0.00    -0.359 OA
HETATM   23  H10 UNL     1       2.553   3.393   0.624  1.00  0.00     0.217 HD
ENDBRANCH   6  22
BRANCH   1  24
HETATM   24  C2  UNL     1      -4.667   0.968  -0.848  1.00  0.00    -0.003 C 
HETATM   25  C1  UNL     1      -5.005   1.903   0.038  1.00  0.00     0.009 C 
ENDBRANCH   1  24
TORSDOF 4
