REMARK  2 active torsions:
REMARK  status: ('A' for Active; 'I' for Inactive)
REMARK    1  A    between atoms: C5_5  and  N1_6 
REMARK    2  A    between atoms: N1_6  and  C6_7 
ROOT
HETATM    1  C6  UNL     1      -0.001  -0.210  -0.318  1.00  0.00     0.132 C 
HETATM    2  C7  UNL     1      -0.755  -1.045   0.439  1.00  0.00     0.090 C 
HETATM    3  C8  UNL     1      -1.807  -1.336  -0.441  1.00  0.00     0.106 C 
HETATM    4  C9  UNL     1      -3.037  -0.712  -0.613  1.00  0.00     0.106 C 
HETATM    5  C10 UNL     1      -3.091   0.317   0.259  1.00  0.00    -0.024 A 
HETATM    6  C11 UNL     1      -3.273   1.700   0.387  1.00  0.00     0.079 A 
HETATM    7  C12 UNL     1      -2.054   1.656   1.073  1.00  0.00     0.031 A 
HETATM    8  N2  UNL     1      -1.002   2.452   0.788  1.00  0.00    -0.249 NA
HETATM    9  C13 UNL     1      -0.218   2.173  -0.281  1.00  0.00     0.235 C 
HETATM   10  N3  UNL     1       0.144   1.003  -0.866  1.00  0.00    -0.224 NA
HETATM   11  C14 UNL     1      -2.952   0.626   1.672  1.00  0.00     0.064 A 
HETATM   12  C15 UNL     1      -4.102   1.202   2.418  1.00  0.00     0.021 C 
HETATM   13  O1  UNL     1      -3.902  -1.196  -1.548  1.00  0.00    -0.346 OA
HETATM   14  C16 UNL     1      -3.310  -1.810  -2.702  1.00  0.00     0.202 C 
HETATM   15  C17 UNL     1      -2.491  -2.973  -2.150  1.00  0.00     0.202 C 
HETATM   16  O2  UNL     1      -1.530  -2.426  -1.245  1.00  0.00    -0.346 OA
ENDROOT
BRANCH   1  17
HETATM   17  N1  UNL     1       1.237  -0.762  -0.823  1.00  0.00    -0.341 N 
HETATM   18  H6  UNL     1       1.164  -1.505  -1.580  1.00  0.00     0.167 HD
BRANCH  17  19
HETATM   19  C5  UNL     1       2.528  -0.340  -0.324  1.00  0.00     0.035 A 
HETATM   20  C4  UNL     1       2.502   0.371   0.870  1.00  0.00     0.030 A 
HETATM   21  C3  UNL     1       3.708   0.819   1.319  1.00  0.00     0.011 A 
HETATM   22  C2  UNL     1       4.870   0.555   0.596  1.00  0.00    -0.040 A 
HETATM   23  C1  UNL     1       6.136   1.095   1.123  1.00  0.00     0.050 C 
HETATM   24  C19 UNL     1       4.823  -0.155  -0.573  1.00  0.00     0.042 A 
HETATM   25  C18 UNL     1       3.626  -0.643  -1.093  1.00  0.00     0.053 A 
HETATM   26 CL1  UNL     1       6.306  -0.452  -1.446  1.00  0.00    -0.084 Cl
ENDBRANCH  17  19
ENDBRANCH   1  17
TORSDOF 2
