REMARK  6 active torsions:
REMARK  status: ('A' for Active; 'I' for Inactive)
REMARK    1  A    between atoms: C2_2  and  O1_3 
REMARK    2  A    between atoms: O1_3  and  C3_4 
REMARK    3  A    between atoms: C3_4  and  C16_21 
REMARK    4  A    between atoms: C4_5  and  C5_6 
REMARK    5  A    between atoms: C7_8  and  N1_9 
REMARK    6  A    between atoms: N1_9  and  C8_10 
ROOT
HETATM    1  C5  UNL     1      -0.902  -0.255  -0.775  1.00  0.00     0.064 A 
HETATM    2  C6  UNL     1       0.227  -0.796  -0.249  1.00  0.00     0.082 A 
HETATM    3  C7  UNL     1       1.470  -0.213  -0.172  1.00  0.00     0.131 A 
HETATM    4  N2  UNL     1       1.489   1.023  -0.695  1.00  0.00    -0.224 NA
HETATM    5  C15 UNL     1       0.433   1.643  -1.236  1.00  0.00     0.235 A 
HETATM    6  N3  UNL     1      -0.732   1.001  -1.267  1.00  0.00    -0.242 NA
ENDROOT
BRANCH   1   7
HETATM    7  C4  UNL     1      -2.180  -0.983  -0.807  1.00  0.00     0.071 C 
HETATM    8  C3  UNL     1      -3.422  -0.656  -0.602  1.00  0.00     0.103 C 
BRANCH   8   9
HETATM    9  O1  UNL     1      -4.398  -1.628  -0.722  1.00  0.00    -0.349 OA
BRANCH   9  10
HETATM   10  C2  UNL     1      -5.523  -1.742   0.096  1.00  0.00     0.171 C 
HETATM   11  C1  UNL     1      -6.220  -3.081  -0.056  1.00  0.00     0.034 C 
ENDBRANCH   9  10
ENDBRANCH   8   9
BRANCH   8  12
HETATM   12  C16 UNL     1      -3.813   0.725  -0.246  1.00  0.00     0.120 C 
HETATM   13  C17 UNL     1      -5.095   1.120  -0.024  1.00  0.00     0.180 A 
HETATM   14  O2  UNL     1      -6.208   2.022   0.305  1.00  0.00    -0.356 OA
HETATM   15  C18 UNL     1      -4.976   2.555   0.382  1.00  0.00     0.192 A 
HETATM   16  C19 UNL     1      -3.880   2.904  -0.582  1.00  0.00     0.211 C 
HETATM   17  O3  UNL     1      -2.934   1.846  -0.097  1.00  0.00    -0.346 OA
ENDBRANCH   8  12
ENDBRANCH   1   7
BRANCH   3  18
HETATM   18  N1  UNL     1       2.561  -0.909   0.406  1.00  0.00    -0.341 N 
HETATM   19  H8  UNL     1       2.351  -1.883   0.755  1.00  0.00     0.167 HD
BRANCH  18  20
HETATM   20  C8  UNL     1       3.872  -0.460   0.568  1.00  0.00     0.035 A 
HETATM   21  C9  UNL     1       4.353   0.789   0.274  1.00  0.00     0.030 A 
HETATM   22  C10 UNL     1       5.638   1.214   0.432  1.00  0.00     0.011 A 
HETATM   23  C11 UNL     1       6.575   0.336   0.933  1.00  0.00    -0.040 A 
HETATM   24  C12 UNL     1       7.997   0.696   1.143  1.00  0.00     0.050 C 
HETATM   25  C13 UNL     1       6.159  -0.942   1.252  1.00  0.00     0.042 A 
HETATM   26 CL1  UNL     1       7.329  -2.073   1.887  1.00  0.00    -0.084 Cl
HETATM   27  C14 UNL     1       4.849  -1.294   1.064  1.00  0.00     0.053 A 
ENDBRANCH  18  20
ENDBRANCH   3  18
TORSDOF 6
