REMARK  2 active torsions:
REMARK  status: ('A' for Active; 'I' for Inactive)
REMARK    1  A    between atoms: C2_2  and  O1_3 
REMARK    2  A    between atoms: O1_3  and  C3_4 
ROOT
HETATM    1  C3  UNL     1       3.231   0.879   0.635  1.00  0.00     0.073 A 
HETATM    2  C4  UNL     1       1.882   1.016   0.887  1.00  0.00     0.074 A 
HETATM    3  C5  UNL     1       0.967   0.008   0.724  1.00  0.00     0.087 A 
HETATM    4  C6  UNL     1       1.372  -1.236   0.281  1.00  0.00     0.072 A 
HETATM    5  C7  UNL     1       0.660  -2.406   0.032  1.00  0.00     0.140 A 
HETATM    6  N1  UNL     1       1.264  -3.517  -0.401  1.00  0.00    -0.224 NA
HETATM    7  C8  UNL     1       2.585  -3.598  -0.630  1.00  0.00     0.236 A 
HETATM    8  N2  UNL     1       3.368  -2.525  -0.423  1.00  0.00    -0.241 NA
HETATM    9  C9  UNL     1       2.732  -1.400   0.019  1.00  0.00     0.077 A 
HETATM   10  C10 UNL     1       3.627  -0.363   0.195  1.00  0.00     0.069 A 
HETATM   11  N3  UNL     1      -0.771  -2.570   0.167  1.00  0.00    -0.374 N 
HETATM   12  C11 UNL     1      -1.462  -2.607  -1.110  1.00  0.00     0.122 C 
HETATM   13  C12 UNL     1      -2.772  -1.918  -0.992  1.00  0.00    -0.002 C 
HETATM   14  C13 UNL     1      -4.158  -2.022  -1.143  1.00  0.00     0.046 C 
HETATM   15  C14 UNL     1      -5.153  -0.910  -0.850  1.00  0.00    -0.025 C 
HETATM   16  C15 UNL     1      -5.396   0.374  -0.412  1.00  0.00    -0.028 C 
HETATM   17  C16 UNL     1      -4.134   1.060  -0.002  1.00  0.00     0.053 C 
HETATM   18  C17 UNL     1      -3.694   2.235  -0.750  1.00  0.00     0.171 C 
HETATM   19  O2  UNL     1      -2.428   2.773  -0.415  1.00  0.00    -0.389 OA
HETATM   20  C18 UNL     1      -1.424   1.802  -0.446  1.00  0.00     0.194 C 
HETATM   21  C19 UNL     1      -1.212   1.148   0.861  1.00  0.00     0.201 C 
HETATM   22  O3  UNL     1      -0.325   0.113   0.963  1.00  0.00    -0.348 OA
HETATM   23  H9  UNL     1      -0.710  -2.596   1.181  1.00  0.00     0.161 HD
ENDROOT
BRANCH   1  24
HETATM   24  O1  UNL     1       3.968   2.024   0.868  1.00  0.00    -0.351 OA
BRANCH  24  25
HETATM   25  C2  UNL     1       5.344   2.035   0.651  1.00  0.00     0.171 C 
HETATM   26  C1  UNL     1       5.764   1.740  -0.763  1.00  0.00     0.034 C 
ENDBRANCH  24  25
ENDBRANCH   1  24
TORSDOF 2
