REMARK  3 active torsions:
REMARK  status: ('A' for Active; 'I' for Inactive)
REMARK    1  A    between atoms: C2_2  and  O1_3 
REMARK    2  A    between atoms: O1_3  and  N1_4 
REMARK    3  A    between atoms: N1_4  and  C3_5 
ROOT
HETATM    1  C3  UNL     1       1.314  -1.129   0.620  1.00  0.00     0.151 C 
HETATM    2  C4  UNL     1       0.535  -1.026  -0.507  1.00  0.00     0.089 C 
HETATM    3  C5  UNL     1      -0.838  -1.035  -0.594  1.00  0.00     0.077 C 
HETATM    4  C6  UNL     1      -1.653  -0.149   0.076  1.00  0.00     0.073 C 
HETATM    5  C7  UNL     1      -2.452   0.724   0.732  1.00  0.00     0.072 C 
HETATM    6  C8  UNL     1      -2.002   1.720   1.607  1.00  0.00     0.056 C 
HETATM    7  C9  UNL     1      -1.368   1.149   2.698  1.00  0.00     0.120 C 
HETATM    8  N2  UNL     1      -0.180   0.633   2.326  1.00  0.00    -0.254 NA
HETATM    9  C10 UNL     1       0.175  -0.640   2.581  1.00  0.00     0.234 C 
HETATM   10  N3  UNL     1       0.697  -1.563   1.727  1.00  0.00    -0.223 NA
HETATM   11  O2  UNL     1      -3.795   0.938   0.787  1.00  0.00    -0.349 OA
HETATM   12  C11 UNL     1      -4.748   0.193   0.110  1.00  0.00     0.201 C 
HETATM   13  C12 UNL     1      -4.450   0.224  -1.395  1.00  0.00     0.197 C 
HETATM   14  O3  UNL     1      -3.173  -0.319  -1.577  1.00  0.00    -0.364 OA
HETATM   15  C13 UNL     1      -3.087  -1.657  -1.185  1.00  0.00     0.344 C 
HETATM   16  O4  UNL     1      -1.648  -1.929  -1.373  1.00  0.00    -0.326 OA
ENDROOT
BRANCH   1  17
HETATM   17  N1  UNL     1       2.666  -0.761   0.451  1.00  0.00    -0.243 N 
HETATM   18  H2  UNL     1       3.316  -0.817   1.280  1.00  0.00     0.196 HD
BRANCH  17  19
HETATM   19  O1  UNL     1       3.016  -0.352  -0.811  1.00  0.00    -0.241 OA
BRANCH  19  20
HETATM   20  C2  UNL     1       4.215   0.283  -1.074  1.00  0.00     0.073 A 
HETATM   21  C1  UNL     1       4.625   1.292  -1.776  1.00  0.00     0.008 A 
HETATM   22  C15 UNL     1       6.017   1.109  -1.370  1.00  0.00     0.036 A 
HETATM   23  C14 UNL     1       5.548  -0.040  -0.570  1.00  0.00     0.071 A 
ENDBRANCH  19  20
ENDBRANCH  17  19
ENDBRANCH   1  17
TORSDOF 3
