REMARK  2 active torsions:
REMARK  status: ('A' for Active; 'I' for Inactive)
REMARK    1  A    between atoms: O1_2  and  C2_3 
REMARK    2  A    between atoms: C8_9  and  C10_11 
ROOT
HETATM    1  C2  UNL     1      -1.141  -1.248  -1.015  1.00  0.00     0.078 A 
HETATM    2  C3  UNL     1      -2.071  -1.138  -2.021  1.00  0.00     0.037 A 
HETATM    3  C4  UNL     1      -2.821  -0.052  -2.332  1.00  0.00     0.005 A 
HETATM    4  C5  UNL     1      -2.534   1.011  -1.470  1.00  0.00     0.030 A 
HETATM    5  C6  UNL     1      -1.614   0.989  -0.429  1.00  0.00     0.040 A 
HETATM    6  C7  UNL     1      -0.919  -0.161  -0.215  1.00  0.00     0.022 A 
HETATM    7  C8  UNL     1       0.133  -0.361   0.852  1.00  0.00     0.073 C 
HETATM    8  C9  UNL     1      -0.206  -1.584   1.623  1.00  0.00     0.034 C 
HETATM    9  C15 UNL     1      -0.068   0.859   1.698  1.00  0.00     0.112 C 
HETATM   10  N1  UNL     1      -1.266   0.734   2.133  1.00  0.00    -0.257 NA
HETATM   11  C16 UNL     1      -1.923   1.646   2.979  1.00  0.00     0.227 C 
HETATM   12  N2  UNL     1      -2.310   2.759   2.524  1.00  0.00    -0.264 NA
HETATM   13  C17 UNL     1      -2.130   3.182   1.178  1.00  0.00     0.272 C 
HETATM   14  N3  UNL     1      -1.604   2.223   0.254  1.00  0.00    -0.371 N 
HETATM   15  H21 UNL     1      -0.755   2.466  -0.293  1.00  0.00     0.161 HD
ENDROOT
BRANCH   7  16
HETATM   16  C10 UNL     1       1.436  -0.383   0.157  1.00  0.00     0.093 C 
HETATM   17  C11 UNL     1       2.576   0.102   0.696  1.00  0.00     0.073 C 
HETATM   18  C12 UNL     1       2.717   0.717   2.030  1.00  0.00     0.079 C 
HETATM   19  O2  UNL     1       3.787   0.050  -0.028  1.00  0.00    -0.351 OA
HETATM   20  C13 UNL     1       3.884  -0.109  -1.407  1.00  0.00     0.202 C 
HETATM   21  C14 UNL     1       2.568  -0.443  -2.028  1.00  0.00     0.202 C 
HETATM   22  O3  UNL     1       1.631  -0.907  -1.112  1.00  0.00    -0.349 OA
ENDBRANCH   7  16
BRANCH   1  23
HETATM   23  O1  UNL     1      -0.462  -2.420  -0.827  1.00  0.00    -0.355 OA
HETATM   24  C1  UNL     1      -0.727  -3.514  -1.679  1.00  0.00     0.210 C 
ENDBRANCH   1  23
TORSDOF 2
