REMARK  3 active torsions:
REMARK  status: ('A' for Active; 'I' for Inactive)
REMARK    1  A    between atoms: O1_2  and  C2_3 
REMARK    2  A    between atoms: C6_7  and  N1_8 
REMARK    3  A    between atoms: C13_16  and  C14_17 
ROOT
HETATM    1  N1  UNL     1       0.858   0.695  -0.228  1.00  0.00    -0.345 N 
HETATM    2  C7  UNL     1      -0.456   0.625  -0.835  1.00  0.00     0.095 C 
HETATM    3  C8  UNL     1      -1.746   0.402  -0.945  1.00  0.00     0.056 C 
HETATM    4  C9  UNL     1      -2.935  -0.059  -0.243  1.00  0.00     0.101 C 
HETATM    5  C10 UNL     1      -3.309  -0.083   1.055  1.00  0.00     0.103 C 
HETATM    6  C11 UNL     1      -2.247   0.500   1.973  1.00  0.00     0.235 C 
HETATM    7  O2  UNL     1      -1.270   1.012   1.185  1.00  0.00    -0.382 OA
HETATM    8  C12 UNL     1      -0.130   1.427   1.808  1.00  0.00     0.199 C 
HETATM    9  C13 UNL     1       0.835   1.868   0.661  1.00  0.00     0.153 C 
HETATM   10  O3  UNL     1      -4.502  -0.574   1.492  1.00  0.00    -0.348 OA
HETATM   11  C15 UNL     1      -5.625  -0.863   0.708  1.00  0.00     0.202 C 
HETATM   12  C16 UNL     1      -5.334  -0.382  -0.691  1.00  0.00     0.202 C 
HETATM   13  O4  UNL     1      -3.965  -0.611  -0.960  1.00  0.00    -0.346 OA
ENDROOT
BRANCH   1  14
HETATM   14  C6  UNL     1       1.860  -0.284  -0.534  1.00  0.00     0.037 A 
HETATM   15  C5  UNL     1       1.499  -1.156  -1.535  1.00  0.00     0.030 A 
HETATM   16  C4  UNL     1       2.482  -2.111  -1.823  1.00  0.00     0.005 A 
HETATM   17  C3  UNL     1       3.692  -2.158  -1.157  1.00  0.00     0.037 A 
HETATM   18  C2  UNL     1       3.974  -1.238  -0.160  1.00  0.00     0.070 A 
HETATM   19  C17 UNL     1       3.032  -0.260   0.175  1.00  0.00     0.066 A 
BRANCH  18  20
HETATM   20  O1  UNL     1       5.154  -1.194   0.572  1.00  0.00    -0.356 OA
HETATM   21  C1  UNL     1       6.162  -2.147   0.299  1.00  0.00     0.210 C 
ENDBRANCH  18  20
ENDBRANCH   1  14
BRANCH   9  22
HETATM   22  C14 UNL     1       0.325   3.023  -0.072  1.00  0.00     0.107 C 
HETATM   23  N2  UNL     1       0.360   4.116   0.612  1.00  0.00    -0.314 NA
HETATM   24  H15 UNL     1       0.056   5.026   0.294  1.00  0.00     0.185 HD
ENDBRANCH   9  22
TORSDOF 3
