REMARK  6 active torsions:
REMARK  status: ('A' for Active; 'I' for Inactive)
REMARK    1  A    between atoms: C2_2  and  C3_4 
REMARK    2  A    between atoms: C4_6  and  C5_7 
REMARK    3  A    between atoms: C9_14  and  C10_15 
REMARK    4  A    between atoms: C10_15  and  C11_16 
REMARK    5  A    between atoms: C11_16  and  N3_17 
REMARK    6  A    between atoms: C14_20  and  N4_21 
ROOT
HETATM    1  C5  UNL     1       2.271   0.554  -0.520  1.00  0.00     0.054 C 
HETATM    2  C6  UNL     1       1.430  -0.440  -0.319  1.00  0.00     0.134 A 
HETATM    3  N1  UNL     1       1.921  -1.707  -0.754  1.00  0.00    -0.224 NA
HETATM    4  C7  UNL     1       1.146  -2.753  -0.599  1.00  0.00     0.239 A 
HETATM    5  N2  UNL     1      -0.146  -2.633  -0.015  1.00  0.00    -0.201 NA
HETATM    6  C8  UNL     1      -0.585  -1.484   0.378  1.00  0.00     0.256 A 
HETATM    7  O1  UNL     1      -1.849  -1.762   0.880  1.00  0.00    -0.282 OA
HETATM    8  C9  UNL     1      -2.916  -1.018   1.350  1.00  0.00     0.058 C 
HETATM    9  C12 UNL     1      -3.054   0.249   1.702  1.00  0.00     0.035 C 
HETATM   10  C13 UNL     1      -2.269   1.457   1.793  1.00  0.00     0.028 C 
HETATM   11  C14 UNL     1      -1.063   1.637   1.288  1.00  0.00     0.021 C 
HETATM   12  C15 UNL     1       0.099   1.149   0.545  1.00  0.00     0.190 C 
HETATM   13  N5  UNL     1       0.153  -0.248   0.272  1.00  0.00    -0.290 N 
ENDROOT
BRANCH   1  14
HETATM   14  C4  UNL     1       3.576   0.311  -1.140  1.00  0.00     0.048 C 
HETATM   15  C3  UNL     1       4.547   1.193  -1.422  1.00  0.00     0.137 C 
HETATM   16  F1  UNL     1       4.172   2.424  -1.050  1.00  0.00    -0.204 F 
BRANCH  15  17
HETATM   17  C2  UNL     1       5.798   0.784  -2.045  1.00  0.00     0.063 C 
HETATM   18  C1  UNL     1       6.609   1.798  -2.233  1.00  0.00     0.040 C 
HETATM   19 CL1  UNL     1       6.010  -0.912  -2.429  1.00  0.00    -0.082 Cl
ENDBRANCH  15  17
ENDBRANCH   1  14
BRANCH  11  20
HETATM   20  N4  UNL     1      -0.730   2.995   1.652  1.00  0.00    -0.401 N 
HETATM   21  H14 UNL     1      -0.581   4.013   1.893  1.00  0.00     0.156 HD
HETATM   22  H15 UNL     1      -0.376   3.915   1.941  1.00  0.00     0.156 HD
ENDBRANCH  11  20
BRANCH   8  23
HETATM   23  C10 UNL     1      -4.127  -1.878   1.459  1.00  0.00     0.084 C 
BRANCH  23  24
HETATM   24  C11 UNL     1      -4.527  -2.440   0.109  1.00  0.00     0.117 C 
BRANCH  24  25
HETATM   25  N3  UNL     1      -4.831  -1.406  -0.845  1.00  0.00    -0.430 N 
HETATM   26  H10 UNL     1      -4.159  -1.290  -1.611  1.00  0.00     0.149 HD
HETATM   27  H11 UNL     1      -5.168  -0.524  -0.399  1.00  0.00     0.149 HD
ENDBRANCH  24  25
ENDBRANCH  23  24
ENDBRANCH   8  23
TORSDOF 6
