REMARK  2 active torsions:
REMARK  status: ('A' for Active; 'I' for Inactive)
REMARK    1  A    between atoms: C7_7  and  N1_8 
REMARK    2  A    between atoms: N1_8  and  C8_9 
ROOT
HETATM    1  C1  UNL     1       6.527   3.365  -0.311  1.00  0.00     0.018 C 
HETATM    2  C2  UNL     1       5.962   2.312  -0.200  1.00  0.00    -0.078 C 
HETATM    3  C3  UNL     1       5.298   1.060  -0.047  1.00  0.00     0.019 A 
HETATM    4  C4  UNL     1       6.028  -0.093   0.140  1.00  0.00     0.021 A 
HETATM    5  C5  UNL     1       5.336  -1.269   0.281  1.00  0.00     0.004 A 
HETATM    6  C6  UNL     1       3.961  -1.271   0.233  1.00  0.00     0.029 A 
HETATM    7  C7  UNL     1       3.174  -0.161   0.049  1.00  0.00     0.035 A 
HETATM    8  C19 UNL     1       3.925   0.986  -0.085  1.00  0.00     0.050 A 
ENDROOT
BRANCH   7   9
HETATM    9  N1  UNL     1       1.776  -0.202  -0.001  1.00  0.00    -0.340 N 
HETATM   10  H5  UNL     1       1.388   0.759  -0.030  1.00  0.00     0.167 HD
BRANCH   9  11
HETATM   11  C8  UNL     1       0.939  -1.331  -0.014  1.00  0.00     0.142 A 
HETATM   12  N2  UNL     1       1.340  -2.605  -0.003  1.00  0.00    -0.224 NA
HETATM   13  C9  UNL     1       0.499  -3.643  -0.016  1.00  0.00     0.236 A 
HETATM   14  N3  UNL     1      -0.836  -3.495  -0.043  1.00  0.00    -0.241 NA
HETATM   15  C10 UNL     1      -1.304  -2.237  -0.055  1.00  0.00     0.075 A 
HETATM   16  C11 UNL     1      -2.676  -2.115  -0.081  1.00  0.00     0.072 A 
HETATM   17  C15 UNL     1      -0.429  -1.173  -0.041  1.00  0.00     0.042 A 
HETATM   18  C12 UNL     1      -3.245  -0.876  -0.095  1.00  0.00     0.107 A 
HETATM   19  C13 UNL     1      -2.428   0.241  -0.082  1.00  0.00     0.103 A 
HETATM   20  O3  UNL     1      -4.635  -1.022  -0.120  1.00  0.00    -0.323 OA
HETATM   21  C14 UNL     1      -1.065   0.047  -0.056  1.00  0.00     0.057 A 
HETATM   22  O1  UNL     1      -2.683   1.606  -0.089  1.00  0.00    -0.346 OA
HETATM   23  C16 UNL     1      -3.754   2.359  -0.578  1.00  0.00     0.202 C 
HETATM   24  C17 UNL     1      -5.069   2.136   0.083  1.00  0.00     0.197 C 
HETATM   25  O2  UNL     1      -5.164   1.024   0.882  1.00  0.00    -0.364 OA
HETATM   26  C18 UNL     1      -5.690  -0.097   0.199  1.00  0.00     0.345 C 
ENDBRANCH   9  11
ENDBRANCH   7   9
TORSDOF 2
