REMARK  2 active torsions:
REMARK  status: ('A' for Active; 'I' for Inactive)
REMARK    1  A    between atoms: C2_2  and  O1_3 
REMARK    2  A    between atoms: O1_3  and  C3_4 
ROOT
HETATM    1  C3  UNL     1       1.099   0.189  -0.370  1.00  0.00     0.106 C 
HETATM    2  C4  UNL     1       0.231  -0.665  -0.740  1.00  0.00     0.071 C 
HETATM    3  C5  UNL     1      -0.461  -1.881  -0.881  1.00  0.00     0.082 A 
HETATM    4  N1  UNL     1       0.243  -2.945  -0.808  1.00  0.00    -0.243 NA
HETATM    5  C6  UNL     1      -0.681  -4.046  -0.979  1.00  0.00     0.230 A 
HETATM    6  N2  UNL     1      -1.878  -3.616  -1.145  1.00  0.00    -0.251 NA
HETATM    7  C7  UNL     1      -1.880  -2.191  -1.104  1.00  0.00     0.262 A 
HETATM    8  N3  UNL     1      -2.655  -1.608  -0.036  1.00  0.00    -0.356 N 
HETATM    9  C8  UNL     1      -3.272  -0.333  -0.315  1.00  0.00     0.125 C 
HETATM   10  C9  UNL     1      -3.254   0.669   0.584  1.00  0.00     0.089 C 
HETATM   11  C10 UNL     1      -3.359   0.198   1.961  1.00  0.00     0.036 C 
HETATM   12  C11 UNL     1      -3.455  -1.093   2.164  1.00  0.00    -0.004 C 
HETATM   13  C12 UNL     1      -2.893  -2.134   1.269  1.00  0.00     0.152 C 
HETATM   14  O2  UNL     1      -3.139   1.959   0.047  1.00  0.00    -0.321 OA
HETATM   15  C13 UNL     1      -2.014   2.254  -0.766  1.00  0.00     0.145 C 
HETATM   16  C14 UNL     1      -0.749   2.384  -0.414  1.00  0.00     0.064 C 
HETATM   17  C15 UNL     1       0.683   2.610  -0.520  1.00  0.00     0.106 C 
HETATM   18  C16 UNL     1       1.472   1.552  -0.493  1.00  0.00     0.135 C 
HETATM   19  O3  UNL     1       2.818   1.849  -0.601  1.00  0.00    -0.344 OA
HETATM   20  C17 UNL     1       3.266   3.009  -1.286  1.00  0.00     0.202 C 
HETATM   21  C18 UNL     1       2.545   4.196  -0.689  1.00  0.00     0.202 C 
HETATM   22  O4  UNL     1       1.163   3.894  -0.643  1.00  0.00    -0.346 OA
ENDROOT
BRANCH   1  23
HETATM   23  O1  UNL     1       1.745  -0.748   0.355  1.00  0.00    -0.348 OA
BRANCH  23  24
HETATM   24  C2  UNL     1       3.121  -0.819   0.618  1.00  0.00     0.171 C 
HETATM   25  C1  UNL     1       3.336  -2.058   1.474  1.00  0.00     0.034 C 
ENDBRANCH  23  24
ENDBRANCH   1  23
TORSDOF 2
