REMARK  8 active torsions:
REMARK  status: ('A' for Active; 'I' for Inactive)
REMARK    1  A    between atoms: C2_2  and  O1_3 
REMARK    2  A    between atoms: O1_3  and  C3_4 
REMARK    3  A    between atoms: C5_6  and  C6_7 
REMARK    4  A    between atoms: C6_7  and  C7_8 
REMARK    5  A    between atoms: C7_8  and  O2_9 
REMARK    6  A    between atoms: C9_11  and  N1_12 
REMARK    7  A    between atoms: C12_15  and  C13_16 
REMARK    8  A    between atoms: C13_16  and  O3_17 
ROOT
HETATM    1  C3  UNL     1       3.254   1.092   0.324  1.00  0.00     0.071 A 
HETATM    2  C4  UNL     1       2.419   0.044   0.009  1.00  0.00     0.045 A 
HETATM    3  C5  UNL     1       1.052   0.002   0.319  1.00  0.00    -0.037 A 
HETATM    4  C8  UNL     1       0.648   1.126   0.970  1.00  0.00     0.047 A 
HETATM    5  C9  UNL     1      -0.680   1.107   1.283  1.00  0.00     0.163 A 
HETATM    6  N3  UNL     1      -1.201   2.189   1.947  1.00  0.00    -0.222 NA
HETATM    7  C16 UNL     1      -0.433   3.256   2.290  1.00  0.00     0.236 A 
HETATM    8  N4  UNL     1       0.876   3.272   1.978  1.00  0.00    -0.241 NA
HETATM    9  C17 UNL     1       1.403   2.219   1.327  1.00  0.00     0.075 A 
HETATM   10  C18 UNL     1       2.723   2.197   0.998  1.00  0.00     0.069 A 
ENDROOT
BRANCH   5  11
HETATM   11  N1  UNL     1      -1.751   0.199   1.062  1.00  0.00    -0.247 N 
HETATM   12  C10 UNL     1      -2.284  -0.985   1.680  1.00  0.00     0.119 A 
HETATM   13  C11 UNL     1      -3.376  -1.573   1.248  1.00  0.00     0.030 A 
HETATM   14  C12 UNL     1      -4.114  -1.057   0.112  1.00  0.00    -0.016 A 
HETATM   15  C14 UNL     1      -3.695   0.021  -0.511  1.00  0.00     0.119 A 
HETATM   16  N2  UNL     1      -2.498   0.695  -0.064  1.00  0.00    -0.299 N 
HETATM   17  C15 UNL     1      -2.202   1.872  -0.885  1.00  0.00     0.177 C 
BRANCH  14  18
HETATM   18  C13 UNL     1      -5.344  -1.810  -0.291  1.00  0.00     0.204 C 
BRANCH  18  19
HETATM   19  O3  UNL     1      -5.945  -1.183  -1.408  1.00  0.00    -0.396 OA
HETATM   20  H16 UNL     1      -6.312  -0.315  -1.047  1.00  0.00     0.209 HD
ENDBRANCH  18  19
ENDBRANCH  14  18
ENDBRANCH   5  11
BRANCH   3  21
HETATM   21  C6  UNL     1       0.235  -1.164  -0.024  1.00  0.00     0.066 C 
BRANCH  21  22
HETATM   22  C7  UNL     1       1.107  -2.041  -0.972  1.00  0.00     0.168 C 
BRANCH  22  23
HETATM   23  O2  UNL     1       1.446  -1.367  -2.113  1.00  0.00    -0.401 OA
HETATM   24  H11 UNL     1       0.993  -1.694  -2.940  1.00  0.00     0.209 HD
ENDBRANCH  22  23
ENDBRANCH  21  22
ENDBRANCH   3  21
BRANCH   1  25
HETATM   25  O1  UNL     1       4.603   1.203   0.053  1.00  0.00    -0.351 OA
BRANCH  25  26
HETATM   26  C2  UNL     1       5.417   0.285  -0.595  1.00  0.00     0.171 C 
HETATM   27  C1  UNL     1       5.433  -1.008   0.155  1.00  0.00     0.034 C 
ENDBRANCH  25  26
ENDBRANCH   1  25
TORSDOF 8
