REMARK  6 active torsions:
REMARK  status: ('A' for Active; 'I' for Inactive)
REMARK    1  A    between atoms: C3_3  and  C4_4 
REMARK    2  A    between atoms: C7_7  and  C8_8 
REMARK    3  A    between atoms: C8_8  and  N1_9 
REMARK    4  A    between atoms: N1_9  and  C9_10 
REMARK    5  A    between atoms: C16_22  and  O4_23 
REMARK    6  A    between atoms: O4_23  and  C17_24 
ROOT
HETATM    1  C1  UNL     1       7.654  -1.058   3.061  1.00  0.00     0.017 C 
HETATM    2  C2  UNL     1       6.556  -0.760   2.711  1.00  0.00    -0.089 C 
HETATM    3  C3  UNL     1       5.229  -0.400   2.267  1.00  0.00     0.075 C 
ENDROOT
BRANCH   3   4
HETATM    4  C4  UNL     1       5.055  -0.250   0.968  1.00  0.00    -0.028 A 
HETATM    5  C5  UNL     1       6.006  -0.392  -0.104  1.00  0.00     0.012 A 
HETATM    6  C6  UNL     1       5.422  -0.153  -1.271  1.00  0.00     0.010 A 
HETATM    7  C7  UNL     1       4.008   0.168  -0.997  1.00  0.00    -0.040 A 
HETATM    8  C20 UNL     1       3.807   0.109   0.307  1.00  0.00     0.021 A 
BRANCH   7   9
HETATM    9  C8  UNL     1       3.180   0.464  -2.184  1.00  0.00     0.160 C 
BRANCH   9  10
HETATM   10  N1  UNL     1       1.792   0.757  -1.854  1.00  0.00    -0.370 N 
HETATM   11  H7  UNL     1       1.540   1.755  -2.123  1.00  0.00     0.161 HD
BRANCH  10  12
HETATM   12  C9  UNL     1       0.946  -0.214  -1.252  1.00  0.00     0.139 A 
HETATM   13  N2  UNL     1       1.522  -1.401  -1.034  1.00  0.00    -0.224 NA
HETATM   14  C10 UNL     1       0.915  -2.447  -0.491  1.00  0.00     0.235 A 
HETATM   15  N3  UNL     1      -0.349  -2.272  -0.154  1.00  0.00    -0.241 NA
HETATM   16  C11 UNL     1      -1.019  -1.138  -0.325  1.00  0.00     0.075 A 
HETATM   17  C12 UNL     1      -0.372  -0.066  -0.888  1.00  0.00     0.060 A 
HETATM   18  C19 UNL     1      -2.282  -1.196   0.092  1.00  0.00     0.068 C 
HETATM   19  C13 UNL     1      -0.826   1.147  -1.147  1.00  0.00     0.152 C 
HETATM   20  O1  UNL     1      -1.998   1.799  -0.995  1.00  0.00    -0.360 OA
HETATM   21  C14 UNL     1      -2.303   2.933  -0.204  1.00  0.00     0.203 C 
HETATM   22  C15 UNL     1      -3.851   2.825  -0.081  1.00  0.00     0.236 C 
HETATM   23  O2  UNL     1      -4.094   1.564   0.551  1.00  0.00    -0.236 OA
HETATM   24  O3  UNL     1      -3.829   0.611  -0.338  1.00  0.00    -0.204 OA
HETATM   25  C16 UNL     1      -3.623  -0.614   0.317  1.00  0.00     0.322 C 
BRANCH  25  26
HETATM   26  O4  UNL     1      -4.628  -1.440  -0.164  1.00  0.00    -0.355 OA
BRANCH  26  27
HETATM   27  C17 UNL     1      -5.565  -1.799   0.779  1.00  0.00     0.167 C 
HETATM   28  C18 UNL     1      -6.272  -0.590   1.325  1.00  0.00     0.033 C 
ENDBRANCH  26  27
ENDBRANCH  25  26
ENDBRANCH  10  12
ENDBRANCH   9  10
ENDBRANCH   7   9
ENDBRANCH   3   4
TORSDOF 6
