REMARK  2 active torsions:
REMARK  status: ('A' for Active; 'I' for Inactive)
REMARK    1  A    between atoms: C9_9  and  O1_10 
REMARK    2  A    between atoms: O1_10  and  C10_11 
ROOT
HETATM    1  C1  UNL     1      -6.197   1.187  -0.250  1.00  0.00     0.018 C 
HETATM    2  C2  UNL     1      -5.006   1.042  -0.150  1.00  0.00    -0.078 C 
HETATM    3  C3  UNL     1      -3.590   0.844  -0.025  1.00  0.00     0.015 C 
HETATM    4  C4  UNL     1      -2.960   1.768  -0.771  1.00  0.00    -0.001 C 
HETATM    5  C5  UNL     1      -1.795   2.505  -1.365  1.00  0.00     0.022 C 
HETATM    6  C6  UNL     1      -0.452   2.761  -1.530  1.00  0.00    -0.001 C 
HETATM    7  C7  UNL     1       0.426   1.939  -0.739  1.00  0.00     0.009 C 
HETATM    8  C8  UNL     1       1.377   0.936  -1.310  1.00  0.00     0.047 C 
HETATM    9  C9  UNL     1       1.786   0.135  -0.069  1.00  0.00     0.098 C 
HETATM   10  C12 UNL     1       0.358  -0.138   0.471  1.00  0.00     0.013 C 
HETATM   11  C13 UNL     1       0.320  -0.356   1.782  1.00  0.00     0.006 C 
HETATM   12  C14 UNL     1       0.299  -1.843   1.476  1.00  0.00     0.181 C 
HETATM   13  C15 UNL     1       1.332  -2.129   0.398  1.00  0.00     0.063 C 
HETATM   14  C16 UNL     1       2.190  -1.264  -0.252  1.00  0.00     0.044 C 
HETATM   15  N1  UNL     1       1.216  -3.555   0.183  1.00  0.00    -0.245 NA
HETATM   16  C17 UNL     1       0.065  -4.034  -0.240  1.00  0.00     0.223 C 
HETATM   17  N2  UNL     1      -1.041  -3.207   0.185  1.00  0.00    -0.291 N 
HETATM   18  N3  UNL     1      -1.073  -1.998   0.962  1.00  0.00    -0.288 N 
HETATM   19  C18 UNL     1      -2.346  -1.361   0.977  1.00  0.00     0.113 C 
HETATM   20  C19 UNL     1      -3.224  -0.417   0.660  1.00  0.00     0.039 C 
HETATM   21  H19 UNL     1      -1.969  -3.612  -0.167  1.00  0.00     0.188 HD
ENDROOT
BRANCH   9  22
HETATM   22  O1  UNL     1       2.433   0.853   0.880  1.00  0.00    -0.372 OA
BRANCH  22  23
HETATM   23  C10 UNL     1       3.603   1.441   0.495  1.00  0.00     0.165 C 
HETATM   24  C11 UNL     1       4.650   0.469   0.022  1.00  0.00     0.033 C 
ENDBRANCH  22  23
ENDBRANCH   9  22
TORSDOF 2
