REMARK  6 active torsions:
REMARK  status: ('A' for Active; 'I' for Inactive)
REMARK    1  A    between atoms: C7_7  and  N1_8 
REMARK    2  A    between atoms: N1_8  and  C8_9 
REMARK    3  A    between atoms: C9_10  and  C11_13 
REMARK    4  A    between atoms: C11_13  and  C12_14 
REMARK    5  A    between atoms: C15_17  and  O1_18 
REMARK    6  A    between atoms: O1_18  and  C16_19 
ROOT
HETATM    1  C1  UNL     1      -5.319  -4.502  -0.645  1.00  0.00     0.018 C 
HETATM    2  C2  UNL     1      -4.163  -4.035  -0.833  1.00  0.00    -0.078 C 
HETATM    3  C3  UNL     1      -2.875  -3.494  -1.068  1.00  0.00     0.019 A 
HETATM    4  C4  UNL     1      -2.170  -3.988  -2.138  1.00  0.00     0.021 A 
HETATM    5  C5  UNL     1      -0.955  -3.492  -2.448  1.00  0.00     0.004 A 
HETATM    6  C6  UNL     1      -0.511  -2.515  -1.629  1.00  0.00     0.029 A 
HETATM    7  C7  UNL     1      -1.064  -1.870  -0.491  1.00  0.00     0.029 A 
HETATM    8  C20 UNL     1      -2.313  -2.525  -0.349  1.00  0.00     0.049 A 
ENDROOT
BRANCH   7   9
HETATM    9  N1  UNL     1      -0.483  -0.827   0.201  1.00  0.00    -0.384 N 
HETATM   10  H5  UNL     1       0.513  -0.638  -0.073  1.00  0.00     0.160 HD
BRANCH   9  11
HETATM   11  C8  UNL     1      -1.072  -0.039   1.245  1.00  0.00     0.103 A 
HETATM   12  C9  UNL     1      -2.405   0.463   0.892  1.00  0.00     0.022 A 
HETATM   13  N2  UNL     1      -1.415   1.240   0.629  1.00  0.00     0.000 N 
HETATM   14  C10 UNL     1      -0.461   2.125   0.214  1.00  0.00     0.048 A 
HETATM   15  C11 UNL     1      -1.580   1.572   0.133  1.00  0.00     0.028 A 
HETATM   16  C12 UNL     1      -0.404   1.428   1.044  1.00  0.00     0.053 A 
HETATM   17  C15 UNL     1       0.749   2.639   0.398  1.00  0.00     0.093 A 
HETATM   18  C14 UNL     1       1.652   2.438   1.207  1.00  0.00     0.129 A 
HETATM   19  C13 UNL     1       0.747   1.411   1.796  1.00  0.00     0.094 A 
HETATM   20  O2  UNL     1       2.778   2.408   1.952  1.00  0.00    -0.344 OA
HETATM   21  O3  UNL     1       0.928   0.508   2.914  1.00  0.00    -0.349 OA
HETATM   22  C19 UNL     1       2.340   0.171   2.936  1.00  0.00     0.202 C 
HETATM   23  C18 UNL     1       3.231   1.289   2.623  1.00  0.00     0.202 C 
BRANCH  17  24
HETATM   24  O1  UNL     1       1.079   3.642  -0.559  1.00  0.00    -0.352 OA
BRANCH  24  25
HETATM   25  C16 UNL     1       1.734   3.178  -1.681  1.00  0.00     0.171 C 
HETATM   26  C17 UNL     1       3.084   2.616  -1.555  1.00  0.00     0.034 C 
ENDBRANCH  24  25
ENDBRANCH  17  24
ENDBRANCH   9  11
ENDBRANCH   7   9
TORSDOF 6
