REMARK  4 active torsions:
REMARK  status: ('A' for Active; 'I' for Inactive)
REMARK    1  A    between atoms: C2_2  and  O1_3 
REMARK    2  A    between atoms: O1_3  and  C3_4 
REMARK    3  A    between atoms: C7_10  and  N3_11 
REMARK    4  A    between atoms: N3_11  and  C8_12 
ROOT
HETATM    1  C3  UNL     1       3.296  -0.856  -0.309  1.00  0.00     0.107 A 
HETATM    2  C4  UNL     1       2.663  -0.322  -1.404  1.00  0.00     0.072 A 
HETATM    3  C5  UNL     1       1.344   0.046  -1.467  1.00  0.00     0.077 A 
HETATM    4  N1  UNL     1       0.762   0.565  -2.556  1.00  0.00    -0.241 NA
HETATM    5  C6  UNL     1      -0.537   0.907  -2.556  1.00  0.00     0.236 A 
HETATM    6  N2  UNL     1      -1.263   0.725  -1.445  1.00  0.00    -0.223 NA
HETATM    7  C7  UNL     1      -0.768   0.214  -0.313  1.00  0.00     0.144 A 
HETATM    8  C15 UNL     1       0.558  -0.123  -0.351  1.00  0.00     0.075 A 
HETATM    9  C16 UNL     1       1.117  -0.653   0.789  1.00  0.00     0.121 A 
HETATM   10  C17 UNL     1       2.457  -1.004   0.788  1.00  0.00     0.136 A 
HETATM   11  O2  UNL     1       2.962  -1.532   1.966  1.00  0.00    -0.344 OA
HETATM   12  C18 UNL     1       2.400  -1.350   3.247  1.00  0.00     0.202 C 
HETATM   13  C19 UNL     1       0.927  -1.114   3.219  1.00  0.00     0.202 C 
HETATM   14  O3  UNL     1       0.423  -0.859   1.942  1.00  0.00    -0.345 OA
ENDROOT
BRANCH   7  15
HETATM   15  N3  UNL     1      -1.646   0.080   0.787  1.00  0.00    -0.340 N 
HETATM   16  H8  UNL     1      -1.629  -0.212   1.777  1.00  0.00     0.167 HD
BRANCH  15  17
HETATM   17  C8  UNL     1      -3.024   0.413   0.623  1.00  0.00     0.034 A 
HETATM   18  C9  UNL     1      -3.847   1.035   1.572  1.00  0.00     0.029 A 
HETATM   19  C10 UNL     1      -5.177   1.324   1.390  1.00  0.00     0.003 A 
HETATM   20  C11 UNL     1      -5.770   0.988   0.194  1.00  0.00     0.007 A 
HETATM   21  C12 UNL     1      -5.011   0.372  -0.780  1.00  0.00    -0.060 A 
HETATM   22  C13 UNL     1      -5.768   0.063  -2.021  1.00  0.00     0.048 C 
HETATM   23  C14 UNL     1      -3.683   0.101  -0.555  1.00  0.00     0.036 A 
ENDBRANCH  15  17
ENDBRANCH   7  15
BRANCH   1  24
HETATM   24  O1  UNL     1       4.588  -1.238  -0.178  1.00  0.00    -0.348 OA
BRANCH  24  25
HETATM   25  C2  UNL     1       5.652  -1.208  -1.053  1.00  0.00     0.171 C 
HETATM   26  C1  UNL     1       6.091   0.128  -1.544  1.00  0.00     0.034 C 
ENDBRANCH  24  25
ENDBRANCH   1  24
TORSDOF 4
