REMARK  3 active torsions:
REMARK  status: ('A' for Active; 'I' for Inactive)
REMARK    1  A    between atoms: C2_2  and  O1_3 
REMARK    2  A    between atoms: O1_3  and  C3_4 
REMARK    3  A    between atoms: C5_6  and  C6_7 
ROOT
HETATM    1  C6  UNL     1      -0.131  -1.431  -0.387  1.00  0.00     0.141 C 
HETATM    2  N1  UNL     1      -0.715  -2.358  -0.970  1.00  0.00    -0.223 NA
HETATM    3  C7  UNL     1      -0.556  -2.898  -2.259  1.00  0.00     0.246 C 
HETATM    4  N2  UNL     1      -1.756  -2.589  -2.793  1.00  0.00    -0.191 NA
HETATM    5  C8  UNL     1      -2.632  -1.931  -2.016  1.00  0.00     0.043 C 
HETATM    6  C9  UNL     1      -3.340  -1.389  -1.361  1.00  0.00    -0.016 C 
HETATM    7  C10 UNL     1      -4.194  -0.711  -0.541  1.00  0.00     0.131 A 
HETATM    8  C11 UNL     1      -5.263  -0.174  -0.159  1.00  0.00     0.047 A 
HETATM    9  C12 UNL     1      -5.170   0.420   1.157  1.00  0.00     0.006 A 
HETATM   10  C13 UNL     1      -4.091   0.413   1.898  1.00  0.00     0.039 A 
HETATM   11  C14 UNL     1      -2.899  -0.227   1.391  1.00  0.00     0.092 A 
HETATM   12  C15 UNL     1      -1.670  -0.546   1.583  1.00  0.00     0.127 C 
HETATM   13  N3  UNL     1      -0.578  -1.208   0.965  1.00  0.00    -0.347 N 
HETATM   14  O2  UNL     1      -2.992  -0.789   0.144  1.00  0.00    -0.300 OA
HETATM   15  H12 UNL     1       0.078  -1.653   1.640  1.00  0.00     0.167 HD
ENDROOT
BRANCH   1  16
HETATM   16  C5  UNL     1       0.941  -0.432  -0.613  1.00  0.00     0.047 A 
HETATM   17  C4  UNL     1       1.597   0.651   0.127  1.00  0.00     0.050 A 
HETATM   18  C3  UNL     1       2.509   1.190  -0.636  1.00  0.00     0.053 A 
HETATM   19  C17 UNL     1       2.580   0.548  -1.965  1.00  0.00     0.135 A 
HETATM   20  C16 UNL     1       1.516  -0.488  -1.829  1.00  0.00     0.114 A 
HETATM   21  F1  UNL     1       1.421  -1.208  -2.983  1.00  0.00    -0.209 F 
BRANCH  18  22
HETATM   22  O1  UNL     1       3.167   2.242   0.044  1.00  0.00    -0.355 OA
BRANCH  22  23
HETATM   23  C2  UNL     1       4.255   1.856   0.892  1.00  0.00     0.170 C 
HETATM   24  C1  UNL     1       4.718   2.956   1.785  1.00  0.00     0.034 C 
ENDBRANCH  22  23
ENDBRANCH  18  22
ENDBRANCH   1  16
TORSDOF 3
