REMARK  4 active torsions:
REMARK  status: ('A' for Active; 'I' for Inactive)
REMARK    1  A    between atoms: C2_2  and  O1_3 
REMARK    2  A    between atoms: O1_3  and  C3_4 
REMARK    3  A    between atoms: C7_10  and  N3_11 
REMARK    4  A    between atoms: N3_11  and  C8_12 
ROOT
HETATM    1  C3  UNL     1       2.949   0.042  -0.415  1.00  0.00     0.107 A 
HETATM    2  C4  UNL     1       2.436   1.307  -0.612  1.00  0.00     0.072 A 
HETATM    3  C5  UNL     1       1.082   1.437  -0.571  1.00  0.00     0.077 A 
HETATM    4  N1  UNL     1       0.538   2.639  -0.756  1.00  0.00    -0.241 NA
HETATM    5  C6  UNL     1      -0.793   2.783  -0.720  1.00  0.00     0.236 A 
HETATM    6  N2  UNL     1      -1.618   1.750  -0.502  1.00  0.00    -0.223 NA
HETATM    7  C7  UNL     1      -1.137   0.514  -0.308  1.00  0.00     0.144 A 
HETATM    8  C14 UNL     1       0.222   0.387  -0.348  1.00  0.00     0.075 A 
HETATM    9  C15 UNL     1       0.751  -0.865  -0.154  1.00  0.00     0.121 A 
HETATM   10  C16 UNL     1       2.114  -1.033  -0.189  1.00  0.00     0.136 A 
HETATM   11  O2  UNL     1       2.688  -2.289   0.003  1.00  0.00    -0.344 OA
HETATM   12  C17 UNL     1       1.915  -3.467   0.120  1.00  0.00     0.202 C 
HETATM   13  C18 UNL     1       0.496  -3.239  -0.375  1.00  0.00     0.202 C 
HETATM   14  O3  UNL     1      -0.003  -1.996   0.079  1.00  0.00    -0.345 OA
ENDROOT
BRANCH   7  15
HETATM   15  N3  UNL     1      -2.079  -0.522  -0.088  1.00  0.00    -0.340 N 
HETATM   16  H8  UNL     1      -2.113  -1.545   0.052  1.00  0.00     0.167 HD
BRANCH  15  17
HETATM   17  C8  UNL     1      -3.467  -0.200  -0.005  1.00  0.00     0.035 A 
HETATM   18  C9  UNL     1      -4.540  -0.956  -0.503  1.00  0.00     0.032 A 
HETATM   19  C10 UNL     1      -5.861  -0.624  -0.389  1.00  0.00     0.046 A 
HETATM   20  C11 UNL     1      -6.202   0.542   0.264  1.00  0.00     0.138 A 
HETATM   21  F1  UNL     1      -7.519   0.802   0.337  1.00  0.00    -0.204 F 
HETATM   22  C12 UNL     1      -5.197   1.333   0.779  1.00  0.00     0.074 A 
HETATM   23 CL1  UNL     1      -5.754   2.779   1.580  1.00  0.00    -0.081 Cl
HETATM   24  C13 UNL     1      -3.877   0.954   0.638  1.00  0.00     0.056 A 
ENDBRANCH  15  17
ENDBRANCH   7  15
BRANCH   1  25
HETATM   25  O1  UNL     1       4.317  -0.183  -0.440  1.00  0.00    -0.348 OA
BRANCH  25  26
HETATM   26  C2  UNL     1       5.304   0.775  -0.653  1.00  0.00     0.171 C 
HETATM   27  C1  UNL     1       5.343   1.894   0.337  1.00  0.00     0.034 C 
ENDBRANCH  25  26
ENDBRANCH   1  25
TORSDOF 4
