REMARK  3 active torsions:
REMARK  status: ('A' for Active; 'I' for Inactive)
REMARK    1  A    between atoms: C6_10  and  N3_11 
REMARK    2  A    between atoms: N3_11  and  C7_12 
REMARK    3  A    between atoms: C13_20  and  C14_21 
ROOT
HETATM    1  C1  UNL     1      -3.056   1.598  -1.212  1.00  0.00     0.046 C 
HETATM    2  C2  UNL     1      -2.874   0.122  -1.316  1.00  0.00     0.175 C 
HETATM    3  O1  UNL     1      -3.949  -0.533  -0.566  1.00  0.00    -0.300 OA
HETATM    4  C3  UNL     1      -3.533  -1.252   0.358  1.00  0.00     0.005 C 
HETATM    5  P1  UNL     1      -3.082  -1.981   1.303  1.00  0.00     0.005 P 
HETATM    6  C4  UNL     1      -2.168  -3.369   3.115  1.00  0.00     0.068 C 
HETATM    7  N1  UNL     1      -0.855  -3.365   2.737  1.00  0.00    -0.292 NA
HETATM    8  C5  UNL     1      -0.516  -2.626   1.518  1.00  0.00     0.378 C 
HETATM    9  N2  UNL     1      -0.973  -1.389   1.329  1.00  0.00    -0.246 NA
HETATM   10  C6  UNL     1      -0.630  -0.723   0.109  1.00  0.00     0.136 C 
HETATM   11  C13 UNL     1      -1.508  -0.211  -0.779  1.00  0.00     0.052 C 
HETATM   12  H5  UNL     1      -2.916  -2.267   1.673  1.00  0.00     0.077 HD
ENDROOT
BRANCH  10  13
HETATM   13  N3  UNL     1       0.758  -0.763   0.064  1.00  0.00    -0.341 N 
HETATM   14  H8  UNL     1       0.864  -1.367  -0.800  1.00  0.00     0.167 HD
BRANCH  13  15
HETATM   15  C7  UNL     1       1.759  -0.231   0.883  1.00  0.00     0.035 A 
HETATM   16  C8  UNL     1       2.431  -1.297   1.520  1.00  0.00     0.032 A 
HETATM   17  C9  UNL     1       3.489  -0.992   2.388  1.00  0.00     0.046 A 
HETATM   18  C10 UNL     1       3.893   0.282   2.642  1.00  0.00     0.138 A 
HETATM   19  F1  UNL     1       4.909   0.642   3.468  1.00  0.00    -0.204 F 
HETATM   20  C11 UNL     1       3.238   1.339   2.021  1.00  0.00     0.074 A 
HETATM   21 CL1  UNL     1       3.633   3.027   2.241  1.00  0.00    -0.081 Cl
HETATM   22  C12 UNL     1       2.219   1.027   1.186  1.00  0.00     0.056 A 
ENDBRANCH  13  15
ENDBRANCH  10  13
BRANCH  11  23
HETATM   23  C14 UNL     1      -0.573   0.401  -1.816  1.00  0.00     0.103 C 
HETATM   24  C15 UNL     1      -0.836   1.015  -2.950  1.00  0.00     0.172 C 
HETATM   25  O2  UNL     1      -0.071   1.618  -3.977  1.00  0.00    -0.358 OA
HETATM   26  C16 UNL     1       1.164   2.218  -3.579  1.00  0.00     0.201 C 
HETATM   27  C17 UNL     1       1.396   1.809  -2.145  1.00  0.00     0.202 C 
HETATM   28  O3  UNL     1       0.830   0.534  -1.947  1.00  0.00    -0.346 OA
ENDBRANCH  11  23
TORSDOF 3
