REMARK  6 active torsions:
REMARK  status: ('A' for Active; 'I' for Inactive)
REMARK    1  A    between atoms: C2_2  and  O1_3 
REMARK    2  A    between atoms: O1_3  and  C3_4 
REMARK    3  A    between atoms: C7_10  and  N3_11 
REMARK    4  A    between atoms: N3_11  and  C8_12 
REMARK    5  A    between atoms: C9_13  and  C10_14 
REMARK    6  A    between atoms: C11_15  and  C12_17 
ROOT
HETATM    1  C3  UNL     1       2.845   0.122  -0.230  1.00  0.00     0.107 A 
HETATM    2  C4  UNL     1       2.414  -1.160  -0.454  1.00  0.00     0.072 A 
HETATM    3  C5  UNL     1       1.211  -1.636   0.029  1.00  0.00     0.077 A 
HETATM    4  N1  UNL     1       0.760  -2.888  -0.173  1.00  0.00    -0.241 NA
HETATM    5  C6  UNL     1      -0.421  -3.297   0.322  1.00  0.00     0.236 A 
HETATM    6  N2  UNL     1      -1.172  -2.438   1.036  1.00  0.00    -0.223 NA
HETATM    7  C7  UNL     1      -0.744  -1.168   1.257  1.00  0.00     0.144 A 
HETATM    8  C13 UNL     1       0.467  -0.733   0.755  1.00  0.00     0.075 A 
HETATM    9  C14 UNL     1       0.846   0.550   1.007  1.00  0.00     0.121 A 
HETATM   10  C15 UNL     1       2.074   0.985   0.497  1.00  0.00     0.136 A 
HETATM   11  O2  UNL     1       2.406   2.297   0.785  1.00  0.00    -0.344 OA
HETATM   12  C16 UNL     1       1.462   3.314   1.014  1.00  0.00     0.202 C 
HETATM   13  C17 UNL     1       0.114   2.835   1.422  1.00  0.00     0.202 C 
HETATM   14  O3  UNL     1       0.064   1.452   1.753  1.00  0.00    -0.345 OA
ENDROOT
BRANCH   7  15
HETATM   15  N3  UNL     1      -1.613  -0.342   2.024  1.00  0.00    -0.350 N 
HETATM   16  H8  UNL     1      -1.540  -0.284   3.083  1.00  0.00     0.166 HD
BRANCH  15  17
HETATM   17  C8  UNL     1      -2.651   0.481   1.511  1.00  0.00     0.090 C 
HETATM   18  C9  UNL     1      -3.502  -0.181   0.748  1.00  0.00     0.020 C 
BRANCH  18  19
HETATM   19  C10 UNL     1      -4.703   0.175   0.001  1.00  0.00     0.040 C 
HETATM   20  C11 UNL     1      -5.639  -0.331  -0.782  1.00  0.00     0.107 C 
HETATM   21  F1  UNL     1      -6.632   0.485  -1.266  1.00  0.00    -0.210 F 
BRANCH  20  22
HETATM   22  C12 UNL     1      -5.936  -1.673  -1.330  1.00  0.00     0.184 C 
HETATM   23 CL1  UNL     1      -4.781  -2.916  -0.832  1.00  0.00    -0.123 Cl
ENDBRANCH  20  22
ENDBRANCH  18  19
ENDBRANCH  15  17
ENDBRANCH   7  15
BRANCH   1  24
HETATM   24  O1  UNL     1       4.052   0.565  -0.727  1.00  0.00    -0.348 OA
BRANCH  24  25
HETATM   25  C2  UNL     1       4.868  -0.303  -1.479  1.00  0.00     0.171 C 
HETATM   26  C1  UNL     1       6.138   0.369  -1.928  1.00  0.00     0.034 C 
ENDBRANCH  24  25
ENDBRANCH   1  24
TORSDOF 6
