REMARK  4 active torsions:
REMARK  status: ('A' for Active; 'I' for Inactive)
REMARK    1  A    between atoms: C1_2  and  C2_3 
REMARK    2  A    between atoms: C2_3  and  C3_4 
REMARK    3  A    between atoms: C4_5  and  C5_6 
REMARK    4  A    between atoms: C5_6  and  C6_7 
ROOT
HETATM    1  C6  UNL     1       2.234  -0.556   0.163  1.00  0.00     0.029 C 
HETATM    2  C7  UNL     1       1.277  -1.063  -0.592  1.00  0.00     0.026 C 
HETATM    3  C8  UNL     1       0.071  -0.676  -1.391  1.00  0.00     0.197 C 
HETATM    4  O1  UNL     1      -1.014  -1.329  -0.821  1.00  0.00    -0.379 OA
HETATM    5  C9  UNL     1      -2.266  -0.735  -0.609  1.00  0.00     0.074 C 
HETATM    6  C10 UNL     1      -2.063   0.590  -0.237  1.00  0.00     0.159 C 
HETATM    7  C11 UNL     1      -3.337   1.283   0.008  1.00  0.00     0.052 C 
HETATM    8  N1  UNL     1      -2.605   2.367   0.290  1.00  0.00    -0.217 NA
HETATM    9  S1  UNL     1      -0.915   2.484   0.261  1.00  0.00     0.020 SA
HETATM   10  C12 UNL     1      -0.018   1.292   1.203  1.00  0.00     0.208 C 
HETATM   11  N2  UNL     1       0.949   1.529   0.330  1.00  0.00    -0.179 NA
HETATM   12  N3  UNL     1       2.184   0.863   0.419  1.00  0.00    -0.282 N 
HETATM   13  C13 UNL     1      -4.643   2.014   0.264  1.00  0.00     0.223 C 
HETATM   14  O2  UNL     1      -5.669   1.164   0.018  1.00  0.00    -0.383 OA
HETATM   15  C14 UNL     1      -5.865   0.017   0.692  1.00  0.00     0.194 C 
HETATM   16  C15 UNL     1      -4.712  -0.964   0.605  1.00  0.00     0.193 C 
HETATM   17  O3  UNL     1      -4.462  -1.311  -0.706  1.00  0.00    -0.386 OA
HETATM   18  C16 UNL     1      -3.237  -1.926  -0.918  1.00  0.00     0.200 C 
HETATM   19  H14 UNL     1       3.133   1.262   0.663  1.00  0.00     0.189 HD
ENDROOT
BRANCH   1  20
HETATM   20  C5  UNL     1       3.326  -1.388   0.807  1.00  0.00     0.085 C 
BRANCH  20  21
HETATM   21  C4  UNL     1       4.647  -0.948   0.326  1.00  0.00    -0.025 C 
HETATM   22  C3  UNL     1       5.377  -0.158  -0.414  1.00  0.00    -0.028 C 
BRANCH  22  23
HETATM   23  C2  UNL     1       5.200   0.971  -1.380  1.00  0.00     0.058 C 
BRANCH  23  24
HETATM   24  C1  UNL     1       5.774   0.634  -2.740  1.00  0.00     0.225 C 
HETATM   25  F1  UNL     1       5.589   1.690  -3.602  1.00  0.00    -0.255 F 
ENDBRANCH  23  24
ENDBRANCH  22  23
ENDBRANCH  20  21
ENDBRANCH   1  20
TORSDOF 4
