REMARK  4 active torsions:
REMARK  status: ('A' for Active; 'I' for Inactive)
REMARK    1  A    between atoms: B1_3  and  C3_4 
REMARK    2  A    between atoms: C7_8  and  N1_9 
REMARK    3  A    between atoms: N1_9  and  C8_10 
REMARK    4  A    between atoms: C11_15  and  O1_16 
ROOT
HETATM    1  C1  UNL     1       6.240   2.162  -1.391  1.00  0.00    -0.004 C 
HETATM    2  C2  UNL     1       5.256   2.036  -2.083  1.00  0.00    -0.177 C 
HETATM    3  B1  UNL     1       3.999   1.864  -2.942  1.00  0.00     0.283 B 
HETATM    4  H2  UNL     1       4.093   2.053  -4.100  1.00  0.00    -0.006 HD
ENDROOT
BRANCH   3   5
HETATM    5  C3  UNL     1       2.590   2.002  -2.296  1.00  0.00    -0.084 A 
HETATM    6  C4  UNL     1       1.721   2.940  -2.804  1.00  0.00    -0.004 A 
HETATM    7  C5  UNL     1       0.449   3.162  -2.323  1.00  0.00     0.002 A 
HETATM    8  C6  UNL     1       0.037   2.385  -1.263  1.00  0.00     0.029 A 
HETATM    9  C7  UNL     1       0.904   1.448  -0.753  1.00  0.00     0.033 A 
HETATM   10  C17 UNL     1       2.174   1.218  -1.225  1.00  0.00     0.025 A 
BRANCH   9  11
HETATM   11  N1  UNL     1       0.664   0.545   0.357  1.00  0.00    -0.340 N 
HETATM   12  H6  UNL     1       0.895   0.689   1.363  1.00  0.00     0.167 HD
BRANCH  11  13
HETATM   13  C8  UNL     1       0.038  -0.664  -0.055  1.00  0.00     0.138 C 
HETATM   14  N2  UNL     1      -0.124  -1.187  -1.259  1.00  0.00    -0.224 NA
HETATM   15  C9  UNL     1      -0.819  -2.475  -1.315  1.00  0.00     0.230 C 
HETATM   16  N3  UNL     1      -1.317  -3.239  -0.394  1.00  0.00    -0.269 NA
HETATM   17  C10 UNL     1      -1.235  -2.887   0.918  1.00  0.00     0.188 C 
HETATM   18  C11 UNL     1      -2.344  -2.669   1.864  1.00  0.00     0.161 C 
HETATM   19  C16 UNL     1      -0.654  -1.534   0.839  1.00  0.00     0.025 C 
HETATM   20  C13 UNL     1      -2.329  -1.792   2.935  1.00  0.00     0.172 A 
HETATM   21  O2  UNL     1      -1.879  -0.641   3.715  1.00  0.00    -0.365 OA
HETATM   22  O3  UNL     1      -1.565  -0.724   3.164  1.00  0.00     0.000 OA
HETATM   23  C14 UNL     1      -0.791   0.065   3.014  1.00  0.00     0.209 A 
HETATM   24  C15 UNL     1      -0.857  -0.895   1.928  1.00  0.00    -0.013 A 
BRANCH  18  25
HETATM   25  O1  UNL     1      -3.672  -3.001   2.268  1.00  0.00    -0.376 OA
HETATM   26  C12 UNL     1      -4.773  -2.553   1.477  1.00  0.00     0.203 C 
ENDBRANCH  18  25
ENDBRANCH  11  13
ENDBRANCH   9  11
ENDBRANCH   3   5
TORSDOF 4
