REMARK  2 active torsions:
REMARK  status: ('A' for Active; 'I' for Inactive)
REMARK    1  A    between atoms: N1_2  and  N2_3 
REMARK    2  A    between atoms: N2_3  and  C2_4 
ROOT
HETATM    1  C2  UNL     1       1.773  -0.449  -0.093  1.00  0.00     0.149 A 
HETATM    2  N3  UNL     1       2.170  -1.575  -0.728  1.00  0.00    -0.223 NA
HETATM    3  C3  UNL     1       1.488  -1.857  -1.874  1.00  0.00     0.236 A 
HETATM    4  N4  UNL     1       0.509  -1.031  -2.277  1.00  0.00    -0.241 NA
HETATM    5  C4  UNL     1       0.140   0.076  -1.625  1.00  0.00     0.073 A 
HETATM    6  C5  UNL     1       0.777   0.433  -0.461  1.00  0.00     0.041 A 
HETATM    7  C6  UNL     1       0.621   1.563   0.478  1.00  0.00     0.212 C 
HETATM    8  O1  UNL     1       0.146   1.180   1.663  1.00  0.00    -0.384 OA
HETATM    9  C7  UNL     1      -1.052   0.692   1.927  1.00  0.00     0.194 C 
HETATM   10  C8  UNL     1      -1.515  -0.566   1.270  1.00  0.00     0.201 C 
HETATM   11  O2  UNL     1      -1.586  -0.558  -0.113  1.00  0.00    -0.346 OA
HETATM   12  C9  UNL     1      -2.677  -0.136  -0.855  1.00  0.00     0.100 A 
HETATM   13  C10 UNL     1      -3.988  -0.044  -0.901  1.00  0.00     0.039 A 
HETATM   14  C11 UNL     1      -4.489   0.590  -2.139  1.00  0.00     0.206 A 
HETATM   15  O3  UNL     1      -3.323   0.893  -2.842  1.00  0.00    -0.344 OA
HETATM   16  C12 UNL     1      -2.231   0.464  -2.110  1.00  0.00     0.104 A 
HETATM   17  C13 UNL     1      -0.943   0.573  -2.480  1.00  0.00     0.072 C 
ENDROOT
BRANCH   1  18
HETATM   18  N2  UNL     1       2.530  -0.209   1.104  1.00  0.00    -0.305 N 
HETATM   19  H5  UNL     1       2.470   0.566   1.812  1.00  0.00     0.182 HD
BRANCH  18  20
HETATM   20  N1  UNL     1       3.534  -1.052   1.522  1.00  0.00    -0.243 NA
HETATM   21  C1  UNL     1       4.824  -0.531   1.159  1.00  0.00     0.133 C 
HETATM   22  H4  UNL     1       3.496  -1.338   2.504  1.00  0.00     0.146 HD
ENDBRANCH  18  20
ENDBRANCH   1  18
TORSDOF 2
