REMARK  3 active torsions:
REMARK  status: ('A' for Active; 'I' for Inactive)
REMARK    1  A    between atoms: C7_7  and  N1_8 
REMARK    2  A    between atoms: N1_8  and  C8_9 
REMARK    3  A    between atoms: C15_21  and  O3_22 
ROOT
HETATM    1  C1  UNL     1       4.800   2.933   0.316  1.00  0.00     0.018 C 
HETATM    2  C2  UNL     1       4.441   1.867  -0.090  1.00  0.00    -0.078 C 
HETATM    3  C3  UNL     1       4.005   0.603  -0.597  1.00  0.00     0.019 A 
HETATM    4  C4  UNL     1       4.678   0.028  -1.652  1.00  0.00     0.021 A 
HETATM    5  C5  UNL     1       4.267  -1.194  -2.159  1.00  0.00     0.004 A 
HETATM    6  C6  UNL     1       3.194  -1.896  -1.659  1.00  0.00     0.029 A 
HETATM    7  C7  UNL     1       2.557  -1.276  -0.603  1.00  0.00     0.035 A 
HETATM    8  C18 UNL     1       2.928  -0.062  -0.066  1.00  0.00     0.050 A 
ENDROOT
BRANCH   7   9
HETATM    9  N1  UNL     1       1.427  -1.910  -0.019  1.00  0.00    -0.340 N 
HETATM   10  H5  UNL     1       1.005  -2.792  -0.435  1.00  0.00     0.167 HD
BRANCH   9  11
HETATM   11  C8  UNL     1       0.581  -1.687   1.103  1.00  0.00     0.144 A 
HETATM   12  N2  UNL     1       0.947  -2.401   2.207  1.00  0.00    -0.223 NA
HETATM   13  C9  UNL     1       0.289  -2.340   3.373  1.00  0.00     0.236 A 
HETATM   14  N3  UNL     1      -0.798  -1.527   3.459  1.00  0.00    -0.241 NA
HETATM   15  C10 UNL     1      -1.172  -0.815   2.377  1.00  0.00     0.077 A 
HETATM   16  C11 UNL     1      -0.496  -0.877   1.176  1.00  0.00     0.068 A 
HETATM   17  C17 UNL     1      -2.243  -0.058   2.554  1.00  0.00     0.072 A 
HETATM   18  P1  UNL     1      -0.877  -0.044  -0.158  1.00  0.00     0.062 P 
HETATM   19  O1  UNL     1      -1.324  -0.973  -1.461  1.00  0.00    -0.359 OA
HETATM   20  C14 UNL     1      -2.332   0.886   0.318  1.00  0.00     0.128 A 
HETATM   21  H7  UNL     1       0.151   0.874  -0.452  1.00  0.00     0.093 HD
HETATM   22  C12 UNL     1      -2.445  -0.489  -2.085  1.00  0.00     0.199 C 
HETATM   23  C13 UNL     1      -2.592   0.999  -2.120  1.00  0.00     0.202 C 
HETATM   24  O2  UNL     1      -2.668   1.579  -0.807  1.00  0.00    -0.344 OA
HETATM   25  C15 UNL     1      -2.806   0.782   1.517  1.00  0.00     0.106 A 
BRANCH  25  26
HETATM   26  O3  UNL     1      -3.923   1.564   1.712  1.00  0.00    -0.353 OA
HETATM   27  C16 UNL     1      -4.608   2.324   0.775  1.00  0.00     0.210 C 
ENDBRANCH  25  26
ENDBRANCH   9  11
ENDBRANCH   7   9
TORSDOF 3
