REMARK  4 active torsions:
REMARK  status: ('A' for Active; 'I' for Inactive)
REMARK    1  A    between atoms: C7_7  and  N1_8 
REMARK    2  A    between atoms: N1_8  and  C8_9 
REMARK    3  A    between atoms: C12_15  and  C13_16 
REMARK    4  A    between atoms: C13_16  and  C14_17 
ROOT
HETATM    1  C1  UNL     1       6.511  -0.583   1.418  1.00  0.00     0.018 C 
HETATM    2  C2  UNL     1       5.590  -0.336   0.691  1.00  0.00    -0.078 C 
HETATM    3  C3  UNL     1       4.499  -0.019  -0.170  1.00  0.00     0.019 A 
HETATM    4  C4  UNL     1       4.550   0.161  -1.532  1.00  0.00     0.021 A 
HETATM    5  C5  UNL     1       3.495   0.464  -2.337  1.00  0.00     0.004 A 
HETATM    6  C6  UNL     1       2.299   0.585  -1.653  1.00  0.00     0.029 A 
HETATM    7  C7  UNL     1       2.094   0.429  -0.265  1.00  0.00     0.035 A 
HETATM    8  C19 UNL     1       3.272   0.118   0.441  1.00  0.00     0.050 A 
ENDROOT
BRANCH   7   9
HETATM    9  N1  UNL     1       0.710   0.563   0.138  1.00  0.00    -0.340 N 
HETATM   10  H5  UNL     1       1.178   1.359   0.612  1.00  0.00     0.167 HD
BRANCH   9  11
HETATM   11  C8  UNL     1       0.009  -0.513  -0.489  1.00  0.00     0.144 A 
HETATM   12  N2  UNL     1       0.712  -1.289  -1.329  1.00  0.00    -0.223 NA
HETATM   13  C9  UNL     1       0.186  -2.355  -2.002  1.00  0.00     0.236 A 
HETATM   14  N3  UNL     1      -1.104  -2.552  -1.740  1.00  0.00    -0.241 NA
HETATM   15  C10 UNL     1      -1.855  -1.816  -0.915  1.00  0.00     0.074 A 
HETATM   16  C11 UNL     1      -1.318  -0.758  -0.252  1.00  0.00     0.068 A 
HETATM   17  C18 UNL     1      -3.059  -2.327  -0.929  1.00  0.00     0.034 A 
HETATM   18  C12 UNL     1      -1.863   0.081   0.606  1.00  0.00     0.069 A 
HETATM   19  O1  UNL     1      -3.191   0.019   0.993  1.00  0.00    -0.326 OA
HETATM   20  C16 UNL     1      -4.251  -0.842   0.642  1.00  0.00     0.142 A 
HETATM   21  C17 UNL     1      -4.225  -1.868  -0.189  1.00  0.00     0.027 A 
BRANCH  18  22
HETATM   22  C13 UNL     1      -1.023   1.138   1.186  1.00  0.00     0.066 C 
BRANCH  22  23
HETATM   23  C14 UNL     1      -2.114   1.854   2.082  1.00  0.00     0.002 C 
HETATM   24  C15 UNL     1      -3.238   2.383   1.272  1.00  0.00     0.005 C 
ENDBRANCH  22  23
ENDBRANCH  18  22
ENDBRANCH   9  11
ENDBRANCH   7   9
TORSDOF 4
