REMARK  5 active torsions:
REMARK  status: ('A' for Active; 'I' for Inactive)
REMARK    1  A    between atoms: N1_1  and  C1_2 
REMARK    2  A    between atoms: N2_3  and  C2_4 
REMARK    3  A    between atoms: C2_4  and  N3_5 
REMARK    4  A    between atoms: N3_5  and  C3_6 
REMARK    5  A    between atoms: C13_19  and  N4_20 
ROOT
HETATM    1  C2  UNL     1      -0.863   1.302  -0.212  1.00  0.00     0.134 C 
HETATM    2  C9  UNL     1       0.346   0.701  -0.385  1.00  0.00    -0.001 C 
HETATM    3  C10 UNL     1       1.369   1.409  -1.148  1.00  0.00     0.214 C 
HETATM    4  O1  UNL     1       2.094   0.372  -1.920  1.00  0.00    -0.346 OA
HETATM    5  C11 UNL     1       3.084  -0.446  -1.331  1.00  0.00     0.080 A 
HETATM    6  C12 UNL     1       3.747  -1.556  -1.693  1.00  0.00     0.067 A 
HETATM    7  C13 UNL     1       4.514  -1.661  -0.454  1.00  0.00     0.038 A 
HETATM    8  C14 UNL     1       3.831  -0.539  -0.106  1.00  0.00     0.011 A 
HETATM    9  C15 UNL     1       3.633   0.523   0.974  1.00  0.00     0.118 C 
HETATM   10  S1  UNL     1       2.040   0.260   1.779  1.00  0.00    -0.160 SA
HETATM   11  C16 UNL     1       0.757  -0.398   0.492  1.00  0.00     0.114 C 
ENDROOT
BRANCH   1  12
HETATM   12  N2  UNL     1      -1.593   2.565  -0.494  1.00  0.00    -0.227 NA
HETATM   13  C1  UNL     1      -1.321   3.547   0.367  1.00  0.00     0.202 C 
BRANCH  13  14
HETATM   14  N1  UNL     1      -1.839   4.844   0.329  1.00  0.00    -0.394 N 
HETATM   15  H1  UNL     1      -2.811   4.834  -0.128  1.00  0.00     0.156 HD
HETATM   16  H2  UNL     1      -1.384   5.748   0.677  1.00  0.00     0.156 HD
ENDBRANCH  13  14
ENDBRANCH   1  12
BRANCH   1  17
HETATM   17  N3  UNL     1      -1.956   0.360  -0.053  1.00  0.00    -0.341 N 
HETATM   18  H4  UNL     1      -2.494   0.696  -0.799  1.00  0.00     0.167 HD
BRANCH  17  19
HETATM   19  C3  UNL     1      -2.972  -0.574   0.150  1.00  0.00     0.035 A 
HETATM   20  C4  UNL     1      -2.422  -1.780   0.322  1.00  0.00     0.032 A 
HETATM   21  C5  UNL     1      -3.103  -2.983   0.490  1.00  0.00     0.046 A 
HETATM   22  C6  UNL     1      -4.433  -2.790   0.469  1.00  0.00     0.138 A 
HETATM   23  F1  UNL     1      -5.367  -3.819   0.713  1.00  0.00    -0.204 F 
HETATM   24  C7  UNL     1      -5.137  -1.634   0.302  1.00  0.00     0.074 A 
HETATM   25 CL1  UNL     1      -6.842  -1.323   0.215  1.00  0.00    -0.081 Cl
HETATM   26  C8  UNL     1      -4.359  -0.436   0.126  1.00  0.00     0.056 A 
ENDBRANCH  17  19
ENDBRANCH   1  17
BRANCH   7  27
HETATM   27  N4  UNL     1       5.420  -2.195   0.428  1.00  0.00    -0.398 N 
HETATM   28  H11 UNL     1       6.112  -2.623  -0.185  1.00  0.00     0.156 HD
HETATM   29  H12 UNL     1       5.508  -2.213   1.476  1.00  0.00     0.156 HD
ENDBRANCH   7  27
TORSDOF 5
