REMARK  4 active torsions:
REMARK  status: ('A' for Active; 'I' for Inactive)
REMARK    1  A    between atoms: C2_2  and  C3_3 
REMARK    2  A    between atoms: C4_4  and  C6_6 
REMARK    3  A    between atoms: C7_7  and  C8_8 
REMARK    4  A    between atoms: C9_9  and  O1_10 
ROOT
HETATM    1  C8  UNL     1      -0.441   0.303   0.130  1.00  0.00     0.030 A 
HETATM    2  C9  UNL     1      -1.320   1.321   0.479  1.00  0.00     0.114 A 
HETATM    3  C10 UNL     1      -2.678   1.232   0.430  1.00  0.00     0.137 A 
HETATM    4  C11 UNL     1      -3.215   0.039   0.000  1.00  0.00     0.119 A 
HETATM    5  C12 UNL     1      -2.412  -1.020  -0.365  1.00  0.00     0.059 A 
HETATM    6  C13 UNL     1      -1.045  -0.853  -0.288  1.00  0.00     0.085 A 
HETATM    7  N1  UNL     1      -0.486  -2.086  -0.717  1.00  0.00    -0.257 NA
HETATM    8  C14 UNL     1      -1.390  -2.944  -1.033  1.00  0.00     0.149 A 
HETATM    9  C15 UNL     1      -2.711  -2.358  -0.843  1.00  0.00     0.081 A 
HETATM   10  N2  UNL     1      -3.856  -2.914  -1.055  1.00  0.00    -0.298 NA
HETATM   11  O2  UNL     1      -4.599  -0.087  -0.063  1.00  0.00    -0.345 OA
HETATM   12  C16 UNL     1      -5.337   1.143  -0.103  1.00  0.00     0.202 C 
HETATM   13  C17 UNL     1      -4.868   1.982   1.043  1.00  0.00     0.202 C 
HETATM   14  O3  UNL     1      -3.489   2.299   0.797  1.00  0.00    -0.344 OA
HETATM   15  H12 UNL     1      -4.732  -2.397  -0.883  1.00  0.00     0.187 HD
ENDROOT
BRANCH   1  16
HETATM   16  C7  UNL     1       0.979   0.530   0.229  1.00  0.00     0.017 C 
HETATM   17  C6  UNL     1       1.949  -0.314  -0.057  1.00  0.00     0.007 C 
BRANCH  17  18
HETATM   18  C4  UNL     1       3.373  -0.033   0.061  1.00  0.00    -0.062 C 
HETATM   19  C3  UNL     1       4.303  -0.901  -0.235  1.00  0.00     0.006 C 
HETATM   20  C5  UNL     1       4.002   1.231   0.517  1.00  0.00     0.048 C 
BRANCH  19  21
HETATM   21  C2  UNL     1       5.714  -0.604  -0.111  1.00  0.00    -0.010 C 
HETATM   22  C1  UNL     1       6.618  -1.543  -0.432  1.00  0.00     0.011 C 
ENDBRANCH  19  21
ENDBRANCH  17  18
ENDBRANCH   1  16
BRANCH   2  23
HETATM   23  O1  UNL     1      -0.794   2.549   0.921  1.00  0.00    -0.357 OA
HETATM   24  H10 UNL     1      -0.055   2.971   0.379  1.00  0.00     0.217 HD
ENDBRANCH   2  23
TORSDOF 4
