REMARK  2 active torsions:
REMARK  status: ('A' for Active; 'I' for Inactive)
REMARK    1  A    between atoms: C10_14  and  O3_15 
REMARK    2  A    between atoms: O3_15  and  C11_16 
ROOT
HETATM    1  C1  UNL     1       2.938  -2.529  -0.335  1.00  0.00     0.071 C 
HETATM    2  C2  UNL     1       1.470  -2.584  -0.167  1.00  0.00     0.047 A 
HETATM    3  N1  UNL     1       0.771  -3.732  -0.076  1.00  0.00    -0.246 NA
HETATM    4  C3  UNL     1      -0.575  -3.673   0.077  1.00  0.00     0.233 A 
HETATM    5  N2  UNL     1      -1.245  -2.486   0.141  1.00  0.00    -0.244 NA
HETATM    6  C4  UNL     1      -0.578  -1.330   0.054  1.00  0.00     0.070 A 
HETATM    7  C5  UNL     1       0.786  -1.392  -0.101  1.00  0.00     0.050 A 
HETATM    8  C6  UNL     1       1.492  -0.122  -0.186  1.00  0.00     0.115 A 
HETATM    9  C7  UNL     1       0.730   0.953  -0.103  1.00  0.00     0.111 A 
HETATM   10  O1  UNL     1       1.389   2.176  -0.184  1.00  0.00    -0.348 OA
HETATM   11  C8  UNL     1       2.732   2.313  -0.621  1.00  0.00     0.202 C 
HETATM   12  C9  UNL     1       3.584   1.170  -0.147  1.00  0.00     0.202 C 
HETATM   13  O2  UNL     1       2.843  -0.020  -0.341  1.00  0.00    -0.345 OA
HETATM   14  C10 UNL     1      -0.752   1.168   0.067  1.00  0.00     0.204 A 
HETATM   15  C12 UNL     1      -1.479  -0.142   0.137  1.00  0.00     0.077 A 
HETATM   16  C13 UNL     1      -2.221  -0.253   1.427  1.00  0.00     0.004 A 
HETATM   17  C14 UNL     1      -3.516  -0.344   1.700  1.00  0.00     0.050 A 
HETATM   18  S1  UNL     1      -4.662  -0.342   0.329  1.00  0.00    -0.073 SA
HETATM   19  C15 UNL     1      -3.712  -0.333  -1.183  1.00  0.00     0.154 A 
HETATM   20  F1  UNL     1      -4.207  -0.409  -2.443  1.00  0.00    -0.198 F 
HETATM   21  C16 UNL     1      -2.397  -0.242  -1.030  1.00  0.00     0.046 A 
ENDROOT
BRANCH  14  22
HETATM   22  O3  UNL     1      -1.002   2.013   1.142  1.00  0.00    -0.363 OA
BRANCH  22  23
HETATM   23  C11 UNL     1      -1.567   3.210   0.799  1.00  0.00     0.283 C 
HETATM   24 CL1  UNL     1      -3.124   2.895  -0.000  1.00  0.00    -0.102 Cl
ENDBRANCH  22  23
ENDBRANCH  14  22
TORSDOF 2
