REMARK  3 active torsions:
REMARK  status: ('A' for Active; 'I' for Inactive)
REMARK    1  A    between atoms: O1_2  and  C2_3 
REMARK    2  A    between atoms: C8_14  and  N3_15 
REMARK    3  A    between atoms: N3_15  and  C9_16 
ROOT
HETATM    1  C2  UNL     1      -2.186  -0.413   1.013  1.00  0.00     0.289 C 
HETATM    2  C3  UNL     1      -2.755   0.848   1.543  1.00  0.00     0.231 C 
HETATM    3  O2  UNL     1      -4.072   1.083   1.306  1.00  0.00    -0.364 OA
HETATM    4  C4  UNL     1      -4.481   1.481   0.072  1.00  0.00     0.316 C 
HETATM    5  O3  UNL     1      -4.225   0.695  -1.016  1.00  0.00    -0.433 OA
HETATM    6  B1  UNL     1      -3.980  -0.055  -2.054  1.00  0.00     0.356 B 
HETATM    7  C5  UNL     1      -2.152  -0.682  -2.421  1.00  0.00    -0.018 C 
HETATM    8  C6  UNL     1      -0.875  -0.479  -1.733  1.00  0.00     0.083 A 
HETATM    9  N1  UNL     1      -0.074  -0.406  -2.800  1.00  0.00    -0.240 NA
HETATM   10  C7  UNL     1       1.251  -0.213  -2.791  1.00  0.00     0.236 A 
HETATM   11  N2  UNL     1       1.756  -0.092  -1.576  1.00  0.00    -0.221 NA
HETATM   12  C8  UNL     1       1.000  -0.157  -0.491  1.00  0.00     0.165 A 
HETATM   13  C15 UNL     1      -0.350  -0.352  -0.473  1.00  0.00     0.145 A 
HETATM   14  O4  UNL     1      -0.790  -0.359   0.878  1.00  0.00    -0.312 OA
ENDROOT
BRANCH  12  15
HETATM   15  N3  UNL     1       1.782  -0.005   0.694  1.00  0.00    -0.339 N 
HETATM   16  H11 UNL     1       1.326  -0.069   1.633  1.00  0.00     0.167 HD
BRANCH  15  17
HETATM   17  C9  UNL     1       3.167   0.238   0.773  1.00  0.00     0.035 A 
HETATM   18  C10 UNL     1       3.870  -0.120   1.926  1.00  0.00     0.032 A 
HETATM   19  C11 UNL     1       5.215   0.071   2.124  1.00  0.00     0.046 A 
HETATM   20  C12 UNL     1       5.942   0.657   1.128  1.00  0.00     0.138 A 
HETATM   21  F1  UNL     1       7.262   0.837   1.338  1.00  0.00    -0.204 F 
HETATM   22  C13 UNL     1       5.343   1.049  -0.050  1.00  0.00     0.074 A 
HETATM   23 CL1  UNL     1       6.276   1.797  -1.324  1.00  0.00    -0.081 Cl
HETATM   24  C14 UNL     1       3.992   0.817  -0.159  1.00  0.00     0.056 A 
ENDBRANCH  15  17
ENDBRANCH  12  15
BRANCH   1  25
HETATM   25  O1  UNL     1      -2.681  -1.559   1.658  1.00  0.00    -0.363 OA
HETATM   26  C1  UNL     1      -3.461  -2.287   0.731  1.00  0.00     0.204 C 
ENDBRANCH   1  25
TORSDOF 3
