REMARK  1 active torsions:
REMARK  status: ('A' for Active; 'I' for Inactive)
REMARK    1  A    between atoms: N1_6  and  C6_7 
ROOT
HETATM    1  C1  UNL     1       5.878   2.093   0.455  1.00  0.00     0.018 C 
HETATM    2  C2  UNL     1       4.830   1.587   0.148  1.00  0.00    -0.078 C 
HETATM    3  C3  UNL     1       3.569   1.000  -0.205  1.00  0.00     0.016 A 
HETATM    4  C4  UNL     1       3.317  -0.236   0.136  1.00  0.00     0.014 A 
HETATM    5  C5  UNL     1       2.054  -0.919  -0.184  1.00  0.00     0.158 A 
HETATM    6  N1  UNL     1       1.130  -0.091  -0.906  1.00  0.00    -0.342 N 
HETATM    7  C17 UNL     1       1.401   1.253  -1.278  1.00  0.00     0.094 A 
HETATM    8  C18 UNL     1       2.566   1.787  -0.949  1.00  0.00     0.037 A 
ENDROOT
BRANCH   6   9
HETATM    9  C6  UNL     1      -0.078  -0.782  -1.199  1.00  0.00     0.103 A 
HETATM   10  N2  UNL     1      -0.908  -1.160  -2.030  1.00  0.00    -0.298 N 
HETATM   11  C7  UNL     1      -1.224  -1.150  -3.340  1.00  0.00     0.210 A 
HETATM   12  C8  UNL     1      -2.089  -1.996  -1.355  1.00  0.00     0.157 A 
HETATM   13  N3  UNL     1      -2.229  -1.841  -2.817  1.00  0.00    -0.248 NA
HETATM   14  C9  UNL     1      -2.567  -2.752  -0.315  1.00  0.00     0.043 A 
HETATM   15  C16 UNL     1      -1.049  -1.518  -0.180  1.00  0.00     0.168 A 
HETATM   16  C10 UNL     1      -2.579  -1.320   0.173  1.00  0.00     0.122 A 
HETATM   17  C12 UNL     1      -1.510  -0.566   0.790  1.00  0.00     0.115 C 
HETATM   18  C11 UNL     1      -2.382   0.152  -0.138  1.00  0.00     0.078 C 
HETATM   19  O1  UNL     1      -0.448   0.390   1.035  1.00  0.00    -0.441 OA
HETATM   20  C15 UNL     1      -2.489  -0.342   1.972  1.00  0.00     0.078 C 
HETATM   21  B1  UNL     1      -0.946   1.728   1.243  1.00  0.00     0.315 B 
HETATM   22  C13 UNL     1      -1.920   2.082   2.459  1.00  0.00     0.009 C 
HETATM   23  H8  UNL     1      -0.273   2.623   0.859  1.00  0.00     0.008 HD
HETATM   24  C14 UNL     1      -2.651   0.798   2.673  1.00  0.00     0.001 C 
HETATM   25  O2  UNL     1      -2.731  -1.682   1.631  1.00  0.00    -0.335 OA
ENDBRANCH   6   9
TORSDOF 1
