REMARK  4 active torsions:
REMARK  status: ('A' for Active; 'I' for Inactive)
REMARK    1  A    between atoms: C2_2  and  C3_3 
REMARK    2  A    between atoms: C2_2  and  C7_9 
REMARK    3  A    between atoms: C9_11  and  N1_12 
REMARK    4  A    between atoms: N1_12  and  C10_13 
ROOT
HETATM    1  C7  UNL     1      -0.868  -0.337  -0.606  1.00  0.00     0.049 A 
HETATM    2  C8  UNL     1       0.286  -0.601   0.094  1.00  0.00     0.078 A 
HETATM    3  C9  UNL     1       1.488   0.016  -0.126  1.00  0.00     0.131 A 
HETATM    4  N2  UNL     1       1.486   0.932  -1.102  1.00  0.00    -0.224 NA
HETATM    5  C16 UNL     1       0.394   1.232  -1.817  1.00  0.00     0.235 A 
HETATM    6  N3  UNL     1      -0.785   0.597  -1.569  1.00  0.00    -0.246 NA
ENDROOT
BRANCH   3   7
HETATM    7  N1  UNL     1       2.614  -0.338   0.658  1.00  0.00    -0.341 N 
HETATM    8  H11 UNL     1       2.459  -1.087   1.399  1.00  0.00     0.167 HD
BRANCH   7   9
HETATM    9  C10 UNL     1       3.923   0.158   0.606  1.00  0.00     0.035 A 
HETATM   10  C11 UNL     1       4.923  -0.315   1.466  1.00  0.00     0.032 A 
HETATM   11  C12 UNL     1       6.213   0.155   1.433  1.00  0.00     0.046 A 
HETATM   12  C13 UNL     1       6.597   1.116   0.556  1.00  0.00     0.138 A 
HETATM   13  F1  UNL     1       7.890   1.506   0.609  1.00  0.00    -0.204 F 
HETATM   14  C14 UNL     1       5.659   1.622  -0.317  1.00  0.00     0.074 A 
HETATM   15 CL1  UNL     1       6.155   2.859  -1.447  1.00  0.00    -0.081 Cl
HETATM   16  C15 UNL     1       4.391   1.130  -0.253  1.00  0.00     0.056 A 
ENDBRANCH   7   9
ENDBRANCH   3   7
BRANCH   1  17
HETATM   17  C2  UNL     1      -2.139  -1.050  -0.311  1.00  0.00     0.092 C 
HETATM   18  C1  UNL     1      -2.631  -1.824  -1.521  1.00  0.00     0.023 C 
BRANCH  17  19
HETATM   19  C3  UNL     1      -3.241  -0.123   0.069  1.00  0.00     0.077 C 
HETATM   20  C4  UNL     1      -3.285   1.197   0.156  1.00  0.00     0.167 C 
HETATM   21  O1  UNL     1      -4.458   1.849   0.542  1.00  0.00    -0.358 OA
HETATM   22  C5  UNL     1      -5.702   1.195   0.546  1.00  0.00     0.201 C 
HETATM   23  C6  UNL     1      -5.593  -0.269   0.838  1.00  0.00     0.202 C 
HETATM   24  O2  UNL     1      -4.401  -0.861   0.372  1.00  0.00    -0.351 OA
ENDBRANCH  17  19
ENDBRANCH   1  17
TORSDOF 4
