REMARK  4 active torsions:
REMARK  status: ('A' for Active; 'I' for Inactive)
REMARK    1  A    between atoms: O1_2  and  C2_3 
REMARK    2  A    between atoms: C8_14  and  N4_15 
REMARK    3  A    between atoms: N4_15  and  C9_16 
REMARK    4  A    between atoms: C16_25  and  O4_26 
ROOT
HETATM    1  C2  UNL     1      -1.270   0.387   1.177  1.00  0.00     0.178 C 
HETATM    2  C3  UNL     1      -2.782   0.975   1.197  1.00  0.00     0.205 C 
HETATM    3  O2  UNL     1      -3.088   1.389   0.004  1.00  0.00    -0.362 OA
HETATM    4  C4  UNL     1      -3.853   1.930  -0.830  1.00  0.00     0.372 C 
HETATM    5  O3  UNL     1      -3.370   1.972  -2.224  1.00  0.00    -0.231 OA
HETATM    6  N1  UNL     1      -3.096   0.782  -2.861  1.00  0.00    -0.142 NA
HETATM    7  C5  UNL     1      -2.154  -0.035  -2.750  1.00  0.00     0.178 C 
HETATM    8  C6  UNL     1      -0.933  -0.735  -2.353  1.00  0.00     0.090 A 
HETATM    9  N2  UNL     1      -0.260  -1.283  -3.360  1.00  0.00    -0.240 NA
HETATM   10  C7  UNL     1       0.897  -1.941  -3.135  1.00  0.00     0.236 A 
HETATM   11  N3  UNL     1       1.346  -2.026  -1.885  1.00  0.00    -0.224 NA
HETATM   12  C8  UNL     1       0.727  -1.503  -0.835  1.00  0.00     0.140 A 
HETATM   13  C15 UNL     1      -0.447  -0.831  -1.017  1.00  0.00     0.049 A 
HETATM   14  C16 UNL     1      -1.314  -0.204  -0.084  1.00  0.00     0.188 C 
ENDROOT
BRANCH  12  15
HETATM   15  N4  UNL     1       1.226  -1.605   0.491  1.00  0.00    -0.340 N 
HETATM   16  H11 UNL     1       0.975  -2.124   1.370  1.00  0.00     0.167 HD
BRANCH  15  17
HETATM   17  C9  UNL     1       2.349  -0.734   0.493  1.00  0.00     0.035 A 
HETATM   18  C10 UNL     1       3.488  -1.467   0.148  1.00  0.00     0.032 A 
HETATM   19  C11 UNL     1       4.735  -0.832   0.084  1.00  0.00     0.046 A 
HETATM   20  C12 UNL     1       4.874   0.506   0.351  1.00  0.00     0.138 A 
HETATM   21  F1  UNL     1       6.040   1.192   0.311  1.00  0.00    -0.204 F 
HETATM   22  C13 UNL     1       3.755   1.230   0.690  1.00  0.00     0.074 A 
HETATM   23 CL1  UNL     1       3.718   2.935   1.070  1.00  0.00    -0.081 Cl
HETATM   24  C14 UNL     1       2.538   0.601   0.751  1.00  0.00     0.056 A 
ENDBRANCH  15  17
ENDBRANCH  12  15
BRANCH  14  25
HETATM   25  O4  UNL     1      -2.408  -1.110  -0.034  1.00  0.00    -0.388 OA
HETATM   26  H16 UNL     1      -2.298  -1.610   0.788  1.00  0.00     0.210 HD
ENDBRANCH  14  25
BRANCH   1  27
HETATM   27  O1  UNL     1      -1.067  -0.264   2.321  1.00  0.00    -0.386 OA
HETATM   28  C1  UNL     1      -0.326   0.293   3.318  1.00  0.00     0.202 C 
ENDBRANCH   1  27
TORSDOF 4
