REMARK  3 active torsions:
REMARK  status: ('A' for Active; 'I' for Inactive)
REMARK    1  A    between atoms: O1_2  and  C2_3 
REMARK    2  A    between atoms: C9_14  and  N3_15 
REMARK    3  A    between atoms: N3_15  and  C10_16 
ROOT
HETATM    1  C2  UNL     1      -1.302   1.347   0.508  1.00  0.00     0.289 C 
HETATM    2  C3  UNL     1      -2.119   1.080   1.798  1.00  0.00     0.231 C 
HETATM    3  O2  UNL     1      -2.935   0.030   1.570  1.00  0.00    -0.362 OA
HETATM    4  C4  UNL     1      -3.781   0.036   0.510  1.00  0.00     0.343 C 
HETATM    5  O3  UNL     1      -4.481  -1.266   0.551  1.00  0.00    -0.338 OA
HETATM    6  C5  UNL     1      -3.566  -2.362   0.684  1.00  0.00     0.140 C 
HETATM    7  C6  UNL     1      -2.342  -2.671   0.332  1.00  0.00     0.059 C 
HETATM    8  C7  UNL     1      -1.160  -2.205  -0.360  1.00  0.00     0.097 A 
HETATM    9  N1  UNL     1      -0.534  -3.226  -1.003  1.00  0.00    -0.239 NA
HETATM   10  C8  UNL     1       0.578  -3.119  -1.713  1.00  0.00     0.236 A 
HETATM   11  N2  UNL     1       1.110  -1.919  -1.793  1.00  0.00    -0.221 NA
HETATM   12  C9  UNL     1       0.559  -0.838  -1.189  1.00  0.00     0.165 A 
HETATM   13  C16 UNL     1      -0.598  -0.952  -0.452  1.00  0.00     0.146 A 
HETATM   14  O4  UNL     1      -0.941   0.166   0.015  1.00  0.00    -0.312 OA
ENDROOT
BRANCH  12  15
HETATM   15  N3  UNL     1       1.452   0.247  -1.512  1.00  0.00    -0.339 N 
HETATM   16  H12 UNL     1       1.443   1.003  -2.265  1.00  0.00     0.167 HD
BRANCH  15  17
HETATM   17  C10 UNL     1       2.583   0.296  -0.613  1.00  0.00     0.035 A 
HETATM   18  C11 UNL     1       2.596   0.320   0.764  1.00  0.00     0.032 A 
HETATM   19  C12 UNL     1       3.781   0.322   1.473  1.00  0.00     0.046 A 
HETATM   20  C13 UNL     1       4.999   0.298   0.800  1.00  0.00     0.138 A 
HETATM   21  F1  UNL     1       6.139   0.304   1.522  1.00  0.00    -0.204 F 
HETATM   22  C14 UNL     1       5.017   0.274  -0.576  1.00  0.00     0.074 A 
HETATM   23 CL1  UNL     1       6.586   0.246  -1.341  1.00  0.00    -0.081 Cl
HETATM   24  C15 UNL     1       3.825   0.272  -1.268  1.00  0.00     0.056 A 
ENDBRANCH  15  17
ENDBRANCH  12  15
BRANCH   1  25
HETATM   25  O1  UNL     1      -2.180   2.004  -0.414  1.00  0.00    -0.363 OA
HETATM   26  C1  UNL     1      -1.578   3.249  -0.648  1.00  0.00     0.204 C 
ENDBRANCH   1  25
TORSDOF 3
