REMARK  2 active torsions:
REMARK  status: ('A' for Active; 'I' for Inactive)
REMARK    1  A    between atoms: O1_2  and  C2_3 
REMARK    2  A    between atoms: C6_9  and  N3_10 
ROOT
HETATM    1  C2  UNL     1      -3.532   0.614   0.011  1.00  0.00     0.106 A 
HETATM    2  C3  UNL     1      -2.973   1.868   0.143  1.00  0.00     0.072 A 
HETATM    3  C4  UNL     1      -1.604   2.033   0.141  1.00  0.00     0.077 A 
HETATM    4  N1  UNL     1      -0.948   3.197   0.257  1.00  0.00    -0.241 NA
HETATM    5  C5  UNL     1       0.396   3.242   0.237  1.00  0.00     0.236 A 
HETATM    6  N2  UNL     1       1.154   2.115   0.101  1.00  0.00    -0.223 NA
HETATM    7  C6  UNL     1       0.516   0.914  -0.019  1.00  0.00     0.145 A 
HETATM    8  C13 UNL     1      -0.860   0.884   0.002  1.00  0.00     0.075 A 
HETATM    9  C14 UNL     1      -1.373  -0.387  -0.133  1.00  0.00     0.121 A 
HETATM   10  C15 UNL     1      -2.746  -0.533  -0.129  1.00  0.00     0.136 A 
HETATM   11  O2  UNL     1      -3.302  -1.811  -0.265  1.00  0.00    -0.344 OA
HETATM   12  C16 UNL     1      -2.535  -2.892  -0.793  1.00  0.00     0.202 C 
HETATM   13  C17 UNL     1      -1.178  -2.808  -0.122  1.00  0.00     0.202 C 
HETATM   14  O3  UNL     1      -0.612  -1.513  -0.272  1.00  0.00    -0.345 OA
ENDROOT
BRANCH   7  15
HETATM   15  N3  UNL     1       1.485  -0.121  -0.127  1.00  0.00    -0.330 N 
HETATM   16  C7  UNL     1       1.960  -1.258   0.650  1.00  0.00     0.155 C 
HETATM   17  C8  UNL     1       3.369  -1.013   1.120  1.00  0.00    -0.005 C 
HETATM   18  C9  UNL     1       4.036  -0.218   0.292  1.00  0.00    -0.082 C 
HETATM   19  C10 UNL     1       5.442   0.127   0.605  1.00  0.00     0.043 C 
HETATM   20  C11 UNL     1       3.636   0.448  -0.976  1.00  0.00     0.092 C 
HETATM   21  C12 UNL     1       2.273  -0.097  -1.351  1.00  0.00     0.277 C 
HETATM   22  F1  UNL     1       2.422  -1.356  -1.914  1.00  0.00    -0.226 F 
ENDBRANCH   7  15
BRANCH   1  23
HETATM   23  O1  UNL     1      -4.900   0.429   0.010  1.00  0.00    -0.353 OA
HETATM   24  C1  UNL     1      -5.865   1.425   0.136  1.00  0.00     0.210 C 
ENDBRANCH   1  23
TORSDOF 2
