REMARK  1 active torsions:
REMARK  status: ('A' for Active; 'I' for Inactive)
REMARK    1  A    between atoms: C6_8  and  N3_9 
ROOT
HETATM    1  C1  UNL     1      -4.647   0.038   0.635  1.00  0.00     0.051 C 
HETATM    2  C2  UNL     1      -3.241   0.473   0.444  1.00  0.00    -0.024 A 
HETATM    3  C3  UNL     1      -2.903   1.825   0.336  1.00  0.00     0.042 A 
HETATM    4  C4  UNL     1      -1.594   2.186   0.159  1.00  0.00     0.075 A 
HETATM    5  N1  UNL     1      -1.217   3.457   0.061  1.00  0.00    -0.241 NA
HETATM    6  C5  UNL     1       0.091   3.765  -0.102  1.00  0.00     0.236 A 
HETATM    7  N2  UNL     1       0.998   2.775  -0.165  1.00  0.00    -0.223 NA
HETATM    8  C6  UNL     1       0.668   1.461  -0.071  1.00  0.00     0.146 A 
HETATM    9  C11 UNL     1      -0.669   1.170   0.097  1.00  0.00     0.075 A 
HETATM   10  C12 UNL     1      -0.927  -0.166   0.196  1.00  0.00     0.119 A 
HETATM   11  C13 UNL     1      -2.261  -0.515   0.374  1.00  0.00     0.109 A 
HETATM   12  O1  UNL     1      -2.554  -1.869   0.476  1.00  0.00    -0.346 OA
HETATM   13  C14 UNL     1      -1.700  -2.869  -0.039  1.00  0.00     0.202 C 
HETATM   14  C15 UNL     1      -0.254  -2.521  -0.041  1.00  0.00     0.202 C 
HETATM   15  O2  UNL     1       0.025  -1.145   0.133  1.00  0.00    -0.345 OA
ENDROOT
BRANCH   8  16
HETATM   16  N3  UNL     1       1.811   0.634  -0.220  1.00  0.00    -0.334 N 
HETATM   17  C7  UNL     1       2.532   0.598   1.032  1.00  0.00     0.109 C 
HETATM   18  C8  UNL     1       3.806   0.174   1.088  1.00  0.00     0.104 C 
HETATM   19  N4  UNL     1       4.361  -0.224  -0.160  1.00  0.00    -0.349 N 
HETATM   20  C9  UNL     1       3.500  -0.942  -1.102  1.00  0.00     0.270 C 
HETATM   21  H8  UNL     1       5.357  -0.015  -0.404  1.00  0.00     0.163 HD
HETATM   22  F1  UNL     1       4.157  -1.099  -2.322  1.00  0.00    -0.199 F 
HETATM   23 CL1  UNL     1       3.192  -2.528  -0.425  1.00  0.00    -0.058 Cl
HETATM   24  C10 UNL     1       2.295  -0.109  -1.377  1.00  0.00     0.214 C 
ENDBRANCH   8  16
TORSDOF 1
