REMARK  0 active torsions:
REMARK  status: ('A' for Active; 'I' for Inactive)
ROOT
HETATM    1  C1  UNL     1       4.346   0.062  -0.521  1.00  0.00     0.043 C 
HETATM    2  C2  UNL     1       2.954  -0.480  -0.324  1.00  0.00    -0.084 C 
HETATM    3  C3  UNL     1       2.559  -1.347  -1.252  1.00  0.00    -0.005 C 
HETATM    4  C4  UNL     1       1.146  -1.832  -0.962  1.00  0.00     0.147 C 
HETATM    5  N1  UNL     1       0.455  -0.752  -0.505  1.00  0.00    -0.378 N 
HETATM    6  C5  UNL     1       0.705  -0.214   0.754  1.00  0.00     0.089 C 
HETATM    7  C6  UNL     1       2.228   0.025   0.861  1.00  0.00     0.058 C 
HETATM    8  C7  UNL     1       0.073   1.046   1.123  1.00  0.00     0.064 C 
HETATM    9  C8  UNL     1      -1.300   1.410   0.947  1.00  0.00    -0.025 C 
HETATM   10  C9  UNL     1      -2.262   2.007   0.259  1.00  0.00     0.010 C 
HETATM   11  C10 UNL     1      -3.099   2.723  -0.685  1.00  0.00     0.319 C 
HETATM   12  N2  UNL     1      -2.229   2.789  -1.671  1.00  0.00    -0.414 NA
HETATM   13  C11 UNL     1      -0.913   2.228  -1.610  1.00  0.00     0.232 C 
HETATM   14  N3  UNL     1      -0.327   1.136  -1.441  1.00  0.00    -0.270 NA
HETATM   15  C12 UNL     1      -0.687  -0.244  -1.191  1.00  0.00     0.261 C 
HETATM   16  C13 UNL     1      -1.879  -0.204  -0.266  1.00  0.00     0.122 C 
HETATM   17  C14 UNL     1      -1.853  -1.216   0.669  1.00  0.00     0.079 C 
HETATM   18  C15 UNL     1      -1.512  -2.654   0.467  1.00  0.00     0.079 C 
HETATM   19  O1  UNL     1      -2.226  -0.638   1.943  1.00  0.00    -0.318 OA
HETATM   20  C16 UNL     1      -2.477   0.706   1.561  1.00  0.00     0.303 C 
HETATM   21  O2  UNL     1      -3.139   0.323   0.261  1.00  0.00    -0.314 OA
ENDROOT
TORSDOF 0
