REMARK  4 active torsions:
REMARK  status: ('A' for Active; 'I' for Inactive)
REMARK    1  A    between atoms: C2_2  and  C3_3 
REMARK    2  A    between atoms: C4_5  and  C5_6 
REMARK    3  A    between atoms: N1_8  and  C7_9 
REMARK    4  A    between atoms: C11_15  and  O1_16 
ROOT
HETATM    1  C7  UNL     1      -0.075  -1.380   1.565  1.00  0.00     0.151 A 
HETATM    2  N2  UNL     1      -0.128  -1.881   2.816  1.00  0.00    -0.223 NA
HETATM    3  C8  UNL     1      -1.187  -1.684   3.628  1.00  0.00     0.236 A 
HETATM    4  N3  UNL     1      -2.234  -0.958   3.171  1.00  0.00    -0.241 NA
HETATM    5  C9  UNL     1      -2.216  -0.438   1.917  1.00  0.00     0.077 A 
HETATM    6  C10 UNL     1      -3.292   0.296   1.475  1.00  0.00     0.072 A 
HETATM    7  C11 UNL     1      -3.334   0.845   0.226  1.00  0.00     0.106 A 
HETATM    8  C13 UNL     1      -2.245   0.648  -0.621  1.00  0.00     0.136 A 
HETATM    9  C14 UNL     1      -1.161  -0.094  -0.171  1.00  0.00     0.121 A 
HETATM   10  C15 UNL     1      -1.136  -0.642   1.096  1.00  0.00     0.075 A 
HETATM   11  O2  UNL     1      -0.046  -0.325  -0.969  1.00  0.00    -0.345 OA
HETATM   12  C16 UNL     1       0.062   0.390  -2.204  1.00  0.00     0.202 C 
HETATM   13  C17 UNL     1      -1.289   0.599  -2.838  1.00  0.00     0.202 C 
HETATM   14  O3  UNL     1      -2.197   1.169  -1.914  1.00  0.00    -0.344 OA
ENDROOT
BRANCH   1  15
HETATM   15  N1  UNL     1       1.063  -1.603   0.721  1.00  0.00    -0.302 N 
HETATM   16  C5  UNL     1       2.319  -1.019   0.394  1.00  0.00     0.059 A 
HETATM   17  C6  UNL     1       1.937  -2.197  -0.234  1.00  0.00     0.129 A 
BRANCH  16  18
HETATM   18  C4  UNL     1       3.456  -0.113   0.371  1.00  0.00     0.073 C 
HETATM   19  C3  UNL     1       4.495  -0.338  -0.415  1.00  0.00     0.117 C 
HETATM   20  F1  UNL     1       4.490  -1.436  -1.210  1.00  0.00    -0.206 F 
BRANCH  19  21
HETATM   21  C2  UNL     1       5.629   0.579  -0.427  1.00  0.00     0.032 C 
HETATM   22  C1  UNL     1       6.670   0.325  -1.236  1.00  0.00     0.014 C 
ENDBRANCH  19  21
ENDBRANCH  16  18
ENDBRANCH   1  15
BRANCH   7  23
HETATM   23  O1  UNL     1      -4.368   1.598  -0.312  1.00  0.00    -0.353 OA
HETATM   24  C12 UNL     1      -5.498   1.826   0.511  1.00  0.00     0.210 C 
ENDBRANCH   7  23
TORSDOF 4
