REMARK  8 active torsions:
REMARK  status: ('A' for Active; 'I' for Inactive)
REMARK    1  A    between atoms: C2_2  and  O1_3 
REMARK    2  A    between atoms: O1_3  and  C3_4 
REMARK    3  A    between atoms: C3_4  and  C4_5 
REMARK    4  A    between atoms: C4_5  and  C5_6 
REMARK    5  A    between atoms: C6_7  and  N2_10 
REMARK    6  A    between atoms: C8_11  and  N3_12 
REMARK    7  A    between atoms: C8_11  and  C15_20 
REMARK    8  A    between atoms: N3_12  and  C9_13 
ROOT
HETATM    1  C5  UNL     1      -0.933  -0.528  -1.150  1.00  0.00    -0.033 C 
HETATM    2  C6  UNL     1      -0.205  -0.180   0.097  1.00  0.00     0.244 A 
HETATM    3  N1  UNL     1       0.849  -0.475   0.510  1.00  0.00     0.000 N 
HETATM    4  C7  UNL     1       0.305  -1.677   0.408  1.00  0.00     0.232 A 
HETATM    5  N2  UNL     1       0.654  -0.151   0.412  1.00  0.00     0.156 N 
HETATM    6  C8  UNL     1       1.950   0.161   0.882  1.00  0.00     0.310 A 
HETATM    7  C15 UNL     1       1.155  -0.983   0.651  1.00  0.00     0.153 A 
HETATM    8  C16 UNL     1       1.877  -2.412   0.660  1.00  0.00     0.101 C 
HETATM    9  O2  UNL     1       2.934  -3.058   1.107  1.00  0.00    -0.349 OA
HETATM   10  C17 UNL     1       2.478  -4.250   1.834  1.00  0.00     0.202 C 
HETATM   11  C18 UNL     1       2.498  -5.394   0.775  1.00  0.00     0.202 C 
HETATM   12  O3  UNL     1       1.626  -4.965  -0.321  1.00  0.00    -0.344 OA
HETATM   13  C19 UNL     1       1.229  -3.686  -0.145  1.00  0.00     0.128 C 
HETATM   14  C20 UNL     1       0.001  -3.159  -0.702  1.00  0.00     0.085 C 
HETATM   15  C21 UNL     1      -0.992  -2.617   0.370  1.00  0.00     0.114 C 
HETATM   16  O4  UNL     1      -0.721  -2.911  -2.052  1.00  0.00    -0.348 OA
HETATM   17  C22 UNL     1      -1.082  -1.462  -2.438  1.00  0.00     0.208 C 
ENDROOT
BRANCH   6  18
HETATM   18  N3  UNL     1       2.996   1.021   1.220  1.00  0.00    -0.350 N 
HETATM   19  H10 UNL     1       3.841   0.627   1.589  1.00  0.00     0.162 HD
BRANCH  18  20
HETATM   20  C9  UNL     1       2.753   2.397   1.009  1.00  0.00     0.031 A 
HETATM   21  C10 UNL     1       3.888   3.156   0.992  1.00  0.00     0.029 A 
HETATM   22  C11 UNL     1       3.829   4.525   0.809  1.00  0.00     0.004 A 
HETATM   23  C12 UNL     1       2.635   5.195   0.635  1.00  0.00     0.024 A 
HETATM   24  C13 UNL     1       1.491   4.418   0.653  1.00  0.00     0.036 A 
HETATM   25 CL1  UNL     1      -0.138   5.073   0.448  1.00  0.00    -0.084 Cl
HETATM   26  C14 UNL     1       1.559   3.058   0.835  1.00  0.00     0.053 A 
ENDBRANCH  18  20
ENDBRANCH   6  18
BRANCH   1  27
HETATM   27  C4  UNL     1      -1.985   0.509  -1.218  1.00  0.00     0.061 C 
BRANCH  27  28
HETATM   28  C3  UNL     1      -3.377  -0.036  -1.037  1.00  0.00     0.171 C 
BRANCH  28  29
HETATM   29  O1  UNL     1      -4.243   1.034  -1.083  1.00  0.00    -0.391 OA
BRANCH  29  30
HETATM   30  C2  UNL     1      -4.260   1.765  -2.239  1.00  0.00     0.163 C 
HETATM   31  C1  UNL     1      -5.285   2.886  -2.141  1.00  0.00     0.033 C 
ENDBRANCH  29  30
ENDBRANCH  28  29
ENDBRANCH  27  28
ENDBRANCH   1  27
TORSDOF 8
