REMARK  3 active torsions:
REMARK  status: ('A' for Active; 'I' for Inactive)
REMARK    1  A    between atoms: O1_1  and  C1_2 
REMARK    2  A    between atoms: C6_10  and  N3_11 
REMARK    3  A    between atoms: N3_11  and  C7_12 
ROOT
HETATM    1  C1  UNL     1       4.527  -1.615   0.612  1.00  0.00     0.045 C 
HETATM    2  C2  UNL     1       4.727  -0.298   0.552  1.00  0.00     0.032 C 
HETATM    3  C3  UNL     1       4.105   1.008   0.746  1.00  0.00     0.005 C 
HETATM    4  C4  UNL     1       2.920   1.462   1.093  1.00  0.00     0.035 C 
HETATM    5  P1  UNL     1       1.332   0.697   1.535  1.00  0.00     0.073 P 
HETATM    6  N1  UNL     1       0.254   1.770   2.480  1.00  0.00    -0.245 NA
HETATM    7  C5  UNL     1      -0.876   2.067   1.932  1.00  0.00     0.234 A 
HETATM    8  N2  UNL     1      -1.454   1.711   0.715  1.00  0.00    -0.224 NA
HETATM    9  C6  UNL     1      -0.973   0.965  -0.191  1.00  0.00     0.144 A 
HETATM   10  C13 UNL     1       0.339   0.360  -0.001  1.00  0.00     0.062 A 
HETATM   11  C14 UNL     1       0.783  -0.435  -0.964  1.00  0.00     0.152 C 
HETATM   12  O2  UNL     1       2.012  -0.806  -0.433  1.00  0.00    -0.362 OA
HETATM   13  C15 UNL     1       2.291  -2.190  -0.117  1.00  0.00     0.181 C 
HETATM   14  C16 UNL     1       3.255  -2.253   1.036  1.00  0.00     0.091 C 
ENDROOT
BRANCH   9  15
HETATM   15  N3  UNL     1      -1.770   0.758  -1.351  1.00  0.00    -0.340 N 
HETATM   16  H6  UNL     1      -1.245   0.658  -2.249  1.00  0.00     0.167 HD
BRANCH  15  17
HETATM   17  C7  UNL     1      -3.188   0.676  -1.352  1.00  0.00     0.035 A 
HETATM   18  C8  UNL     1      -3.850   0.534  -2.580  1.00  0.00     0.029 A 
HETATM   19  C9  UNL     1      -5.221   0.442  -2.646  1.00  0.00     0.004 A 
HETATM   20  C10 UNL     1      -6.018   0.483  -1.535  1.00  0.00     0.019 A 
HETATM   21  C11 UNL     1      -5.371   0.625  -0.306  1.00  0.00     0.013 A 
HETATM   22 BR1  UNL     1      -6.436   0.688   1.276  1.00  0.00    -0.051 Br
HETATM   23  C12 UNL     1      -4.019   0.713  -0.267  1.00  0.00     0.048 A 
ENDBRANCH  15  17
ENDBRANCH   9  15
BRANCH   1  24
HETATM   24  O1  UNL     1       5.518  -2.574   0.290  1.00  0.00    -0.365 OA
HETATM   25  H1  UNL     1       5.360  -3.139  -0.539  1.00  0.00     0.217 HD
ENDBRANCH   1  24
TORSDOF 3
