REMARK  6 active torsions:
REMARK  status: ('A' for Active; 'I' for Inactive)
REMARK    1  A    between atoms: C5_6  and  N1_7 
REMARK    2  A    between atoms: C10_13  and  O1_14 
REMARK    3  A    between atoms: O1_14  and  C11_15 
REMARK    4  A    between atoms: C11_15  and  C12_16 
REMARK    5  A    between atoms: C12_16  and  C13_17 
REMARK    6  A    between atoms: C13_17  and  N3_18 
ROOT
HETATM    1  N1  UNL     1       4.110  -0.140  -1.221  1.00  0.00    -0.338 N 
HETATM    2  C6  UNL     1       4.841  -0.360  -2.430  1.00  0.00     0.176 A 
HETATM    3  C7  UNL     1       3.908  -0.813  -3.492  1.00  0.00     0.110 A 
HETATM    4  N2  UNL     1       2.617  -1.024  -3.399  1.00  0.00    -0.261 NA
HETATM    5  C8  UNL     1       1.951  -0.815  -2.174  1.00  0.00     0.088 A 
HETATM    6  C9  UNL     1       0.617  -1.033  -2.015  1.00  0.00     0.073 A 
HETATM    7  C10 UNL     1       0.056  -0.812  -0.774  1.00  0.00     0.107 A 
HETATM    8  C18 UNL     1       0.832  -0.373   0.299  1.00  0.00     0.138 A 
HETATM    9  C19 UNL     1       2.184  -0.151   0.138  1.00  0.00     0.134 A 
HETATM   10  C20 UNL     1       2.714  -0.380  -1.111  1.00  0.00     0.101 A 
HETATM   11  O3  UNL     1       2.922   0.281   1.227  1.00  0.00    -0.344 OA
HETATM   12  C21 UNL     1       2.416  -0.019   2.515  1.00  0.00     0.202 C 
HETATM   13  C22 UNL     1       0.968   0.452   2.603  1.00  0.00     0.202 C 
HETATM   14  O4  UNL     1       0.238  -0.156   1.547  1.00  0.00    -0.344 OA
ENDROOT
BRANCH   7  15
HETATM   15  O1  UNL     1      -1.281  -1.008  -0.530  1.00  0.00    -0.348 OA
BRANCH  15  16
HETATM   16  C11 UNL     1      -2.207  -1.443  -1.483  1.00  0.00     0.177 C 
BRANCH  16  17
HETATM   17  C12 UNL     1      -3.592  -1.540  -0.832  1.00  0.00     0.057 C 
BRANCH  17  18
HETATM   18  C13 UNL     1      -3.972  -0.191  -0.328  1.00  0.00     0.274 C 
BRANCH  18  19
HETATM   19  N3  UNL     1      -5.263  -0.120   0.318  1.00  0.00     0.092 N 
HETATM   20  C14 UNL     1      -5.425   1.279   0.727  1.00  0.00     0.298 C 
HETATM   21  C15 UNL     1      -6.638   1.450   1.614  1.00  0.00     0.198 C 
HETATM   22  O2  UNL     1      -7.670   0.647   1.133  1.00  0.00    -0.388 OA
HETATM   23  C16 UNL     1      -7.513   0.404  -0.232  1.00  0.00     0.198 C 
HETATM   24  C17 UNL     1      -6.344  -0.525  -0.520  1.00  0.00     0.298 C 
ENDBRANCH  18  19
ENDBRANCH  17  18
ENDBRANCH  16  17
ENDBRANCH  15  16
ENDBRANCH   7  15
BRANCH   1  25
HETATM   25  C5  UNL     1       5.020   0.331  -0.261  1.00  0.00     0.036 A 
HETATM   26  C4  UNL     1       6.010  -0.542   0.139  1.00  0.00     0.030 A 
HETATM   27  C3  UNL     1       7.024  -0.266   1.062  1.00  0.00     0.004 A 
HETATM   28  C2  UNL     1       7.038   0.993   1.624  1.00  0.00     0.024 A 
HETATM   29  C1  UNL     1       6.076   1.893   1.257  1.00  0.00     0.036 A 
HETATM   30 CL1  UNL     1       5.985   3.530   1.902  1.00  0.00    -0.084 Cl
HETATM   31  C23 UNL     1       5.105   1.588   0.356  1.00  0.00     0.053 A 
ENDBRANCH   1  25
TORSDOF 6
