REMARK  4 active torsions:
REMARK  status: ('A' for Active; 'I' for Inactive)
REMARK    1  A    between atoms: C5_6  and  C6_7 
REMARK    2  A    between atoms: C10_13  and  C11_14 
REMARK    3  A    between atoms: C11_14  and  C12_15 
REMARK    4  A    between atoms: C12_15  and  C13_16 
ROOT
HETATM    1  C6  UNL     1      -2.898   0.866   0.860  1.00  0.00     0.100 A 
HETATM    2  N1  UNL     1      -2.718   1.941   1.500  1.00  0.00    -0.268 NA
HETATM    3  C7  UNL     1      -1.495   1.931   2.272  1.00  0.00     0.279 A 
HETATM    4  N2  UNL     1      -0.906   0.655   2.034  1.00  0.00    -0.308 N 
HETATM    5  C8  UNL     1      -0.060  -0.547   1.997  1.00  0.00     0.105 C 
HETATM    6  C9  UNL     1       0.935  -0.710   1.077  1.00  0.00     0.055 C 
HETATM    7  C10 UNL     1       0.384  -0.493  -0.263  1.00  0.00    -0.053 C 
HETATM    8  C17 UNL     1      -0.922  -0.213  -0.106  1.00  0.00     0.048 C 
HETATM    9  C18 UNL     1      -1.781  -0.084   1.104  1.00  0.00     0.207 A 
HETATM   10  O2  UNL     1      -2.218  -1.269   1.653  1.00  0.00    -0.332 OA
HETATM   11  C19 UNL     1      -1.847  -1.463   3.010  1.00  0.00     0.295 C 
HETATM   12  N4  UNL     1      -0.357  -1.599   2.992  1.00  0.00    -0.355 N 
HETATM   13  H22 UNL     1       0.548  -2.060   3.325  1.00  0.00     0.163 HD
ENDROOT
BRANCH   7  14
HETATM   14  C11 UNL     1       1.209  -0.627  -1.440  1.00  0.00     0.040 C 
BRANCH  14  15
HETATM   15  C12 UNL     1       2.343   0.323  -1.617  1.00  0.00     0.042 C 
BRANCH  15  16
HETATM   16  C13 UNL     1       3.403   0.340  -0.580  1.00  0.00     0.244 C 
HETATM   17  C14 UNL     1       4.446   1.379  -0.988  1.00  0.00     0.203 C 
HETATM   18  O1  UNL     1       5.335   0.916  -1.929  1.00  0.00    -0.387 OA
HETATM   19  C15 UNL     1       6.061  -0.113  -1.330  1.00  0.00     0.197 C 
HETATM   20  C16 UNL     1       5.095  -1.278  -1.207  1.00  0.00     0.296 C 
HETATM   21  N3  UNL     1       3.985  -0.943  -0.348  1.00  0.00     0.092 N 
HETATM   22  H18 UNL     1       4.161  -1.145   0.653  1.00  0.00     0.316 HD
ENDBRANCH  15  16
ENDBRANCH  14  15
ENDBRANCH   7  14
BRANCH   1  23
HETATM   23  C5  UNL     1      -4.035   0.575  -0.005  1.00  0.00    -0.005 A 
HETATM   24  C4  UNL     1      -5.001   1.554  -0.139  1.00  0.00     0.014 A 
HETATM   25  C3  UNL     1      -6.113   1.381  -0.930  1.00  0.00     0.002 A 
HETATM   26  C2  UNL     1      -6.197   0.151  -1.586  1.00  0.00     0.019 A 
HETATM   27  C1  UNL     1      -5.247  -0.865  -1.480  1.00  0.00     0.011 A 
HETATM   28 BR1  UNL     1      -5.536  -2.461  -2.446  1.00  0.00    -0.051 Br
HETATM   29  C20 UNL     1      -4.162  -0.625  -0.674  1.00  0.00     0.032 A 
ENDBRANCH   1  23
TORSDOF 4
