REMARK  9 active torsions:
REMARK  status: ('A' for Active; 'I' for Inactive)
REMARK    1  A    between atoms: C2_2  and  O1_3 
REMARK    2  A    between atoms: O1_3  and  C3_4 
REMARK    3  A    between atoms: C6_7  and  N1_8 
REMARK    4  A    between atoms: N1_8  and  C7_9 
REMARK    5  A    between atoms: C16_21  and  O2_22 
REMARK    6  A    between atoms: O2_22  and  C17_23 
REMARK    7  A    between atoms: C17_23  and  C18_24 
REMARK    8  A    between atoms: C18_24  and  C19_25 
REMARK    9  A    between atoms: C19_25  and  N4_26 
ROOT
HETATM    1  C3  UNL     1       0.700  -0.639   1.161  1.00  0.00     0.103 A 
HETATM    2  C4  UNL     1       1.984  -0.459   0.655  1.00  0.00     0.057 A 
HETATM    3  C5  UNL     1       2.319   0.499  -0.277  1.00  0.00     0.042 A 
HETATM    4  C6  UNL     1       3.600   0.648  -0.756  1.00  0.00     0.142 A 
HETATM    5  N2  UNL     1       3.749   1.608  -1.640  1.00  0.00    -0.224 NA
HETATM    6  C13 UNL     1       2.782   2.413  -2.085  1.00  0.00     0.236 A 
HETATM    7  N3  UNL     1       1.524   2.284  -1.631  1.00  0.00    -0.241 NA
HETATM    8  C14 UNL     1       1.299   1.314  -0.716  1.00  0.00     0.075 A 
HETATM    9  C15 UNL     1       0.029   1.141  -0.221  1.00  0.00     0.072 A 
HETATM   10  C16 UNL     1      -0.340   0.193   0.710  1.00  0.00     0.104 A 
ENDROOT
BRANCH  10  11
HETATM   11  O2  UNL     1      -1.565  -0.051   1.249  1.00  0.00    -0.348 OA
BRANCH  11  12
HETATM   12  C17 UNL     1      -2.803   0.508   1.050  1.00  0.00     0.177 C 
BRANCH  12  13
HETATM   13  C18 UNL     1      -3.301   0.296  -0.337  1.00  0.00     0.057 C 
BRANCH  13  14
HETATM   14  C19 UNL     1      -4.660   0.939  -0.523  1.00  0.00     0.274 C 
BRANCH  14  15
HETATM   15  N4  UNL     1      -5.666   0.428   0.353  1.00  0.00     0.092 N 
HETATM   16  C20 UNL     1      -6.025  -0.945   0.048  1.00  0.00     0.298 C 
HETATM   17  C21 UNL     1      -6.546  -1.027  -1.369  1.00  0.00     0.198 C 
HETATM   18  O3  UNL     1      -7.566  -0.128  -1.574  1.00  0.00    -0.388 OA
HETATM   19  C22 UNL     1      -8.000   0.492  -0.405  1.00  0.00     0.198 C 
HETATM   20  C23 UNL     1      -6.851   1.246   0.224  1.00  0.00     0.298 C 
ENDBRANCH  14  15
ENDBRANCH  13  14
ENDBRANCH  12  13
ENDBRANCH  11  12
ENDBRANCH  10  11
BRANCH   1  21
HETATM   21  O1  UNL     1       0.393  -1.603   2.092  1.00  0.00    -0.349 OA
BRANCH  21  22
HETATM   22  C2  UNL     1       1.272  -2.515   2.664  1.00  0.00     0.171 C 
HETATM   23  C1  UNL     1       2.380  -1.854   3.425  1.00  0.00     0.034 C 
ENDBRANCH  21  22
ENDBRANCH   1  21
BRANCH   4  24
HETATM   24  N1  UNL     1       4.652  -0.194  -0.316  1.00  0.00    -0.340 N 
HETATM   25  H7  UNL     1       4.514  -0.966   0.367  1.00  0.00     0.167 HD
BRANCH  24  26
HETATM   26  C7  UNL     1       6.014  -0.138  -0.708  1.00  0.00     0.036 A 
HETATM   27  C8  UNL     1       6.568   0.922  -1.389  1.00  0.00     0.029 A 
HETATM   28  C9  UNL     1       7.879   1.001  -1.798  1.00  0.00     0.005 A 
HETATM   29  C10 UNL     1       8.733  -0.045  -1.522  1.00  0.00     0.042 A 
HETATM   30  C11 UNL     1       8.241  -1.136  -0.844  1.00  0.00     0.118 A 
HETATM   31  F1  UNL     1       9.047  -2.185  -0.553  1.00  0.00    -0.206 F 
HETATM   32  C12 UNL     1       6.920  -1.146  -0.466  1.00  0.00     0.071 A 
ENDBRANCH  24  26
ENDBRANCH   4  24
TORSDOF 9
