REMARK  1 active torsions:
REMARK  status: ('A' for Active; 'I' for Inactive)
REMARK    1  A    between atoms: O1_3  and  C2_4 
ROOT
HETATM    1  N1  UNL     1      -2.914   4.182  -1.713  1.00  0.00    -0.164 NA
HETATM    2  C1  UNL     1      -1.944   3.642  -1.386  1.00  0.00     0.234 C 
HETATM    3  O1  UNL     1      -0.826   3.004  -0.988  1.00  0.00    -0.238 OA
ENDROOT
BRANCH   3   4
HETATM    4  C2  UNL     1      -0.696   1.656  -0.933  1.00  0.00     0.125 C 
HETATM    5  C3  UNL     1       0.492   1.414  -0.265  1.00  0.00     0.116 C 
HETATM    6  O2  UNL     1       0.243   2.448   0.754  1.00  0.00    -0.345 OA
HETATM    7  C11 UNL     1       1.633   0.441  -0.462  1.00  0.00     0.029 A 
HETATM    8  C4  UNL     1       0.091   2.122   2.196  1.00  0.00     0.204 C 
HETATM    9  C5  UNL     1       0.239   0.684   2.528  1.00  0.00     0.228 C 
HETATM   10  O3  UNL     1      -0.478  -0.321   2.000  1.00  0.00    -0.275 OA
HETATM   11  N2  UNL     1      -0.082  -0.870   0.776  1.00  0.00    -0.242 N 
HETATM   12  C6  UNL     1       1.265  -0.836   0.180  1.00  0.00     0.074 A 
HETATM   13  C12 UNL     1      -1.437  -1.249   0.399  1.00  0.00     0.207 A 
HETATM   14  C7  UNL     1       2.124  -1.885   0.170  1.00  0.00     0.074 A 
HETATM   15  C8  UNL     1       3.310  -1.642  -0.472  1.00  0.00     0.118 A 
HETATM   16  F1  UNL     1       4.147  -2.682  -0.476  1.00  0.00    -0.206 F 
HETATM   17  C9  UNL     1       3.629  -0.446  -1.063  1.00  0.00     0.043 A 
HETATM   18  C10 UNL     1       2.811   0.651  -1.088  1.00  0.00     0.020 A 
HETATM   19  C13 UNL     1      -1.852  -2.629   0.330  1.00  0.00     0.125 A 
HETATM   20  C15 UNL     1      -1.847  -0.598  -0.922  1.00  0.00     0.069 A 
HETATM   21  N3  UNL     1      -2.477  -3.163  -0.645  1.00  0.00    -0.256 NA
HETATM   22  C14 UNL     1      -2.850  -2.457  -1.821  1.00  0.00     0.232 A 
HETATM   23  N4  UNL     1      -2.566  -1.181  -2.007  1.00  0.00    -0.244 NA
HETATM   24  C16 UNL     1      -1.666   0.628  -1.485  1.00  0.00     0.071 C 
ENDBRANCH   3   4
TORSDOF 1
