REMARK  5 active torsions:
REMARK  status: ('A' for Active; 'I' for Inactive)
REMARK    1  A    between atoms: C5_6  and  N1_7 
REMARK    2  A    between atoms: N1_7  and  C6_8 
REMARK    3  A    between atoms: C10_14  and  O1_15 
REMARK    4  A    between atoms: O1_15  and  C11_16 
REMARK    5  A    between atoms: C11_16  and  C12_17 
ROOT
HETATM    1  C6  UNL     1      -1.875  -1.872  -0.541  1.00  0.00     0.144 A 
HETATM    2  N2  UNL     1      -2.070  -3.204  -0.348  1.00  0.00    -0.223 NA
HETATM    3  C7  UNL     1      -1.064  -4.038   0.014  1.00  0.00     0.236 A 
HETATM    4  N3  UNL     1       0.192  -3.566   0.199  1.00  0.00    -0.241 NA
HETATM    5  C8  UNL     1       0.436  -2.235   0.016  1.00  0.00     0.077 A 
HETATM    6  C9  UNL     1       1.706  -1.722   0.193  1.00  0.00     0.072 A 
HETATM    7  C10 UNL     1       1.874  -0.361  -0.015  1.00  0.00     0.107 A 
HETATM    8  C15 UNL     1       0.837   0.471  -0.382  1.00  0.00     0.136 A 
HETATM    9  C16 UNL     1      -0.434  -0.050  -0.558  1.00  0.00     0.121 A 
HETATM   10  C17 UNL     1      -0.595  -1.400  -0.351  1.00  0.00     0.075 A 
HETATM   11  O3  UNL     1      -1.491   0.777  -0.930  1.00  0.00    -0.345 OA
HETATM   12  C18 UNL     1      -1.363   2.151  -1.137  1.00  0.00     0.202 C 
HETATM   13  C19 UNL     1       0.029   2.678  -1.168  1.00  0.00     0.202 C 
HETATM   14  O4  UNL     1       1.000   1.835  -0.591  1.00  0.00    -0.344 OA
ENDROOT
BRANCH   1  15
HETATM   15  N1  UNL     1      -3.039  -1.152  -0.921  1.00  0.00    -0.340 N 
HETATM   16  H4  UNL     1      -3.115  -1.064  -1.962  1.00  0.00     0.167 HD
BRANCH  15  17
HETATM   17  C5  UNL     1      -4.022  -0.591  -0.068  1.00  0.00     0.036 A 
HETATM   18  C4  UNL     1      -5.140   0.007  -0.633  1.00  0.00     0.029 A 
HETATM   19  C3  UNL     1      -6.120   0.557   0.182  1.00  0.00     0.005 A 
HETATM   20  C2  UNL     1      -5.979   0.508   1.572  1.00  0.00     0.042 A 
HETATM   21  C1  UNL     1      -4.838  -0.104   2.035  1.00  0.00     0.118 A 
HETATM   22  F1  UNL     1      -4.719  -0.137   3.396  1.00  0.00    -0.206 F 
HETATM   23  C20 UNL     1      -3.815  -0.676   1.310  1.00  0.00     0.071 A 
ENDBRANCH  15  17
ENDBRANCH   1  15
BRANCH   7  24
HETATM   24  O1  UNL     1       3.145   0.166   0.158  1.00  0.00    -0.348 OA
BRANCH  24  25
HETATM   25  C11 UNL     1       4.288  -0.531   0.521  1.00  0.00     0.184 C 
BRANCH  25  26
HETATM   26  C12 UNL     1       5.528   0.297   0.625  1.00  0.00     0.057 C 
HETATM   27  C13 UNL     1       5.913   1.004  -0.682  1.00  0.00     0.176 C 
HETATM   28  O2  UNL     1       6.453   1.997   0.130  1.00  0.00    -0.390 OA
HETATM   29  C14 UNL     1       5.436   1.714   1.050  1.00  0.00     0.176 C 
ENDBRANCH  25  26
ENDBRANCH  24  25
ENDBRANCH   7  24
TORSDOF 5
