REMARK  2 active torsions:
REMARK  status: ('A' for Active; 'I' for Inactive)
REMARK    1  A    between atoms: N1_1  and  C1_2 
REMARK    2  A    between atoms: N2_9  and  C6_10 
ROOT
HETATM    1  C6  UNL     1       0.328  -0.886  -0.399  1.00  0.00     0.119 C 
HETATM    2  N3  UNL     1      -0.026  -0.592   0.802  1.00  0.00    -0.270 NA
HETATM    3  C7  UNL     1      -1.299  -1.076   1.301  1.00  0.00     0.192 C 
HETATM    4  C8  UNL     1      -2.282   0.003   1.180  1.00  0.00    -0.004 A 
HETATM    5  C9  UNL     1      -2.703   0.731   2.272  1.00  0.00     0.012 A 
HETATM    6  C10 UNL     1      -3.627   1.775   2.292  1.00  0.00     0.001 A 
HETATM    7  C11 UNL     1      -4.152   2.076   1.051  1.00  0.00     0.003 A 
HETATM    8  C12 UNL     1      -3.772   1.380  -0.097  1.00  0.00     0.038 A 
HETATM    9  C13 UNL     1      -2.848   0.357  -0.027  1.00  0.00     0.084 A 
HETATM   10  O1  UNL     1      -2.587  -0.225  -1.260  1.00  0.00    -0.304 OA
HETATM   11  C14 UNL     1      -2.368  -1.582  -1.420  1.00  0.00     0.253 C 
HETATM   12  N4  UNL     1      -1.273  -2.210  -1.597  1.00  0.00    -0.270 NA
HETATM   13  C15 UNL     1       0.023  -1.562  -1.666  1.00  0.00     0.228 C 
ENDROOT
BRANCH   1  14
HETATM   14  N2  UNL     1       1.593  -0.244  -0.493  1.00  0.00    -0.333 N 
HETATM   15  C1  UNL     1       2.762  -1.104  -0.455  1.00  0.00     0.346 C 
HETATM   16  C2  UNL     1       4.003  -0.311  -0.272  1.00  0.00     0.068 C 
HETATM   17  C3  UNL     1       4.123   0.983  -0.570  1.00  0.00     0.114 C 
HETATM   18  F1  UNL     1       5.284   1.636  -0.376  1.00  0.00    -0.209 F 
HETATM   19  C4  UNL     1       2.949   1.710  -1.124  1.00  0.00     0.162 C 
HETATM   20 CL1  UNL     1       3.099   3.422  -0.607  1.00  0.00    -0.116 Cl
HETATM   21  C5  UNL     1       1.637   1.197  -0.617  1.00  0.00     0.154 C 
BRANCH  15  22
HETATM   22  N1  UNL     1       2.681  -2.059   0.629  1.00  0.00     0.105 N 
HETATM   23  H1  UNL     1       2.845  -1.657   1.565  1.00  0.00     0.315 HD
HETATM   24  H2  UNL     1       3.259  -2.895   0.403  1.00  0.00     0.315 HD
ENDBRANCH  15  22
ENDBRANCH   1  14
TORSDOF 2
