REMARK  12 active torsions:
REMARK  status: ('A' for Active; 'I' for Inactive)
REMARK    1  A    between atoms: O1_2  and  C2_3 
REMARK    2  A    between atoms: C2_3  and  C3_4 
REMARK    3  A    between atoms: C3_4  and  O2_5 
REMARK    4  A    between atoms: O2_5  and  C4_6 
REMARK    5  A    between atoms: C6_8  and  C7_9 
REMARK    6  A    between atoms: C7_9  and  O3_10 
REMARK    7  A    between atoms: O3_10  and  C8_11 
REMARK    8  A    between atoms: C8_11  and  C9_12 
REMARK    9  A    between atoms: C9_12  and  C10_13 
REMARK   10  A    between atoms: C10_13  and  N1_14 
REMARK   11  A    between atoms: C16_23  and  N4_24 
REMARK   12  A    between atoms: N4_24  and  C17_25 
ROOT
HETATM    1  C4  UNL     1      -1.213   0.184   0.355  1.00  0.00     0.242 A 
HETATM    2  C5  UNL     1      -0.152  -0.724   0.801  1.00  0.00     0.070 A 
HETATM    3  C6  UNL     1       0.560  -1.583   0.081  1.00  0.00     0.029 C 
HETATM    4  N2  UNL     1       0.233  -0.736   2.169  1.00  0.00    -0.244 NA
HETATM    5  C15 UNL     1      -0.250  -0.002   3.095  1.00  0.00     0.235 A 
HETATM    6  N3  UNL     1      -1.273   0.923   2.760  1.00  0.00    -0.225 NA
HETATM    7  C16 UNL     1      -1.713   1.016   1.529  1.00  0.00     0.141 A 
ENDROOT
BRANCH   1   8
HETATM    8  O2  UNL     1      -2.290  -0.541  -0.139  1.00  0.00    -0.370 OA
BRANCH   8   9
HETATM    9  C3  UNL     1      -2.752  -0.114  -1.372  1.00  0.00     0.195 C 
BRANCH   9  10
HETATM   10  C2  UNL     1      -3.915  -1.059  -1.719  1.00  0.00     0.193 C 
BRANCH  10  11
HETATM   11  O1  UNL     1      -3.477  -2.364  -1.781  1.00  0.00    -0.394 OA
HETATM   12  C1  UNL     1      -4.550  -3.194  -2.093  1.00  0.00     0.201 C 
ENDBRANCH  10  11
ENDBRANCH   9  10
ENDBRANCH   8   9
ENDBRANCH   1   8
BRANCH   3  13
HETATM   13  C7  UNL     1       0.648  -2.013  -1.331  1.00  0.00     0.197 C 
BRANCH  13  14
HETATM   14  O3  UNL     1       1.850  -1.827  -1.944  1.00  0.00    -0.387 OA
BRANCH  14  15
HETATM   15  C8  UNL     1       2.888  -2.499  -1.358  1.00  0.00     0.169 C 
BRANCH  15  16
HETATM   16  C9  UNL     1       4.142  -2.223  -2.155  1.00  0.00     0.046 C 
BRANCH  16  17
HETATM   17  C10 UNL     1       4.536  -0.795  -2.228  1.00  0.00     0.119 C 
BRANCH  17  18
HETATM   18  N1  UNL     1       4.848  -0.096  -1.071  1.00  0.00    -0.408 N 
HETATM   19  C11 UNL     1       3.931   0.261  -0.091  1.00  0.00     0.143 C 
HETATM   20  C12 UNL     1       4.117   1.740   0.237  1.00  0.00     0.187 C 
HETATM   21  O4  UNL     1       5.375   2.049   0.662  1.00  0.00    -0.388 OA
HETATM   22  C13 UNL     1       6.333   1.084   0.443  1.00  0.00     0.187 C 
HETATM   23  C14 UNL     1       6.168   0.356  -0.872  1.00  0.00     0.143 C 
ENDBRANCH  17  18
ENDBRANCH  16  17
ENDBRANCH  15  16
ENDBRANCH  14  15
ENDBRANCH  13  14
ENDBRANCH   3  13
BRANCH   7  24
HETATM   24  N4  UNL     1      -2.724   1.989   1.336  1.00  0.00    -0.342 N 
HETATM   25  H27 UNL     1      -2.684   2.531   0.428  1.00  0.00     0.167 HD
BRANCH  24  26
HETATM   26  C17 UNL     1      -3.768   2.290   2.242  1.00  0.00     0.036 A 
HETATM   27  C18 UNL     1      -4.019   1.685   3.448  1.00  0.00     0.029 A 
HETATM   28  C19 UNL     1      -5.050   2.020   4.299  1.00  0.00     0.005 A 
HETATM   29  C20 UNL     1      -5.914   3.032   3.949  1.00  0.00     0.042 A 
HETATM   30  C21 UNL     1      -5.710   3.665   2.760  1.00  0.00     0.118 A 
HETATM   31  F1  UNL     1      -6.549   4.665   2.393  1.00  0.00    -0.206 F 
HETATM   32  C22 UNL     1      -4.667   3.299   1.939  1.00  0.00     0.071 A 
ENDBRANCH  24  26
ENDBRANCH   7  24
TORSDOF 12
