REMARK  10 active torsions:
REMARK  status: ('A' for Active; 'I' for Inactive)
REMARK    1  A    between atoms: C5_6  and  N1_7 
REMARK    2  A    between atoms: N1_7  and  C6_8 
REMARK    3  A    between atoms: C6_8  and  C7_9 
REMARK    4  A    between atoms: C9_12  and  C10_13 
REMARK    5  A    between atoms: C10_13  and  O1_14 
REMARK    6  A    between atoms: O1_14  and  C11_15 
REMARK    7  A    between atoms: C11_15  and  C12_16 
REMARK    8  A    between atoms: C12_16  and  C13_17 
REMARK    9  A    between atoms: C13_17  and  C14_18 
REMARK   10  A    between atoms: C14_18  and  N3_19 
ROOT
HETATM    1  C7  UNL     1      -1.893  -1.463  -0.144  1.00  0.00     0.065 A 
HETATM    2  N2  UNL     1      -1.163  -2.539  -0.028  1.00  0.00    -0.262 NA
HETATM    3  C8  UNL     1       0.187  -2.192   0.144  1.00  0.00     0.127 A 
HETATM    4  C9  UNL     1       0.364  -0.887   0.144  1.00  0.00    -0.002 A 
HETATM    5  C18 UNL     1      -0.984  -0.336  -0.043  1.00  0.00     0.031 A 
HETATM    6  C19 UNL     1      -1.294   0.945  -0.118  1.00  0.00     0.083 C 
HETATM    7  C20 UNL     1      -2.506   1.760  -0.311  1.00  0.00     0.233 C 
HETATM    8  O3  UNL     1      -2.852   2.471   0.840  1.00  0.00    -0.383 OA
HETATM    9  C21 UNL     1      -1.720   2.971   1.481  1.00  0.00     0.194 C 
HETATM   10  C22 UNL     1      -0.570   3.144   0.489  1.00  0.00     0.201 C 
HETATM   11  O4  UNL     1      -0.250   1.852   0.013  1.00  0.00    -0.350 OA
ENDROOT
BRANCH   4  12
HETATM   12  C10 UNL     1       1.674  -0.134   0.304  1.00  0.00     0.208 C 
BRANCH  12  13
HETATM   13  O1  UNL     1       1.885   0.635  -0.833  1.00  0.00    -0.387 OA
BRANCH  13  14
HETATM   14  C11 UNL     1       1.998  -0.089  -1.979  1.00  0.00     0.168 C 
BRANCH  14  15
HETATM   15  C12 UNL     1       3.168  -0.997  -2.123  1.00  0.00     0.028 C 
BRANCH  15  16
HETATM   16  C13 UNL     1       4.507  -0.311  -2.142  1.00  0.00     0.032 C 
BRANCH  16  17
HETATM   17  C14 UNL     1       4.882   0.465  -0.945  1.00  0.00     0.275 C 
BRANCH  17  18
HETATM   18  N3  UNL     1       5.006  -0.231   0.288  1.00  0.00     0.113 N 
HETATM   19  C15 UNL     1       5.378   0.645   1.386  1.00  0.00     0.301 C 
HETATM   20  C16 UNL     1       6.888   0.646   1.263  1.00  0.00     0.200 C 
HETATM   21  O2  UNL     1       7.229  -0.571   0.726  1.00  0.00    -0.361 OA
HETATM   22  C17 UNL     1       6.053  -1.199   0.331  1.00  0.00     0.440 C 
ENDBRANCH  17  18
ENDBRANCH  16  17
ENDBRANCH  15  16
ENDBRANCH  14  15
ENDBRANCH  13  14
ENDBRANCH  12  13
ENDBRANCH   4  12
BRANCH   1  23
HETATM   23  C6  UNL     1      -3.356  -1.560  -0.333  1.00  0.00     0.180 C 
BRANCH  23  24
HETATM   24  N1  UNL     1      -4.064  -0.969   0.812  1.00  0.00    -0.384 N 
HETATM   25  H4  UNL     1      -3.580  -0.540   1.643  1.00  0.00     0.160 HD
BRANCH  24  26
HETATM   26  C5  UNL     1      -5.489  -0.945   0.856  1.00  0.00     0.031 A 
HETATM   27  C4  UNL     1      -6.216  -0.402   1.906  1.00  0.00     0.029 A 
HETATM   28  C3  UNL     1      -7.591  -0.413   1.884  1.00  0.00     0.005 A 
HETATM   29  C2  UNL     1      -8.291  -0.962   0.819  1.00  0.00     0.042 A 
HETATM   30  C1  UNL     1      -7.598  -1.517  -0.256  1.00  0.00     0.118 A 
HETATM   31  F1  UNL     1      -8.202  -2.078  -1.343  1.00  0.00    -0.206 F 
HETATM   32  C23 UNL     1      -6.227  -1.475  -0.172  1.00  0.00     0.071 A 
ENDBRANCH  24  26
ENDBRANCH  23  24
ENDBRANCH   1  23
TORSDOF 10
