REMARK  9 active torsions:
REMARK  status: ('A' for Active; 'I' for Inactive)
REMARK    1  A    between atoms: C2_2  and  N1_3 
REMARK    2  A    between atoms: C2_2  and  C13_17 
REMARK    3  A    between atoms: N1_3  and  C3_4 
REMARK    4  A    between atoms: C3_4  and  N2_5 
REMARK    5  A    between atoms: N2_5  and  C4_6 
REMARK    6  A    between atoms: C4_6  and  N3_7 
REMARK    7  A    between atoms: N3_7  and  C5_8 
REMARK    8  A    between atoms: C9_12  and  C10_13 
REMARK    9  A    between atoms: C10_13  and  C11_14 
ROOT
HETATM    1  C1  UNL     1       1.152  -1.897  -0.077  1.00  0.00     0.071 C 
HETATM    2  C2  UNL     1       0.296  -0.733  -0.342  1.00  0.00     0.038 C 
ENDROOT
BRANCH   2   3
HETATM    3  N1  UNL     1       0.790   0.600  -0.577  1.00  0.00    -0.246 NA
BRANCH   3   4
HETATM    4  C3  UNL     1       2.046   0.727  -0.901  1.00  0.00     0.234 C 
BRANCH   4   5
HETATM    5  N2  UNL     1       1.958   2.129  -0.997  1.00  0.00    -0.237 NA
BRANCH   5   6
HETATM    6  C4  UNL     1       2.572   2.942  -0.216  1.00  0.00     0.208 C 
BRANCH   6   7
HETATM    7  N3  UNL     1       3.447   2.927   0.885  1.00  0.00    -0.351 N 
HETATM    8  H6  UNL     1       3.481   3.870   1.299  1.00  0.00     0.166 HD
BRANCH   7   9
HETATM    9  C5  UNL     1       3.961   1.607   1.018  1.00  0.00     0.033 A 
HETATM   10  C6  UNL     1       3.402   0.586   1.754  1.00  0.00     0.029 A 
HETATM   11  C7  UNL     1       4.054  -0.629   1.764  1.00  0.00     0.003 A 
HETATM   12  C8  UNL     1       5.209  -0.819   1.072  1.00  0.00     0.007 A 
HETATM   13  C9  UNL     1       5.775   0.204   0.330  1.00  0.00    -0.054 A 
HETATM   14  C12 UNL     1       5.136   1.426   0.310  1.00  0.00     0.036 A 
BRANCH  13  15
HETATM   15  C10 UNL     1       7.036  -0.097  -0.395  1.00  0.00     0.070 C 
BRANCH  15  16
HETATM   16  C11 UNL     1       8.219   0.208   0.497  1.00  0.00     0.226 C 
HETATM   17  F1  UNL     1       8.171   1.540   0.825  1.00  0.00    -0.255 F 
ENDBRANCH  15  16
ENDBRANCH  13  15
ENDBRANCH   7   9
ENDBRANCH   6   7
ENDBRANCH   5   6
ENDBRANCH   4   5
ENDBRANCH   3   4
ENDBRANCH   2   3
BRANCH   2  18
HETATM   18  C13 UNL     1      -1.042  -0.864  -0.381  1.00  0.00    -0.009 C 
HETATM   19  C14 UNL     1      -1.511  -2.213  -0.143  1.00  0.00     0.206 C 
HETATM   20  O1  UNL     1      -2.263  -3.002  -0.929  1.00  0.00    -0.387 OA
HETATM   21  C15 UNL     1      -3.595  -2.638  -1.060  1.00  0.00     0.169 C 
HETATM   22  C16 UNL     1      -3.815  -1.500  -1.970  1.00  0.00     0.056 C 
HETATM   23  C17 UNL     1      -4.946  -0.565  -1.593  1.00  0.00     0.278 C 
HETATM   24  N4  UNL     1      -4.915  -0.031  -0.272  1.00  0.00     0.121 N 
HETATM   25  C18 UNL     1      -6.273   0.139   0.172  1.00  0.00     0.301 C 
HETATM   26  C21 UNL     1      -4.017   1.021   0.049  1.00  0.00     0.383 C 
HETATM   27  C19 UNL     1      -6.362   0.854   1.493  1.00  0.00     0.198 C 
HETATM   28  O2  UNL     1      -5.794   2.127   1.254  1.00  0.00    -0.385 OA
HETATM   29  C20 UNL     1      -4.424   1.874   1.200  1.00  0.00     0.231 C 
HETATM   30  O3  UNL     1      -2.845   0.299   0.525  1.00  0.00    -0.351 OA
HETATM   31  C22 UNL     1      -1.960   0.264  -0.545  1.00  0.00     0.209 C 
ENDBRANCH   2  18
TORSDOF 9
