REMARK  3 active torsions:
REMARK  status: ('A' for Active; 'I' for Inactive)
REMARK    1  A    between atoms: C1_2  and  C2_5 
REMARK    2  A    between atoms: C6_9  and  N1_10 
REMARK    3  A    between atoms: N1_10  and  C7_11 
ROOT
HETATM    1  C7  UNL     1       1.861   0.215   2.776  1.00  0.00     0.144 A 
HETATM    2  N2  UNL     1       2.442   0.633   3.925  1.00  0.00    -0.223 NA
HETATM    3  C8  UNL     1       2.776   1.922   4.077  1.00  0.00     0.236 A 
HETATM    4  N3  UNL     1       2.522   2.772   3.071  1.00  0.00    -0.241 NA
HETATM    5  C9  UNL     1       1.944   2.380   1.913  1.00  0.00     0.073 A 
HETATM    6  C10 UNL     1       1.579   1.040   1.717  1.00  0.00     0.071 A 
HETATM    7  C11 UNL     1       1.014   0.995   0.511  1.00  0.00     0.095 A 
HETATM    8  O1  UNL     1       0.482  -0.145  -0.029  1.00  0.00    -0.349 OA
HETATM    9  C12 UNL     1       0.193  -0.400  -1.383  1.00  0.00     0.201 C 
HETATM   10  C13 UNL     1      -0.846  -1.482  -1.550  1.00  0.00     0.197 C 
HETATM   11  O2  UNL     1      -2.061  -1.243  -0.980  1.00  0.00    -0.363 OA
HETATM   12  C14 UNL     1      -2.760  -0.135  -1.447  1.00  0.00     0.242 C 
HETATM   13  C15 UNL     1      -3.640  -0.484  -2.628  1.00  0.00     0.221 C 
HETATM   14  O3  UNL     1      -4.958  -0.497  -2.234  1.00  0.00    -0.385 OA
HETATM   15  C16 UNL     1      -5.162  -1.158  -1.025  1.00  0.00     0.187 C 
HETATM   16  C17 UNL     1      -4.556  -0.301   0.096  1.00  0.00     0.145 C 
HETATM   17  N4  UNL     1      -3.528   0.486  -0.449  1.00  0.00    -0.384 N 
HETATM   18  C18 UNL     1      -3.657   1.896  -0.418  1.00  0.00     0.121 C 
HETATM   19  C19 UNL     1      -2.463   2.630  -0.938  1.00  0.00     0.046 C 
HETATM   20  C20 UNL     1      -1.291   2.206  -0.032  1.00  0.00     0.170 C 
HETATM   21  O4  UNL     1      -0.167   2.638  -0.639  1.00  0.00    -0.375 OA
HETATM   22  C21 UNL     1       1.049   2.348  -0.159  1.00  0.00     0.204 A 
HETATM   23  C22 UNL     1       1.653   3.179   0.871  1.00  0.00     0.044 A 
ENDROOT
BRANCH   1  24
HETATM   24  N1  UNL     1       1.495  -1.158   2.515  1.00  0.00    -0.340 N 
HETATM   25  H4  UNL     1       0.721  -1.741   2.893  1.00  0.00     0.167 HD
BRANCH  24  26
HETATM   26  C6  UNL     1       2.356  -1.794   1.580  1.00  0.00     0.034 A 
HETATM   27  C5  UNL     1       2.198  -3.138   1.211  1.00  0.00     0.029 A 
HETATM   28  C4  UNL     1       2.988  -3.796   0.299  1.00  0.00     0.003 A 
HETATM   29  C3  UNL     1       4.025  -3.095  -0.314  1.00  0.00     0.016 A 
HETATM   30  C2  UNL     1       4.245  -1.780  -0.006  1.00  0.00     0.050 A 
HETATM   31  C23 UNL     1       3.405  -1.210   0.915  1.00  0.00     0.045 A 
BRANCH  30  32
HETATM   32  C1  UNL     1       5.347  -1.039  -0.673  1.00  0.00     0.417 C 
HETATM   33  F1  UNL     1       6.571  -1.664  -0.522  1.00  0.00    -0.166 F 
HETATM   34  F2  UNL     1       5.111  -0.981  -2.050  1.00  0.00    -0.166 F 
HETATM   35  F3  UNL     1       5.407   0.262  -0.210  1.00  0.00    -0.166 F 
ENDBRANCH  30  32
ENDBRANCH  24  26
ENDBRANCH   1  24
TORSDOF 3
