REMARK  1 active torsions:
REMARK  status: ('A' for Active; 'I' for Inactive)
REMARK    1  A    between atoms: C1_2  and  C2_5 
ROOT
HETATM    1  C2  UNL     1      -4.785  -0.213  -1.539  1.00  0.00     0.120 C 
HETATM    2  C3  UNL     1      -5.403   0.799  -0.647  1.00  0.00     0.004 C 
HETATM    3  C4  UNL     1      -4.945   1.855   0.054  1.00  0.00     0.086 C 
HETATM    4  N1  UNL     1      -3.639   2.242   0.529  1.00  0.00    -0.351 N 
HETATM    5  C5  UNL     1      -2.481   1.475   0.822  1.00  0.00     0.130 C 
HETATM    6  N2  UNL     1      -1.649   2.460   1.076  1.00  0.00    -0.224 NA
HETATM    7  C6  UNL     1      -0.317   2.216   1.432  1.00  0.00     0.234 C 
HETATM    8  N3  UNL     1       0.587   2.085   2.374  1.00  0.00    -0.254 NA
HETATM    9  C7  UNL     1       1.946   1.797   1.976  1.00  0.00     0.114 C 
HETATM   10  C8  UNL     1       2.950   1.058   1.583  1.00  0.00     0.001 C 
HETATM   11  C9  UNL     1       4.180   0.367   1.141  1.00  0.00     0.067 C 
HETATM   12  C10 UNL     1       5.045   1.408   0.474  1.00  0.00     0.280 C 
HETATM   13  N4  UNL     1       5.390   1.022  -0.868  1.00  0.00     0.084 N 
HETATM   14  C11 UNL     1       6.046  -0.274  -0.753  1.00  0.00     0.272 C 
HETATM   15  C12 UNL     1       5.090  -1.352  -0.365  1.00  0.00     0.063 C 
HETATM   16  C13 UNL     1       3.871  -0.819   0.291  1.00  0.00     0.138 C 
HETATM   17  O1  UNL     1       2.857  -0.621  -0.669  1.00  0.00    -0.357 OA
HETATM   18  C14 UNL     1       1.558  -1.068  -0.487  1.00  0.00     0.133 C 
HETATM   19  C15 UNL     1       0.275  -1.234  -0.217  1.00  0.00     0.023 C 
HETATM   20  C16 UNL     1      -0.689  -2.386  -0.347  1.00  0.00     0.198 C 
HETATM   21  O2  UNL     1      -1.735  -2.084  -1.174  1.00  0.00    -0.377 OA
HETATM   22  C17 UNL     1      -2.522  -1.019  -0.805  1.00  0.00     0.155 C 
HETATM   23  C18 UNL     1      -3.999  -1.267  -0.830  1.00  0.00     0.054 C 
HETATM   24  P1  UNL     1      -2.091  -0.335   0.872  1.00  0.00    -0.025 P 
HETATM   25  H4  UNL     1      -3.552   3.281   0.681  1.00  0.00     0.166 HD
HETATM   26  H11 UNL     1       4.629   1.047  -1.553  1.00  0.00     0.315 HD
HETATM   27  H24 UNL     1      -2.995  -0.943   1.833  1.00  0.00     0.068 HD
ENDROOT
BRANCH   1  28
HETATM   28  C1  UNL     1      -5.878  -0.858  -2.367  1.00  0.00     0.394 C 
HETATM   29  F1  UNL     1      -6.820  -1.482  -1.588  1.00  0.00    -0.170 F 
HETATM   30  F2  UNL     1      -5.351  -1.704  -3.299  1.00  0.00    -0.170 F 
HETATM   31  F3  UNL     1      -6.484   0.182  -3.079  1.00  0.00    -0.170 F 
ENDBRANCH   1  28
TORSDOF 1
