REMARK  5 active torsions:
REMARK  status: ('A' for Active; 'I' for Inactive)
REMARK    1  A    between atoms: C1_2  and  C2_5 
REMARK    2  A    between atoms: C3_6  and  C4_7 
REMARK    3  A    between atoms: C5_8  and  C6_9 
REMARK    4  A    between atoms: C6_9  and  N1_10 
REMARK    5  A    between atoms: N1_10  and  C7_11 
ROOT
HETATM    1  C7  UNL     1       0.772   0.863   1.334  1.00  0.00     0.130 C 
HETATM    2  N2  UNL     1       1.056   1.641   2.353  1.00  0.00    -0.227 NA
HETATM    3  C8  UNL     1       0.030   2.478   2.935  1.00  0.00     0.229 C 
HETATM    4  N3  UNL     1      -1.132   2.863   2.453  1.00  0.00    -0.274 NA
HETATM    5  C9  UNL     1      -1.388   2.745   1.016  1.00  0.00     0.136 C 
HETATM    6  C10 UNL     1      -2.575   3.533   0.608  1.00  0.00     0.024 C 
HETATM    7  C11 UNL     1      -3.653   3.250  -0.057  1.00  0.00     0.133 C 
HETATM    8  O1  UNL     1      -3.901   2.012  -0.556  1.00  0.00    -0.359 OA
HETATM    9  C12 UNL     1      -4.660   1.633  -1.655  1.00  0.00     0.204 C 
HETATM   10  C13 UNL     1      -4.669   0.161  -1.881  1.00  0.00     0.028 C 
HETATM   11  P1  UNL     1      -3.838  -1.145  -1.333  1.00  0.00     0.030 P 
HETATM   12  N4  UNL     1      -2.497  -1.143  -0.132  1.00  0.00    -0.252 NA
HETATM   13  C14 UNL     1      -2.799  -2.304   0.695  1.00  0.00     0.124 C 
HETATM   14  C15 UNL     1      -2.808  -3.510  -0.224  1.00  0.00     0.182 C 
HETATM   15  O2  UNL     1      -1.521  -3.703  -0.679  1.00  0.00    -0.386 OA
HETATM   16  C16 UNL     1      -0.627  -2.712  -0.369  1.00  0.00     0.215 C 
HETATM   17  C17 UNL     1      -1.191  -1.317  -0.674  1.00  0.00     0.225 C 
HETATM   18  O3  UNL     1      -0.232  -0.417  -0.302  1.00  0.00    -0.356 OA
HETATM   19  C18 UNL     1      -0.520   0.354   0.816  1.00  0.00     0.195 C 
HETATM   20  C19 UNL     1      -1.570   1.348   0.548  1.00  0.00     0.071 C 
ENDROOT
BRANCH   1  21
HETATM   21  N1  UNL     1       1.979   0.470   0.642  1.00  0.00    -0.373 N 
HETATM   22  H5  UNL     1       1.873  -0.038  -0.286  1.00  0.00     0.161 HD
BRANCH  21  23
HETATM   23  C6  UNL     1       3.294   0.775   1.227  1.00  0.00     0.149 C 
BRANCH  23  24
HETATM   24  C5  UNL     1       4.308   0.250   0.291  1.00  0.00     0.001 C 
HETATM   25  C4  UNL     1       5.224  -0.662   0.552  1.00  0.00     0.062 C 
BRANCH  25  26
HETATM   26  C3  UNL     1       6.172  -1.107  -0.440  1.00  0.00    -0.070 C 
HETATM   27  C2  UNL     1       6.968  -1.465  -1.272  1.00  0.00     0.013 C 
BRANCH  27  28
HETATM   28  C1  UNL     1       7.955  -1.889  -2.272  1.00  0.00     0.459 C 
HETATM   29  F1  UNL     1       7.775  -1.110  -3.422  1.00  0.00    -0.159 F 
HETATM   30  F2  UNL     1       7.800  -3.211  -2.559  1.00  0.00    -0.159 F 
HETATM   31  F3  UNL     1       9.242  -1.665  -1.823  1.00  0.00    -0.159 F 
ENDBRANCH  27  28
ENDBRANCH  25  26
ENDBRANCH  23  24
ENDBRANCH  21  23
ENDBRANCH   1  21
TORSDOF 5
