REMARK  2 active torsions:
REMARK  status: ('A' for Active; 'I' for Inactive)
REMARK    1  A    between atoms: C2_2  and  C3_3 
REMARK    2  A    between atoms: C10_11  and  C11_12 
ROOT
HETATM    1  C3  UNL     1      -4.152  -0.390   0.045  1.00  0.00    -0.041 A 
HETATM    2  C4  UNL     1      -4.242  -0.907   1.251  1.00  0.00     0.011 A 
HETATM    3  C5  UNL     1      -3.018  -1.271   1.903  1.00  0.00     0.026 A 
HETATM    4  C6  UNL     1      -1.861  -1.082   1.297  1.00  0.00     0.015 A 
HETATM    5  C7  UNL     1      -0.719  -1.521   2.133  1.00  0.00     0.077 C 
HETATM    6  C8  UNL     1       0.267  -0.394   2.374  1.00  0.00     0.126 C 
HETATM    7  N1  UNL     1       1.150  -0.235   1.234  1.00  0.00    -0.385 N 
HETATM    8  C9  UNL     1       0.749  -0.007  -0.105  1.00  0.00     0.102 A 
HETATM    9  C10 UNL     1       1.819   0.366  -0.780  1.00  0.00     0.070 A 
HETATM   10  N2  UNL     1       1.526   0.626  -2.168  1.00  0.00    -0.369 N 
HETATM   11  C17 UNL     1       0.257   0.503  -2.850  1.00  0.00     0.273 A 
HETATM   12  N3  UNL     1      -0.827   0.093  -1.982  1.00  0.00    -0.251 NA
HETATM   13  C18 UNL     1      -0.556  -0.128  -0.745  1.00  0.00     0.156 A 
HETATM   14  N4  UNL     1      -1.749  -0.489  -0.010  1.00  0.00    -0.329 N 
HETATM   15  C19 UNL     1      -2.940  -0.152  -0.762  1.00  0.00     0.169 A 
HETATM   16  H10 UNL     1       2.175  -0.312   1.385  1.00  0.00     0.159 HD
HETATM   17  H16 UNL     1       2.275   0.944  -2.811  1.00  0.00     0.161 HD
ENDROOT
BRANCH   9  18
HETATM   18  C11 UNL     1       3.199   0.560  -0.382  1.00  0.00    -0.007 A 
HETATM   19  C12 UNL     1       4.182  -0.066  -1.138  1.00  0.00     0.014 A 
HETATM   20  C13 UNL     1       5.513   0.122  -0.836  1.00  0.00     0.001 A 
HETATM   21  C14 UNL     1       5.944   0.917   0.202  1.00  0.00     0.000 A 
HETATM   22  C15 UNL     1       5.004   1.557   0.979  1.00  0.00     0.001 A 
HETATM   23  C16 UNL     1       3.703   1.351   0.653  1.00  0.00     0.014 A 
ENDBRANCH   9  18
BRANCH   1  24
HETATM   24  C2  UNL     1      -5.474  -0.071  -0.475  1.00  0.00    -0.002 C 
HETATM   25  C1  UNL     1      -5.759   0.458  -1.643  1.00  0.00     0.012 C 
ENDBRANCH   1  24
TORSDOF 2
