REMARK  9 active torsions:
REMARK  status: ('A' for Active; 'I' for Inactive)
REMARK    1  A    between atoms: C2_2  and  C3_5 
REMARK    2  A    between atoms: C7_9  and  N1_10 
REMARK    3  A    between atoms: N1_10  and  C8_11 
REMARK    4  A    between atoms: C12_17  and  C13_18 
REMARK    5  A    between atoms: C13_18  and  C14_19 
REMARK    6  A    between atoms: C13_18  and  O2_22 
REMARK    7  A    between atoms: C14_19  and  C15_20 
REMARK    8  A    between atoms: C15_20  and  O1_21 
REMARK    9  A    between atoms: O2_22  and  C16_23 
ROOT
HETATM    1  C8  UNL     1       1.385  -1.510  -0.511  1.00  0.00     0.137 A 
HETATM    2  N2  UNL     1       2.276  -2.389  -0.850  1.00  0.00    -0.224 NA
HETATM    3  C9  UNL     1       1.868  -3.751  -0.869  1.00  0.00     0.229 A 
HETATM    4  N3  UNL     1       0.722  -4.250  -0.593  1.00  0.00    -0.278 NA
HETATM    5  C10 UNL     1      -0.362  -3.414  -0.202  1.00  0.00     0.192 A 
HETATM    6  C11 UNL     1       0.054  -2.015  -0.191  1.00  0.00     0.006 A 
HETATM    7  C12 UNL     1      -0.847  -1.068   0.132  1.00  0.00     0.017 C 
ENDROOT
BRANCH   1   8
HETATM    8  N1  UNL     1       1.782  -0.153  -0.489  1.00  0.00    -0.340 N 
HETATM    9  H7  UNL     1       1.046   0.534  -0.769  1.00  0.00     0.167 HD
BRANCH   8  10
HETATM   10  C7  UNL     1       3.070   0.308  -0.116  1.00  0.00     0.034 A 
HETATM   11  C6  UNL     1       4.132  -0.443   0.323  1.00  0.00     0.029 A 
HETATM   12  C5  UNL     1       5.354   0.096   0.658  1.00  0.00     0.003 A 
HETATM   13  C4  UNL     1       5.584   1.451   0.570  1.00  0.00     0.013 A 
HETATM   14  C3  UNL     1       4.547   2.229   0.136  1.00  0.00     0.015 A 
HETATM   15  C22 UNL     1       3.340   1.659  -0.191  1.00  0.00     0.042 A 
BRANCH  14  16
HETATM   16  C2  UNL     1       4.751   3.686   0.027  1.00  0.00     0.267 C 
HETATM   17  C1  UNL     1       6.151   4.095   0.435  1.00  0.00     0.096 C 
HETATM   18  F1  UNL     1       3.841   4.289   0.880  1.00  0.00    -0.201 F 
HETATM   19  F2  UNL     1       4.465   4.109  -1.249  1.00  0.00    -0.201 F 
ENDBRANCH  14  16
ENDBRANCH   8  10
ENDBRANCH   1   8
BRANCH   7  20
HETATM   20  C13 UNL     1      -2.261  -1.297   0.499  1.00  0.00     0.147 C 
BRANCH  20  21
HETATM   21  C14 UNL     1      -2.367  -1.427   1.974  1.00  0.00     0.062 C 
BRANCH  21  22
HETATM   22  C15 UNL     1      -1.885  -0.180   2.666  1.00  0.00     0.167 C 
BRANCH  22  23
HETATM   23  O1  UNL     1      -0.562   0.138   2.426  1.00  0.00    -0.401 OA
HETATM   24  H17 UNL     1      -0.364   1.086   2.485  1.00  0.00     0.209 HD
ENDBRANCH  22  23
ENDBRANCH  21  22
ENDBRANCH  20  21
BRANCH  20  25
HETATM   25  O2  UNL     1      -3.125  -0.293   0.092  1.00  0.00    -0.372 OA
BRANCH  25  26
HETATM   26  C16 UNL     1      -4.065  -0.717  -0.829  1.00  0.00     0.156 C 
HETATM   27  C17 UNL     1      -5.474  -0.514  -0.434  1.00  0.00     0.056 C 
HETATM   28  C18 UNL     1      -6.152   0.712  -0.950  1.00  0.00     0.118 C 
HETATM   29  N4  UNL     1      -6.038   0.862  -2.394  1.00  0.00    -0.403 N 
HETATM   30  C19 UNL     1      -4.710   0.771  -2.951  1.00  0.00     0.116 A 
HETATM   31  H23 UNL     1      -6.833   1.034  -3.079  1.00  0.00     0.154 HD
HETATM   32  C20 UNL     1      -3.421   0.547  -3.264  1.00  0.00    -0.005 A 
HETATM   33  C21 UNL     1      -3.804  -0.024  -2.117  1.00  0.00    -0.006 A 
ENDBRANCH  25  26
ENDBRANCH  20  25
ENDBRANCH   7  20
TORSDOF 9
