REMARK  2 active torsions:
REMARK  status: ('A' for Active; 'I' for Inactive)
REMARK    1  A    between atoms: C4_5  and  N1_6 
REMARK    2  A    between atoms: N1_6  and  C5_7 
ROOT
HETATM    1  C5  UNL     1      -1.889  -0.277  -0.839  1.00  0.00     0.137 C 
HETATM    2  N2  UNL     1      -1.703   1.049  -0.967  1.00  0.00    -0.242 NA
HETATM    3  C6  UNL     1      -0.696   1.726  -0.016  1.00  0.00     0.126 C 
HETATM    4  C7  UNL     1       0.325   1.222   0.778  1.00  0.00    -0.008 C 
HETATM    5  C8  UNL     1       1.717   1.239   0.130  1.00  0.00     0.206 C 
HETATM    6  O1  UNL     1       2.306   2.447  -0.001  1.00  0.00    -0.385 OA
HETATM    7  C9  UNL     1       3.544   2.359  -0.587  1.00  0.00     0.187 C 
HETATM    8  C10 UNL     1       4.592   1.507   0.029  1.00  0.00     0.140 C 
HETATM    9  N3  UNL     1       4.405   0.112   0.111  1.00  0.00    -0.419 N 
HETATM   10  C11 UNL     1       4.457  -0.669  -1.085  1.00  0.00     0.113 C 
HETATM   11  C12 UNL     1       3.931  -2.118  -0.831  1.00  0.00     0.021 C 
HETATM   12  O2  UNL     1       2.622  -1.905  -0.405  1.00  0.00     0.000 OA
HETATM   13  C13 UNL     1       1.389  -2.202  -0.815  1.00  0.00     0.003 A 
HETATM   14  S1  UNL     1       2.014  -2.150   0.683  1.00  0.00    -0.066 SA
HETATM   15  C14 UNL     1       0.618  -1.388   1.291  1.00  0.00     0.144 C 
HETATM   16  O3  UNL     1       1.293  -1.303   2.507  1.00  0.00    -0.339 OA
HETATM   17  C15 UNL     1       1.139   0.156   2.933  1.00  0.00     0.213 C 
HETATM   18  C16 UNL     1      -0.016   0.691   2.130  1.00  0.00     0.185 C 
HETATM   19  O4  UNL     1      -0.880  -0.518   1.968  1.00  0.00    -0.335 OA
HETATM   20  C17 UNL     1      -0.605  -1.051   0.626  1.00  0.00     0.120 C 
HETATM   21  C18 UNL     1      -0.865  -1.346  -0.723  1.00  0.00     0.029 C 
HETATM   22  C19 UNL     1       0.041  -2.523  -1.297  1.00  0.00     0.092 C 
HETATM   23  H11 UNL     1       4.535  -0.360   1.000  1.00  0.00     0.153 HD
ENDROOT
BRANCH   1  24
HETATM   24  N1  UNL     1      -3.183  -0.617  -0.712  1.00  0.00    -0.340 N 
HETATM   25  H3  UNL     1      -3.310  -1.645  -0.757  1.00  0.00     0.167 HD
BRANCH  24  26
HETATM   26  C4  UNL     1      -4.454  -0.090  -0.528  1.00  0.00     0.035 A 
HETATM   27  C3  UNL     1      -4.914   0.399   0.692  1.00  0.00     0.032 A 
HETATM   28  C2  UNL     1      -6.272   0.788   0.775  1.00  0.00     0.046 A 
HETATM   29  C1  UNL     1      -7.155   0.717  -0.290  1.00  0.00     0.138 A 
HETATM   30  F1  UNL     1      -8.442   1.111  -0.209  1.00  0.00    -0.204 F 
HETATM   31  C21 UNL     1      -6.659   0.235  -1.471  1.00  0.00     0.074 A 
HETATM   32  C20 UNL     1      -5.314  -0.160  -1.559  1.00  0.00     0.056 A 
HETATM   33 CL1  UNL     1      -7.722   0.146  -2.870  1.00  0.00    -0.081 Cl
ENDBRANCH  24  26
ENDBRANCH   1  24
TORSDOF 2
