REMARK  7 active torsions:
REMARK  status: ('A' for Active; 'I' for Inactive)
REMARK    1  A    between atoms: N1_1  and  C1_2 
REMARK    2  A    between atoms: C2_4  and  C3_5 
REMARK    3  A    between atoms: C12_16  and  O1_17 
REMARK    4  A    between atoms: O1_17  and  C13_18 
REMARK    5  A    between atoms: C13_18  and  C14_19 
REMARK    6  A    between atoms: C14_19  and  N3_20 
REMARK    7  A    between atoms: C18_25  and  N4_26 
ROOT
HETATM    1  C1  UNL     1      -1.883  -2.444   0.419  1.00  0.00     0.374 A 
HETATM    2  N2  UNL     1      -3.285  -2.224   0.502  1.00  0.00    -0.248 NA
HETATM    3  C2  UNL     1      -3.641  -1.009   0.306  1.00  0.00     0.078 A 
HETATM    4  C9  UNL     1      -2.427  -0.281   0.023  1.00  0.00     0.040 A 
HETATM    5  C10 UNL     1      -1.346  -1.123   0.064  1.00  0.00     0.014 A 
HETATM    6  C11 UNL     1      -0.056  -0.724  -0.189  1.00  0.00     0.051 A 
HETATM    7  C12 UNL     1       0.157   0.626  -0.507  1.00  0.00     0.105 A 
HETATM    8  C19 UNL     1      -0.949   1.465  -0.542  1.00  0.00     0.136 A 
HETATM    9  C20 UNL     1      -2.203   1.012  -0.283  1.00  0.00     0.118 A 
HETATM   10  O3  UNL     1      -3.191   1.924  -0.353  1.00  0.00    -0.345 OA
HETATM   11  C21 UNL     1      -3.060   3.290  -0.059  1.00  0.00     0.202 C 
HETATM   12  C22 UNL     1      -1.627   3.726  -0.102  1.00  0.00     0.202 C 
HETATM   13  O4  UNL     1      -0.807   2.812  -0.849  1.00  0.00    -0.344 OA
ENDROOT
BRANCH   7  14
HETATM   14  O1  UNL     1       1.363   1.000  -0.746  1.00  0.00    -0.346 OA
BRANCH  14  15
HETATM   15  C13 UNL     1       2.658   1.014  -0.920  1.00  0.00     0.206 C 
BRANCH  15  16
HETATM   16  C14 UNL     1       3.449   0.606   0.309  1.00  0.00     0.302 C 
BRANCH  16  17
HETATM   17  N3  UNL     1       4.861   0.621   0.118  1.00  0.00     0.128 N 
HETATM   18  C15 UNL     1       5.552   0.255   1.315  1.00  0.00     0.301 C 
HETATM   19  C16 UNL     1       6.401  -0.972   1.240  1.00  0.00     0.198 C 
HETATM   20  O2  UNL     1       5.885  -2.020   0.519  1.00  0.00    -0.385 OA
HETATM   21  C17 UNL     1       5.235  -1.678  -0.645  1.00  0.00     0.235 C 
HETATM   22  C18 UNL     1       5.362  -0.200  -0.948  1.00  0.00     0.474 C 
BRANCH  22  23
HETATM   23  N4  UNL     1       6.781   0.078  -1.098  1.00  0.00     0.114 N 
HETATM   24  H19 UNL     1       6.969   1.111  -0.996  1.00  0.00     0.315 HD
HETATM   25  H20 UNL     1       7.151  -0.271  -2.020  1.00  0.00     0.315 HD
ENDBRANCH  22  23
ENDBRANCH  16  17
ENDBRANCH  15  16
ENDBRANCH  14  15
ENDBRANCH   7  14
BRANCH   1  26
HETATM   26  N1  UNL     1      -1.515  -3.460  -0.553  1.00  0.00     0.107 N 
HETATM   27  H1  UNL     1      -1.723  -4.411  -0.145  1.00  0.00     0.316 HD
HETATM   28  H2  UNL     1      -0.529  -3.370  -0.857  1.00  0.00     0.316 HD
ENDBRANCH   1  26
BRANCH   3  29
HETATM   29  C3  UNL     1      -5.026  -0.672   0.368  1.00  0.00    -0.005 A 
HETATM   30  C4  UNL     1      -5.913  -1.731   0.580  1.00  0.00     0.017 A 
HETATM   31  C5  UNL     1      -7.284  -1.649   0.684  1.00  0.00     0.045 A 
HETATM   32  C6  UNL     1      -7.896  -0.441   0.580  1.00  0.00     0.138 A 
HETATM   33  F1  UNL     1      -9.232  -0.320   0.674  1.00  0.00    -0.204 F 
HETATM   34  C7  UNL     1      -7.100   0.660   0.371  1.00  0.00     0.073 A 
HETATM   35 CL1  UNL     1      -7.807   2.249   0.224  1.00  0.00    -0.081 Cl
HETATM   36  C8  UNL     1      -5.751   0.462   0.284  1.00  0.00     0.040 A 
ENDBRANCH   3  29
TORSDOF 7
