REMARK  3 active torsions:
REMARK  status: ('A' for Active; 'I' for Inactive)
REMARK    1  A    between atoms: C2_2  and  C3_3 
REMARK    2  A    between atoms: C4_4  and  C5_5 
REMARK    3  A    between atoms: C15_19  and  O2_20 
ROOT
HETATM    1  C5  UNL     1       2.662  -0.215  -1.066  1.00  0.00     0.125 C 
HETATM    2  C6  UNL     1       2.122  -1.551  -0.616  1.00  0.00     0.031 C 
HETATM    3  C7  UNL     1       0.774  -1.619  -0.126  1.00  0.00     0.002 C 
HETATM    4  O1  UNL     1       0.366  -0.571   0.934  1.00  0.00     0.000 OA
HETATM    5  C8  UNL     1      -0.563  -1.249   1.744  1.00  0.00     0.048 A 
HETATM    6  C9  UNL     1      -1.635  -0.808   0.967  1.00  0.00    -0.005 A 
HETATM    7  C10 UNL     1      -0.747  -0.037   0.185  1.00  0.00     0.057 A 
HETATM    8  C11 UNL     1      -0.971   0.795  -0.857  1.00  0.00     0.050 C 
HETATM    9  N1  UNL     1      -0.086   1.605  -1.672  1.00  0.00    -0.248 NA
HETATM   10  C12 UNL     1       1.075   1.801  -0.987  1.00  0.00     0.223 C 
HETATM   11  N2  UNL     1       1.891   1.581   0.223  1.00  0.00    -0.296 N 
HETATM   12  N3  UNL     1       2.833   0.607   0.129  1.00  0.00    -0.315 N 
HETATM   13  C13 UNL     1       3.194  -0.159   1.234  1.00  0.00     0.173 C 
HETATM   14  C14 UNL     1       2.218  -0.971   1.986  1.00  0.00     0.027 C 
HETATM   15  C15 UNL     1       0.888  -1.338   2.146  1.00  0.00     0.053 C 
HETATM   16  C16 UNL     1      -2.402   0.793  -1.060  1.00  0.00     0.187 C 
HETATM   17  C17 UNL     1      -3.127   1.267   0.220  1.00  0.00     0.154 C 
HETATM   18  N4  UNL     1      -4.271   0.491   0.281  1.00  0.00    -0.408 N 
HETATM   19  C18 UNL     1      -4.638  -0.383   1.267  1.00  0.00     0.117 C 
HETATM   20  C19 UNL     1      -3.688  -0.818   2.349  1.00  0.00     0.020 C 
HETATM   21  C20 UNL     1      -2.463  -1.591   1.782  1.00  0.00     0.014 C 
HETATM   22  C21 UNL     1      -4.762   0.248  -1.047  1.00  0.00     0.143 C 
HETATM   23  C22 UNL     1      -4.322   1.335  -2.013  1.00  0.00     0.188 C 
HETATM   24  O3  UNL     1      -2.952   1.540  -2.059  1.00  0.00    -0.377 OA
HETATM   25  H13 UNL     1       1.278   2.351   0.577  1.00  0.00     0.187 HD
ENDROOT
BRANCH   1  26
HETATM   26  C4  UNL     1       4.047  -0.510  -1.618  1.00  0.00    -0.000 C 
HETATM   27  C3  UNL     1       5.060   0.340  -1.672  1.00  0.00    -0.003 C 
BRANCH  27  28
HETATM   28  C2  UNL     1       5.330   1.715  -1.310  1.00  0.00    -0.010 C 
HETATM   29  C1  UNL     1       6.417   2.478  -1.424  1.00  0.00     0.011 C 
ENDBRANCH  27  28
ENDBRANCH   1  26
BRANCH  15  30
HETATM   30  O2  UNL     1       0.487  -2.252   3.137  1.00  0.00    -0.364 OA
HETATM   31  H17 UNL     1       0.435  -1.839   4.087  1.00  0.00     0.217 HD
ENDBRANCH  15  30
TORSDOF 3
