REMARK  4 active torsions:
REMARK  status: ('A' for Active; 'I' for Inactive)
REMARK    1  A    between atoms: N1_2  and  C2_3 
REMARK    2  A    between atoms: C2_3  and  N2_4 
REMARK    3  A    between atoms: C2_3  and  C9_13 
REMARK    4  A    between atoms: N2_4  and  C3_5 
ROOT
HETATM    1  C9  UNL     1       0.284  -0.740  -0.128  1.00  0.00     0.045 C 
HETATM    2  C10 UNL     1      -0.599   0.155  -0.139  1.00  0.00     0.116 C 
HETATM    3  O1  UNL     1       0.250   0.944  -0.940  1.00  0.00    -0.345 OA
HETATM    4  C11 UNL     1       0.030   1.590  -2.169  1.00  0.00     0.202 C 
HETATM    5  C12 UNL     1      -0.684   2.894  -1.797  1.00  0.00     0.202 C 
HETATM    6  O2  UNL     1      -1.584   2.465  -0.807  1.00  0.00    -0.346 OA
HETATM    7  C13 UNL     1      -1.531   1.190  -0.194  1.00  0.00     0.110 C 
HETATM    8  C14 UNL     1      -2.694   1.041   0.507  1.00  0.00    -0.013 C 
HETATM    9  C15 UNL     1      -3.762   2.100   0.480  1.00  0.00     0.027 C 
HETATM   10  C16 UNL     1      -4.552   2.326   1.554  1.00  0.00     0.083 C 
HETATM   11  N3  UNL     1      -4.460   1.619   2.769  1.00  0.00    -0.398 N 
HETATM   12  C17 UNL     1      -3.419   0.661   2.795  1.00  0.00     0.130 C 
HETATM   13  C18 UNL     1      -3.147   0.065   1.419  1.00  0.00     0.063 C 
HETATM   14  C19 UNL     1      -4.202  -0.953   1.257  1.00  0.00     0.179 C 
HETATM   15  O3  UNL     1      -3.612  -2.241   1.614  1.00  0.00    -0.387 OA
HETATM   16  C20 UNL     1      -2.739  -2.317   0.637  1.00  0.00     0.195 C 
HETATM   17  C21 UNL     1      -1.462  -2.954   0.512  1.00  0.00     0.000 C 
HETATM   18  C22 UNL     1      -0.453  -2.062   0.201  1.00  0.00     0.016 C 
HETATM   19  H14 UNL     1      -5.259   2.050   3.302  1.00  0.00     0.158 HD
ENDROOT
BRANCH   1  20
HETATM   20  C2  UNL     1       1.569  -1.294  -0.470  1.00  0.00     0.135 C 
BRANCH  20  21
HETATM   21  N1  UNL     1       2.050  -2.344  -0.155  1.00  0.00    -0.277 NA
HETATM   22  C1  UNL     1       3.022  -3.293  -0.175  1.00  0.00     0.179 C 
ENDBRANCH  20  21
BRANCH  20  23
HETATM   23  N2  UNL     1       2.404  -0.535  -1.355  1.00  0.00    -0.341 N 
HETATM   24  H4  UNL     1       2.050  -0.349  -2.344  1.00  0.00     0.167 HD
BRANCH  23  25
HETATM   25  C3  UNL     1       3.697  -0.002  -0.976  1.00  0.00     0.035 A 
HETATM   26  C4  UNL     1       4.376  -0.068   0.204  1.00  0.00     0.032 A 
HETATM   27  C5  UNL     1       5.600   0.510   0.439  1.00  0.00     0.046 A 
HETATM   28  C6  UNL     1       6.205   1.222  -0.609  1.00  0.00     0.138 A 
HETATM   29  F1  UNL     1       7.402   1.750  -0.259  1.00  0.00    -0.204 F 
HETATM   30  C7  UNL     1       5.551   1.306  -1.802  1.00  0.00     0.074 A 
HETATM   31 CL1  UNL     1       6.383   2.211  -3.067  1.00  0.00    -0.081 Cl
HETATM   32  C8  UNL     1       4.338   0.725  -2.002  1.00  0.00     0.056 A 
ENDBRANCH  23  25
ENDBRANCH  20  23
ENDBRANCH   1  20
TORSDOF 4
