REMARK  8 active torsions:
REMARK  status: ('A' for Active; 'I' for Inactive)
REMARK    1  A    between atoms: O1_2  and  C2_3 
REMARK    2  A    between atoms: C6_9  and  N3_10 
REMARK    3  A    between atoms: N3_10  and  C7_11 
REMARK    4  A    between atoms: C15_21  and  O2_22 
REMARK    5  A    between atoms: O2_22  and  C16_23 
REMARK    6  A    between atoms: C16_23  and  C17_24 
REMARK    7  A    between atoms: C17_24  and  C18_25 
REMARK    8  A    between atoms: C18_25  and  N4_26 
ROOT
HETATM    1  C2  UNL     1      -0.440   2.151  -2.178  1.00  0.00     0.103 A 
HETATM    2  C3  UNL     1      -0.973   3.258  -1.557  1.00  0.00     0.072 A 
HETATM    3  C4  UNL     1      -1.613   3.085  -0.322  1.00  0.00     0.075 A 
HETATM    4  N1  UNL     1      -2.160   4.090   0.367  1.00  0.00    -0.241 NA
HETATM    5  C5  UNL     1      -2.756   3.851   1.550  1.00  0.00     0.236 A 
HETATM    6  N2  UNL     1      -2.812   2.585   2.061  1.00  0.00    -0.224 NA
HETATM    7  C6  UNL     1      -2.281   1.538   1.414  1.00  0.00     0.142 A 
HETATM    8  C13 UNL     1      -1.669   1.810   0.193  1.00  0.00     0.042 A 
HETATM    9  C14 UNL     1      -1.128   0.721  -0.450  1.00  0.00     0.057 A 
HETATM   10  C15 UNL     1      -0.490   0.852  -1.665  1.00  0.00     0.103 A 
ENDROOT
BRANCH   7  11
HETATM   11  N3  UNL     1      -2.401   0.299   2.049  1.00  0.00    -0.340 N 
HETATM   12  H6  UNL     1      -1.482   0.312   2.529  1.00  0.00     0.167 HD
BRANCH  11  13
HETATM   13  C7  UNL     1      -3.359  -0.744   2.126  1.00  0.00     0.035 A 
HETATM   14  C8  UNL     1      -4.559  -0.604   1.462  1.00  0.00     0.032 A 
HETATM   15  C9  UNL     1      -5.436  -1.648   1.585  1.00  0.00     0.046 A 
HETATM   16  C10 UNL     1      -5.166  -2.795   2.326  1.00  0.00     0.138 A 
HETATM   17  F1  UNL     1      -6.075  -3.800   2.413  1.00  0.00    -0.204 F 
HETATM   18  C11 UNL     1      -3.949  -2.833   2.943  1.00  0.00     0.074 A 
HETATM   19 CL1  UNL     1      -3.608  -4.281   3.880  1.00  0.00    -0.081 Cl
HETATM   20  C12 UNL     1      -2.993  -1.832   2.882  1.00  0.00     0.056 A 
ENDBRANCH  11  13
ENDBRANCH   7  11
BRANCH  10  21
HETATM   21  O2  UNL     1       0.110  -0.035  -2.479  1.00  0.00    -0.348 OA
BRANCH  21  22
HETATM   22  C16 UNL     1       0.321  -1.392  -2.398  1.00  0.00     0.177 C 
BRANCH  22  23
HETATM   23  C17 UNL     1       1.154  -1.890  -1.264  1.00  0.00     0.057 C 
BRANCH  23  24
HETATM   24  C18 UNL     1       2.551  -1.309  -1.274  1.00  0.00     0.274 C 
BRANCH  24  25
HETATM   25  N4  UNL     1       3.383  -1.774  -0.191  1.00  0.00     0.092 N 
HETATM   26  C19 UNL     1       3.000  -1.330   1.095  1.00  0.00     0.298 C 
HETATM   27  C20 UNL     1       4.069  -0.634   1.880  1.00  0.00     0.198 C 
HETATM   28  O3  UNL     1       5.339  -1.149   1.645  1.00  0.00    -0.388 OA
HETATM   29  C21 UNL     1       5.631  -0.851   0.315  1.00  0.00     0.198 C 
HETATM   30  C22 UNL     1       4.742  -1.673  -0.555  1.00  0.00     0.298 C 
ENDBRANCH  24  25
ENDBRANCH  23  24
ENDBRANCH  22  23
ENDBRANCH  21  22
ENDBRANCH  10  21
BRANCH   1  31
HETATM   31  O1  UNL     1       0.160   2.468  -3.381  1.00  0.00    -0.353 OA
HETATM   32  C1  UNL     1       0.211   3.760  -3.917  1.00  0.00     0.210 C 
ENDBRANCH   1  31
TORSDOF 8
