REMARK  2 active torsions:
REMARK  status: ('A' for Active; 'I' for Inactive)
REMARK    1  A    between atoms: C4_5  and  N1_6 
REMARK    2  A    between atoms: N1_6  and  C5_7 
ROOT
HETATM    1  C5  UNL     1       3.429   1.029  -0.297  1.00  0.00     0.142 A 
HETATM    2  N2  UNL     1       4.186   2.051  -0.705  1.00  0.00    -0.224 NA
HETATM    3  C6  UNL     1       3.842   3.019  -1.554  1.00  0.00     0.236 A 
HETATM    4  N3  UNL     1       2.594   2.962  -2.059  1.00  0.00    -0.241 NA
HETATM    5  C7  UNL     1       1.743   1.958  -1.706  1.00  0.00     0.075 A 
HETATM    6  C8  UNL     1       0.495   1.959  -2.256  1.00  0.00     0.072 A 
HETATM    7  C9  UNL     1      -0.432   0.984  -1.961  1.00  0.00     0.104 A 
HETATM    8  C10 UNL     1      -0.048  -0.031  -1.060  1.00  0.00     0.103 A 
HETATM    9  C11 UNL     1       1.223   0.026  -0.543  1.00  0.00     0.057 A 
HETATM   10  C12 UNL     1       2.161   0.992  -0.825  1.00  0.00     0.042 A 
HETATM   11  O1  UNL     1      -0.941  -0.994  -0.759  1.00  0.00    -0.348 OA
HETATM   12  C13 UNL     1      -1.537  -1.383   0.438  1.00  0.00     0.177 C 
HETATM   13  C14 UNL     1      -2.494  -2.501   0.147  1.00  0.00     0.046 C 
HETATM   14  C15 UNL     1      -3.401  -2.912   1.226  1.00  0.00     0.116 C 
HETATM   15  N4  UNL     1      -4.213  -1.932   1.804  1.00  0.00    -0.419 N 
HETATM   16  C16 UNL     1      -5.221  -1.285   1.066  1.00  0.00     0.140 C 
HETATM   17  C17 UNL     1      -4.744  -0.171   0.166  1.00  0.00     0.186 C 
HETATM   18  O2  UNL     1      -5.690   0.451  -0.598  1.00  0.00    -0.389 OA
HETATM   19  C18 UNL     1      -5.268   1.519  -1.364  1.00  0.00     0.169 C 
HETATM   20  C19 UNL     1      -4.071   1.314  -2.224  1.00  0.00     0.053 C 
HETATM   21  C20 UNL     1      -2.739   1.409  -1.579  1.00  0.00     0.178 C 
HETATM   22  O3  UNL     1      -1.736   0.970  -2.523  1.00  0.00    -0.348 OA
HETATM   23  H13 UNL     1      -4.459  -2.111   2.811  1.00  0.00     0.153 HD
ENDROOT
BRANCH   1  24
HETATM   24  N1  UNL     1       3.833   0.013   0.601  1.00  0.00    -0.340 N 
HETATM   25  H3  UNL     1       3.191  -0.725   0.898  1.00  0.00     0.167 HD
BRANCH  24  26
HETATM   26  C4  UNL     1       5.080  -0.210   1.243  1.00  0.00     0.035 A 
HETATM   27  C3  UNL     1       5.367  -1.222   2.138  1.00  0.00     0.032 A 
HETATM   28  C2  UNL     1       6.605  -1.376   2.716  1.00  0.00     0.046 A 
HETATM   29  C1  UNL     1       7.643  -0.517   2.429  1.00  0.00     0.138 A 
HETATM   30  F1  UNL     1       8.793  -0.804   3.080  1.00  0.00    -0.204 F 
HETATM   31  C22 UNL     1       7.391   0.510   1.536  1.00  0.00     0.074 A 
HETATM   32  C21 UNL     1       6.140   0.628   0.981  1.00  0.00     0.056 A 
HETATM   33 CL1  UNL     1       8.755   1.563   1.218  1.00  0.00    -0.081 Cl
ENDBRANCH  24  26
ENDBRANCH   1  24
TORSDOF 2
