REMARK  8 active torsions:
REMARK  status: ('A' for Active; 'I' for Inactive)
REMARK    1  A    between atoms: C2_2  and  C3_3 
REMARK    2  A    between atoms: C2_2  and  C4_5 
REMARK    3  A    between atoms: C3_3  and  O1_4 
REMARK    4  A    between atoms: C8_11  and  N3_12 
REMARK    5  A    between atoms: N3_12  and  C9_13 
REMARK    6  A    between atoms: C10_14  and  C11_15 
REMARK    7  A    between atoms: C11_15  and  O2_16 
REMARK    8  A    between atoms: O2_16  and  C12_17 
ROOT
HETATM    1  C4  UNL     1      -3.412   0.883   0.176  1.00  0.00    -0.049 C 
HETATM    2  C5  UNL     1      -2.978   1.962   0.803  1.00  0.00     0.027 C 
HETATM    3  C6  UNL     1      -1.645   2.529   0.655  1.00  0.00     0.118 C 
HETATM    4  N1  UNL     1      -0.456   2.905   0.425  1.00  0.00    -0.254 NA
HETATM    5  C7  UNL     1       0.428   2.206  -0.474  1.00  0.00     0.234 C 
HETATM    6  N2  UNL     1       0.506   1.029   0.095  1.00  0.00    -0.222 NA
HETATM    7  C8  UNL     1       1.253  -0.048  -0.388  1.00  0.00     0.153 C 
HETATM    8  C13 UNL     1       0.872  -1.089  -1.151  1.00  0.00     0.077 C 
HETATM    9  C14 UNL     1       1.943  -2.089  -1.499  1.00  0.00     0.228 C 
HETATM   10  O3  UNL     1       2.255  -1.842  -2.821  1.00  0.00    -0.384 OA
HETATM   11  C15 UNL     1       1.135  -1.936  -3.610  1.00  0.00     0.187 C 
HETATM   12  C16 UNL     1      -0.049  -1.124  -3.134  1.00  0.00     0.149 C 
HETATM   13  N4  UNL     1      -0.357  -1.481  -1.738  1.00  0.00    -0.377 N 
HETATM   14  C17 UNL     1      -1.659  -2.060  -1.473  1.00  0.00     0.123 C 
HETATM   15  C18 UNL     1      -2.431  -1.343  -0.415  1.00  0.00     0.024 C 
HETATM   16  C19 UNL     1      -2.691   0.069  -0.822  1.00  0.00     0.041 C 
ENDROOT
BRANCH   7  17
HETATM   17  N3  UNL     1       2.604   0.012   0.016  1.00  0.00    -0.349 N 
HETATM   18  H9  UNL     1       3.060   0.439  -0.809  1.00  0.00     0.167 HD
BRANCH  17  19
HETATM   19  C9  UNL     1       3.499  -0.278   1.063  1.00  0.00     0.088 C 
HETATM   20  C10 UNL     1       4.133   0.737   1.622  1.00  0.00     0.016 C 
BRANCH  20  21
HETATM   21  C11 UNL     1       5.096   0.522   2.733  1.00  0.00     0.201 C 
BRANCH  21  22
HETATM   22  O2  UNL     1       6.362   0.989   2.359  1.00  0.00    -0.341 OA
BRANCH  22  23
HETATM   23  C12 UNL     1       7.316   0.823   3.341  1.00  0.00     0.407 C 
HETATM   24  F1  UNL     1       7.940   2.019   3.647  1.00  0.00    -0.202 F 
HETATM   25 CL1  UNL     1       8.530  -0.324   2.693  1.00  0.00    -0.060 Cl
ENDBRANCH  22  23
ENDBRANCH  21  22
ENDBRANCH  20  21
ENDBRANCH  17  19
ENDBRANCH   7  17
BRANCH   1  26
HETATM   26  C2  UNL     1      -4.764   0.535   0.505  1.00  0.00    -0.038 C 
HETATM   27  C1  UNL     1      -5.365  -0.499  -0.018  1.00  0.00     0.021 C 
BRANCH  26  28
HETATM   28  C3  UNL     1      -5.654   1.277   1.457  1.00  0.00     0.202 C 
BRANCH  28  29
HETATM   29  O1  UNL     1      -6.894   0.680   1.547  1.00  0.00    -0.396 OA
HETATM   30  H5  UNL     1      -7.506   1.117   0.927  1.00  0.00     0.209 HD
ENDBRANCH  28  29
ENDBRANCH  26  28
ENDBRANCH   1  26
TORSDOF 8
