REMARK  2 active torsions:
REMARK  status: ('A' for Active; 'I' for Inactive)
REMARK    1  A    between atoms: C5_6  and  O1_7 
REMARK    2  A    between atoms: O1_7  and  C6_8 
ROOT
HETATM    1  C1  UNL     1      -3.870  -0.693   2.278  1.00  0.00     0.125 A 
HETATM    2  N1  UNL     1      -3.444  -1.253   3.340  1.00  0.00    -0.296 NA
HETATM    3  C2  UNL     1      -2.011  -1.400   3.252  1.00  0.00     0.188 A 
HETATM    4  C3  UNL     1      -1.632  -0.824   1.935  1.00  0.00    -0.021 A 
HETATM    5  C4  UNL     1      -0.470  -0.652   1.252  1.00  0.00     0.049 A 
HETATM    6  C5  UNL     1      -0.359  -0.076   0.007  1.00  0.00     0.106 A 
HETATM    7  C11 UNL     1      -1.540   0.362  -0.587  1.00  0.00     0.136 A 
HETATM    8  C12 UNL     1      -2.755   0.204   0.083  1.00  0.00     0.117 A 
HETATM    9  C13 UNL     1      -2.802  -0.383   1.331  1.00  0.00     0.025 A 
HETATM   10  O3  UNL     1      -3.923   0.646  -0.526  1.00  0.00    -0.345 OA
HETATM   11  C14 UNL     1      -3.917   1.772  -1.373  1.00  0.00     0.202 C 
HETATM   12  C15 UNL     1      -2.610   1.981  -2.097  1.00  0.00     0.202 C 
HETATM   13  O4  UNL     1      -1.673   0.960  -1.809  1.00  0.00    -0.344 OA
ENDROOT
BRANCH   6  14
HETATM   14  O1  UNL     1       0.781   0.120  -0.720  1.00  0.00    -0.343 OA
BRANCH  14  15
HETATM   15  C6  UNL     1       2.094  -0.187  -0.438  1.00  0.00     0.133 C 
HETATM   16  C7  UNL     1       2.617  -1.272  -1.356  1.00  0.00     0.058 C 
HETATM   17  C8  UNL     1       4.101  -1.488  -1.181  1.00  0.00     0.170 C 
HETATM   18  O2  UNL     1       4.812  -0.296  -1.297  1.00  0.00    -0.391 OA
HETATM   19  C9  UNL     1       4.444   0.515  -0.233  1.00  0.00     0.170 C 
HETATM   20  C10 UNL     1       3.018   0.976  -0.320  1.00  0.00     0.058 C 
ENDBRANCH  14  15
ENDBRANCH   6  14
TORSDOF 2
