REMARK  3 active torsions:
REMARK  status: ('A' for Active; 'I' for Inactive)
REMARK    1  A    between atoms: B1_1  and  C1_2 
REMARK    2  A    between atoms: C10_14  and  N2_15 
REMARK    3  A    between atoms: N2_15  and  C11_16 
ROOT
HETATM    1  C1  UNL     1      -2.894  -2.227   0.100  1.00  0.00     0.104 C 
HETATM    2  O1  UNL     1      -4.209  -2.334   0.518  1.00  0.00    -0.392 OA
HETATM    3  C2  UNL     1      -4.359  -1.959   1.844  1.00  0.00     0.197 C 
HETATM    4  C3  UNL     1      -3.381  -0.853   2.175  1.00  0.00     0.299 C 
HETATM    5  N1  UNL     1      -3.298   0.003   1.006  1.00  0.00     0.101 N 
HETATM    6  C4  UNL     1      -2.541   1.214   1.294  1.00  0.00     0.275 C 
HETATM    7  C5  UNL     1      -2.756   2.109   0.076  1.00  0.00     0.057 C 
HETATM    8  C6  UNL     1      -1.640   3.182   0.215  1.00  0.00     0.176 C 
HETATM    9  O2  UNL     1      -0.422   2.519   0.161  1.00  0.00    -0.363 OA
HETATM   10  C7  UNL     1       0.834   2.743   0.464  1.00  0.00     0.141 C 
HETATM   11  C8  UNL     1       1.664   1.671   0.422  1.00  0.00    -0.018 C 
HETATM   12  C9  UNL     1       2.950   2.282   0.809  1.00  0.00     0.049 C 
HETATM   13  C10 UNL     1       1.170   0.325   0.047  1.00  0.00     0.236 C 
HETATM   14  N3  UNL     1      -0.213   0.372  -0.228  1.00  0.00    -0.273 NA
HETATM   15  C17 UNL     1      -1.067  -0.513   0.126  1.00  0.00     0.123 C 
HETATM   16  C18 UNL     1      -2.530  -0.772   0.011  1.00  0.00     0.281 C 
ENDROOT
BRANCH  13  17
HETATM   17  N2  UNL     1       1.842  -0.083  -1.174  1.00  0.00    -0.364 N 
HETATM   18  H19 UNL     1       1.276   0.002  -2.076  1.00  0.00     0.162 HD
BRANCH  17  19
HETATM   19  C11 UNL     1       3.141  -0.596  -1.498  1.00  0.00     0.031 A 
HETATM   20  C12 UNL     1       3.606  -0.865  -2.779  1.00  0.00     0.032 A 
HETATM   21  C13 UNL     1       4.857  -1.382  -2.942  1.00  0.00     0.046 A 
HETATM   22  C14 UNL     1       5.722  -1.669  -1.935  1.00  0.00     0.138 A 
HETATM   23  F1  UNL     1       6.943  -2.180  -2.197  1.00  0.00    -0.204 F 
HETATM   24  C15 UNL     1       5.307  -1.421  -0.646  1.00  0.00     0.074 A 
HETATM   25 CL1  UNL     1       6.388  -1.777   0.661  1.00  0.00    -0.081 Cl
HETATM   26  C16 UNL     1       4.043  -0.898  -0.470  1.00  0.00     0.056 A 
ENDBRANCH  17  19
ENDBRANCH  13  17
BRANCH   1  27
HETATM   27  B1  UNL     1      -2.787  -2.867  -1.345  1.00  0.00     0.175 B 
HETATM   28  H1  UNL     1      -1.996  -2.401  -2.087  1.00  0.00    -0.029 HD
HETATM   29  H2  UNL     1      -3.589  -3.605  -1.778  1.00  0.00    -0.029 HD
ENDBRANCH   1  27
TORSDOF 3
