REMARK  0 active torsions:
REMARK  status: ('A' for Active; 'I' for Inactive)
ROOT
HETATM    1  F1  UNL     1       2.484   3.871   1.377  1.00  0.00    -0.203 F 
HETATM    2  C1  UNL     1       1.304   3.501   0.839  1.00  0.00     0.151 A 
HETATM    3  C2  UNL     1       0.061   3.930   0.548  1.00  0.00     0.026 C 
HETATM    4  C3  UNL     1      -0.507   2.730  -0.054  1.00  0.00     0.095 C 
HETATM    5  C4  UNL     1      -1.758   2.614  -0.537  1.00  0.00     0.071 C 
HETATM    6  N1  UNL     1      -1.875   1.278  -1.023  1.00  0.00    -0.389 N 
HETATM    7  C5  UNL     1      -2.778   0.151  -0.993  1.00  0.00     0.052 A 
HETATM    8  C6  UNL     1      -2.815  -0.962  -0.294  1.00  0.00     0.059 A 
HETATM    9  C7  UNL     1      -1.961  -1.509   0.733  1.00  0.00     0.055 C 
HETATM   10  C8  UNL     1      -0.866  -2.155   1.011  1.00  0.00     0.137 C 
HETATM   11  O1  UNL     1       0.337  -2.852   1.071  1.00  0.00    -0.363 OA
HETATM   12  C9  UNL     1       1.345  -2.447   0.129  1.00  0.00     0.176 C 
HETATM   13  C10 UNL     1       2.699  -2.432   0.852  1.00  0.00     0.056 C 
HETATM   14  C11 UNL     1       3.763  -1.876  -0.082  1.00  0.00     0.271 C 
HETATM   15  N2  UNL     1       3.292  -0.604  -0.625  1.00  0.00     0.083 N 
HETATM   16  C12 UNL     1       3.143   0.413   0.374  1.00  0.00     0.269 C 
HETATM   17  C13 UNL     1       2.473   1.648  -0.215  1.00  0.00     0.032 C 
HETATM   18  O2  UNL     1       2.349   2.553   0.886  1.00  0.00     0.000 OA
HETATM   19  N3  UNL     1      -3.920  -1.796  -0.624  1.00  0.00    -0.349 N 
HETATM   20  C14 UNL     1      -4.934  -1.545  -1.593  1.00  0.00     0.201 A 
HETATM   21  N4  UNL     1      -4.821  -0.446  -2.222  1.00  0.00    -0.279 NA
HETATM   22  C15 UNL     1      -3.775   0.519  -2.020  1.00  0.00     0.209 A 
HETATM   23  H4  UNL     1      -1.177   0.783  -1.615  1.00  0.00     0.159 HD
HETATM   24  H13 UNL     1       4.047  -0.315  -1.299  1.00  0.00     0.315 HD
HETATM   25  H18 UNL     1      -4.023  -2.712  -0.091  1.00  0.00     0.166 HD
ENDROOT
TORSDOF 0
