REMARK  5 active torsions:
REMARK  status: ('A' for Active; 'I' for Inactive)
REMARK    1  A    between atoms: C7_7  and  N1_8 
REMARK    2  A    between atoms: N1_8  and  C8_9 
REMARK    3  A    between atoms: C11_15  and  C12_16 
REMARK    4  A    between atoms: C12_16  and  C13_17 
REMARK    5  A    between atoms: C13_17  and  O2_18 
ROOT
HETATM    1  C1  UNL     1       6.529  -1.953  -2.509  1.00  0.00     0.018 C 
HETATM    2  C2  UNL     1       5.694  -1.805  -1.634  1.00  0.00    -0.078 C 
HETATM    3  C3  UNL     1       4.711  -1.644  -0.607  1.00  0.00     0.019 A 
HETATM    4  C4  UNL     1       4.661  -2.554   0.426  1.00  0.00     0.021 A 
HETATM    5  C5  UNL     1       3.707  -2.383   1.405  1.00  0.00     0.004 A 
HETATM    6  C6  UNL     1       2.848  -1.312   1.305  1.00  0.00     0.029 A 
HETATM    7  C7  UNL     1       2.852  -0.375   0.300  1.00  0.00     0.034 A 
HETATM    8  C19 UNL     1       3.826  -0.598  -0.648  1.00  0.00     0.050 A 
ENDROOT
BRANCH   7   9
HETATM    9  N1  UNL     1       1.976   0.734   0.191  1.00  0.00    -0.344 N 
HETATM   10  H5  UNL     1       2.097   1.340  -0.679  1.00  0.00     0.167 HD
BRANCH   9  11
HETATM   11  C8  UNL     1       0.962   1.109   1.115  1.00  0.00     0.117 A 
HETATM   12  N2  UNL     1       1.286   0.920   2.348  1.00  0.00    -0.228 NA
HETATM   13  C9  UNL     1       0.343   1.256   3.354  1.00  0.00     0.231 A 
HETATM   14  N3  UNL     1      -0.751   1.708   3.000  1.00  0.00    -0.250 NA
HETATM   15  C10 UNL     1      -1.261   1.961   1.711  1.00  0.00     0.265 A 
HETATM   16  O1  UNL     1      -2.525   1.315   1.534  1.00  0.00    -0.325 OA
HETATM   17  C18 UNL     1      -0.326   1.723   0.610  1.00  0.00     0.142 A 
HETATM   18  C11 UNL     1      -3.048   1.180   0.283  1.00  0.00     0.083 C 
HETATM   19  C14 UNL     1      -2.250   1.058  -0.740  1.00  0.00     0.105 C 
HETATM   20  O3  UNL     1      -2.596   0.906  -2.103  1.00  0.00    -0.348 OA
HETATM   21  C17 UNL     1      -0.783   1.060  -0.630  1.00  0.00     0.196 C 
HETATM   22  C15 UNL     1      -1.639   0.095  -2.822  1.00  0.00     0.201 C 
HETATM   23  C16 UNL     1      -1.127  -0.902  -1.771  1.00  0.00     0.195 C 
HETATM   24  O4  UNL     1      -0.342  -0.269  -0.795  1.00  0.00    -0.376 OA
BRANCH  18  25
HETATM   25  C12 UNL     1      -4.501   1.162  -0.004  1.00  0.00     0.093 C 
BRANCH  25  26
HETATM   26  C13 UNL     1      -5.097  -0.009   0.751  1.00  0.00     0.170 C 
BRANCH  26  27
HETATM   27  O2  UNL     1      -4.522  -1.207   0.345  1.00  0.00    -0.400 OA
HETATM   28  H12 UNL     1      -5.199  -1.909   0.122  1.00  0.00     0.209 HD
ENDBRANCH  26  27
ENDBRANCH  25  26
ENDBRANCH  18  25
ENDBRANCH   9  11
ENDBRANCH   7   9
TORSDOF 5
