REMARK  5 active torsions:
REMARK  status: ('A' for Active; 'I' for Inactive)
REMARK    1  A    between atoms: N1_1  and  C1_2 
REMARK    2  A    between atoms: C2_3  and  C3_4 
REMARK    3  A    between atoms: C7_8  and  C8_9 
REMARK    4  A    between atoms: C12_15  and  O1_16 
REMARK    5  A    between atoms: O1_16  and  C13_17 
ROOT
HETATM    1  C8  UNL     1       1.965  -1.544  -0.262  1.00  0.00     0.084 A 
HETATM    2  N2  UNL     1       2.195  -2.608  -1.090  1.00  0.00    -0.240 NA
HETATM    3  C9  UNL     1       1.236  -3.180  -1.835  1.00  0.00     0.234 A 
HETATM    4  N3  UNL     1      -0.021  -2.696  -1.779  1.00  0.00    -0.241 NA
HETATM    5  C10 UNL     1      -0.324  -1.657  -0.994  1.00  0.00     0.076 A 
HETATM    6  C11 UNL     1      -1.586  -1.118  -0.919  1.00  0.00     0.072 A 
HETATM    7  C12 UNL     1      -1.889  -0.032  -0.125  1.00  0.00     0.107 A 
HETATM    8  C18 UNL     1      -0.831   0.508   0.617  1.00  0.00     0.136 A 
HETATM    9  C19 UNL     1       0.433  -0.019   0.554  1.00  0.00     0.119 A 
HETATM   10  C20 UNL     1       0.667  -1.092  -0.247  1.00  0.00     0.059 A 
HETATM   11  O3  UNL     1       1.416   0.579   1.311  1.00  0.00    -0.345 OA
HETATM   12  C21 UNL     1       1.195   1.815   1.912  1.00  0.00     0.202 C 
HETATM   13  C22 UNL     1      -0.213   1.833   2.517  1.00  0.00     0.202 C 
HETATM   14  O4  UNL     1      -1.130   1.617   1.432  1.00  0.00    -0.344 OA
ENDROOT
BRANCH   1  15
HETATM   15  C7  UNL     1       3.156  -1.110   0.438  1.00  0.00    -0.005 A 
HETATM   16  C6  UNL     1       3.531  -0.975   1.757  1.00  0.00     0.014 A 
HETATM   17  C5  UNL     1       4.742  -0.477   2.160  1.00  0.00     0.002 A 
HETATM   18  C4  UNL     1       5.683  -0.071   1.240  1.00  0.00     0.021 A 
HETATM   19  C3  UNL     1       5.367  -0.183  -0.096  1.00  0.00     0.020 A 
HETATM   20  C23 UNL     1       4.141  -0.687  -0.469  1.00  0.00     0.034 A 
BRANCH  19  21
HETATM   21  C2  UNL     1       6.377   0.251  -1.015  1.00  0.00    -0.044 C 
HETATM   22  C1  UNL     1       7.212   0.617  -1.803  1.00  0.00     0.009 C 
BRANCH  22  23
HETATM   23  N1  UNL     1       8.184   1.062  -2.713  1.00  0.00    -0.359 N 
HETATM   24  H1  UNL     1       8.395   0.463  -3.550  1.00  0.00     0.166 HD
HETATM   25  H2  UNL     1       8.670   1.966  -2.539  1.00  0.00     0.166 HD
ENDBRANCH  22  23
ENDBRANCH  19  21
ENDBRANCH   1  15
BRANCH   7  26
HETATM   26  O1  UNL     1      -3.140   0.547  -0.013  1.00  0.00    -0.343 OA
BRANCH  26  27
HETATM   27  C13 UNL     1      -4.294   0.138  -0.676  1.00  0.00     0.133 C 
HETATM   28  C14 UNL     1      -5.457  -0.080   0.297  1.00  0.00     0.058 C 
HETATM   29  C15 UNL     1      -6.593  -0.716  -0.475  1.00  0.00     0.170 C 
HETATM   30  O2  UNL     1      -6.679  -0.166  -1.751  1.00  0.00    -0.391 OA
HETATM   31  C16 UNL     1      -6.266   1.166  -1.749  1.00  0.00     0.170 C 
HETATM   32  C17 UNL     1      -4.766   1.290  -1.576  1.00  0.00     0.058 C 
ENDBRANCH  26  27
ENDBRANCH   7  26
TORSDOF 5
