REMARK  2 active torsions:
REMARK  status: ('A' for Active; 'I' for Inactive)
REMARK    1  A    between atoms: C15_19  and  O3_20 
REMARK    2  A    between atoms: O3_20  and  C16_21 
ROOT
HETATM    1  C1  UNL     1      -6.253   0.246  -0.232  1.00  0.00    -0.102 C 
HETATM    2  C2  UNL     1      -6.061   1.146   0.051  1.00  0.00    -0.102 C 
HETATM    3  C3  UNL     1      -5.759   2.409   0.453  1.00  0.00     0.124 C 
HETATM    4  C4  UNL     1      -4.150   2.010   0.719  1.00  0.00     0.024 C 
HETATM    5  C5  UNL     1      -3.452   0.863   0.375  1.00  0.00     0.092 C 
HETATM    6  O1  UNL     1      -2.150   1.023   0.823  1.00  0.00    -0.347 OA
HETATM    7  C6  UNL     1      -1.698   1.050   2.126  1.00  0.00     0.202 C 
HETATM    8  C7  UNL     1      -0.734   0.034   2.600  1.00  0.00     0.202 C 
HETATM    9  O2  UNL     1       0.512  -0.076   1.990  1.00  0.00    -0.346 OA
HETATM   10  C8  UNL     1       0.766  -0.364   0.689  1.00  0.00     0.103 A 
HETATM   11  C9  UNL     1      -0.319  -0.784  -0.036  1.00  0.00     0.057 A 
HETATM   12  C10 UNL     1      -0.491  -1.146  -1.329  1.00  0.00     0.042 A 
HETATM   13  C11 UNL     1      -1.738  -1.496  -1.800  1.00  0.00     0.142 A 
HETATM   14  N1  UNL     1      -1.772  -1.811  -3.104  1.00  0.00    -0.224 NA
HETATM   15  C12 UNL     1      -0.617  -1.763  -3.849  1.00  0.00     0.236 A 
HETATM   16  N2  UNL     1       0.611  -1.405  -3.358  1.00  0.00    -0.241 NA
HETATM   17  C13 UNL     1       0.683  -1.083  -2.057  1.00  0.00     0.075 A 
HETATM   18  C14 UNL     1       1.864  -0.672  -1.426  1.00  0.00     0.072 A 
HETATM   19  C15 UNL     1       1.896  -0.318  -0.070  1.00  0.00     0.104 A 
HETATM   20  N3  UNL     1      -2.802  -1.399  -0.882  1.00  0.00    -0.338 N 
HETATM   21  C21 UNL     1      -3.730  -0.458  -0.328  1.00  0.00     0.064 C 
HETATM   22  C22 UNL     1      -4.812  -1.252  -0.750  1.00  0.00     0.018 C 
HETATM   23  C23 UNL     1      -6.495  -1.033  -0.634  1.00  0.00     0.123 C 
HETATM   24  H20 UNL     1      -2.853  -2.386  -0.585  1.00  0.00     0.167 HD
ENDROOT
BRANCH  19  25
HETATM   25  O3  UNL     1       3.018   0.093   0.596  1.00  0.00    -0.343 OA
BRANCH  25  26
HETATM   26  C16 UNL     1       4.310   0.237   0.083  1.00  0.00     0.133 C 
HETATM   27  C17 UNL     1       5.240  -0.572   0.958  1.00  0.00     0.058 C 
HETATM   28  C18 UNL     1       6.686  -0.269   0.709  1.00  0.00     0.170 C 
HETATM   29  O4  UNL     1       6.964   1.093   0.720  1.00  0.00    -0.391 OA
HETATM   30  C19 UNL     1       6.153   1.810  -0.141  1.00  0.00     0.170 C 
HETATM   31  C20 UNL     1       4.704   1.704   0.294  1.00  0.00     0.058 C 
ENDBRANCH  25  26
ENDBRANCH  19  25
TORSDOF 2
