REMARK  0 active torsions:
REMARK  status: ('A' for Active; 'I' for Inactive)
ROOT
HETATM    1  F1  UNL     1      -2.544  -3.629   2.887  1.00  0.00    -0.206 F 
HETATM    2  C1  UNL     1      -1.854  -3.176   1.841  1.00  0.00     0.116 C 
HETATM    3  C2  UNL     1      -2.540  -2.315   1.175  1.00  0.00     0.043 C 
HETATM    4  C3  UNL     1      -2.741  -1.389   0.091  1.00  0.00     0.020 C 
HETATM    5  C4  UNL     1      -3.061  -0.529  -0.816  1.00  0.00     0.083 C 
HETATM    6  N1  UNL     1      -4.250   0.221  -0.904  1.00  0.00    -0.397 N 
HETATM    7  C5  UNL     1      -3.840   1.298   0.022  1.00  0.00     0.145 C 
HETATM    8  C6  UNL     1      -2.690   2.030  -0.636  1.00  0.00     0.187 C 
HETATM    9  O1  UNL     1      -2.187   3.068   0.132  1.00  0.00    -0.387 OA
HETATM   10  C7  UNL     1      -1.154   3.674  -0.559  1.00  0.00     0.194 C 
HETATM   11  C8  UNL     1      -0.001   2.802  -0.924  1.00  0.00     0.201 C 
HETATM   12  O2  UNL     1       0.587   2.260   0.221  1.00  0.00    -0.348 OA
HETATM   13  C9  UNL     1       1.366   1.121   0.154  1.00  0.00     0.112 A 
HETATM   14  C10 UNL     1       2.656   0.946   0.314  1.00  0.00     0.134 A 
HETATM   15  O3  UNL     1       3.865   1.570   0.532  1.00  0.00    -0.344 OA
HETATM   16  C11 UNL     1       4.952   0.922   1.169  1.00  0.00     0.202 C 
HETATM   17  C12 UNL     1       5.288  -0.401   0.516  1.00  0.00     0.202 C 
HETATM   18  O4  UNL     1       4.066  -1.138   0.328  1.00  0.00    -0.345 OA
HETATM   19  C13 UNL     1       2.859  -0.486   0.218  1.00  0.00     0.115 A 
HETATM   20  C14 UNL     1       1.768  -1.180   0.005  1.00  0.00     0.038 A 
HETATM   21  C15 UNL     1       1.014  -2.434  -0.180  1.00  0.00     0.070 C 
HETATM   22  N2  UNL     1       0.896  -2.574  -1.443  1.00  0.00    -0.242 NA
HETATM   23  C16 UNL     1       0.485  -1.404  -2.192  1.00  0.00     0.228 C 
HETATM   24  N3  UNL     1       0.263  -0.291  -1.529  1.00  0.00    -0.266 NA
HETATM   25  C17 UNL     1       0.666  -0.156  -0.144  1.00  0.00     0.207 A 
HETATM   26  C18 UNL     1       0.520  -3.270   0.925  1.00  0.00     0.035 C 
HETATM   27  C19 UNL     1      -0.478  -3.615   1.723  1.00  0.00     0.044 C 
HETATM   28  H4  UNL     1      -5.056  -0.066  -1.495  1.00  0.00     0.158 HD
ENDROOT
TORSDOF 0
