REMARK  7 active torsions:
REMARK  status: ('A' for Active; 'I' for Inactive)
REMARK    1  A    between atoms: C4_5  and  N1_6 
REMARK    2  A    between atoms: N1_6  and  C5_7 
REMARK    3  A    between atoms: C5_7  and  C6_8 
REMARK    4  A    between atoms: C9_13  and  C10_14 
REMARK    5  A    between atoms: C10_14  and  O1_15 
REMARK    6  A    between atoms: O1_15  and  C11_16 
REMARK    7  A    between atoms: C11_16  and  C12_17 
ROOT
HETATM    1  C6  UNL     1       2.383   1.964   1.069  1.00  0.00     0.082 A 
HETATM    2  N2  UNL     1       3.516   2.442   1.531  1.00  0.00    -0.242 NA
HETATM    3  C7  UNL     1       3.431   3.849   1.632  1.00  0.00     0.234 A 
HETATM    4  N3  UNL     1       2.296   4.315   1.258  1.00  0.00    -0.240 NA
HETATM    5  C8  UNL     1       1.540   3.177   0.872  1.00  0.00     0.087 A 
HETATM    6  C9  UNL     1       0.344   3.058   0.415  1.00  0.00     0.073 C 
ENDROOT
BRANCH   1   7
HETATM    7  C5  UNL     1       2.174   0.495   0.853  1.00  0.00     0.181 C 
BRANCH   7   8
HETATM    8  N1  UNL     1       3.400  -0.177   1.236  1.00  0.00    -0.384 N 
HETATM    9  H3  UNL     1       4.224   0.391   1.584  1.00  0.00     0.160 HD
BRANCH   8  10
HETATM   10  C4  UNL     1       3.580  -1.574   1.179  1.00  0.00     0.030 A 
HETATM   11  C3  UNL     1       2.606  -2.443   0.744  1.00  0.00     0.032 A 
HETATM   12  C2  UNL     1       2.767  -3.834   0.688  1.00  0.00     0.046 A 
HETATM   13  C1  UNL     1       3.969  -4.378   1.090  1.00  0.00     0.138 A 
HETATM   14  F1  UNL     1       4.139  -5.719   1.047  1.00  0.00    -0.204 F 
HETATM   15  C22 UNL     1       4.955  -3.509   1.527  1.00  0.00     0.074 A 
HETATM   16  C21 UNL     1       4.769  -2.159   1.571  1.00  0.00     0.056 A 
HETATM   17 CL1  UNL     1       6.489  -4.190   2.043  1.00  0.00    -0.081 Cl
ENDBRANCH   8  10
ENDBRANCH   7   8
ENDBRANCH   1   7
BRANCH   6  18
HETATM   18  C10 UNL     1      -0.745   2.269  -0.068  1.00  0.00     0.102 C 
HETATM   19  C17 UNL     1      -1.885   2.767  -0.452  1.00  0.00     0.103 C 
HETATM   20  C18 UNL     1      -2.089   4.230  -0.394  1.00  0.00     0.235 C 
HETATM   21  O4  UNL     1      -3.028   2.217  -0.933  1.00  0.00    -0.348 OA
HETATM   22  O3  UNL     1      -3.343   4.650  -0.817  1.00  0.00    -0.383 OA
HETATM   23  C19 UNL     1      -3.668   4.175  -2.080  1.00  0.00     0.194 C 
HETATM   24  C20 UNL     1      -3.742   2.676  -2.043  1.00  0.00     0.201 C 
BRANCH  18  25
HETATM   25  O1  UNL     1      -0.674   0.863  -0.169  1.00  0.00    -0.348 OA
BRANCH  25  26
HETATM   26  C11 UNL     1      -1.743  -0.002   0.032  1.00  0.00     0.180 C 
BRANCH  26  27
HETATM   27  C12 UNL     1      -1.361  -1.480   0.063  1.00  0.00     0.014 C 
HETATM   28  C13 UNL     1      -2.694  -2.204   0.305  1.00  0.00     0.033 C 
HETATM   29  C14 UNL     1      -2.504  -3.683   0.344  1.00  0.00     0.168 C 
HETATM   30  O2  UNL     1      -1.772  -4.129  -0.731  1.00  0.00    -0.391 OA
HETATM   31  C15 UNL     1      -1.661  -3.173  -1.723  1.00  0.00     0.168 C 
HETATM   32  C16 UNL     1      -0.903  -1.938  -1.303  1.00  0.00     0.033 C 
ENDBRANCH  26  27
ENDBRANCH  25  26
ENDBRANCH  18  25
ENDBRANCH   6  18
TORSDOF 7
