REMARK  7 active torsions:
REMARK  status: ('A' for Active; 'I' for Inactive)
REMARK    1  A    between atoms: C7_7  and  N1_8 
REMARK    2  A    between atoms: N1_8  and  C8_9 
REMARK    3  A    between atoms: C9_11  and  N3_12 
REMARK    4  A    between atoms: N3_12  and  C10_13 
REMARK    5  A    between atoms: C11_14  and  C12_15 
REMARK    6  A    between atoms: C12_15  and  O1_16 
REMARK    7  A    between atoms: O1_16  and  C13_17 
ROOT
HETATM    1  C1  UNL     1       7.438   2.449  -1.261  1.00  0.00     0.018 C 
HETATM    2  C2  UNL     1       6.760   1.594  -0.734  1.00  0.00    -0.078 C 
HETATM    3  C3  UNL     1       5.974   0.565  -0.097  1.00  0.00     0.019 A 
HETATM    4  C4  UNL     1       6.577  -0.063   0.985  1.00  0.00     0.021 A 
HETATM    5  C5  UNL     1       5.887  -1.074   1.646  1.00  0.00     0.004 A 
HETATM    6  C6  UNL     1       4.642  -1.429   1.225  1.00  0.00     0.029 A 
HETATM    7  C7  UNL     1       4.013  -0.824   0.150  1.00  0.00     0.035 A 
HETATM    8  C18 UNL     1       4.712   0.185  -0.502  1.00  0.00     0.050 A 
ENDROOT
BRANCH   7   9
HETATM    9  N1  UNL     1       2.711  -1.197  -0.319  1.00  0.00    -0.338 N 
HETATM   10  H5  UNL     1       2.334  -2.086   0.125  1.00  0.00     0.167 HD
BRANCH   9  11
HETATM   11  C8  UNL     1       1.913  -0.537  -1.266  1.00  0.00     0.178 A 
HETATM   12  N2  UNL     1       1.327  -0.043  -2.433  1.00  0.00    -0.204 NA
HETATM   13  C9  UNL     1       0.791   0.299  -1.195  1.00  0.00     0.198 A 
BRANCH  13  14
HETATM   14  N3  UNL     1      -0.227   1.030  -0.794  1.00  0.00    -0.238 NA
BRANCH  14  15
HETATM   15  C10 UNL     1      -0.446   1.076   0.621  1.00  0.00     0.117 C 
HETATM   16  C11 UNL     1      -1.123  -0.029   0.999  1.00  0.00     0.018 C 
BRANCH  16  17
HETATM   17  C12 UNL     1      -1.600  -1.149   0.154  1.00  0.00     0.197 C 
BRANCH  17  18
HETATM   18  O1  UNL     1      -2.971  -1.312   0.207  1.00  0.00    -0.382 OA
BRANCH  18  19
HETATM   19  C13 UNL     1      -3.626  -0.183  -0.220  1.00  0.00     0.125 C 
HETATM   20  C14 UNL     1      -4.451   0.365   0.958  1.00  0.00     0.058 C 
HETATM   21  C15 UNL     1      -5.757  -0.386   0.961  1.00  0.00     0.170 C 
HETATM   22  O2  UNL     1      -6.540   0.021  -0.110  1.00  0.00    -0.391 OA
HETATM   23  C16 UNL     1      -5.793   0.374  -1.222  1.00  0.00     0.170 C 
HETATM   24  C17 UNL     1      -4.560  -0.495  -1.377  1.00  0.00     0.058 C 
ENDBRANCH  18  19
ENDBRANCH  17  18
ENDBRANCH  16  17
ENDBRANCH  14  15
ENDBRANCH  13  14
ENDBRANCH   9  11
ENDBRANCH   7   9
TORSDOF 7
