REMARK  3 active torsions:
REMARK  status: ('A' for Active; 'I' for Inactive)
REMARK    1  A    between atoms: C1_2  and  N1_3 
REMARK    2  A    between atoms: N1_3  and  C2_4 
REMARK    3  A    between atoms: C6_10  and  O2_11 
ROOT
HETATM    1  C2  UNL     1      -2.863  -1.905   0.062  1.00  0.00     0.133 C 
HETATM    2  N2  UNL     1      -1.726  -2.283  -0.110  1.00  0.00    -0.230 NA
HETATM    3  C3  UNL     1      -0.914  -3.352  -0.313  1.00  0.00     0.335 C 
HETATM    4  N3  UNL     1       0.345  -3.554  -0.505  1.00  0.00    -0.277 NA
HETATM    5  C4  UNL     1       1.152  -2.357  -0.515  1.00  0.00     0.053 C 
HETATM    6  C5  UNL     1       1.681  -1.469   0.292  1.00  0.00     0.022 C 
HETATM    7  C6  UNL     1       2.494  -0.239   0.445  1.00  0.00     0.087 C 
HETATM    8  C7  UNL     1       3.810  -0.315  -0.281  1.00  0.00     0.069 C 
HETATM    9  C8  UNL     1       4.288   1.138  -0.412  1.00  0.00     0.171 C 
HETATM   10  O3  UNL     1       3.715   1.933   0.591  1.00  0.00    -0.390 OA
HETATM   11  C9  UNL     1       2.345   2.168   0.338  1.00  0.00     0.179 C 
HETATM   12  C10 UNL     1       1.720   0.932  -0.197  1.00  0.00     0.073 C 
HETATM   13  C11 UNL     1       0.292   0.773  -0.044  1.00  0.00     0.023 C 
HETATM   14  C12 UNL     1      -0.948   1.182   0.146  1.00  0.00     0.099 C 
HETATM   15  O4  UNL     1      -0.460   2.448   0.217  1.00  0.00    -0.346 OA
HETATM   16  C13 UNL     1      -1.283   3.628   0.083  1.00  0.00     0.202 C 
HETATM   17  C14 UNL     1      -2.615   3.093  -0.399  1.00  0.00     0.202 C 
HETATM   18  O5  UNL     1      -2.868   1.968   0.458  1.00  0.00    -0.346 OA
HETATM   19  C15 UNL     1      -2.305   0.702   0.260  1.00  0.00     0.105 C 
HETATM   20  C16 UNL     1      -2.979  -0.431   0.228  1.00  0.00     0.090 C 
ENDROOT
BRANCH   1  21
HETATM   21  N1  UNL     1      -4.102  -2.599   0.140  1.00  0.00    -0.319 N 
HETATM   22  H2  UNL     1      -5.043  -2.125   0.298  1.00  0.00     0.169 HD
BRANCH  21  23
HETATM   23  C1  UNL     1      -4.205  -4.000   0.013  1.00  0.00     0.354 C 
HETATM   24  O1  UNL     1      -3.120  -4.570  -0.172  1.00  0.00    -0.283 OA
ENDBRANCH  21  23
ENDBRANCH   1  21
BRANCH   7  25
HETATM   25  O2  UNL     1       2.691   0.042   1.773  1.00  0.00    -0.385 OA
HETATM   26  H6  UNL     1       2.077  -0.469   2.342  1.00  0.00     0.211 HD
ENDBRANCH   7  25
TORSDOF 3
