REMARK  7 active torsions:
REMARK  status: ('A' for Active; 'I' for Inactive)
REMARK    1  A    between atoms: O1_1  and  C1_2 
REMARK    2  A    between atoms: C1_2  and  C2_3 
REMARK    3  A    between atoms: C2_3  and  C3_4 
REMARK    4  A    between atoms: C3_4  and  O2_5 
REMARK    5  A    between atoms: O2_5  and  C4_6 
REMARK    6  A    between atoms: C8_12  and  N3_13 
REMARK    7  A    between atoms: N3_13  and  C9_14 
ROOT
HETATM    1  C4  UNL     1      -2.189  -0.086  -0.294  1.00  0.00     0.107 A 
HETATM    2  C5  UNL     1      -1.724  -1.266   0.234  1.00  0.00     0.072 A 
HETATM    3  C6  UNL     1      -0.435  -1.508   0.641  1.00  0.00     0.077 A 
HETATM    4  N1  UNL     1       0.019  -2.659   1.148  1.00  0.00    -0.241 NA
HETATM    5  C7  UNL     1       1.291  -2.816   1.516  1.00  0.00     0.236 A 
HETATM    6  N2  UNL     1       2.158  -1.792   1.381  1.00  0.00    -0.223 NA
HETATM    7  C8  UNL     1       1.741  -0.598   0.868  1.00  0.00     0.144 A 
HETATM    8  C15 UNL     1       0.434  -0.431   0.484  1.00  0.00     0.075 A 
HETATM    9  C16 UNL     1       0.089   0.797  -0.031  1.00  0.00     0.121 A 
HETATM   10  C17 UNL     1      -1.249   0.955  -0.423  1.00  0.00     0.136 A 
HETATM   11  O3  UNL     1      -1.574   2.219  -0.946  1.00  0.00    -0.344 OA
HETATM   12  C18 UNL     1      -0.663   3.246  -1.172  1.00  0.00     0.202 C 
HETATM   13  C19 UNL     1       0.782   2.876  -1.045  1.00  0.00     0.202 C 
HETATM   14  O4  UNL     1       1.010   1.819  -0.159  1.00  0.00    -0.345 OA
ENDROOT
BRANCH   7  15
HETATM   15  N3  UNL     1       2.790   0.350   0.837  1.00  0.00    -0.340 N 
HETATM   16  H10 UNL     1       2.717   1.336   1.159  1.00  0.00     0.167 HD
BRANCH  15  17
HETATM   17  C9  UNL     1       4.107   0.072   0.382  1.00  0.00     0.035 A 
HETATM   18  C10 UNL     1       5.200   0.899   0.548  1.00  0.00     0.032 A 
HETATM   19  C11 UNL     1       6.478   0.665   0.110  1.00  0.00     0.046 A 
HETATM   20  C12 UNL     1       6.696  -0.528  -0.573  1.00  0.00     0.138 A 
HETATM   21  F1  UNL     1       7.977  -0.719  -0.989  1.00  0.00    -0.204 F 
HETATM   22  C13 UNL     1       5.638  -1.390  -0.765  1.00  0.00     0.074 A 
HETATM   23 CL1  UNL     1       5.974  -2.877  -1.632  1.00  0.00    -0.081 Cl
HETATM   24  C14 UNL     1       4.375  -1.091  -0.296  1.00  0.00     0.056 A 
ENDBRANCH  15  17
ENDBRANCH   7  15
BRANCH   1  25
HETATM   25  O2  UNL     1      -3.407   0.275  -0.719  1.00  0.00    -0.348 OA
BRANCH  25  26
HETATM   26  C3  UNL     1      -4.645  -0.296  -0.785  1.00  0.00     0.178 C 
BRANCH  26  27
HETATM   27  C2  UNL     1      -5.136  -0.606   0.610  1.00  0.00     0.053 C 
BRANCH  27  28
HETATM   28  C1  UNL     1      -6.513  -1.236   0.591  1.00  0.00     0.166 C 
BRANCH  28  29
HETATM   29  O1  UNL     1      -7.377  -0.334  -0.013  1.00  0.00    -0.401 OA
HETATM   30  H1  UNL     1      -7.263   0.546   0.423  1.00  0.00     0.209 HD
ENDBRANCH  28  29
ENDBRANCH  27  28
ENDBRANCH  26  27
ENDBRANCH  25  26
ENDBRANCH   1  25
TORSDOF 7
