REMARK  6 active torsions:
REMARK  status: ('A' for Active; 'I' for Inactive)
REMARK    1  A    between atoms: C4_5  and  N1_6 
REMARK    2  A    between atoms: N1_6  and  C5_7 
REMARK    3  A    between atoms: C5_7  and  C6_8 
REMARK    4  A    between atoms: C6_8  and  C7_9 
REMARK    5  A    between atoms: C7_9  and  O1_10 
REMARK    6  A    between atoms: O1_10  and  C8_11 
ROOT
HETATM    1  C7  UNL     1       0.389  -1.109   0.338  1.00  0.00     0.170 C 
ENDROOT
BRANCH   1   2
HETATM    2  C6  UNL     1       1.418  -1.793  -0.562  1.00  0.00     0.046 C 
BRANCH   2   3
HETATM    3  C5  UNL     1       2.789  -1.227  -0.344  1.00  0.00     0.122 C 
BRANCH   3   4
HETATM    4  N1  UNL     1       2.891   0.182  -0.617  1.00  0.00    -0.390 N 
HETATM    5  H3  UNL     1       2.151   0.822  -0.935  1.00  0.00     0.159 HD
BRANCH   4   6
HETATM    6  C4  UNL     1       4.193   0.731  -0.413  1.00  0.00     0.029 A 
HETATM    7  C3  UNL     1       5.252  -0.056   0.013  1.00  0.00     0.032 A 
HETATM    8  C2  UNL     1       6.536   0.431   0.225  1.00  0.00     0.046 A 
HETATM    9  C1  UNL     1       6.750   1.775  -0.006  1.00  0.00     0.138 A 
HETATM   10  F1  UNL     1       7.979   2.335   0.177  1.00  0.00    -0.204 F 
HETATM   11  C18 UNL     1       5.726   2.625  -0.437  1.00  0.00     0.074 A 
HETATM   12  C17 UNL     1       4.468   2.076  -0.631  1.00  0.00     0.056 A 
HETATM   13 CL1  UNL     1       5.980   4.334  -0.736  1.00  0.00    -0.081 Cl
ENDBRANCH   4   6
ENDBRANCH   3   4
ENDBRANCH   2   3
ENDBRANCH   1   2
BRANCH   1  14
HETATM   14  O1  UNL     1      -0.814  -1.704   0.053  1.00  0.00    -0.381 OA
BRANCH  14  15
HETATM   15  C8  UNL     1      -1.898  -1.228   0.767  1.00  0.00     0.157 C 
HETATM   16  C9  UNL     1      -2.556  -2.305   1.601  1.00  0.00     0.063 C 
HETATM   17  C10 UNL     1      -3.502  -3.157   0.784  1.00  0.00     0.171 C 
HETATM   18  O2  UNL     1      -4.419  -2.358   0.107  1.00  0.00    -0.387 OA
HETATM   19  C11 UNL     1      -3.702  -1.672  -0.860  1.00  0.00     0.207 C 
HETATM   20  C12 UNL     1      -2.843  -0.650  -0.219  1.00  0.00     0.004 C 
HETATM   21  C13 UNL     1      -2.966   0.605  -0.542  1.00  0.00     0.077 C 
HETATM   22  C14 UNL     1      -2.205   1.765  -0.017  1.00  0.00     0.232 C 
HETATM   23  O4  UNL     1      -3.901   0.997  -1.488  1.00  0.00    -0.351 OA
HETATM   24  O3  UNL     1      -3.058   2.662   0.623  1.00  0.00    -0.383 OA
HETATM   25  C15 UNL     1      -4.310   2.715   0.042  1.00  0.00     0.194 C 
HETATM   26  C16 UNL     1      -4.277   2.384  -1.457  1.00  0.00     0.201 C 
ENDBRANCH  14  15
ENDBRANCH   1  14
TORSDOF 6
