REMARK  7 active torsions:
REMARK  status: ('A' for Active; 'I' for Inactive)
REMARK    1  A    between atoms: N1_1  and  C1_2 
REMARK    2  A    between atoms: C1_2  and  C2_3 
REMARK    3  A    between atoms: C2_3  and  C3_4 
REMARK    4  A    between atoms: C12_17  and  C13_18 
REMARK    5  A    between atoms: C16_23  and  C17_24 
REMARK    6  A    between atoms: C17_24  and  O3_25 
REMARK    7  A    between atoms: O3_25  and  C18_26 
ROOT
HETATM    1  C3  UNL     1      -3.339   1.871  -0.452  1.00  0.00     0.120 A 
HETATM    2  N2  UNL     1      -4.492   1.650  -1.013  1.00  0.00    -0.233 NA
HETATM    3  C4  UNL     1      -4.655   0.699  -1.927  1.00  0.00     0.235 A 
HETATM    4  N3  UNL     1      -3.548  -0.041  -2.248  1.00  0.00    -0.240 NA
HETATM    5  C5  UNL     1      -2.373   0.254  -1.611  1.00  0.00     0.084 A 
HETATM    6  C6  UNL     1      -1.526  -0.757  -2.149  1.00  0.00    -0.004 A 
HETATM    7  C7  UNL     1      -0.921  -0.728  -3.416  1.00  0.00     0.017 A 
HETATM    8  C8  UNL     1      -0.201  -1.753  -3.968  1.00  0.00     0.045 A 
HETATM    9  C9  UNL     1      -0.068  -2.897  -3.210  1.00  0.00     0.138 A 
HETATM   10  F1  UNL     1       0.651  -3.920  -3.765  1.00  0.00    -0.204 F 
HETATM   11  C10 UNL     1      -0.635  -2.988  -1.966  1.00  0.00     0.073 A 
HETATM   12 CL1  UNL     1      -0.440  -4.461  -1.038  1.00  0.00    -0.081 Cl
HETATM   13  C11 UNL     1      -1.362  -1.937  -1.422  1.00  0.00     0.041 A 
HETATM   14  C12 UNL     1      -2.175   1.210  -0.689  1.00  0.00     0.067 A 
ENDROOT
BRANCH  14  15
HETATM   15  C13 UNL     1      -1.115   1.523  -0.048  1.00  0.00     0.117 C 
HETATM   16  O1  UNL     1      -1.208   2.530   0.893  1.00  0.00    -0.345 OA
HETATM   17  C14 UNL     1      -0.702   2.394   2.225  1.00  0.00     0.202 C 
HETATM   18  C15 UNL     1       0.805   2.286   2.199  1.00  0.00     0.202 C 
HETATM   19  O2  UNL     1       1.206   1.777   0.921  1.00  0.00    -0.346 OA
HETATM   20  C16 UNL     1       0.264   1.221   0.088  1.00  0.00     0.103 C 
BRANCH  20  21
HETATM   21  C17 UNL     1       0.687   0.278  -0.712  1.00  0.00     0.042 C 
BRANCH  21  22
HETATM   22  O3  UNL     1       1.985  -0.144  -0.719  1.00  0.00     0.000 OA
BRANCH  22  23
HETATM   23  C18 UNL     1       2.626  -0.667   0.459  1.00  0.00    -0.006 C 
HETATM   24  C19 UNL     1       4.076  -0.799   0.117  1.00  0.00     0.031 C 
HETATM   25  C20 UNL     1       4.849  -1.683   1.069  1.00  0.00     0.168 C 
HETATM   26  O4  UNL     1       4.108  -2.786   1.480  1.00  0.00    -0.391 OA
HETATM   27  C21 UNL     1       3.077  -3.079   0.572  1.00  0.00     0.168 C 
HETATM   28  C22 UNL     1       2.012  -2.011   0.806  1.00  0.00     0.031 C 
ENDBRANCH  22  23
ENDBRANCH  21  22
ENDBRANCH  20  21
ENDBRANCH  14  15
BRANCH   1  29
HETATM   29  C2  UNL     1      -3.371   2.859   0.433  1.00  0.00    -0.079 C 
BRANCH  29  30
HETATM   30  C1  UNL     1      -3.430   4.007   1.092  1.00  0.00     0.139 C 
BRANCH  30  31
HETATM   31  N1  UNL     1      -3.778   3.568   2.369  1.00  0.00    -0.402 N 
HETATM   32  H1  UNL     1      -3.307   3.466   3.293  1.00  0.00     0.156 HD
HETATM   33  H2  UNL     1      -4.736   3.215   2.630  1.00  0.00     0.156 HD
ENDBRANCH  30  31
ENDBRANCH  29  30
ENDBRANCH   1  29
TORSDOF 7
