REMARK  2 active torsions:
REMARK  status: ('A' for Active; 'I' for Inactive)
REMARK    1  A    between atoms: C2_2  and  C3_3 
REMARK    2  A    between atoms: C12_16  and  N3_17 
ROOT
HETATM    1  C3  UNL     1      -1.005  -0.891  -0.606  1.00  0.00     0.091 C 
HETATM    2  C4  UNL     1      -0.235  -2.255  -0.897  1.00  0.00     0.069 C 
HETATM    3  C5  UNL     1       1.194  -2.038  -0.568  1.00  0.00     0.206 C 
HETATM    4  O1  UNL     1       2.065  -3.143  -0.908  1.00  0.00    -0.259 OA
HETATM    5  N1  UNL     1       3.111  -3.339   0.009  1.00  0.00    -0.151 NA
HETATM    6  C6  UNL     1       3.469  -2.320   0.752  1.00  0.00     0.264 A 
HETATM    7  C7  UNL     1       3.780  -1.084   1.534  1.00  0.00     0.036 A 
HETATM    8 CL1  UNL     1       4.879  -2.313   2.204  1.00  0.00    -0.149 Cl
HETATM    9  C8  UNL     1       3.612   0.241   1.858  1.00  0.00     0.004 C 
HETATM   10  C9  UNL     1       2.580   0.593   0.916  1.00  0.00     0.045 C 
HETATM   11  C10 UNL     1       1.854   1.614   0.555  1.00  0.00     0.010 C 
HETATM   12  C11 UNL     1       0.835   1.769  -0.459  1.00  0.00     0.041 C 
HETATM   13  N2  UNL     1       1.320   2.060  -1.735  1.00  0.00    -0.268 NA
HETATM   14  C12 UNL     1       0.118   2.838  -2.401  1.00  0.00     0.211 C 
HETATM   15  C13 UNL     1      -0.988   2.160  -1.663  1.00  0.00     0.043 A 
HETATM   16  C14 UNL     1      -1.923   2.086  -0.747  1.00  0.00     0.026 A 
HETATM   17  C15 UNL     1      -0.616   1.788  -0.054  1.00  0.00     0.059 A 
HETATM   18  C16 UNL     1      -0.662   0.985   1.070  1.00  0.00     0.139 C 
HETATM   19  O2  UNL     1      -0.671   1.466   2.364  1.00  0.00    -0.371 OA
HETATM   20  C17 UNL     1      -1.075   0.621   3.424  1.00  0.00     0.195 C 
HETATM   21  C18 UNL     1      -1.420  -0.762   2.985  1.00  0.00     0.194 C 
HETATM   22  O3  UNL     1      -1.775  -0.918   1.672  1.00  0.00    -0.378 OA
HETATM   23  C19 UNL     1      -0.706  -0.546   0.811  1.00  0.00     0.195 C 
HETATM   24  C20 UNL     1      -0.815   0.774  -2.423  1.00  0.00     0.184 C 
HETATM   25  O4  UNL     1      -0.504  -0.135  -1.550  1.00  0.00    -0.376 OA
ENDROOT
BRANCH  14  26
HETATM   26  N3  UNL     1       0.283   2.611  -3.746  1.00  0.00    -0.408 N 
HETATM   27  H15 UNL     1      -0.057   3.314  -4.432  1.00  0.00     0.152 HD
HETATM   28  H16 UNL     1       1.216   2.287  -4.078  1.00  0.00     0.152 HD
ENDBRANCH  14  26
BRANCH   1  29
HETATM   29  C2  UNL     1      -2.409  -1.439  -0.697  1.00  0.00     0.036 C 
HETATM   30  C1  UNL     1      -3.579  -0.598  -0.479  1.00  0.00     0.008 C 
ENDBRANCH   1  29
TORSDOF 2
