REMARK  3 active torsions:
REMARK  status: ('A' for Active; 'I' for Inactive)
REMARK    1  A    between atoms: C1_3  and  N2_4 
REMARK    2  A    between atoms: N2_4  and  C2_5 
REMARK    3  A    between atoms: C2_5  and  C3_6 
ROOT
HETATM    1  B1  UNL     1       0.152  -3.465  -0.271  1.00  0.00     0.467 B 
HETATM    2  N1  UNL     1       0.831  -1.961  -0.436  1.00  0.00    -0.313 NA
HETATM    3  C1  UNL     1       0.063  -0.881  -0.624  1.00  0.00     0.135 C 
HETATM    4  C9  UNL     1      -1.196  -0.843  -0.063  1.00  0.00     0.126 C 
HETATM    5  C10 UNL     1      -1.775  -1.852   0.714  1.00  0.00     0.176 C 
HETATM    6  N3  UNL     1      -1.310  -3.076   1.117  1.00  0.00    -0.307 NA
HETATM    7  O1  UNL     1      -3.051  -1.880   1.316  1.00  0.00    -0.329 OA
HETATM    8  C11 UNL     1      -4.211  -1.161   0.947  1.00  0.00     0.217 C 
HETATM    9  C12 UNL     1      -3.999   0.307   0.819  1.00  0.00     0.001 C 
HETATM   10  C13 UNL     1      -5.117   1.031   1.050  1.00  0.00     0.084 C 
HETATM   11  S1  UNL     1      -4.498   2.723   0.812  1.00  0.00     0.020 SA
HETATM   12  O2  UNL     1      -3.196   2.232  -0.243  1.00  0.00    -0.285 OA
HETATM   13  C14 UNL     1      -2.805   1.088   0.493  1.00  0.00     0.269 C 
HETATM   14  N4  UNL     1      -1.886   0.379  -0.371  1.00  0.00    -0.353 N 
HETATM   15  H13 UNL     1      -1.646   0.727  -1.352  1.00  0.00     0.162 HD
ENDROOT
BRANCH   3  16
HETATM   16  N2  UNL     1       0.565   0.211  -1.382  1.00  0.00    -0.370 N 
HETATM   17  H1  UNL     1       0.154   1.137  -1.622  1.00  0.00     0.161 HD
BRANCH  16  18
HETATM   18  C2  UNL     1       1.882   0.219  -1.994  1.00  0.00     0.160 C 
BRANCH  18  19
HETATM   19  C3  UNL     1       2.941   0.201  -0.972  1.00  0.00    -0.041 A 
HETATM   20  C4  UNL     1       3.207   1.479  -0.470  1.00  0.00     0.009 A 
HETATM   21  C5  UNL     1       4.154   1.754   0.477  1.00  0.00     0.001 A 
HETATM   22  C6  UNL     1       4.921   0.739   1.003  1.00  0.00     0.000 A 
HETATM   23  C7  UNL     1       4.675  -0.542   0.520  1.00  0.00     0.001 A 
HETATM   24  C8  UNL     1       3.719  -0.799  -0.433  1.00  0.00     0.009 A 
ENDBRANCH  18  19
ENDBRANCH  16  18
ENDBRANCH   3  16
TORSDOF 3
