REMARK  3 active torsions:
REMARK  status: ('A' for Active; 'I' for Inactive)
REMARK    1  A    between atoms: O1_2  and  C2_3 
REMARK    2  A    between atoms: C6_8  and  C7_9 
REMARK    3  A    between atoms: C15_18  and  O2_19 
ROOT
HETATM    1  C2  UNL     1      -2.688  -0.108  -0.874  1.00  0.00     0.103 C 
HETATM    2  C3  UNL     1      -2.321  -1.405  -0.945  1.00  0.00     0.067 C 
HETATM    3  C4  UNL     1      -0.883  -1.488  -0.843  1.00  0.00     0.049 A 
HETATM    4  N1  UNL     1      -0.117  -2.478  -1.219  1.00  0.00    -0.264 NA
HETATM    5  C5  UNL     1       1.248  -2.175  -0.979  1.00  0.00     0.126 A 
HETATM    6  C6  UNL     1       1.386  -0.953  -0.437  1.00  0.00    -0.017 A 
HETATM    7  C13 UNL     1       0.031  -0.523  -0.281  1.00  0.00     0.098 A 
HETATM    8  C14 UNL     1      -0.415   0.841  -0.339  1.00  0.00     0.028 C 
HETATM    9  C15 UNL     1      -1.732   0.993  -0.603  1.00  0.00     0.098 C 
ENDROOT
BRANCH   6  10
HETATM   10  C7  UNL     1       2.722  -0.483  -0.138  1.00  0.00    -0.026 A 
HETATM   11  C8  UNL     1       3.843  -1.236  -0.411  1.00  0.00     0.012 A 
HETATM   12  C9  UNL     1       5.135  -0.836  -0.140  1.00  0.00     0.002 A 
HETATM   13  C10 UNL     1       5.318   0.397   0.444  1.00  0.00     0.019 A 
HETATM   14  C11 UNL     1       4.237   1.197   0.742  1.00  0.00     0.011 A 
HETATM   15 BR1  UNL     1       4.536   2.897   1.550  1.00  0.00    -0.051 Br
HETATM   16  C12 UNL     1       2.976   0.733   0.443  1.00  0.00     0.031 A 
ENDBRANCH   6  10
BRANCH   9  17
HETATM   17  O2  UNL     1      -2.284   2.279  -0.636  1.00  0.00    -0.353 OA
HETATM   18  C16 UNL     1      -3.079   2.670   0.467  1.00  0.00     0.210 C 
ENDBRANCH   9  17
BRANCH   1  19
HETATM   19  O1  UNL     1      -4.034   0.201  -1.005  1.00  0.00    -0.353 OA
HETATM   20  C1  UNL     1      -5.096  -0.622  -0.608  1.00  0.00     0.210 C 
ENDBRANCH   1  19
TORSDOF 3
