REMARK  1 active torsions:
REMARK  status: ('A' for Active; 'I' for Inactive)
REMARK    1  A    between atoms: O1_1  and  C1_2 
ROOT
HETATM    1  C1  UNL     1       0.302  -0.659   0.150  1.00  0.00     0.060 C 
HETATM    2  C2  UNL     1       0.464   0.630   0.269  1.00  0.00     0.083 C 
HETATM    3  C3  UNL     1       0.928   1.894  -0.254  1.00  0.00     0.136 C 
HETATM    4  C4  UNL     1      -0.009   2.928   0.359  1.00  0.00     0.016 C 
HETATM    5  C5  UNL     1      -1.275   2.679   0.763  1.00  0.00    -0.005 A 
HETATM    6 BR1  UNL     1      -2.343   4.112   1.517  1.00  0.00    -0.118 Br
HETATM    7  C6  UNL     1      -2.569   2.076   1.142  1.00  0.00     0.114 A 
HETATM    8  C7  UNL     1      -3.119   0.868   1.225  1.00  0.00    -0.005 C 
HETATM    9  C8  UNL     1      -3.400  -0.591   1.197  1.00  0.00     0.021 C 
HETATM   10  C9  UNL     1      -2.558  -1.519   0.835  1.00  0.00     0.135 C 
HETATM   11  O2  UNL     1      -1.765  -2.494   0.486  1.00  0.00    -0.358 OA
HETATM   12  C10 UNL     1      -0.487  -2.973   0.500  1.00  0.00     0.216 C 
HETATM   13  C11 UNL     1       0.345  -2.015  -0.357  1.00  0.00     0.007 C 
HETATM   14  C12 UNL     1       0.983  -2.409  -1.482  1.00  0.00     0.091 C 
HETATM   15  N1  UNL     1       1.611  -1.323  -2.096  1.00  0.00    -0.215 NA
HETATM   16  N2  UNL     1       2.648  -0.487  -2.524  1.00  0.00    -0.310 N 
HETATM   17  C13 UNL     1       3.134   0.505  -1.548  1.00  0.00     0.240 C 
HETATM   18  N3  UNL     1       3.204   1.420  -0.700  1.00  0.00    -0.173 NA
HETATM   19  N4  UNL     1       2.295   2.232  -0.076  1.00  0.00    -0.304 N 
HETATM   20  H12 UNL     1       2.460  -1.861  -1.720  1.00  0.00     0.152 HD
HETATM   21  H13 UNL     1       3.136  -0.465  -3.426  1.00  0.00     0.181 HD
HETATM   22  H15 UNL     1       2.888   2.963   0.412  1.00  0.00     0.183 HD
ENDROOT
BRANCH   1  23
HETATM   23  O1  UNL     1      -0.276  -0.439   1.418  1.00  0.00    -0.364 OA
HETATM   24  H1  UNL     1       0.052  -0.917   2.254  1.00  0.00     0.217 HD
ENDBRANCH   1  23
TORSDOF 1
