REMARK  6 active torsions:
REMARK  status: ('A' for Active; 'I' for Inactive)
REMARK    1  A    between atoms: O1_2  and  C2_3 
REMARK    2  A    between atoms: C6_7  and  C7_8 
REMARK    3  A    between atoms: C9_10  and  C10_11 
REMARK    4  A    between atoms: N2_22  and  C17_23 
REMARK    5  A    between atoms: C17_23  and  C18_24 
REMARK    6  A    between atoms: C18_24  and  C19_25 
ROOT
HETATM    1  C19 UNL     1      -1.509   4.355  -0.990  1.00  0.00     0.031 C 
HETATM    2  C20 UNL     1      -1.772   5.593  -1.441  1.00  0.00     0.188 C 
HETATM    3  F1  UNL     1      -1.913   6.872  -1.841  1.00  0.00    -0.219 F 
ENDROOT
BRANCH   1   4
HETATM    4  C18 UNL     1      -2.375   3.190  -1.121  1.00  0.00     0.021 C 
BRANCH   4   5
HETATM    5  C17 UNL     1      -1.768   2.193  -0.568  1.00  0.00     0.113 C 
BRANCH   5   6
HETATM    6  N2  UNL     1      -0.877   1.364   0.082  1.00  0.00    -0.271 N 
HETATM    7  C7  UNL     1      -0.898   0.255   0.987  1.00  0.00     0.148 C 
HETATM    8  C8  UNL     1       0.198  -0.587   0.316  1.00  0.00     0.094 C 
HETATM    9  C9  UNL     1       1.179   0.486   0.021  1.00  0.00     0.067 C 
HETATM   10  N1  UNL     1       0.493   1.561  -0.098  1.00  0.00    -0.176 NA
BRANCH   7  11
HETATM   11  C6  UNL     1      -2.169  -0.496   1.048  1.00  0.00    -0.030 A 
HETATM   12  C5  UNL     1      -2.740  -0.718   2.304  1.00  0.00     0.009 A 
HETATM   13  C4  UNL     1      -3.919  -1.424   2.379  1.00  0.00     0.003 A 
HETATM   14  C3  UNL     1      -4.570  -1.927   1.262  1.00  0.00     0.037 A 
HETATM   15  C2  UNL     1      -4.005  -1.708   0.023  1.00  0.00     0.068 A 
HETATM   16  C21 UNL     1      -2.810  -0.994  -0.064  1.00  0.00     0.046 A 
BRANCH  15  17
HETATM   17  O1  UNL     1      -4.594  -2.179  -1.147  1.00  0.00    -0.356 OA
HETATM   18  C1  UNL     1      -5.792  -2.902  -1.132  1.00  0.00     0.210 C 
ENDBRANCH  15  17
ENDBRANCH   7  11
BRANCH   9  19
HETATM   19  C10 UNL     1       2.631   0.302  -0.098  1.00  0.00    -0.007 A 
HETATM   20  C11 UNL     1       3.459   1.366  -0.374  1.00  0.00     0.016 A 
HETATM   21  C12 UNL     1       4.830   1.176  -0.483  1.00  0.00     0.039 A 
HETATM   22  C13 UNL     1       5.408  -0.083  -0.320  1.00  0.00     0.083 A 
HETATM   23  C14 UNL     1       4.549  -1.119  -0.046  1.00  0.00     0.100 A 
HETATM   24  O3  UNL     1       6.781  -0.266  -0.431  1.00  0.00    -0.417 OA
HETATM   25  C15 UNL     1       3.185  -0.945   0.066  1.00  0.00     0.053 A 
HETATM   26  O2  UNL     1       5.010  -2.417   0.137  1.00  0.00    -0.355 OA
HETATM   27  C16 UNL     1       6.357  -2.645   0.560  1.00  0.00     0.154 C 
HETATM   28  B1  UNL     1       7.309  -1.640  -0.242  1.00  0.00     0.343 B 
HETATM   29  H15 UNL     1       8.386  -1.923  -0.610  1.00  0.00     0.010 HD
ENDBRANCH   9  19
ENDBRANCH   5   6
ENDBRANCH   4   5
ENDBRANCH   1   4
TORSDOF 6
