REMARK  4 active torsions:
REMARK  status: ('A' for Active; 'I' for Inactive)
REMARK    1  A    between atoms: O1_2  and  C2_3 
REMARK    2  A    between atoms: C6_7  and  C7_8 
REMARK    3  A    between atoms: C9_10  and  C10_11 
REMARK    4  A    between atoms: N3_22  and  C17_23 
ROOT
HETATM    1  C7  UNL     1      -1.200   0.910  -1.209  1.00  0.00     0.149 C 
HETATM    2  C8  UNL     1       0.160   0.333  -1.470  1.00  0.00     0.095 C 
HETATM    3  C9  UNL     1       0.768   0.403  -0.114  1.00  0.00     0.082 C 
HETATM    4  N2  UNL     1       0.162   1.343   0.569  1.00  0.00    -0.174 NA
HETATM    5  N3  UNL     1      -0.843   1.947  -0.225  1.00  0.00    -0.260 N 
ENDROOT
BRANCH   3   6
HETATM    6  C10 UNL     1       1.864  -0.441   0.376  1.00  0.00     0.062 C 
HETATM    7  N1  UNL     1       2.380  -1.336  -0.396  1.00  0.00    -0.253 NA
HETATM    8  C11 UNL     1       3.449  -2.223  -0.047  1.00  0.00     0.301 C 
HETATM    9  O2  UNL     1       4.231  -2.604  -1.108  1.00  0.00    -0.357 OA
HETATM   10  C14 UNL     1       4.309  -1.658   1.045  1.00  0.00     0.093 C 
HETATM   11  C12 UNL     1       5.502  -2.060  -1.103  1.00  0.00     0.197 C 
HETATM   12  C13 UNL     1       6.314  -2.554   0.100  1.00  0.00     0.201 C 
HETATM   13  O3  UNL     1       5.630  -2.045   1.233  1.00  0.00    -0.349 OA
HETATM   14  C15 UNL     1       3.759  -0.758   1.842  1.00  0.00     0.016 C 
HETATM   15  C16 UNL     1       2.365  -0.249   1.763  1.00  0.00     0.090 C 
ENDBRANCH   3   6
BRANCH   1  16
HETATM   16  C6  UNL     1      -2.183  -0.036  -0.698  1.00  0.00    -0.030 A 
HETATM   17  C5  UNL     1      -3.295   0.390   0.006  1.00  0.00     0.009 A 
HETATM   18  C4  UNL     1      -4.258  -0.457   0.512  1.00  0.00     0.003 A 
HETATM   19  C3  UNL     1      -4.147  -1.818   0.328  1.00  0.00     0.037 A 
HETATM   20  C2  UNL     1      -3.063  -2.299  -0.364  1.00  0.00     0.068 A 
HETATM   21  C23 UNL     1      -2.132  -1.399  -0.846  1.00  0.00     0.046 A 
BRANCH  20  22
HETATM   22  O1  UNL     1      -2.923  -3.676  -0.566  1.00  0.00    -0.356 OA
HETATM   23  C1  UNL     1      -3.941  -4.503  -0.026  1.00  0.00     0.210 C 
ENDBRANCH  20  22
ENDBRANCH   1  16
BRANCH   5  24
HETATM   24  C17 UNL     1      -1.382   3.258  -0.100  1.00  0.00     0.053 A 
HETATM   25  C18 UNL     1      -2.336   3.805  -0.932  1.00  0.00     0.031 A 
HETATM   26  C19 UNL     1      -2.836   5.066  -0.790  1.00  0.00     0.002 A 
HETATM   27  C20 UNL     1      -2.382   5.882   0.243  1.00  0.00     0.000 A 
HETATM   28  C21 UNL     1      -1.433   5.318   1.060  1.00  0.00     0.002 A 
HETATM   29  C22 UNL     1      -0.917   4.043   0.929  1.00  0.00     0.031 A 
ENDBRANCH   5  24
TORSDOF 4
