REMARK  3 active torsions:
REMARK  status: ('A' for Active; 'I' for Inactive)
REMARK    1  A    between atoms: C6_10  and  N4_11 
REMARK    2  A    between atoms: N4_11  and  C7_12 
REMARK    3  A    between atoms: C7_12  and  C8_13 
ROOT
HETATM    1  B1  UNL     1       3.845  -0.057  -3.155  1.00  0.00     0.211 B 
HETATM    2  C1  UNL     1       2.926   0.087  -1.342  1.00  0.00    -0.100 C 
HETATM    3  C2  UNL     1       1.548  -0.175  -1.743  1.00  0.00     0.142 C 
HETATM    4  N1  UNL     1       0.642   0.286  -0.721  1.00  0.00    -0.382 N 
HETATM    5  C3  UNL     1       0.779   0.215   0.698  1.00  0.00     0.103 A 
HETATM    6  C4  UNL     1       1.954   0.300   1.447  1.00  0.00     0.089 A 
HETATM    7  N2  UNL     1       1.879   0.222   2.809  1.00  0.00    -0.240 NA
HETATM    8  C5  UNL     1       0.660   0.064   3.391  1.00  0.00     0.236 A 
HETATM    9  N3  UNL     1      -0.446  -0.016   2.645  1.00  0.00    -0.222 NA
HETATM   10  C6  UNL     1      -0.456   0.052   1.303  1.00  0.00     0.153 A 
HETATM   11  C13 UNL     1       3.319   0.466   0.963  1.00  0.00     0.042 C 
HETATM   12  C14 UNL     1       3.835   0.390  -0.246  1.00  0.00    -0.040 C 
HETATM   13  C15 UNL     1       5.270   0.617  -0.401  1.00  0.00     0.204 C 
HETATM   14  O1  UNL     1       5.619   1.152  -1.631  1.00  0.00    -0.396 OA
HETATM   15  C16 UNL     1       5.588   0.271  -2.668  1.00  0.00     0.110 C 
HETATM   16  H3  UNL     1      -0.277   0.761  -0.970  1.00  0.00     0.160 HD
ENDROOT
BRANCH  10  17
HETATM   17  N4  UNL     1      -1.679  -0.055   0.585  1.00  0.00    -0.371 N 
HETATM   18  H5  UNL     1      -1.931  -0.051  -0.397  1.00  0.00     0.161 HD
BRANCH  17  19
HETATM   19  C7  UNL     1      -2.876  -0.215   1.361  1.00  0.00     0.150 C 
BRANCH  19  20
HETATM   20  C8  UNL     1      -4.148  -0.326   0.613  1.00  0.00     0.121 A 
HETATM   21  C9  UNL     1      -4.467   0.833  -0.228  1.00  0.00    -0.000 A 
HETATM   22  C10 UNL     1      -4.804   0.813  -1.523  1.00  0.00    -0.001 A 
HETATM   23  C11 UNL     1      -4.864  -0.490  -2.173  1.00  0.00     0.016 A 
HETATM   24  C12 UNL     1      -4.608  -1.639  -1.567  1.00  0.00     0.083 A 
HETATM   25  N5  UNL     1      -4.258  -1.515  -0.193  1.00  0.00    -0.389 N 
HETATM   26  H13 UNL     1      -4.041  -2.372   0.359  1.00  0.00     0.159 HD
ENDBRANCH  19  20
ENDBRANCH  17  19
ENDBRANCH  10  17
TORSDOF 3
