REMARK  1 active torsions:
REMARK  status: ('A' for Active; 'I' for Inactive)
REMARK    1  A    between atoms: O1_2  and  C2_3 
ROOT
HETATM    1  C2  UNL     1       3.264   0.058  -0.061  1.00  0.00     0.074 C 
HETATM    2  C3  UNL     1       2.900   1.327   0.258  1.00  0.00     0.037 C 
HETATM    3  C4  UNL     1       1.670   2.114   0.139  1.00  0.00    -0.001 C 
HETATM    4  C5  UNL     1       0.393   2.254  -0.273  1.00  0.00    -0.025 C 
HETATM    5  C6  UNL     1      -0.561   1.439  -1.005  1.00  0.00     0.052 C 
HETATM    6  C7  UNL     1      -1.746   0.814  -0.520  1.00  0.00     0.087 C 
HETATM    7  C8  UNL     1      -2.565   1.486   0.573  1.00  0.00     0.043 C 
HETATM    8  C9  UNL     1      -3.392   0.226   1.010  1.00  0.00     0.027 A 
HETATM    9  C10 UNL     1      -3.493  -0.898   1.793  1.00  0.00     0.036 A 
HETATM   10  C11 UNL     1      -2.635  -2.022   1.448  1.00  0.00     0.044 A 
HETATM   11  O2  UNL     1      -3.354  -1.037   1.684  1.00  0.00     0.000 OA
HETATM   12  C12 UNL     1      -3.867  -1.079   0.171  1.00  0.00     0.101 A 
HETATM   13  C13 UNL     1      -4.640  -0.042   0.179  1.00  0.00     0.000 A 
HETATM   14  O3  UNL     1      -3.315  -2.164  -0.640  1.00  0.00    -0.349 OA
HETATM   15  C14 UNL     1      -1.949  -2.065   0.059  1.00  0.00     0.233 C 
HETATM   16  N1  UNL     1      -1.595  -0.680  -0.222  1.00  0.00    -0.369 N 
HETATM   17  C15 UNL     1      -0.139  -0.877  -0.200  1.00  0.00     0.062 A 
HETATM   18  C16 UNL     1      -0.122  -0.405   1.077  1.00  0.00     0.037 A 
HETATM   19  C17 UNL     1       1.106  -0.355   0.484  1.00  0.00     0.061 A 
HETATM   20  C18 UNL     1       2.001  -0.551  -0.578  1.00  0.00    -0.018 A 
HETATM   21  C19 UNL     1       1.652  -1.086  -1.796  1.00  0.00     0.009 A 
HETATM   22  C20 UNL     1       0.308  -1.236  -1.426  1.00  0.00     0.006 A 
ENDROOT
BRANCH   1  23
HETATM   23  O1  UNL     1       3.984  -1.098  -0.236  1.00  0.00    -0.355 OA
HETATM   24  C1  UNL     1       5.413  -1.077  -0.349  1.00  0.00     0.210 C 
ENDBRANCH   1  23
TORSDOF 1
