REMARK  6 active torsions:
REMARK  status: ('A' for Active; 'I' for Inactive)
REMARK    1  A    between atoms: C4_4  and  C5_5 
REMARK    2  A    between atoms: C5_5  and  C6_6 
REMARK    3  A    between atoms: C6_6  and  N1_7 
REMARK    4  A    between atoms: C7_9  and  C8_10 
REMARK    5  A    between atoms: C17_21  and  C18_22 
REMARK    6  A    between atoms: C22_26  and  O3_27 
ROOT
HETATM    1  C1  UNL     1      -5.058   5.574  -0.991  1.00  0.00     0.017 C 
HETATM    2  C2  UNL     1      -3.902   5.328  -1.229  1.00  0.00    -0.089 C 
HETATM    3  C3  UNL     1      -2.503   5.025  -1.493  1.00  0.00     0.063 C 
HETATM    4  C4  UNL     1      -2.168   3.764  -1.184  1.00  0.00     0.010 C 
ENDROOT
BRANCH   4   5
HETATM    5  C5  UNL     1      -3.170   2.847  -0.638  1.00  0.00     0.019 C 
BRANCH   5   6
HETATM    6  C6  UNL     1      -2.557   1.741  -0.451  1.00  0.00     0.113 C 
BRANCH   6   7
HETATM    7  N1  UNL     1      -1.788   0.589  -0.289  1.00  0.00    -0.275 N 
HETATM    8  N2  UNL     1      -0.422   0.886  -0.060  1.00  0.00    -0.176 NA
HETATM    9  C7  UNL     1       0.326  -0.108  -0.464  1.00  0.00     0.067 C 
HETATM   10  C16 UNL     1      -0.575  -1.185  -1.018  1.00  0.00     0.090 C 
HETATM   11  C17 UNL     1      -1.862  -0.840  -0.277  1.00  0.00     0.129 C 
BRANCH   9  12
HETATM   12  C8  UNL     1       1.795  -0.290  -0.447  1.00  0.00    -0.007 A 
HETATM   13  C9  UNL     1       2.411  -1.406  -0.908  1.00  0.00     0.016 A 
HETATM   14  C10 UNL     1       3.781  -1.562  -0.895  1.00  0.00     0.040 A 
HETATM   15  C11 UNL     1       4.571  -0.532  -0.387  1.00  0.00     0.102 A 
HETATM   16  C12 UNL     1       3.958   0.609   0.085  1.00  0.00     0.103 A 
HETATM   17  O2  UNL     1       5.945  -0.723  -0.390  1.00  0.00    -0.346 OA
HETATM   18  C13 UNL     1       2.585   0.723   0.053  1.00  0.00     0.053 A 
HETATM   19  O1  UNL     1       4.869   1.540   0.555  1.00  0.00    -0.346 OA
HETATM   20  C14 UNL     1       6.077   1.109   1.139  1.00  0.00     0.202 C 
HETATM   21  C15 UNL     1       6.809   0.224   0.176  1.00  0.00     0.202 C 
ENDBRANCH   9  12
BRANCH  11  22
HETATM   22  C18 UNL     1      -1.726  -1.340   1.125  1.00  0.00     0.090 A 
HETATM   23  C19 UNL     1      -2.814  -0.793   2.012  1.00  0.00    -0.013 A 
HETATM   24  C20 UNL     1      -3.568  -1.752   2.522  1.00  0.00    -0.001 A 
HETATM   25  C21 UNL     1      -3.072  -3.033   2.037  1.00  0.00     0.033 A 
HETATM   26  C22 UNL     1      -2.018  -2.795   1.237  1.00  0.00     0.055 A 
BRANCH  26  27
HETATM   27  O3  UNL     1      -1.411  -3.912   0.677  1.00  0.00    -0.359 OA
HETATM   28  C23 UNL     1      -1.952  -4.570  -0.459  1.00  0.00     0.209 C 
ENDBRANCH  26  27
ENDBRANCH  11  22
ENDBRANCH   6   7
ENDBRANCH   5   6
ENDBRANCH   4   5
TORSDOF 6
