REMARK  5 active torsions:
REMARK  status: ('A' for Active; 'I' for Inactive)
REMARK    1  A    between atoms: C3_4  and  C4_5 
REMARK    2  A    between atoms: C8_9  and  O1_10 
REMARK    3  A    between atoms: O1_10  and  C9_11 
REMARK    4  A    between atoms: C9_11  and  C10_12 
REMARK    5  A    between atoms: N2_19  and  C17_20 
ROOT
HETATM    1  C4  UNL     1      -0.866   0.263  -0.834  1.00  0.00    -0.032 A 
HETATM    2  C5  UNL     1      -1.128   1.585  -1.054  1.00  0.00     0.009 A 
HETATM    3  C6  UNL     1      -0.176   2.579  -1.055  1.00  0.00     0.003 A 
HETATM    4  C7  UNL     1       1.148   2.214  -0.815  1.00  0.00     0.037 A 
HETATM    5  C8  UNL     1       1.444   0.867  -0.587  1.00  0.00     0.069 A 
HETATM    6  C16 UNL     1       0.440  -0.093  -0.598  1.00  0.00     0.046 A 
ENDROOT
BRANCH   1   7
HETATM    7  C3  UNL     1      -1.860  -0.816  -0.828  1.00  0.00     0.131 C 
HETATM    8  C2  UNL     1      -1.662  -1.811   0.323  1.00  0.00     0.108 C 
HETATM    9  C1  UNL     1      -2.225  -0.651   1.084  1.00  0.00     0.101 C 
HETATM   10  N1  UNL     1      -1.956  -0.167   2.245  1.00  0.00    -0.287 NA
HETATM   11  N2  UNL     1      -3.073  -0.468  -0.072  1.00  0.00    -0.326 N 
HETATM   12  H1  UNL     1      -2.503   0.666   2.551  1.00  0.00     0.188 HD
BRANCH  11  13
HETATM   13  C17 UNL     1      -4.439  -0.101   0.083  1.00  0.00     0.036 A 
HETATM   14  C18 UNL     1      -5.302  -1.195   0.188  1.00  0.00     0.029 A 
HETATM   15  C19 UNL     1      -6.657  -0.965   0.342  1.00  0.00     0.002 A 
HETATM   16  C20 UNL     1      -7.095   0.363   0.385  1.00  0.00     0.000 A 
HETATM   17  C21 UNL     1      -6.253   1.467   0.282  1.00  0.00     0.002 A 
HETATM   18  C22 UNL     1      -4.906   1.197   0.129  1.00  0.00     0.029 A 
ENDBRANCH  11  13
ENDBRANCH   1   7
BRANCH   5  19
HETATM   19  O1  UNL     1       2.801   0.639  -0.361  1.00  0.00    -0.347 OA
BRANCH  19  20
HETATM   20  C9  UNL     1       3.381  -0.604  -0.106  1.00  0.00     0.214 C 
BRANCH  20  21
HETATM   21  C10 UNL     1       4.858  -0.524   0.095  1.00  0.00    -0.034 A 
HETATM   22  C11 UNL     1       5.627  -0.662  -1.065  1.00  0.00     0.009 A 
HETATM   23  C12 UNL     1       7.007  -0.611  -1.045  1.00  0.00     0.001 A 
HETATM   24  C13 UNL     1       7.592  -0.414   0.187  1.00  0.00     0.000 A 
HETATM   25  C14 UNL     1       6.882  -0.272   1.358  1.00  0.00     0.001 A 
HETATM   26  C15 UNL     1       5.502  -0.328   1.304  1.00  0.00     0.009 A 
ENDBRANCH  20  21
ENDBRANCH  19  20
ENDBRANCH   5  19
TORSDOF 5
