REMARK  6 active torsions:
REMARK  status: ('A' for Active; 'I' for Inactive)
REMARK    1  A    between atoms: N1_1  and  N2_2 
REMARK    2  A    between atoms: C1_3  and  C2_4 
REMARK    3  A    between atoms: C6_8  and  O1_9 
REMARK    4  A    between atoms: O1_9  and  C7_10 
REMARK    5  A    between atoms: C7_10  and  C8_11 
REMARK    6  A    between atoms: C16_19  and  C17_20 
ROOT
HETATM    1  N2  UNL     1       1.454  -0.133   0.729  1.00  0.00    -0.236 NA
HETATM    2  C1  UNL     1       0.311   0.528   0.218  1.00  0.00     0.110 C 
HETATM    3  C15 UNL     1       1.266   1.313  -0.692  1.00  0.00     0.052 C 
HETATM    4  C16 UNL     1       2.186   1.127   0.513  1.00  0.00     0.110 C 
ENDROOT
BRANCH   2   5
HETATM    5  C2  UNL     1      -0.732  -0.203  -0.476  1.00  0.00    -0.036 A 
HETATM    6  C3  UNL     1      -0.541  -1.157  -1.445  1.00  0.00     0.009 A 
HETATM    7  C4  UNL     1      -1.520  -1.862  -2.114  1.00  0.00     0.003 A 
HETATM    8  C5  UNL     1      -2.835  -1.589  -1.784  1.00  0.00     0.037 A 
HETATM    9  C6  UNL     1      -3.124  -0.647  -0.824  1.00  0.00     0.069 A 
HETATM   10  C14 UNL     1      -2.088   0.016  -0.199  1.00  0.00     0.045 A 
BRANCH   9  11
HETATM   11  O1  UNL     1      -4.443  -0.418  -0.540  1.00  0.00    -0.347 OA
BRANCH  11  12
HETATM   12  C7  UNL     1      -4.916   0.511   0.415  1.00  0.00     0.214 C 
BRANCH  12  13
HETATM   13  C8  UNL     1      -6.390   0.443   0.408  1.00  0.00    -0.034 A 
HETATM   14  C9  UNL     1      -7.223   1.203  -0.387  1.00  0.00     0.009 A 
HETATM   15  C10 UNL     1      -8.590   1.000  -0.254  1.00  0.00     0.001 A 
HETATM   16  C11 UNL     1      -9.148   0.091   0.619  1.00  0.00     0.000 A 
HETATM   17  C12 UNL     1      -8.304  -0.673   1.420  1.00  0.00     0.001 A 
HETATM   18  C13 UNL     1      -6.942  -0.463   1.280  1.00  0.00     0.009 A 
ENDBRANCH  12  13
ENDBRANCH  11  12
ENDBRANCH   9  11
ENDBRANCH   2   5
BRANCH   1  19
HETATM   19  N1  UNL     1       2.079  -1.105  -0.017  1.00  0.00    -0.267 NA
HETATM   20  H1  UNL     1       2.768  -0.767  -0.694  1.00  0.00     0.137 HD
HETATM   21  H2  UNL     1       2.406  -1.858   0.628  1.00  0.00     0.137 HD
ENDBRANCH   1  19
BRANCH   4  22
HETATM   22  C17 UNL     1       3.610   0.954   0.200  1.00  0.00    -0.036 A 
HETATM   23  C18 UNL     1       4.135   1.693  -0.827  1.00  0.00     0.012 A 
HETATM   24  C19 UNL     1       5.461   1.622  -1.221  1.00  0.00     0.040 A 
HETATM   25  C20 UNL     1       6.311   0.755  -0.541  1.00  0.00     0.102 A 
HETATM   26  C21 UNL     1       5.792   0.002   0.499  1.00  0.00     0.102 A 
HETATM   27  O3  UNL     1       7.644   0.551  -0.787  1.00  0.00    -0.346 OA
HETATM   28  C22 UNL     1       4.475   0.103   0.856  1.00  0.00     0.048 A 
HETATM   29  O2  UNL     1       6.690  -0.844   1.138  1.00  0.00    -0.346 OA
HETATM   30  C23 UNL     1       7.673  -1.564   0.404  1.00  0.00     0.202 C 
HETATM   31  C24 UNL     1       8.396  -0.583  -0.473  1.00  0.00     0.202 C 
ENDBRANCH   4  22
TORSDOF 6
