REMARK  2 active torsions:
REMARK  status: ('A' for Active; 'I' for Inactive)
REMARK       I    between atoms: C8_11  and  N3_12 
REMARK    1  A    between atoms: N3_12  and  C9_13 
REMARK    2  A    between atoms: C9_13  and  C10_14 
ROOT
HETATM    1  C1  UNL     1      -5.168   2.287   0.191  1.00  0.00     0.049 C 
HETATM    2  C2  UNL     1      -4.743   0.858   0.085  1.00  0.00    -0.049 A 
HETATM    3  C3  UNL     1      -5.506  -0.219   0.059  1.00  0.00     0.010 A 
HETATM    4  C4  UNL     1      -4.752  -1.460  -0.053  1.00  0.00     0.039 A 
HETATM    5  C5  UNL     1      -3.468  -1.102  -0.097  1.00  0.00     0.087 A 
HETATM    6  O1  UNL     1      -2.577  -2.145  -0.203  1.00  0.00    -0.303 OA
HETATM    7  C6  UNL     1      -2.487  -3.151   0.785  1.00  0.00     0.260 C 
HETATM    8  N1  UNL     1      -1.350  -3.739   0.996  1.00  0.00    -0.229 NA
HETATM    9  C7  UNL     1      -0.256  -3.291   0.172  1.00  0.00     0.254 C 
HETATM   10  N2  UNL     1       0.640  -2.636  -0.466  1.00  0.00    -0.056 NA
HETATM   11  C8  UNL     1       0.714  -1.196  -0.339  1.00  0.00     0.719 C 
HETATM   12  N3  UNL     1       2.068  -0.774  -0.343  1.00  0.00    -0.218 N 
HETATM   13  N4  UNL     1      -0.406  -0.627  -0.250  1.00  0.00    -0.102 NA
HETATM   14  C16 UNL     1      -0.782   0.723  -0.117  1.00  0.00     0.197 C 
HETATM   15  C17 UNL     1      -2.238   0.993  -0.027  1.00  0.00     0.010 C 
HETATM   16  C18 UNL     1      -3.383   0.337  -0.016  1.00  0.00     0.002 A 
HETATM   17  H8  UNL     1       2.863  -1.362  -0.658  1.00  0.00     0.178 HD
ENDROOT
BRANCH  12  18
HETATM   18  C9  UNL     1       2.277   0.590   0.140  1.00  0.00     0.176 C 
BRANCH  18  19
HETATM   19  C10 UNL     1       3.771   0.819   0.118  1.00  0.00    -0.040 A 
HETATM   20  C11 UNL     1       4.346   1.338  -1.038  1.00  0.00     0.009 A 
HETATM   21  C12 UNL     1       5.713   1.546  -1.051  1.00  0.00     0.001 A 
HETATM   22  C13 UNL     1       6.489   1.247   0.050  1.00  0.00     0.000 A 
HETATM   23  C14 UNL     1       5.905   0.734   1.189  1.00  0.00     0.001 A 
HETATM   24  C15 UNL     1       4.548   0.517   1.230  1.00  0.00     0.009 A 
ENDBRANCH  18  19
ENDBRANCH  12  18
TORSDOF 2
