REMARK  5 active torsions:
REMARK  status: ('A' for Active; 'I' for Inactive)
REMARK    1  A    between atoms: C1_1  and  C21_25 
REMARK    2  A    between atoms: C2_2  and  C3_3 
REMARK    3  A    between atoms: C3_3  and  C4_4 
REMARK    4  A    between atoms: C6_6  and  C7_7 
REMARK    5  A    between atoms: N2_18  and  C15_19 
ROOT
HETATM    1  C4  UNL     1      -1.463   1.912  -0.885  1.00  0.00     0.119 C 
HETATM    2  C5  UNL     1      -0.901   0.768  -1.698  1.00  0.00     0.089 C 
HETATM    3  C6  UNL     1       0.330   0.453  -0.923  1.00  0.00     0.067 C 
HETATM    4  N1  UNL     1       0.650   1.456  -0.174  1.00  0.00    -0.175 NA
HETATM    5  N2  UNL     1      -0.268   2.499  -0.345  1.00  0.00    -0.264 N 
ENDROOT
BRANCH   3   6
HETATM    6  C7  UNL     1       1.054  -0.828  -1.018  1.00  0.00    -0.007 A 
HETATM    7  C8  UNL     1       0.609  -1.844  -1.867  1.00  0.00     0.016 A 
HETATM    8  C9  UNL     1       1.275  -3.049  -1.969  1.00  0.00     0.040 A 
HETATM    9  C10 UNL     1       2.400  -3.194  -1.189  1.00  0.00     0.102 A 
HETATM   10  C11 UNL     1       2.841  -2.203  -0.355  1.00  0.00     0.103 A 
HETATM   11  O2  UNL     1       3.151  -4.347  -1.200  1.00  0.00    -0.346 OA
HETATM   12  C12 UNL     1       2.196  -1.008  -0.242  1.00  0.00     0.053 A 
HETATM   13  O1  UNL     1       3.980  -2.380   0.419  1.00  0.00    -0.346 OA
HETATM   14  C13 UNL     1       4.493  -3.674   0.674  1.00  0.00     0.202 C 
HETATM   15  C14 UNL     1       4.461  -4.415  -0.670  1.00  0.00     0.202 C 
ENDBRANCH   3   6
BRANCH   1  16
HETATM   16  C3  UNL     1      -2.463   1.467   0.137  1.00  0.00     0.055 C 
BRANCH  16  17
HETATM   17  C2  UNL     1      -1.957   0.525   1.133  1.00  0.00    -0.024 C 
HETATM   18  C1  UNL     1      -2.344  -0.706   1.420  1.00  0.00    -0.001 C 
BRANCH  18  19
HETATM   19  C21 UNL     1      -3.437  -1.347   0.706  1.00  0.00     0.037 C 
HETATM   20  C22 UNL     1      -3.782  -2.575   1.032  1.00  0.00     0.076 A 
HETATM   21  C23 UNL     1      -3.217  -3.459   2.054  1.00  0.00     0.062 A 
HETATM   22  O3  UNL     1      -4.650  -3.620   0.753  1.00  0.00    -0.323 OA
HETATM   23  C24 UNL     1      -4.089  -4.428   1.730  1.00  0.00     0.145 A 
ENDBRANCH  18  19
ENDBRANCH  16  17
ENDBRANCH   1  16
BRANCH   5  24
HETATM   24  C15 UNL     1      -0.034   3.853  -0.037  1.00  0.00     0.053 A 
HETATM   25  C16 UNL     1      -0.974   4.847  -0.226  1.00  0.00     0.031 A 
HETATM   26  C17 UNL     1      -0.786   6.183   0.062  1.00  0.00     0.002 A 
HETATM   27  C18 UNL     1       0.441   6.555   0.581  1.00  0.00     0.000 A 
HETATM   28  C19 UNL     1       1.420   5.595   0.790  1.00  0.00     0.002 A 
HETATM   29  C20 UNL     1       1.178   4.267   0.483  1.00  0.00     0.031 A 
ENDBRANCH   5  24
TORSDOF 5
