REMARK  5 active torsions:
REMARK  status: ('A' for Active; 'I' for Inactive)
REMARK    1  A    between atoms: C2_2  and  C3_3 
REMARK    2  A    between atoms: C3_3  and  C4_4 
REMARK    3  A    between atoms: C5_5  and  C6_6 
REMARK    4  A    between atoms: C8_8  and  C9_9 
REMARK    5  A    between atoms: N2_20  and  C17_21 
ROOT
HETATM    1  C6  UNL     1      -1.601   0.015   0.107  1.00  0.00     0.139 C 
HETATM    2  C7  UNL     1      -0.560  -0.688   0.992  1.00  0.00     0.093 C 
HETATM    3  C8  UNL     1       0.671  -0.117   0.392  1.00  0.00     0.067 C 
HETATM    4  N1  UNL     1       0.352   0.985  -0.166  1.00  0.00    -0.175 NA
HETATM    5  N2  UNL     1      -1.004   1.299  -0.043  1.00  0.00    -0.261 N 
ENDROOT
BRANCH   3   6
HETATM    6  C9  UNL     1       1.994  -0.730   0.447  1.00  0.00    -0.007 A 
HETATM    7  C10 UNL     1       2.189  -1.936   1.092  1.00  0.00     0.016 A 
HETATM    8  C11 UNL     1       3.457  -2.485   1.123  1.00  0.00     0.040 A 
HETATM    9  C12 UNL     1       4.496  -1.843   0.524  1.00  0.00     0.102 A 
HETATM   10  C13 UNL     1       4.353  -0.637  -0.133  1.00  0.00     0.103 A 
HETATM   11  O2  UNL     1       5.763  -2.419   0.570  1.00  0.00    -0.346 OA
HETATM   12  C14 UNL     1       3.082  -0.124  -0.142  1.00  0.00     0.053 A 
HETATM   13  O1  UNL     1       5.452  -0.029  -0.724  1.00  0.00    -0.346 OA
HETATM   14  C15 UNL     1       6.583  -0.836  -0.989  1.00  0.00     0.202 C 
HETATM   15  C16 UNL     1       6.897  -1.598   0.291  1.00  0.00     0.202 C 
ENDBRANCH   3   6
BRANCH   1  16
HETATM   16  C5  UNL     1      -2.915  -0.038   0.731  1.00  0.00    -0.003 C 
HETATM   17  C4  UNL     1      -4.003  -0.640   0.332  1.00  0.00    -0.025 C 
BRANCH  17  18
HETATM   18  C3  UNL     1      -4.112  -1.425  -0.898  1.00  0.00     0.053 C 
BRANCH  18  19
HETATM   19  C2  UNL     1      -4.496  -2.859  -0.640  1.00  0.00    -0.033 C 
HETATM   20  C1  UNL     1      -5.591  -3.446  -1.116  1.00  0.00     0.007 C 
ENDBRANCH  18  19
ENDBRANCH  17  18
ENDBRANCH   1  16
BRANCH   5  21
HETATM   21  C17 UNL     1      -1.480   2.630  -0.082  1.00  0.00     0.053 A 
HETATM   22  C18 UNL     1      -2.810   2.979  -0.005  1.00  0.00     0.031 A 
HETATM   23  C19 UNL     1      -3.315   4.262  -0.038  1.00  0.00     0.002 A 
HETATM   24  C20 UNL     1      -2.428   5.312  -0.159  1.00  0.00     0.000 A 
HETATM   25  C21 UNL     1      -1.083   5.019  -0.241  1.00  0.00     0.002 A 
HETATM   26  C22 UNL     1      -0.640   3.716  -0.202  1.00  0.00     0.031 A 
ENDBRANCH   5  21
TORSDOF 5
