REMARK  6 active torsions:
REMARK  status: ('A' for Active; 'I' for Inactive)
REMARK    1  A    between atoms: C2_2  and  C3_3 
REMARK    2  A    between atoms: C9_10  and  C10_11 
REMARK    3  A    between atoms: C14_15  and  O1_16 
REMARK    4  A    between atoms: O1_16  and  C15_17 
REMARK    5  A    between atoms: C15_17  and  C16_18 
REMARK    6  A    between atoms: C16_18  and  O2_19 
ROOT
HETATM    1  C3  UNL     1      -1.849  -1.093   1.825  1.00  0.00     0.062 C 
HETATM    2  C4  UNL     1      -3.103  -0.568   2.267  1.00  0.00     0.089 C 
HETATM    3  C5  UNL     1      -3.539   0.382   1.162  1.00  0.00     0.162 C 
HETATM    4  N1  UNL     1      -2.949   1.354   1.682  1.00  0.00    -0.267 NA
HETATM    5  C6  UNL     1      -2.718   2.690   1.462  1.00  0.00     0.152 C 
HETATM    6  C7  UNL     1      -1.763   3.085   0.411  1.00  0.00     0.028 C 
HETATM    7  C8  UNL     1      -0.355   2.715   0.401  1.00  0.00     0.063 C 
HETATM    8  C9  UNL     1       0.086   1.330   0.270  1.00  0.00     0.065 C 
HETATM    9  N2  UNL     1      -0.208   0.055   0.283  1.00  0.00    -0.171 NA
HETATM   10  N3  UNL     1      -1.306  -0.643   0.478  1.00  0.00    -0.234 N 
HETATM   11  C18 UNL     1      -2.114  -0.918  -0.685  1.00  0.00     0.063 C 
HETATM   12  C19 UNL     1      -3.155  -1.558  -1.206  1.00  0.00    -0.025 C 
HETATM   13  C20 UNL     1      -3.598  -2.888  -1.756  1.00  0.00     0.048 C 
HETATM   14  C21 UNL     1      -4.162  -0.460  -1.230  1.00  0.00     0.165 C 
HETATM   15  C22 UNL     1      -3.700   0.318  -2.436  1.00  0.00     0.064 C 
HETATM   16  C23 UNL     1      -2.256   0.012  -2.810  1.00  0.00    -0.022 C 
HETATM   17  C24 UNL     1      -1.530   0.053  -1.675  1.00  0.00     0.028 C 
HETATM   18  O3  UNL     1      -4.306   0.269  -0.030  1.00  0.00    -0.324 OA
ENDROOT
BRANCH   8  19
HETATM   19  C10 UNL     1       1.575   1.328   0.122  1.00  0.00    -0.007 A 
HETATM   20  C11 UNL     1       2.398   2.466   0.070  1.00  0.00     0.013 A 
HETATM   21  C12 UNL     1       3.749   2.554  -0.070  1.00  0.00     0.004 A 
HETATM   22  C13 UNL     1       4.413   1.357  -0.175  1.00  0.00     0.037 A 
HETATM   23  C14 UNL     1       3.756   0.159  -0.142  1.00  0.00     0.069 A 
HETATM   24  C17 UNL     1       2.407   0.213   0.001  1.00  0.00     0.050 A 
BRANCH  23  25
HETATM   25  O1  UNL     1       4.374  -1.075  -0.244  1.00  0.00    -0.349 OA
BRANCH  25  26
HETATM   26  C15 UNL     1       5.774  -1.108  -0.392  1.00  0.00     0.201 C 
BRANCH  26  27
HETATM   27  C16 UNL     1       6.181  -2.586  -0.479  1.00  0.00     0.190 C 
BRANCH  27  28
HETATM   28  O2  UNL     1       5.812  -3.268   0.659  1.00  0.00    -0.399 OA
HETATM   29  H18 UNL     1       5.045  -2.898   1.132  1.00  0.00     0.209 HD
ENDBRANCH  27  28
ENDBRANCH  26  27
ENDBRANCH  25  26
ENDBRANCH  23  25
ENDBRANCH   8  19
BRANCH   1  30
HETATM   30  C2  UNL     1      -0.954  -2.038   2.477  1.00  0.00     0.021 C 
HETATM   31  C1  UNL     1       0.209  -2.578   2.151  1.00  0.00     0.013 C 
ENDBRANCH   1  30
TORSDOF 6
