REMARK  0 active torsions:
REMARK  status: ('A' for Active; 'I' for Inactive)
ROOT
HETATM    1  C1  UNL     1      -1.125  -0.008   1.978  1.00  0.00     0.052 C 
HETATM    2  C2  UNL     1      -1.577   0.166   0.587  1.00  0.00    -0.022 A 
HETATM    3  C3  UNL     1      -2.196  -0.787  -0.166  1.00  0.00    -0.044 A 
HETATM    4  C4  UNL     1      -2.897  -0.963  -1.321  1.00  0.00     0.008 A 
HETATM    5  C5  UNL     1      -2.986   0.304  -1.927  1.00  0.00     0.003 A 
HETATM    6  C6  UNL     1      -2.414   1.419  -1.353  1.00  0.00     0.037 A 
HETATM    7  C7  UNL     1      -1.728   1.315  -0.134  1.00  0.00     0.075 A 
HETATM    8  O1  UNL     1      -1.067   2.417   0.466  1.00  0.00    -0.350 OA
HETATM    9  C8  UNL     1       0.307   2.234   0.825  1.00  0.00     0.182 C 
HETATM   10  C9  UNL     1       1.265   1.758  -0.202  1.00  0.00     0.037 C 
HETATM   11  C10 UNL     1       0.793   1.945  -1.594  1.00  0.00     0.037 C 
HETATM   12  C11 UNL     1       0.613   0.662  -2.331  1.00  0.00    -0.009 C 
HETATM   13  C12 UNL     1       0.338  -0.522  -1.771  1.00  0.00     0.087 C 
HETATM   14  N1  UNL     1       0.723  -0.609  -0.374  1.00  0.00    -0.355 N 
HETATM   15  C13 UNL     1      -0.006  -1.727   0.226  1.00  0.00     0.016 C 
HETATM   16  C14 UNL     1       0.763  -2.665   0.812  1.00  0.00     0.025 C 
HETATM   17  C15 UNL     1       2.097  -2.518   1.453  1.00  0.00    -0.002 C 
HETATM   18  C16 UNL     1       2.751  -1.364   1.417  1.00  0.00    -0.025 C 
HETATM   19  C17 UNL     1       2.462   0.086   1.277  1.00  0.00     0.053 C 
HETATM   20  C18 UNL     1       1.717   0.353   0.014  1.00  0.00     0.099 C 
HETATM   21  C19 UNL     1      -1.518  -2.032   0.323  1.00  0.00     0.096 C 
ENDROOT
TORSDOF 0
