REMARK  6 active torsions:
REMARK  status: ('A' for Active; 'I' for Inactive)
REMARK    1  A    between atoms: C5_7  and  C6_8 
REMARK    2  A    between atoms: C6_8  and  C7_9 
REMARK    3  A    between atoms: C8_10  and  C9_11 
REMARK    4  A    between atoms: N2_13  and  C10_14 
REMARK    5  A    between atoms: C16_20  and  C17_21 
REMARK    6  A    between atoms: C21_25  and  O3_26 
ROOT
HETATM    1  C9  UNL     1       0.489  -0.761   0.814  1.00  0.00     0.057 C 
HETATM    2  N1  UNL     1      -0.113  -1.465  -0.092  1.00  0.00    -0.176 NA
HETATM    3  N2  UNL     1      -1.366  -1.893   0.306  1.00  0.00    -0.260 N 
HETATM    4  C16 UNL     1      -1.769  -0.951   1.348  1.00  0.00     0.149 C 
HETATM    5  C24 UNL     1      -0.436  -0.646   2.003  1.00  0.00     0.093 C 
ENDROOT
BRANCH   1   6
HETATM    6  C8  UNL     1       1.811  -0.108   0.846  1.00  0.00     0.029 C 
HETATM    7  C7  UNL     1       2.337   0.601   1.860  1.00  0.00     0.005 C 
BRANCH   7   8
HETATM    8  C6  UNL     1       3.638   1.057   1.477  1.00  0.00     0.039 C 
BRANCH   8   9
HETATM    9  C5  UNL     1       4.828   1.526   1.241  1.00  0.00     0.098 C 
HETATM   10  C2  UNL     1       5.321   1.163  -0.084  1.00  0.00     0.080 C 
HETATM   11  C1  UNL     1       4.837   0.460  -1.123  1.00  0.00     0.074 C 
HETATM   12  O1  UNL     1       6.581   1.595  -0.460  1.00  0.00    -0.350 OA
HETATM   13  C3  UNL     1       7.232   2.736   0.047  1.00  0.00     0.202 C 
HETATM   14  C4  UNL     1       6.500   3.286   1.242  1.00  0.00     0.202 C 
HETATM   15  O2  UNL     1       5.752   2.270   1.906  1.00  0.00    -0.347 OA
ENDBRANCH   8   9
ENDBRANCH   7   8
ENDBRANCH   1   6
BRANCH   3  16
HETATM   16  C10 UNL     1      -2.079  -3.009  -0.208  1.00  0.00     0.053 A 
HETATM   17  C11 UNL     1      -3.243  -3.522   0.382  1.00  0.00     0.031 A 
HETATM   18  C12 UNL     1      -3.851  -4.606  -0.211  1.00  0.00     0.002 A 
HETATM   19  C13 UNL     1      -3.403  -5.224  -1.340  1.00  0.00     0.000 A 
HETATM   20  C14 UNL     1      -2.251  -4.720  -1.927  1.00  0.00     0.002 A 
HETATM   21  C15 UNL     1      -1.627  -3.636  -1.349  1.00  0.00     0.031 A 
ENDBRANCH   3  16
BRANCH   4  22
HETATM   22  C17 UNL     1      -2.329   0.283   0.783  1.00  0.00    -0.030 A 
HETATM   23  C18 UNL     1      -2.195   1.607   1.129  1.00  0.00     0.009 A 
HETATM   24  C19 UNL     1      -2.804   2.645   0.468  1.00  0.00     0.003 A 
HETATM   25  C20 UNL     1      -3.620   2.397  -0.626  1.00  0.00     0.037 A 
HETATM   26  C21 UNL     1      -3.798   1.073  -1.030  1.00  0.00     0.068 A 
HETATM   27  C23 UNL     1      -3.154   0.073  -0.320  1.00  0.00     0.046 A 
BRANCH  26  28
HETATM   28  O3  UNL     1      -4.617   0.851  -2.123  1.00  0.00    -0.356 OA
HETATM   29  C22 UNL     1      -5.214   1.949  -2.760  1.00  0.00     0.210 C 
ENDBRANCH  26  28
ENDBRANCH   4  22
TORSDOF 6
