REMARK  3 active torsions:
REMARK  status: ('A' for Active; 'I' for Inactive)
REMARK    1  A    between atoms: C6_8  and  C7_9 
REMARK    2  A    between atoms: C7_9  and  C8_10 
REMARK    3  A    between atoms: C15_19  and  C16_20 
ROOT
HETATM    1  C8  UNL     1       0.248  -1.287  -1.250  1.00  0.00     0.044 C 
HETATM    2  N1  UNL     1      -0.149  -2.510  -1.435  1.00  0.00    -0.089 NA
HETATM    3  N2  UNL     1      -1.299  -3.104  -0.970  1.00  0.00     0.072 N 
HETATM    4  C9  UNL     1      -2.749  -3.306  -0.495  1.00  0.00     0.177 A 
HETATM    5  C10 UNL     1      -2.703  -3.117  -1.891  1.00  0.00     0.304 A 
HETATM    6  C11 UNL     1      -2.325  -1.771  -1.584  1.00  0.00     0.023 A 
HETATM    7  C12 UNL     1      -2.218  -1.430  -0.212  1.00  0.00    -0.051 A 
HETATM    8  C13 UNL     1      -2.388  -2.062   0.992  1.00  0.00     0.010 A 
HETATM    9  C14 UNL     1      -2.770  -3.412   0.873  1.00  0.00     0.038 A 
HETATM   10  C15 UNL     1      -1.733  -0.049  -0.419  1.00  0.00     0.057 C 
HETATM   11  C22 UNL     1      -0.204  -0.051  -0.503  1.00  0.00     0.070 C 
HETATM   12  H10 UNL     1      -0.440  -3.726  -1.065  1.00  0.00     0.319 HD
ENDROOT
BRANCH   1  13
HETATM   13  C7  UNL     1       1.549  -1.048  -1.913  1.00  0.00     0.086 C 
BRANCH  13  14
HETATM   14  C6  UNL     1       2.561  -0.697  -0.850  1.00  0.00     0.018 C 
HETATM   15  C5  UNL     1       3.237   0.416  -0.769  1.00  0.00     0.094 C 
HETATM   16  C2  UNL     1       4.184   0.607   0.323  1.00  0.00     0.079 C 
HETATM   17  O2  UNL     1       3.102   1.449  -1.684  1.00  0.00    -0.347 OA
HETATM   18  C1  UNL     1       4.418  -0.286   1.267  1.00  0.00     0.074 C 
HETATM   19  O1  UNL     1       4.895   1.796   0.395  1.00  0.00    -0.350 OA
HETATM   20  C3  UNL     1       4.308   2.962  -0.196  1.00  0.00     0.202 C 
HETATM   21  C4  UNL     1       3.713   2.702  -1.542  1.00  0.00     0.202 C 
ENDBRANCH  13  14
ENDBRANCH   1  13
BRANCH  10  22
HETATM   22  C16 UNL     1      -2.199   0.835   0.721  1.00  0.00    -0.048 A 
HETATM   23  C17 UNL     1      -1.605   0.998   1.950  1.00  0.00     0.008 A 
HETATM   24  C18 UNL     1      -2.077   1.811   2.927  1.00  0.00     0.002 A 
HETATM   25  C19 UNL     1      -3.227   2.537   2.706  1.00  0.00     0.024 A 
HETATM   26  C20 UNL     1      -3.887   2.437   1.507  1.00  0.00     0.034 A 
HETATM   27 CL1  UNL     1      -5.352   3.323   1.143  1.00  0.00    -0.084 Cl
HETATM   28  C21 UNL     1      -3.361   1.597   0.554  1.00  0.00     0.031 A 
ENDBRANCH  10  22
TORSDOF 3
