REMARK  3 active torsions:
REMARK  status: ('A' for Active; 'I' for Inactive)
REMARK    1  A    between atoms: C2_2  and  C3_3 
REMARK    2  A    between atoms: C5_6  and  C6_7 
REMARK    3  A    between atoms: N2_20  and  C16_21 
ROOT
HETATM    1  C6  UNL     1       0.336  -0.821   0.284  1.00  0.00     0.057 A 
HETATM    2  C7  UNL     1      -0.937  -1.530   0.204  1.00  0.00     0.037 A 
HETATM    3  C8  UNL     1      -0.969  -2.914   0.423  1.00  0.00    -0.002 A 
HETATM    4  C9  UNL     1      -2.074  -3.702   0.381  1.00  0.00     0.017 A 
HETATM    5  C10 UNL     1      -3.297  -3.128   0.102  1.00  0.00     0.040 A 
HETATM    6  C11 UNL     1      -3.357  -1.783  -0.124  1.00  0.00     0.103 A 
HETATM    7  C12 UNL     1      -2.206  -1.053  -0.066  1.00  0.00     0.115 A 
HETATM    8  O1  UNL     1      -2.282   0.293  -0.294  1.00  0.00    -0.345 OA
HETATM    9  C13 UNL     1      -3.497   1.023  -0.294  1.00  0.00     0.202 C 
HETATM   10  C14 UNL     1      -4.712   0.208  -0.016  1.00  0.00     0.202 C 
HETATM   11  O2  UNL     1      -4.543  -1.161  -0.405  1.00  0.00    -0.346 OA
HETATM   12  C15 UNL     1       0.251  -3.635   0.725  1.00  0.00     0.151 A 
HETATM   13  N1  UNL     1       1.395  -3.050   0.806  1.00  0.00    -0.179 NA
HETATM   14  N2  UNL     1       1.486  -1.648   0.594  1.00  0.00    -0.237 N 
ENDROOT
BRANCH   1  15
HETATM   15  C5  UNL     1       0.069   0.407   0.029  1.00  0.00     0.127 C 
HETATM   16  C4  UNL     1       0.615   1.729  -0.115  1.00  0.00     0.035 A 
HETATM   17  C3  UNL     1      -0.197   2.757  -0.429  1.00  0.00     0.089 A 
HETATM   18 CL1  UNL     1       1.735   3.062  -0.166  1.00  0.00    -0.209 Cl
BRANCH  17  19
HETATM   19  C2  UNL     1       0.478   4.033  -0.543  1.00  0.00     0.028 C 
HETATM   20  C1  UNL     1      -0.186   5.158  -0.850  1.00  0.00    -0.011 C 
ENDBRANCH  17  19
ENDBRANCH   1  15
BRANCH  14  21
HETATM   21  C16 UNL     1       2.713  -0.945   0.659  1.00  0.00     0.058 A 
HETATM   22  C17 UNL     1       3.629  -1.574  -0.197  1.00  0.00     0.031 A 
HETATM   23  C18 UNL     1       4.943  -1.105  -0.322  1.00  0.00     0.002 A 
HETATM   24  C19 UNL     1       5.375  -0.008   0.394  1.00  0.00     0.000 A 
HETATM   25  C20 UNL     1       4.453   0.590   1.228  1.00  0.00     0.002 A 
HETATM   26  C21 UNL     1       3.155   0.150   1.372  1.00  0.00     0.031 A 
ENDBRANCH  14  21
TORSDOF 3
