REMARK  2 active torsions:
REMARK  status: ('A' for Active; 'I' for Inactive)
REMARK    1  A    between atoms: C7_9  and  C8_10 
REMARK    2  A    between atoms: C8_10  and  C9_11 
ROOT
HETATM    1  C9  UNL     1      -0.107  -0.152   1.684  1.00  0.00     0.040 C 
HETATM    2  N1  UNL     1       0.550  -0.282   0.602  1.00  0.00    -0.139 NA
HETATM    3  N2  UNL     1       0.119  -0.708  -0.600  1.00  0.00    -0.043 NA
HETATM    4  N3  UNL     1       0.736  -0.805  -1.703  1.00  0.00    -0.131 NA
HETATM    5  C10 UNL     1       2.085  -0.466  -1.920  1.00  0.00     0.081 A 
HETATM    6  C11 UNL     1       2.563  -0.188  -3.205  1.00  0.00     0.033 A 
HETATM    7  C12 UNL     1       3.887   0.184  -3.474  1.00  0.00     0.003 A 
HETATM    8  C13 UNL     1       4.836   0.308  -2.484  1.00  0.00     0.007 A 
HETATM    9  C14 UNL     1       4.516   0.069  -1.179  1.00  0.00    -0.052 A 
HETATM   10  C15 UNL     1       3.186  -0.281  -1.123  1.00  0.00     0.040 A 
HETATM   11  C16 UNL     1       5.129   0.121   0.191  1.00  0.00     0.065 C 
HETATM   12  C17 UNL     1       5.240   1.565   0.618  1.00  0.00    -0.026 C 
HETATM   13  C18 UNL     1       4.186   1.986   1.383  1.00  0.00    -0.025 C 
HETATM   14  C19 UNL     1       2.879   1.686   2.054  1.00  0.00     0.043 C 
HETATM   15  C20 UNL     1       2.161   0.517   2.124  1.00  0.00    -0.014 C 
HETATM   16  C21 UNL     1       0.860   0.338   2.795  1.00  0.00     0.058 C 
ENDROOT
BRANCH   1  17
HETATM   17  C8  UNL     1      -1.481  -0.337   2.236  1.00  0.00     0.086 C 
BRANCH  17  18
HETATM   18  C7  UNL     1      -2.338  -0.806   1.110  1.00  0.00     0.019 C 
HETATM   19  C6  UNL     1      -3.394  -0.132   0.701  1.00  0.00     0.098 C 
HETATM   20  C3  UNL     1      -4.233  -0.587  -0.398  1.00  0.00     0.097 C 
HETATM   21  O2  UNL     1      -3.698   1.053   1.357  1.00  0.00    -0.346 OA
HETATM   22  C2  UNL     1      -3.977  -1.699  -1.040  1.00  0.00     0.008 C 
HETATM   23  O1  UNL     1      -5.322   0.192  -0.754  1.00  0.00    -0.347 OA
HETATM   24  C1  UNL     1      -4.891  -2.086  -2.152  1.00  0.00     0.039 C 
HETATM   25  C4  UNL     1      -5.775   1.134   0.221  1.00  0.00     0.202 C 
HETATM   26  C5  UNL     1      -4.579   1.948   0.676  1.00  0.00     0.202 C 
ENDBRANCH  17  18
ENDBRANCH   1  17
TORSDOF 2
