REMARK  2 active torsions:
REMARK  status: ('A' for Active; 'I' for Inactive)
REMARK    1  A    between atoms: C10_12  and  C11_13 
REMARK    2  A    between atoms: C11_13  and  C12_14 
ROOT
HETATM    1  C1  UNL     1      -2.763   0.110   3.231  1.00  0.00     0.062 C 
HETATM    2  C2  UNL     1      -3.668  -0.355   2.191  1.00  0.00     0.014 C 
HETATM    3 CL1  UNL     1      -5.174  -0.943   2.849  1.00  0.00    -0.089 Cl
HETATM    4  C3  UNL     1      -3.351  -0.322   0.936  1.00  0.00    -0.041 C 
HETATM    5  C4  UNL     1      -4.425  -0.847  -0.011  1.00  0.00     0.004 C 
HETATM    6  C5  UNL     1      -4.572  -0.975  -1.371  1.00  0.00    -0.024 C 
HETATM    7  C6  UNL     1      -3.522  -0.516  -2.212  1.00  0.00     0.047 C 
HETATM    8  C7  UNL     1      -2.623  -1.331  -3.069  1.00  0.00     0.122 C 
HETATM    9  N1  UNL     1      -1.472  -0.438  -3.461  1.00  0.00    -0.399 N 
HETATM   10  C8  UNL     1      -0.569  -0.036  -2.393  1.00  0.00     0.079 C 
HETATM   11  C9  UNL     1      -0.307   0.227  -1.087  1.00  0.00    -0.005 C 
HETATM   12  C10 UNL     1      -0.804   0.306   0.381  1.00  0.00     0.018 C 
HETATM   13  C20 UNL     1      -2.202  -0.042   0.165  1.00  0.00     0.048 C 
HETATM   14  H10 UNL     1      -1.278  -0.079  -4.403  1.00  0.00     0.158 HD
ENDROOT
BRANCH  12  15
HETATM   15  C11 UNL     1       0.009  -0.660   1.171  1.00  0.00     0.047 C 
BRANCH  15  16
HETATM   16  C12 UNL     1       1.465  -0.309   1.093  1.00  0.00    -0.055 A 
HETATM   17  C13 UNL     1       1.937   0.588   2.038  1.00  0.00     0.010 A 
HETATM   18  C14 UNL     1       3.260   1.023   2.129  1.00  0.00     0.040 A 
HETATM   19  C15 UNL     1       4.169   0.521   1.207  1.00  0.00     0.102 A 
HETATM   20  C16 UNL     1       3.705  -0.366   0.272  1.00  0.00     0.102 A 
HETATM   21  O2  UNL     1       5.497   0.912   1.242  1.00  0.00    -0.346 OA
HETATM   22  C17 UNL     1       2.402  -0.791   0.187  1.00  0.00     0.046 A 
HETATM   23  O1  UNL     1       4.630  -0.854  -0.637  1.00  0.00    -0.346 OA
HETATM   24  C18 UNL     1       5.787  -0.050  -0.917  1.00  0.00     0.202 C 
HETATM   25  C19 UNL     1       6.422   0.236   0.429  1.00  0.00     0.202 C 
ENDBRANCH  15  16
ENDBRANCH  12  15
TORSDOF 2
