REMARK  5 active torsions:
REMARK  status: ('A' for Active; 'I' for Inactive)
REMARK    1  A    between atoms: C2_2  and  C3_3 
REMARK    2  A    between atoms: C4_4  and  C5_6 
REMARK    3  A    between atoms: C6_7  and  C7_8 
REMARK    4  A    between atoms: C9_10  and  C10_11 
REMARK    5  A    between atoms: N2_22  and  C18_23 
ROOT
HETATM    1  C7  UNL     1      -1.027  -0.226  -0.104  1.00  0.00     0.139 C 
HETATM    2  C8  UNL     1       0.020  -0.609  -1.156  1.00  0.00     0.093 C 
HETATM    3  C9  UNL     1       1.234  -0.152  -0.430  1.00  0.00     0.067 C 
HETATM    4  N1  UNL     1       0.853   0.777   0.380  1.00  0.00    -0.175 NA
HETATM    5  N2  UNL     1      -0.523   1.030   0.305  1.00  0.00    -0.261 N 
ENDROOT
BRANCH   3   6
HETATM    6  C10 UNL     1       2.592  -0.660  -0.607  1.00  0.00    -0.007 A 
HETATM    7  C11 UNL     1       2.820  -1.674  -1.535  1.00  0.00     0.016 A 
HETATM    8  C12 UNL     1       4.101  -2.159  -1.707  1.00  0.00     0.040 A 
HETATM    9  C13 UNL     1       5.134  -1.638  -0.964  1.00  0.00     0.102 A 
HETATM   10  C14 UNL     1       4.915  -0.621  -0.030  1.00  0.00     0.103 A 
HETATM   11  O2  UNL     1       6.442  -2.057  -1.066  1.00  0.00    -0.346 OA
HETATM   12  C15 UNL     1       3.620  -0.132   0.143  1.00  0.00     0.053 A 
HETATM   13  O1  UNL     1       5.936  -0.096   0.715  1.00  0.00    -0.346 OA
HETATM   14  C16 UNL     1       7.289  -0.387   0.367  1.00  0.00     0.202 C 
HETATM   15  C17 UNL     1       7.344  -1.865   0.025  1.00  0.00     0.202 C 
ENDBRANCH   3   6
BRANCH   1  16
HETATM   16  C6  UNL     1      -2.377  -0.293  -0.656  1.00  0.00     0.002 C 
HETATM   17  C5  UNL     1      -3.366  -1.053  -0.204  1.00  0.00     0.022 C 
BRANCH  17  18
HETATM   18  C4  UNL     1      -4.708  -1.097  -0.780  1.00  0.00     0.033 C 
HETATM   19  C3  UNL     1      -5.657  -1.894  -0.266  1.00  0.00     0.023 C 
HETATM   20 CL1  UNL     1      -5.086  -0.109  -2.146  1.00  0.00    -0.084 Cl
BRANCH  19  21
HETATM   21  C2  UNL     1      -6.939  -1.857  -0.911  1.00  0.00    -0.009 C 
HETATM   22  C1  UNL     1      -7.937  -2.602  -0.483  1.00  0.00     0.011 C 
ENDBRANCH  19  21
ENDBRANCH  17  18
ENDBRANCH   1  16
BRANCH   5  23
HETATM   23  C18 UNL     1      -1.071   2.293   0.606  1.00  0.00     0.053 A 
HETATM   24  C19 UNL     1      -0.287   3.362   0.990  1.00  0.00     0.031 A 
HETATM   25  C20 UNL     1      -0.764   4.597   1.291  1.00  0.00     0.002 A 
HETATM   26  C21 UNL     1      -2.117   4.858   1.225  1.00  0.00     0.000 A 
HETATM   27  C22 UNL     1      -2.960   3.821   0.844  1.00  0.00     0.002 A 
HETATM   28  C23 UNL     1      -2.407   2.589   0.552  1.00  0.00     0.031 A 
ENDBRANCH   5  23
TORSDOF 5
