REMARK  1 active torsions:
REMARK  status: ('A' for Active; 'I' for Inactive)
REMARK    1  A    between atoms: N2_10  and  C7_11 
ROOT
HETATM    1 CL1  UNL     1      -1.141   5.772  -0.390  1.00  0.00    -0.084 Cl
HETATM    2  C1  UNL     1      -0.824   4.077   0.048  1.00  0.00     0.034 C 
HETATM    3  C2  UNL     1       0.470   4.036   0.254  1.00  0.00     0.023 C 
HETATM    4  C3  UNL     1       1.229   2.864   0.641  1.00  0.00     0.001 C 
HETATM    5  C4  UNL     1       1.518   1.653   0.967  1.00  0.00     0.011 C 
HETATM    6  C5  UNL     1       2.199   0.422   1.357  1.00  0.00     0.201 C 
HETATM    7  S1  UNL     1       1.094  -0.523   2.443  1.00  0.00    -0.081 SA
HETATM    8  C6  UNL     1       0.507  -1.646   1.183  1.00  0.00     0.097 C 
HETATM    9  N1  UNL     1       1.069  -1.230   0.118  1.00  0.00    -0.168 NA
HETATM   10  N2  UNL     1       2.236  -0.542   0.247  1.00  0.00    -0.251 N 
HETATM   11  C13 UNL     1      -0.429  -2.813   1.378  1.00  0.00     0.098 C 
HETATM   12  C14 UNL     1      -1.835  -2.504   1.133  1.00  0.00     0.019 C 
HETATM   13  C15 UNL     1      -2.923  -1.749   0.842  1.00  0.00     0.098 C 
HETATM   14  O1  UNL     1      -4.186  -2.368   0.792  1.00  0.00    -0.346 OA
HETATM   15  C16 UNL     1      -5.087  -2.017  -0.236  1.00  0.00     0.202 C 
HETATM   16  C17 UNL     1      -5.465  -0.555  -0.038  1.00  0.00     0.202 C 
HETATM   17  O2  UNL     1      -4.285   0.183   0.294  1.00  0.00    -0.346 OA
HETATM   18  C18 UNL     1      -3.073  -0.365   0.561  1.00  0.00     0.101 C 
HETATM   19  C19 UNL     1      -2.445   0.788   0.431  1.00  0.00     0.040 C 
HETATM   20  C20 UNL     1      -2.571   2.183   0.149  1.00  0.00     0.005 C 
HETATM   21  C21 UNL     1      -2.058   3.343   0.005  1.00  0.00     0.024 C 
ENDROOT
BRANCH  10  22
HETATM   22  C7  UNL     1       3.434  -0.658  -0.561  1.00  0.00     0.054 A 
HETATM   23  C8  UNL     1       3.536  -1.613  -1.550  1.00  0.00     0.031 A 
HETATM   24  C9  UNL     1       4.613  -1.824  -2.386  1.00  0.00     0.002 A 
HETATM   25  C10 UNL     1       5.691  -0.956  -2.170  1.00  0.00     0.000 A 
HETATM   26  C11 UNL     1       5.637   0.002  -1.207  1.00  0.00     0.002 A 
HETATM   27  C12 UNL     1       4.525   0.155  -0.406  1.00  0.00     0.031 A 
ENDBRANCH  10  22
TORSDOF 1
