REMARK  4 active torsions:
REMARK  status: ('A' for Active; 'I' for Inactive)
REMARK    1  A    between atoms: N1_4  and  N2_5 
REMARK    2  A    between atoms: N2_5  and  C4_6 
REMARK    3  A    between atoms: N2_5  and  C11_14 
REMARK    4  A    between atoms: C4_6  and  C5_7 
ROOT
HETATM    1  N2  UNL     1      -1.403  -0.346  -0.208  1.00  0.00    -0.266 N 
ENDROOT
BRANCH   1   2
HETATM    2  N1  UNL     1      -0.522   0.320   0.647  1.00  0.00    -0.176 NA
HETATM    3  C3  UNL     1       0.739   0.375   0.568  1.00  0.00     0.065 A 
HETATM    4  C2  UNL     1       1.644  -0.239  -0.437  1.00  0.00     0.095 A 
HETATM    5  C17 UNL     1       1.322   1.182   1.661  1.00  0.00     0.032 A 
HETATM    6  C1  UNL     1       1.526  -1.738  -0.465  1.00  0.00     0.024 C 
HETATM    7  C20 UNL     1       3.066   0.088  -0.145  1.00  0.00     0.089 A 
HETATM    8  C19 UNL     1       3.577   0.818   0.848  1.00  0.00     0.098 A 
HETATM    9  O1  UNL     1       3.927  -0.481  -1.079  1.00  0.00    -0.350 OA
HETATM   10  C18 UNL     1       2.620   1.385   1.791  1.00  0.00     0.041 A 
HETATM   11  O2  UNL     1       4.938   0.998   0.935  1.00  0.00    -0.346 OA
HETATM   12  C22 UNL     1       5.697   0.900  -0.276  1.00  0.00     0.202 C 
HETATM   13  C21 UNL     1       5.340  -0.434  -0.898  1.00  0.00     0.202 C 
ENDBRANCH   1   2
BRANCH   1  14
HETATM   14  C4  UNL     1      -1.780   0.422  -1.379  1.00  0.00     0.190 C 
BRANCH  14  15
HETATM   15  C5  UNL     1      -2.440   1.658  -0.824  1.00  0.00    -0.037 A 
HETATM   16  C6  UNL     1      -1.708   2.799  -0.534  1.00  0.00     0.009 A 
HETATM   17  C7  UNL     1      -2.298   3.939  -0.025  1.00  0.00     0.002 A 
HETATM   18  C8  UNL     1      -3.667   3.920   0.195  1.00  0.00     0.024 A 
HETATM   19  C9  UNL     1      -4.412   2.785  -0.090  1.00  0.00     0.034 A 
HETATM   20 CL1  UNL     1      -6.137   2.907   0.241  1.00  0.00    -0.084 Cl
HETATM   21  C10 UNL     1      -3.802   1.658  -0.597  1.00  0.00     0.032 A 
ENDBRANCH  14  15
ENDBRANCH   1  14
BRANCH   1  22
HETATM   22  C11 UNL     1      -1.844  -1.669   0.122  1.00  0.00     0.053 A 
HETATM   23  C12 UNL     1      -1.407  -2.274   1.262  1.00  0.00     0.031 A 
HETATM   24  C13 UNL     1      -1.821  -3.547   1.596  1.00  0.00     0.002 A 
HETATM   25  C14 UNL     1      -2.690  -4.265   0.800  1.00  0.00     0.000 A 
HETATM   26  C15 UNL     1      -3.127  -3.645  -0.352  1.00  0.00     0.002 A 
HETATM   27  C16 UNL     1      -2.699  -2.368  -0.667  1.00  0.00     0.031 A 
ENDBRANCH   1  22
TORSDOF 4
