REMARK  7 active torsions:
REMARK  status: ('A' for Active; 'I' for Inactive)
REMARK    1  A    between atoms: O1_1  and  C1_2 
REMARK    2  A    between atoms: C1_2  and  C2_3 
REMARK    3  A    between atoms: C2_3  and  O2_4 
REMARK    4  A    between atoms: O2_4  and  C3_5 
REMARK    5  A    between atoms: C7_9  and  C8_10 
REMARK    6  A    between atoms: C8_10  and  C9_11 
REMARK    7  A    between atoms: N2_13  and  C10_14 
ROOT
HETATM    1  C9  UNL     1      -0.068   1.624   1.165  1.00  0.00     0.059 C 
HETATM    2  N1  UNL     1      -0.300   0.469   0.621  1.00  0.00    -0.176 NA
HETATM    3  N2  UNL     1      -1.583   0.028   0.213  1.00  0.00    -0.266 N 
HETATM    4  C16 UNL     1      -2.342   0.820  -0.597  1.00  0.00     0.178 C 
HETATM    5  C17 UNL     1      -3.683   0.861  -1.032  1.00  0.00    -0.005 C 
HETATM    6  C18 UNL     1      -4.389   1.971  -0.645  1.00  0.00    -0.001 C 
HETATM    7  C19 UNL     1      -3.643   2.936   0.164  1.00  0.00     0.023 C 
HETATM    8  C20 UNL     1      -3.066   3.888   0.905  1.00  0.00     0.034 C 
HETATM    9 CL1  UNL     1      -3.820   5.419   1.475  1.00  0.00    -0.084 Cl
HETATM   10  C21 UNL     1      -1.704   3.744   1.430  1.00  0.00     0.026 C 
HETATM   11  C22 UNL     1      -0.612   2.958   1.538  1.00  0.00     0.031 C 
ENDROOT
BRANCH   1  12
HETATM   12  C8  UNL     1       1.404   1.598   1.413  1.00  0.00     0.099 C 
BRANCH  12  13
HETATM   13  C7  UNL     1       2.093   0.377   1.066  1.00  0.00    -0.050 A 
HETATM   14  C6  UNL     1       2.414  -0.702   1.894  1.00  0.00     0.007 A 
HETATM   15  C5  UNL     1       3.079  -1.828   1.456  1.00  0.00     0.003 A 
HETATM   16  C4  UNL     1       3.445  -1.880   0.110  1.00  0.00     0.037 A 
HETATM   17  C3  UNL     1       3.146  -0.828  -0.754  1.00  0.00     0.069 A 
HETATM   18  C23 UNL     1       2.480   0.262  -0.240  1.00  0.00     0.044 A 
BRANCH  17  19
HETATM   19  O2  UNL     1       3.595  -1.093  -2.018  1.00  0.00    -0.349 OA
BRANCH  19  20
HETATM   20  C2  UNL     1       3.473  -0.268  -3.142  1.00  0.00     0.201 C 
BRANCH  20  21
HETATM   21  C1  UNL     1       4.104  -0.918  -4.379  1.00  0.00     0.190 C 
BRANCH  21  22
HETATM   22  O1  UNL     1       5.461  -1.121  -4.071  1.00  0.00    -0.399 OA
HETATM   23  H1  UNL     1       5.468  -1.833  -3.360  1.00  0.00     0.209 HD
ENDBRANCH  21  22
ENDBRANCH  20  21
ENDBRANCH  19  20
ENDBRANCH  17  19
ENDBRANCH  12  13
ENDBRANCH   1  12
BRANCH   3  24
HETATM   24  C10 UNL     1      -1.877  -1.242   0.771  1.00  0.00     0.053 A 
HETATM   25  C11 UNL     1      -2.909  -2.080   0.343  1.00  0.00     0.031 A 
HETATM   26  C12 UNL     1      -3.216  -3.296   0.873  1.00  0.00     0.002 A 
HETATM   27  C13 UNL     1      -2.484  -3.787   1.915  1.00  0.00     0.000 A 
HETATM   28  C14 UNL     1      -1.458  -3.043   2.401  1.00  0.00     0.002 A 
HETATM   29  C15 UNL     1      -1.187  -1.829   1.837  1.00  0.00     0.031 A 
ENDBRANCH   3  24
TORSDOF 7
