REMARK  2 active torsions:
REMARK  status: ('A' for Active; 'I' for Inactive)
REMARK    1  A    between atoms: N2_15  and  C12_16 
REMARK    2  A    between atoms: C12_16  and  C13_17 
ROOT
HETATM    1  C1  UNL     1      -3.574  -2.759   0.595  1.00  0.00     0.048 C 
HETATM    2  C2  UNL     1      -2.518  -1.705   0.938  1.00  0.00    -0.061 C 
HETATM    3  C3  UNL     1      -2.650  -0.548   0.265  1.00  0.00     0.023 C 
HETATM    4  C4  UNL     1      -2.021   0.788   0.147  1.00  0.00     0.027 A 
HETATM    5  C5  UNL     1      -2.934   1.680  -0.275  1.00  0.00     0.091 A 
HETATM    6  O1  UNL     1      -4.252   1.348  -0.551  1.00  0.00    -0.349 OA
HETATM    7  C6  UNL     1      -5.247   2.361  -0.773  1.00  0.00     0.201 C 
HETATM    8  C7  UNL     1      -4.744   3.371  -1.785  1.00  0.00     0.195 C 
HETATM    9  O2  UNL     1      -3.332   3.337  -1.844  1.00  0.00    -0.373 OA
HETATM   10  C8  UNL     1      -2.905   3.125  -0.559  1.00  0.00     0.202 A 
HETATM   11  C9  UNL     1      -1.573   3.712  -0.277  1.00  0.00     0.014 A 
HETATM   12  C10 UNL     1      -0.666   2.825   0.154  1.00  0.00     0.033 A 
HETATM   13  C11 UNL     1      -0.749   1.393   0.398  1.00  0.00     0.089 A 
HETATM   14  N1  UNL     1       0.463   1.237   0.760  1.00  0.00    -0.172 NA
HETATM   15  N2  UNL     1       0.977   0.024   1.102  1.00  0.00    -0.277 N 
HETATM   16  C20 UNL     1       1.506  -0.908   2.026  1.00  0.00     0.112 C 
HETATM   17  C21 UNL     1       0.906  -1.965   2.505  1.00  0.00     0.019 C 
HETATM   18  C22 UNL     1      -0.392  -2.561   2.338  1.00  0.00     0.002 C 
HETATM   19  C23 UNL     1      -1.562  -2.465   1.790  1.00  0.00     0.007 C 
ENDROOT
BRANCH  15  20
HETATM   20  C12 UNL     1       1.088  -0.810  -0.081  1.00  0.00     0.184 C 
BRANCH  20  21
HETATM   21  C13 UNL     1       2.557  -1.018  -0.388  1.00  0.00    -0.055 C 
HETATM   22  C14 UNL     1       2.897  -2.294  -0.366  1.00  0.00     0.006 C 
HETATM   23  C15 UNL     1       4.203  -2.896  -0.607  1.00  0.00     0.017 C 
HETATM   24  C16 UNL     1       5.337  -2.218  -0.744  1.00  0.00     0.083 C 
HETATM   25  N3  UNL     1       5.563  -0.813  -0.694  1.00  0.00    -0.398 N 
HETATM   26  C17 UNL     1       4.721   0.202  -0.111  1.00  0.00     0.127 C 
HETATM   27  H17 UNL     1       6.470  -0.498  -1.149  1.00  0.00     0.158 HD
HETATM   28  C18 UNL     1       3.318   0.198  -0.646  1.00  0.00     0.030 C 
HETATM   29  C19 UNL     1       3.251   0.584  -2.102  1.00  0.00     0.016 C 
ENDBRANCH  20  21
ENDBRANCH  15  20
TORSDOF 2
