REMARK  4 active torsions:
REMARK  status: ('A' for Active; 'I' for Inactive)
REMARK    1  A    between atoms: C2_2  and  N1_3 
REMARK    2  A    between atoms: C2_2  and  P1_21 
REMARK    3  A    between atoms: N1_3  and  C3_4 
REMARK    4  A    between atoms: C10_14  and  O1_15 
ROOT
HETATM    1  C3  UNL     1      -2.079   0.487   0.210  1.00  0.00     0.160 A 
HETATM    2  N2  UNL     1      -2.980   1.502   0.414  1.00  0.00    -0.222 NA
HETATM    3  C4  UNL     1      -2.521   2.790   0.303  1.00  0.00     0.238 A 
HETATM    4  N3  UNL     1      -1.246   3.036   0.009  1.00  0.00    -0.215 NA
HETATM    5  C5  UNL     1      -0.349   2.041  -0.195  1.00  0.00     0.202 A 
HETATM    6  C6  UNL     1      -0.770   0.750  -0.093  1.00  0.00     0.129 A 
HETATM    7  N4  UNL     1      -0.045  -0.437  -0.275  1.00  0.00    -0.379 N 
HETATM    8  C7  UNL     1       1.227  -0.625  -0.941  1.00  0.00     0.161 C 
HETATM    9  C8  UNL     1       2.227   0.357  -0.493  1.00  0.00    -0.004 A 
HETATM   10  C9  UNL     1       3.429  -0.288  -0.259  1.00  0.00     0.048 A 
HETATM   11  C10 UNL     1       4.557   0.386   0.185  1.00  0.00     0.069 A 
HETATM   12  C12 UNL     1       4.431   1.747   0.387  1.00  0.00     0.039 A 
HETATM   13  C13 UNL     1       3.242   2.404   0.156  1.00  0.00     0.040 A 
HETATM   14  C14 UNL     1       2.108   1.739  -0.288  1.00  0.00     0.086 A 
HETATM   15  O2  UNL     1       0.958   2.484  -0.494  1.00  0.00    -0.289 OA
HETATM   16  H5  UNL     1      -0.546  -1.272   0.154  1.00  0.00     0.160 HD
ENDROOT
BRANCH   1  17
HETATM   17  N1  UNL     1      -2.668  -0.753   0.394  1.00  0.00    -0.339 N 
HETATM   18  H3  UNL     1      -2.243  -1.152   1.271  1.00  0.00     0.167 HD
BRANCH  17  19
HETATM   19  C2  UNL     1      -3.542  -1.786   0.026  1.00  0.00     0.025 C 
HETATM   20  C1  UNL     1      -3.155  -2.977  -0.379  1.00  0.00     0.043 C 
BRANCH  19  21
HETATM   21  P1  UNL     1      -5.358  -1.474   0.124  1.00  0.00    -0.081 P 
HETATM   22  C15 UNL     1      -5.816   0.164  -0.587  1.00  0.00     0.047 C 
HETATM   23  H14 UNL     1      -5.773  -1.536   1.528  1.00  0.00     0.063 HD
ENDBRANCH  19  21
ENDBRANCH  17  19
ENDBRANCH   1  17
BRANCH  11  24
HETATM   24  O1  UNL     1       5.770  -0.258   0.424  1.00  0.00    -0.356 OA
HETATM   25  C11 UNL     1       5.849  -1.654   0.196  1.00  0.00     0.210 C 
ENDBRANCH  11  24
TORSDOF 4
