REMARK  6 active torsions:
REMARK  status: ('A' for Active; 'I' for Inactive)
REMARK    1  A    between atoms: N1_2  and  C3_4 
REMARK    2  A    between atoms: C6_7  and  C7_8 
REMARK    3  A    between atoms: C9_10  and  C10_11 
REMARK    4  A    between atoms: C13_14  and  O1_15 
REMARK    5  A    between atoms: O1_15  and  C14_16 
REMARK    6  A    between atoms: N3_22  and  C18_23 
ROOT
HETATM    1  C7  UNL     1      -0.706  -1.816  -0.774  1.00  0.00     0.149 C 
HETATM    2  C8  UNL     1       0.593  -1.350  -1.394  1.00  0.00     0.094 C 
HETATM    3  C9  UNL     1       1.375  -0.942  -0.219  1.00  0.00     0.067 C 
HETATM    4  N2  UNL     1       0.851  -1.430   0.855  1.00  0.00    -0.175 NA
HETATM    5  N3  UNL     1      -0.279  -2.180   0.563  1.00  0.00    -0.260 N 
ENDROOT
BRANCH   3   6
HETATM    6  C10 UNL     1       2.573  -0.114  -0.200  1.00  0.00    -0.010 A 
HETATM    7  C11 UNL     1       3.209   0.190   0.985  1.00  0.00     0.016 A 
HETATM    8  C12 UNL     1       4.358   0.990   0.965  1.00  0.00     0.038 A 
HETATM    9  C13 UNL     1       4.854   1.476  -0.251  1.00  0.00     0.072 A 
HETATM   10  C16 UNL     1       4.204   1.161  -1.426  1.00  0.00     0.038 A 
HETATM   11  C17 UNL     1       3.074   0.371  -1.382  1.00  0.00     0.016 A 
BRANCH   9  12
HETATM   12  O1  UNL     1       5.991   2.238  -0.022  1.00  0.00    -0.318 OA
BRANCH  12  13
HETATM   13  C14 UNL     1       6.743   2.878  -1.030  1.00  0.00     0.290 A 
HETATM   14  C15 UNL     1       7.611   4.030  -0.707  1.00  0.00     0.232 A 
HETATM   15  O2  UNL     1       8.166   2.728  -0.948  1.00  0.00    -0.354 OA
ENDBRANCH  12  13
ENDBRANCH   9  12
ENDBRANCH   3   6
BRANCH   1  16
HETATM   16  C6  UNL     1      -1.682  -0.709  -0.694  1.00  0.00    -0.033 A 
HETATM   17  C5  UNL     1      -1.444   0.367   0.132  1.00  0.00     0.011 A 
HETATM   18  C4  UNL     1      -2.429   1.361   0.135  1.00  0.00     0.030 A 
HETATM   19  C3  UNL     1      -3.587   1.290  -0.641  1.00  0.00     0.029 A 
HETATM   20  C25 UNL     1      -3.775   0.199  -1.445  1.00  0.00     0.030 A 
HETATM   21  C24 UNL     1      -2.828  -0.804  -1.477  1.00  0.00     0.011 A 
BRANCH  19  22
HETATM   22  N1  UNL     1      -4.550   2.339  -0.589  1.00  0.00    -0.390 N 
HETATM   23  C1  UNL     1      -5.757   2.229  -1.420  1.00  0.00     0.149 C 
HETATM   24  C2  UNL     1      -4.345   3.482   0.256  1.00  0.00     0.149 C 
ENDBRANCH  19  22
ENDBRANCH   1  16
BRANCH   5  25
HETATM   25  C18 UNL     1      -0.930  -3.150   1.414  1.00  0.00     0.053 A 
HETATM   26  C19 UNL     1      -2.054  -3.815   0.968  1.00  0.00     0.031 A 
HETATM   27  C20 UNL     1      -2.641  -4.727   1.807  1.00  0.00     0.002 A 
HETATM   28  C21 UNL     1      -2.112  -4.964   3.062  1.00  0.00     0.000 A 
HETATM   29  C22 UNL     1      -0.986  -4.296   3.510  1.00  0.00     0.002 A 
HETATM   30  C23 UNL     1      -0.390  -3.377   2.669  1.00  0.00     0.031 A 
ENDBRANCH   5  25
TORSDOF 6
