REMARK  2 active torsions:
REMARK  status: ('A' for Active; 'I' for Inactive)
REMARK    1  A    between atoms: N2_3  and  C2_4 
REMARK    2  A    between atoms: C7_9  and  C8_10 
ROOT
HETATM    1  C2  UNL     1      -2.449  -0.281  -0.446  1.00  0.00     0.056 A 
HETATM    2  C3  UNL     1      -3.503  -1.072  -0.846  1.00  0.00     0.031 A 
HETATM    3  C4  UNL     1      -3.485  -2.444  -0.952  1.00  0.00     0.002 A 
HETATM    4  C5  UNL     1      -2.329  -3.107  -0.636  1.00  0.00     0.001 A 
HETATM    5  C6  UNL     1      -1.226  -2.389  -0.224  1.00  0.00     0.014 A 
HETATM    6  C7  UNL     1      -1.316  -1.000  -0.140  1.00  0.00     0.002 A 
ENDROOT
BRANCH   6   7
HETATM    7  C8  UNL     1      -0.090  -0.385   0.346  1.00  0.00    -0.021 A 
HETATM    8  C9  UNL     1       0.106   0.457   1.418  1.00  0.00     0.015 A 
HETATM    9  C10 UNL     1       1.362   0.953   1.698  1.00  0.00     0.040 A 
HETATM   10  C11 UNL     1       2.466   0.648   0.950  1.00  0.00     0.102 A 
HETATM   11  C12 UNL     1       2.314  -0.193  -0.132  1.00  0.00     0.102 A 
HETATM   12  O2  UNL     1       3.741   1.143   1.225  1.00  0.00    -0.346 OA
HETATM   13  C13 UNL     1       1.040  -0.696  -0.418  1.00  0.00     0.052 A 
HETATM   14  O1  UNL     1       3.405  -0.533  -0.922  1.00  0.00    -0.346 OA
HETATM   15  C14 UNL     1       4.537   0.336  -0.859  1.00  0.00     0.202 C 
HETATM   16  C15 UNL     1       4.893   0.601   0.582  1.00  0.00     0.202 C 
ENDBRANCH   6   7
BRANCH   1  17
HETATM   17  N2  UNL     1      -2.476   1.138  -0.375  1.00  0.00    -0.317 N 
HETATM   18  N1  UNL     1      -1.568   2.172  -0.141  1.00  0.00    -0.251 NA
HETATM   19  C1  UNL     1      -2.542   2.998  -0.308  1.00  0.00     0.292 A 
HETATM   20  C16 UNL     1      -3.617   2.011  -0.575  1.00  0.00     0.167 A 
ENDBRANCH   1  17
TORSDOF 2
