REMARK  9 active torsions:
REMARK  status: ('A' for Active; 'I' for Inactive)
REMARK    1  A    between atoms: N1_2  and  C3_4 
REMARK    2  A    between atoms: C6_7  and  C7_8 
REMARK    3  A    between atoms: C9_10  and  C10_11 
REMARK    4  A    between atoms: C13_15  and  O1_16 
REMARK    5  A    between atoms: O1_16  and  C14_17 
REMARK    6  A    between atoms: C14_17  and  C15_18 
REMARK    7  A    between atoms: C15_18  and  C16_19 
REMARK    8  A    between atoms: C16_19  and  O2_20 
REMARK    9  A    between atoms: N3_23  and  C18_24 
ROOT
HETATM    1  C7  UNL     1      -1.413  -1.241  -1.566  1.00  0.00     0.149 C 
HETATM    2  C8  UNL     1       0.097  -0.962  -1.681  1.00  0.00     0.092 C 
HETATM    3  C9  UNL     1       0.568  -1.223  -0.293  1.00  0.00     0.052 C 
HETATM    4  N2  UNL     1      -0.293  -2.015   0.255  1.00  0.00    -0.176 NA
HETATM    5  N3  UNL     1      -1.337  -2.344  -0.615  1.00  0.00    -0.260 N 
ENDROOT
BRANCH   3   6
HETATM    6  C10 UNL     1       1.739  -0.768   0.466  1.00  0.00    -0.078 C 
HETATM    7  B1  UNL     1       2.528  -1.972   1.621  1.00  0.00     0.194 B 
HETATM    8  C11 UNL     1       4.535  -1.856   0.180  1.00  0.00    -0.032 C 
HETATM    9  C12 UNL     1       4.414  -0.499   0.168  1.00  0.00     0.004 C 
HETATM   10  C13 UNL     1       3.636   0.611   0.233  1.00  0.00     0.064 C 
HETATM   11  C17 UNL     1       2.273   0.478   0.383  1.00  0.00     0.033 C 
BRANCH  10  12
HETATM   12  O1  UNL     1       4.168   1.853   0.155  1.00  0.00    -0.351 OA
BRANCH  12  13
HETATM   13  C14 UNL     1       5.426   2.367   0.026  1.00  0.00     0.178 C 
BRANCH  13  14
HETATM   14  C15 UNL     1       6.410   2.085   1.121  1.00  0.00     0.053 C 
BRANCH  14  15
HETATM   15  C16 UNL     1       7.732   2.744   0.780  1.00  0.00     0.166 C 
BRANCH  15  16
HETATM   16  O2  UNL     1       7.541   4.100   0.660  1.00  0.00    -0.401 OA
HETATM   17  H20 UNL     1       7.644   4.409  -0.295  1.00  0.00     0.209 HD
ENDBRANCH  15  16
ENDBRANCH  14  15
ENDBRANCH  13  14
ENDBRANCH  12  13
ENDBRANCH  10  12
ENDBRANCH   3   6
BRANCH   1  18
HETATM   18  C6  UNL     1      -2.076  -0.063  -1.005  1.00  0.00    -0.033 A 
HETATM   19  C5  UNL     1      -3.191  -0.414  -0.235  1.00  0.00     0.011 A 
HETATM   20  C4  UNL     1      -3.983   0.523   0.394  1.00  0.00     0.030 A 
HETATM   21  C3  UNL     1      -3.711   1.865   0.292  1.00  0.00     0.029 A 
HETATM   22  C25 UNL     1      -2.623   2.235  -0.457  1.00  0.00     0.030 A 
HETATM   23  C24 UNL     1      -1.843   1.291  -1.078  1.00  0.00     0.011 A 
BRANCH  21  24
HETATM   24  N1  UNL     1      -4.507   2.850   0.927  1.00  0.00    -0.390 N 
HETATM   25  C1  UNL     1      -5.659   2.480   1.724  1.00  0.00     0.149 C 
HETATM   26  C2  UNL     1      -4.181   4.250   0.791  1.00  0.00     0.149 C 
ENDBRANCH  21  24
ENDBRANCH   1  18
BRANCH   5  27
HETATM   27  C18 UNL     1      -2.111  -3.531  -0.522  1.00  0.00     0.053 A 
HETATM   28  C19 UNL     1      -1.883  -4.398   0.524  1.00  0.00     0.031 A 
HETATM   29  C20 UNL     1      -2.587  -5.574   0.684  1.00  0.00     0.002 A 
HETATM   30  C21 UNL     1      -3.566  -5.930  -0.222  1.00  0.00     0.000 A 
HETATM   31  C22 UNL     1      -3.813  -5.082  -1.276  1.00  0.00     0.002 A 
HETATM   32  C23 UNL     1      -3.084  -3.918  -1.394  1.00  0.00     0.031 A 
ENDBRANCH   5  27
TORSDOF 9
