REMARK  1 active torsions:
REMARK  status: ('A' for Active; 'I' for Inactive)
REMARK    1  A    between atoms: C5_5  and  N1_6 
ROOT
HETATM    1  C1  UNL     1      -2.178  -3.933  -2.429  1.00  0.00     0.019 C 
HETATM    2  C2  UNL     1      -1.540  -2.967  -1.507  1.00  0.00    -0.004 C 
HETATM    3  C3  UNL     1      -2.465  -1.995  -1.266  1.00  0.00     0.029 C 
HETATM    4  C4  UNL     1      -3.089  -0.879  -0.803  1.00  0.00     0.004 C 
HETATM    5  C5  UNL     1      -3.195   0.230  -0.126  1.00  0.00     0.007 C 
HETATM    6  C8  UNL     1      -1.993   0.606   0.576  1.00  0.00     0.093 C 
HETATM    7  C9  UNL     1      -0.648   0.517  -0.131  1.00  0.00    -0.039 C 
HETATM    8  C10 UNL     1       0.395   1.359  -0.485  1.00  0.00     0.053 C 
HETATM    9  C11 UNL     1       0.719   2.838  -0.335  1.00  0.00     0.007 C 
HETATM   10  C12 UNL     1       1.920   3.226  -0.833  1.00  0.00     0.131 C 
HETATM   11  O1  UNL     1       3.026   2.694  -1.468  1.00  0.00    -0.361 OA
HETATM   12  C13 UNL     1       4.377   3.015  -1.087  1.00  0.00     0.200 C 
HETATM   13  C14 UNL     1       4.798   2.003   0.000  1.00  0.00     0.194 C 
HETATM   14  O2  UNL     1       3.912   2.179   1.084  1.00  0.00    -0.385 OA
HETATM   15  C15 UNL     1       4.064   1.086   1.971  1.00  0.00     0.195 C 
HETATM   16  C16 UNL     1       3.045   1.240   3.014  1.00  0.00    -0.001 C 
HETATM   17  C17 UNL     1       2.061   0.334   3.187  1.00  0.00    -0.002 C 
HETATM   18  C18 UNL     1       1.995  -0.855   2.311  1.00  0.00    -0.003 C 
HETATM   19  C19 UNL     1       1.794  -1.938   1.625  1.00  0.00    -0.006 C 
HETATM   20  C20 UNL     1       0.680  -2.983   1.662  1.00  0.00     0.172 C 
HETATM   21  N2  UNL     1       0.175  -2.768   0.242  1.00  0.00    -0.296 N 
HETATM   22  N3  UNL     1      -0.102  -1.379   0.379  1.00  0.00    -0.181 NA
HETATM   23  C21 UNL     1      -0.049  -0.727  -0.693  1.00  0.00     0.060 C 
HETATM   24  C22 UNL     1       0.524  -1.650  -1.633  1.00  0.00     0.089 C 
HETATM   25  C23 UNL     1      -0.151  -3.009  -1.119  1.00  0.00     0.120 C 
ENDROOT
BRANCH   5  26
HETATM   26  N1  UNL     1      -4.450   0.880  -0.219  1.00  0.00    -0.393 N 
HETATM   27  C6  UNL     1      -5.262   0.918  -1.415  1.00  0.00     0.148 C 
HETATM   28  C7  UNL     1      -4.706   1.462   1.098  1.00  0.00     0.148 C 
ENDBRANCH   5  26
TORSDOF 1
