REMARK  1 active torsions:
REMARK  status: ('A' for Active; 'I' for Inactive)
REMARK    1  A    between atoms: C11_14  and  C12_15 
ROOT
HETATM    1  C1  UNL     1       3.364   3.259  -0.115  1.00  0.00     0.052 C 
HETATM    2  C2  UNL     1       2.716   2.106  -0.111  1.00  0.00     0.078 C 
HETATM    3  C3  UNL     1       3.470   0.850  -0.235  1.00  0.00     0.174 C 
HETATM    4  N1  UNL     1       2.797  -0.244  -0.226  1.00  0.00    -0.182 NA
HETATM    5  N2  UNL     1       3.303  -1.515  -0.329  1.00  0.00    -0.279 N 
HETATM    6  C4  UNL     1       4.283  -2.573  -0.371  1.00  0.00     0.179 C 
HETATM    7  C5  UNL     1       1.997  -2.061  -0.483  1.00  0.00     0.031 C 
HETATM    8  C6  UNL     1       1.133  -2.041  -1.526  1.00  0.00     0.029 C 
HETATM    9  C7  UNL     1      -0.256  -1.509  -1.390  1.00  0.00     0.027 C 
HETATM   10  C8  UNL     1      -0.720  -1.033  -0.196  1.00  0.00     0.015 C 
HETATM   11  N3  UNL     1      -0.608  -1.882   0.972  1.00  0.00    -0.392 N 
HETATM   12  C9  UNL     1       0.335  -2.961   1.189  1.00  0.00     0.125 C 
HETATM   13  C10 UNL     1       1.742  -2.689   0.804  1.00  0.00     0.078 C 
HETATM   14  C11 UNL     1      -1.300   0.332  -0.105  1.00  0.00     0.092 C 
HETATM   15  C18 UNL     1      -0.920   0.943   1.184  1.00  0.00     0.183 C 
HETATM   16  O1  UNL     1      -1.324   2.247   1.380  1.00  0.00    -0.388 OA
HETATM   17  C19 UNL     1      -0.845   3.143   0.464  1.00  0.00     0.194 C 
HETATM   18  C20 UNL     1       0.636   3.272   0.360  1.00  0.00     0.201 C 
HETATM   19  O2  UNL     1       1.343   2.134   0.011  1.00  0.00    -0.348 OA
HETATM   20  H9  UNL     1      -1.334  -1.582   1.651  1.00  0.00     0.159 HD
ENDROOT
BRANCH  14  21
HETATM   21  C12 UNL     1      -2.740   0.235  -0.392  1.00  0.00    -0.046 A 
HETATM   22  C13 UNL     1      -3.210   0.658  -1.644  1.00  0.00     0.008 A 
HETATM   23  C14 UNL     1      -4.559   0.612  -2.016  1.00  0.00     0.001 A 
HETATM   24  C15 UNL     1      -5.480   0.132  -1.124  1.00  0.00     0.000 A 
HETATM   25  C16 UNL     1      -5.053  -0.291   0.113  1.00  0.00     0.001 A 
HETATM   26  C17 UNL     1      -3.722  -0.222   0.421  1.00  0.00     0.008 A 
ENDBRANCH  14  21
TORSDOF 1
