REMARK  3 active torsions:
REMARK  status: ('A' for Active; 'I' for Inactive)
REMARK    1  A    between atoms: O1_2  and  C2_3 
REMARK    2  A    between atoms: C9_10  and  C10_11 
REMARK    3  A    between atoms: C11_12  and  C12_13 
ROOT
HETATM    1  C2  UNL     1      -1.992  -1.832   0.310  1.00  0.00     0.067 C 
HETATM    2  C3  UNL     1      -2.528  -3.112   0.415  1.00  0.00     0.106 C 
HETATM    3  C4  UNL     1      -1.645  -4.245  -0.155  1.00  0.00     0.035 C 
HETATM    4  C5  UNL     1      -0.268  -3.848   0.254  1.00  0.00    -0.026 C 
HETATM    5  C6  UNL     1       1.057  -3.718   0.726  1.00  0.00    -0.008 C 
HETATM    6  C7  UNL     1       1.582  -2.317   0.549  1.00  0.00    -0.019 C 
HETATM    7  C8  UNL     1       1.167  -1.122   0.130  1.00  0.00     0.063 C 
HETATM    8  C9  UNL     1       0.023  -0.391  -0.394  1.00  0.00     0.203 C 
HETATM    9  N1  UNL     1       0.006  -0.184  -1.769  1.00  0.00     0.102 N 
HETATM   10  C16 UNL     1       0.290  -1.242  -2.694  1.00  0.00     0.298 C 
HETATM   11  C17 UNL     1      -0.006  -0.749  -4.101  1.00  0.00     0.003 C 
HETATM   12  C18 UNL     1      -0.684   0.344  -4.237  1.00  0.00    -0.000 C 
HETATM   13  C19 UNL     1      -1.395   1.457  -3.695  1.00  0.00     0.026 C 
HETATM   14  C20 UNL     1      -1.709   1.844  -2.477  1.00  0.00     0.160 C 
HETATM   15  O4  UNL     1      -1.525   1.387  -1.140  1.00  0.00    -0.276 OA
HETATM   16  N2  UNL     1      -2.214   0.249  -0.767  1.00  0.00    -0.191 NA
HETATM   17  C21 UNL     1      -1.355  -0.491   0.164  1.00  0.00     0.156 C 
HETATM   18  H18 UNL     1       0.734   0.604  -1.974  1.00  0.00     0.317 HD
HETATM   19  H25 UNL     1      -3.069   0.600  -0.265  1.00  0.00     0.154 HD
ENDROOT
BRANCH   8  20
HETATM   20  C10 UNL     1       0.424   1.118   0.076  1.00  0.00     0.020 C 
HETATM   21  C11 UNL     1       1.325   1.335   1.028  1.00  0.00     0.037 C 
BRANCH  21  22
HETATM   22  C12 UNL     1       1.931   2.524   1.702  1.00  0.00     0.090 C 
HETATM   23  C13 UNL     1       1.593   3.741   1.398  1.00  0.00     0.171 C 
HETATM   24  O2  UNL     1       2.190   4.797   2.056  1.00  0.00    -0.358 OA
HETATM   25  C14 UNL     1       3.283   4.666   2.917  1.00  0.00     0.201 C 
HETATM   26  C15 UNL     1       3.871   3.299   2.885  1.00  0.00     0.202 C 
HETATM   27  O3  UNL     1       2.878   2.312   2.675  1.00  0.00    -0.347 OA
ENDBRANCH  21  22
ENDBRANCH   8  20
BRANCH   1  28
HETATM   28  O1  UNL     1      -3.258  -1.499   0.961  1.00  0.00    -0.388 OA
HETATM   29  C1  UNL     1      -3.105  -1.214   2.335  1.00  0.00     0.202 C 
ENDBRANCH   1  28
TORSDOF 3
