REMARK  5 active torsions:
REMARK  status: ('A' for Active; 'I' for Inactive)
REMARK    1  A    between atoms: C3_4  and  C4_5 
REMARK    2  A    between atoms: C3_4  and  C13_17 
REMARK    3  A    between atoms: C4_5  and  O1_6 
REMARK    4  A    between atoms: O1_6  and  C5_7 
REMARK    5  A    between atoms: C18_22  and  N1_23 
ROOT
HETATM    1  B1  UNL     1      -0.478  -1.722   6.591  1.00  0.00     0.195 B 
HETATM    2  C1  UNL     1       0.119  -1.179   4.889  1.00  0.00    -0.235 C 
HETATM    3  C2  UNL     1       0.547  -0.773   3.606  1.00  0.00     0.043 C 
HETATM    4  C3  UNL     1       0.253  -1.105   2.421  1.00  0.00    -0.016 C 
ENDROOT
BRANCH   4   5
HETATM    5  C4  UNL     1       0.939  -0.388   1.274  1.00  0.00     0.215 C 
BRANCH   5   6
HETATM    6  O1  UNL     1      -0.005   0.245   0.491  1.00  0.00    -0.347 OA
BRANCH   6   7
HETATM    7  C5  UNL     1       0.299   0.956  -0.621  1.00  0.00     0.071 A 
HETATM    8  C6  UNL     1      -0.918   1.469  -1.105  1.00  0.00     0.039 A 
HETATM    9  C7  UNL     1      -1.078   2.270  -2.248  1.00  0.00     0.042 A 
HETATM   10  C8  UNL     1       0.063   2.599  -2.991  1.00  0.00     0.102 A 
HETATM   11  C9  UNL     1       1.272   2.084  -2.504  1.00  0.00     0.104 A 
HETATM   12  O3  UNL     1       0.280   3.329  -4.126  1.00  0.00    -0.346 OA
HETATM   13  C10 UNL     1       1.378   1.318  -1.395  1.00  0.00     0.076 A 
HETATM   14  O2  UNL     1       2.420   2.380  -3.211  1.00  0.00    -0.346 OA
HETATM   15  C11 UNL     1       2.632   3.552  -3.934  1.00  0.00     0.202 C 
HETATM   16  C12 UNL     1       1.337   4.254  -4.208  1.00  0.00     0.202 C 
ENDBRANCH   6   7
ENDBRANCH   5   6
ENDBRANCH   4   5
BRANCH   4  17
HETATM   17  C13 UNL     1      -0.751  -2.083   2.031  1.00  0.00    -0.006 A 
HETATM   18  C14 UNL     1      -1.644  -2.630   2.898  1.00  0.00     0.014 A 
HETATM   19  C15 UNL     1      -2.672  -3.568   2.742  1.00  0.00     0.001 A 
HETATM   20  C16 UNL     1      -2.748  -3.986   1.401  1.00  0.00     0.002 A 
HETATM   21  C17 UNL     1      -1.921  -3.525   0.427  1.00  0.00     0.024 A 
HETATM   22  C18 UNL     1      -0.943  -2.589   0.764  1.00  0.00     0.016 A 
BRANCH  22  23
HETATM   23  N1  UNL     1      -0.123  -2.215  -0.303  1.00  0.00    -0.302 NA
HETATM   24  H15 UNL     1       0.175  -2.618  -1.208  1.00  0.00     0.124 HD
HETATM   25  H16 UNL     1       0.093  -2.712  -1.156  1.00  0.00     0.124 HD
ENDBRANCH  22  23
ENDBRANCH   4  17
TORSDOF 5
