REMARK  1 active torsions:
REMARK  status: ('A' for Active; 'I' for Inactive)
REMARK    1  A    between atoms: N2_12  and  C10_13 
ROOT
HETATM    1 CL1  UNL     1       1.834  -4.080   1.667  1.00  0.00    -0.084 Cl
HETATM    2  C1  UNL     1       0.901  -2.933   0.748  1.00  0.00     0.035 A 
HETATM    3  C2  UNL     1      -0.394  -3.293   0.468  1.00  0.00     0.031 A 
HETATM    4  C3  UNL     1      -1.213  -2.461  -0.250  1.00  0.00    -0.052 A 
HETATM    5  C4  UNL     1      -0.748  -1.222  -0.718  1.00  0.00     0.017 A 
HETATM    6  C5  UNL     1       0.582  -0.917  -0.396  1.00  0.00    -0.031 A 
HETATM    7  C6  UNL     1       1.431  -1.733   0.324  1.00  0.00     0.033 A 
HETATM    8  C7  UNL     1       1.161   0.411  -0.792  1.00  0.00     0.149 C 
HETATM    9  C8  UNL     1       0.209   1.417  -0.093  1.00  0.00     0.089 C 
HETATM   10  C9  UNL     1       0.482   0.891   1.304  1.00  0.00     0.038 C 
HETATM   11  N1  UNL     1       1.753   1.219   1.242  1.00  0.00    -0.180 NA
HETATM   12  N2  UNL     1       2.331   0.735   0.043  1.00  0.00    -0.261 N 
HETATM   13  C16 UNL     1      -0.673   0.308   2.008  1.00  0.00     0.086 C 
HETATM   14  C17 UNL     1      -1.926   0.986   1.605  1.00  0.00     0.019 C 
HETATM   15  C18 UNL     1      -3.074   0.869   0.879  1.00  0.00     0.098 C 
HETATM   16  O1  UNL     1      -3.780   2.024   1.046  1.00  0.00    -0.346 OA
HETATM   17  C19 UNL     1      -4.732   2.675   0.262  1.00  0.00     0.202 C 
HETATM   18  C20 UNL     1      -5.062   1.740  -0.870  1.00  0.00     0.202 C 
HETATM   19  O2  UNL     1      -4.884   0.401  -0.382  1.00  0.00    -0.346 OA
HETATM   20  C21 UNL     1      -3.688  -0.162   0.009  1.00  0.00     0.098 C 
HETATM   21  C22 UNL     1      -3.425  -1.383  -0.479  1.00  0.00     0.017 C 
HETATM   22  C23 UNL     1      -2.644  -2.595  -0.690  1.00  0.00     0.068 C 
ENDROOT
BRANCH  12  23
HETATM   23  C10 UNL     1       3.713   0.601  -0.262  1.00  0.00     0.053 A 
HETATM   24  C11 UNL     1       4.587   0.992   0.732  1.00  0.00     0.031 A 
HETATM   25  C12 UNL     1       5.940   0.853   0.414  1.00  0.00     0.002 A 
HETATM   26  C13 UNL     1       6.341   0.359  -0.811  1.00  0.00     0.000 A 
HETATM   27  C14 UNL     1       5.400  -0.016  -1.767  1.00  0.00     0.002 A 
HETATM   28  C15 UNL     1       4.036   0.100  -1.506  1.00  0.00     0.031 A 
ENDBRANCH  12  23
TORSDOF 1
