REMARK  6 active torsions:
REMARK  status: ('A' for Active; 'I' for Inactive)
REMARK    1  A    between atoms: C2_3  and  C3_4 
REMARK    2  A    between atoms: C5_6  and  C6_7 
REMARK    3  A    between atoms: C6_7  and  C7_8 
REMARK    4  A    between atoms: C9_10  and  B1_11 
REMARK    5  A    between atoms: B1_11  and  C10_12 
REMARK    6  A    between atoms: N2_23  and  C18_24 
ROOT
HETATM    1  C7  UNL     1      -0.711   0.339  -1.061  1.00  0.00     0.119 C 
HETATM    2  C8  UNL     1      -0.177  -0.800  -0.173  1.00  0.00     0.071 C 
HETATM    3  C9  UNL     1       0.819   0.025   0.607  1.00  0.00    -0.007 C 
HETATM    4  N1  UNL     1       0.350   1.193   0.589  1.00  0.00    -0.193 NA
HETATM    5  N2  UNL     1      -0.851   1.367  -0.091  1.00  0.00    -0.266 N 
ENDROOT
BRANCH   3   6
HETATM    6  B1  UNL     1       2.109  -0.559   1.245  1.00  0.00     0.251 B 
HETATM    7  H9  UNL     1       1.978  -1.192   2.252  1.00  0.00    -0.014 HD
BRANCH   6   8
HETATM    8  C10 UNL     1       3.431  -0.682   0.409  1.00  0.00    -0.092 A 
HETATM    9  C11 UNL     1       3.433  -0.288  -0.913  1.00  0.00    -0.002 A 
HETATM   10  C12 UNL     1       4.639  -0.433  -1.571  1.00  0.00     0.039 A 
HETATM   11  C13 UNL     1       5.769  -0.926  -0.989  1.00  0.00     0.102 A 
HETATM   12  C14 UNL     1       5.712  -1.304   0.333  1.00  0.00     0.101 A 
HETATM   13  O2  UNL     1       6.993  -1.089  -1.600  1.00  0.00    -0.346 OA
HETATM   14  C15 UNL     1       4.550  -1.187   1.040  1.00  0.00     0.035 A 
HETATM   15  O1  UNL     1       6.847  -1.810   0.953  1.00  0.00    -0.346 OA
HETATM   16  C16 UNL     1       8.154  -1.408   0.525  1.00  0.00     0.202 C 
HETATM   17  C17 UNL     1       8.183  -1.474  -0.983  1.00  0.00     0.202 C 
ENDBRANCH   6   8
ENDBRANCH   3   6
BRANCH   1  18
HETATM   18  C6  UNL     1      -1.868  -0.048  -1.887  1.00  0.00     0.066 C 
BRANCH  18  19
HETATM   19  C5  UNL     1      -3.077  -0.516  -1.229  1.00  0.00    -0.059 A 
HETATM   20  C4  UNL     1      -3.415  -1.630  -0.380  1.00  0.00     0.014 A 
HETATM   21  C3  UNL     1      -4.664  -1.692  -0.013  1.00  0.00    -0.053 A 
HETATM   22  C25 UNL     1      -5.354  -0.535  -0.624  1.00  0.00     0.066 A 
HETATM   23  C24 UNL     1      -4.254   0.120  -1.358  1.00  0.00    -0.015 A 
BRANCH  21  24
HETATM   24  C2  UNL     1      -5.316  -2.671   0.825  1.00  0.00     0.019 C 
HETATM   25  C1  UNL     1      -6.598  -2.615   1.119  1.00  0.00     0.085 C 
HETATM   26 CL1  UNL     1      -7.748  -1.419   0.601  1.00  0.00    -0.097 Cl
ENDBRANCH  21  24
ENDBRANCH  18  19
ENDBRANCH   1  18
BRANCH   5  27
HETATM   27  C18 UNL     1      -1.716   2.402   0.362  1.00  0.00     0.053 A 
HETATM   28  C19 UNL     1      -2.691   2.944  -0.446  1.00  0.00     0.031 A 
HETATM   29  C20 UNL     1      -3.579   3.935  -0.087  1.00  0.00     0.002 A 
HETATM   30  C21 UNL     1      -3.504   4.446   1.187  1.00  0.00     0.000 A 
HETATM   31  C22 UNL     1      -2.550   3.946   2.043  1.00  0.00     0.002 A 
HETATM   32  C23 UNL     1      -1.698   2.959   1.621  1.00  0.00     0.031 A 
ENDBRANCH   5  27
TORSDOF 6
