REMARK  2 active torsions:
REMARK  status: ('A' for Active; 'I' for Inactive)
REMARK    1  A    between atoms: C2_2  and  C3_3 
REMARK    2  A    between atoms: C3_3  and  C4_4 
ROOT
HETATM    1  C4  UNL     1      -2.051   0.201  -0.742  1.00  0.00     0.225 C 
HETATM    2  C5  UNL     1      -1.055   1.070   0.375  1.00  0.00     0.053 C 
HETATM    3  C6  UNL     1       0.229   0.428   0.457  1.00  0.00    -0.047 C 
HETATM    4  C7  UNL     1       1.200   1.310   0.091  1.00  0.00     0.138 C 
HETATM    5  O1  UNL     1       2.511   1.758  -0.170  1.00  0.00    -0.361 OA
HETATM    6  C8  UNL     1       3.153   2.643   0.757  1.00  0.00     0.201 C 
HETATM    7  C9  UNL     1       4.493   2.043   1.182  1.00  0.00     0.201 C 
HETATM    8  O2  UNL     1       4.178   0.762   1.768  1.00  0.00    -0.361 OA
HETATM    9  C10 UNL     1       3.524   0.738   2.977  1.00  0.00     0.130 C 
HETATM   10  C11 UNL     1       2.659  -0.116   2.462  1.00  0.00    -0.002 C 
HETATM   11  C12 UNL     1       2.261  -0.870   1.283  1.00  0.00     0.044 C 
HETATM   12  C13 UNL     1       0.825  -0.837   0.891  1.00  0.00     0.069 C 
HETATM   13  C14 UNL     1       0.466  -1.959   0.007  1.00  0.00     0.043 C 
HETATM   14  N1  UNL     1       0.258  -3.142   0.515  1.00  0.00    -0.187 NA
HETATM   15  N2  UNL     1       0.436  -4.181  -0.384  1.00  0.00    -0.308 N 
HETATM   16  C15 UNL     1      -0.578  -3.519  -1.266  1.00  0.00     0.119 C 
HETATM   17  C16 UNL     1      -1.823  -3.275  -0.463  1.00  0.00     0.068 A 
HETATM   18  C17 UNL     1      -2.957  -2.990   0.260  1.00  0.00    -0.005 A 
HETATM   19  C18 UNL     1      -2.640  -1.910  -0.098  1.00  0.00    -0.033 A 
HETATM   20  P1  UNL     1      -2.321  -0.765  -0.460  1.00  0.00    -0.006 P 
HETATM   21 CL1  UNL     1      -1.483   2.246  -1.490  1.00  0.00    -0.230 Cl
HETATM   22  C19 UNL     1       0.251  -2.242  -1.452  1.00  0.00     0.085 C 
HETATM   23  H19 UNL     1       0.871  -5.074  -0.702  1.00  0.00     0.182 HD
ENDROOT
BRANCH   1  24
HETATM   24  C3  UNL     1      -3.276   1.412  -0.550  1.00  0.00    -0.018 C 
BRANCH  24  25
HETATM   25  C2  UNL     1      -3.780   2.238  -1.529  1.00  0.00    -0.034 C 
HETATM   26  C1  UNL     1      -4.056   2.908  -2.773  1.00  0.00     0.036 C 
ENDBRANCH  24  25
ENDBRANCH   1  24
TORSDOF 2
