REMARK  5 active torsions:
REMARK  status: ('A' for Active; 'I' for Inactive)
REMARK    1  A    between atoms: O1_1  and  C1_2 
REMARK    2  A    between atoms: C2_4  and  C3_5 
REMARK    3  A    between atoms: C3_5  and  C4_6 
REMARK    4  A    between atoms: C4_6  and  C5_7 
REMARK    5  A    between atoms: C10_12  and  C11_13 
ROOT
HETATM    1  C5  UNL     1       1.379  -0.471  -0.564  1.00  0.00     0.023 A 
HETATM    2  C6  UNL     1       2.681  -1.026  -1.066  1.00  0.00     0.036 A 
HETATM    3  C7  UNL     1       2.703  -2.534  -1.051  1.00  0.00    -0.026 A 
HETATM    4  C8  UNL     1       1.767  -3.390  -0.712  1.00  0.00    -0.003 A 
HETATM    5  C9  UNL     1       0.483  -2.805  -0.268  1.00  0.00     0.008 A 
HETATM    6  C10 UNL     1       0.361  -1.493  -0.227  1.00  0.00    -0.043 A 
ENDROOT
BRANCH   6   7
HETATM    7  C11 UNL     1      -0.980  -1.091   0.171  1.00  0.00    -0.027 A 
HETATM    8  C12 UNL     1      -1.915  -1.938   0.716  1.00  0.00     0.015 A 
HETATM    9  C13 UNL     1      -3.208  -1.580   1.028  1.00  0.00     0.040 A 
HETATM   10  C14 UNL     1      -3.651  -0.314   0.806  1.00  0.00     0.102 A 
HETATM   11  C15 UNL     1      -2.785   0.607   0.262  1.00  0.00     0.102 A 
HETATM   12  O3  UNL     1      -4.949   0.059   1.117  1.00  0.00    -0.346 OA
HETATM   13  C16 UNL     1      -1.511   0.189  -0.028  1.00  0.00     0.051 A 
HETATM   14  O2  UNL     1      -3.228   1.900   0.033  1.00  0.00    -0.346 OA
HETATM   15  C17 UNL     1      -4.650   2.094  -0.005  1.00  0.00     0.202 C 
HETATM   16  C18 UNL     1      -5.180   1.468   1.269  1.00  0.00     0.202 C 
ENDBRANCH   6   7
BRANCH   1  17
HETATM   17  C4  UNL     1       1.534   0.458   0.618  1.00  0.00     0.013 C 
BRANCH  17  18
HETATM   18  C3  UNL     1       2.263   1.725   0.417  1.00  0.00     0.031 C 
BRANCH  18  19
HETATM   19  C2  UNL     1       3.661   1.577   0.038  1.00  0.00     0.023 C 
HETATM   20  C1  UNL     1       4.064   2.034  -1.152  1.00  0.00     0.132 C 
HETATM   21 CL1  UNL     1       2.942   2.797  -2.247  1.00  0.00    -0.058 Cl
BRANCH  20  22
HETATM   22  O1  UNL     1       5.381   1.941  -1.608  1.00  0.00    -0.351 OA
HETATM   23  H1  UNL     1       6.085   1.697  -0.906  1.00  0.00     0.218 HD
ENDBRANCH  20  22
ENDBRANCH  18  19
ENDBRANCH  17  18
ENDBRANCH   1  17
TORSDOF 5
