REMARK  5 active torsions:
REMARK  status: ('A' for Active; 'I' for Inactive)
REMARK    1  A    between atoms: C1_2  and  C2_3 
REMARK    2  A    between atoms: C2_3  and  O1_4 
REMARK    3  A    between atoms: O1_4  and  C3_5 
REMARK    4  A    between atoms: C3_5  and  C4_6 
REMARK    5  A    between atoms: C6_8  and  C7_9 
ROOT
HETATM    1  C4  UNL     1      -2.162   0.026   1.325  1.00  0.00     0.131 C 
HETATM    2  C5  UNL     1      -1.358  -0.126   0.026  1.00  0.00     0.090 C 
HETATM    3  C6  UNL     1      -0.043   0.395   0.540  1.00  0.00     0.066 C 
HETATM    4  N1  UNL     1      -0.320   1.221   1.496  1.00  0.00    -0.183 NA
HETATM    5  N2  UNL     1      -1.689   1.341   1.713  1.00  0.00    -0.306 N 
HETATM    6  H17 UNL     1      -2.247   2.160   2.063  1.00  0.00     0.182 HD
ENDROOT
BRANCH   3   7
HETATM    7  C7  UNL     1       1.279   0.019   0.036  1.00  0.00    -0.007 A 
HETATM    8  C8  UNL     1       1.417  -0.883  -0.998  1.00  0.00     0.016 A 
HETATM    9  C9  UNL     1       2.660  -1.240  -1.477  1.00  0.00     0.040 A 
HETATM   10  C10 UNL     1       3.753  -0.650  -0.870  1.00  0.00     0.102 A 
HETATM   11  C11 UNL     1       3.632   0.252   0.162  1.00  0.00     0.103 A 
HETATM   12  O3  UNL     1       5.057  -0.930  -1.265  1.00  0.00    -0.346 OA
HETATM   13  C12 UNL     1       2.383   0.592   0.623  1.00  0.00     0.053 A 
HETATM   14  O2  UNL     1       4.704   0.866   0.797  1.00  0.00    -0.346 OA
HETATM   15  C13 UNL     1       6.004   0.333   0.583  1.00  0.00     0.202 C 
HETATM   16  C14 UNL     1       6.189  -0.230  -0.800  1.00  0.00     0.202 C 
ENDBRANCH   3   7
BRANCH   1  17
HETATM   17  C3  UNL     1      -3.650  -0.028   1.072  1.00  0.00     0.194 C 
BRANCH  17  18
HETATM   18  O1  UNL     1      -4.056   0.815   0.069  1.00  0.00    -0.388 OA
BRANCH  18  19
HETATM   19  C2  UNL     1      -5.398   0.800  -0.195  1.00  0.00     0.182 C 
BRANCH  19  20
HETATM   20  C1  UNL     1      -5.909  -0.559  -0.619  1.00  0.00     0.140 C 
HETATM   21 CL1  UNL     1      -5.087  -1.106  -2.097  1.00  0.00    -0.128 Cl
ENDBRANCH  19  20
ENDBRANCH  18  19
ENDBRANCH  17  18
ENDBRANCH   1  17
TORSDOF 5
