REMARK  4 active torsions:
REMARK  status: ('A' for Active; 'I' for Inactive)
REMARK    1  A    between atoms: C3_3  and  C4_5 
REMARK    2  A    between atoms: C4_5  and  C6_7 
REMARK    3  A    between atoms: C6_7  and  C7_8 
REMARK    4  A    between atoms: C7_8  and  C8_9 
ROOT
HETATM    1  C1  UNL     1       6.445  -0.659   2.513  1.00  0.00     0.098 C 
HETATM    2  C2  UNL     1       5.767  -0.298   1.452  1.00  0.00    -0.131 C 
HETATM    3  C3  UNL     1       5.194  -0.054   0.309  1.00  0.00     0.080 C 
HETATM    4 CL1  UNL     1       5.528  -1.096  -1.026  1.00  0.00    -0.075 Cl
ENDROOT
BRANCH   3   5
HETATM    5  C4  UNL     1       4.353   1.089   0.372  1.00  0.00    -0.036 C 
HETATM    6  C5  UNL     1       4.754   2.422   0.890  1.00  0.00     0.050 C 
BRANCH   5   7
HETATM    7  C6  UNL     1       3.099   1.029  -0.047  1.00  0.00    -0.014 C 
BRANCH   7   8
HETATM    8  C7  UNL     1       2.345  -0.115  -0.624  1.00  0.00     0.074 C 
BRANCH   8   9
HETATM    9  C8  UNL     1       1.140  -0.453   0.215  1.00  0.00     0.209 A 
HETATM   10  C9  UNL     1       0.208   0.702   0.307  1.00  0.00     0.029 A 
HETATM   11  N1  UNL     1       0.189   0.336  -0.933  1.00  0.00    -0.170 NA
HETATM   12  C22 UNL     1      -0.667   1.865   0.651  1.00  0.00     0.081 C 
HETATM   13  N2  UNL     1      -0.001  -0.944  -0.495  1.00  0.00    -0.281 N 
HETATM   14  C10 UNL     1      -0.828  -2.053  -0.667  1.00  0.00     0.054 A 
HETATM   15  C11 UNL     1      -0.212  -2.920  -1.571  1.00  0.00     0.031 A 
HETATM   16  C15 UNL     1      -2.054  -2.406  -0.137  1.00  0.00    -0.028 A 
HETATM   17  C12 UNL     1      -0.784  -4.136  -1.964  1.00  0.00     0.002 A 
HETATM   18  C13 UNL     1      -2.004  -4.480  -1.433  1.00  0.00     0.001 A 
HETATM   19  C14 UNL     1      -2.583  -3.611  -0.551  1.00  0.00     0.009 A 
HETATM   20  C16 UNL     1      -2.799  -1.589   0.815  1.00  0.00     0.067 C 
HETATM   21  C17 UNL     1      -3.496  -0.383   0.158  1.00  0.00     0.172 C 
HETATM   22  O1  UNL     1      -4.116   0.289   1.159  1.00  0.00    -0.389 OA
HETATM   23  C18 UNL     1      -4.780   1.439   0.892  1.00  0.00     0.194 C 
HETATM   24  C19 UNL     1      -3.944   2.589   0.370  1.00  0.00     0.200 C 
HETATM   25  O2  UNL     1      -3.300   2.267  -0.830  1.00  0.00    -0.361 OA
HETATM   26  C20 UNL     1      -2.130   2.839  -1.208  1.00  0.00     0.131 C 
HETATM   27  C21 UNL     1      -0.980   2.648  -0.543  1.00  0.00     0.003 C 
ENDBRANCH   8   9
ENDBRANCH   7   8
ENDBRANCH   5   7
ENDBRANCH   3   5
TORSDOF 4
