REMARK  3 active torsions:
REMARK  status: ('A' for Active; 'I' for Inactive)
REMARK    1  A    between atoms: C7_11  and  C8_12 
REMARK    2  A    between atoms: C8_12  and  N5_13 
REMARK    3  A    between atoms: N8_22  and  N9_23 
ROOT
HETATM    1  C1  UNL     1      -1.481   2.830   2.053  1.00  0.00     0.143 C 
HETATM    2  N1  UNL     1      -1.911   1.886   1.030  1.00  0.00    -0.412 N 
HETATM    3  C2  UNL     1      -1.563   2.270  -0.273  1.00  0.00     0.163 C 
HETATM    4  C3  UNL     1      -0.104   2.257  -0.591  1.00  0.00     0.111 C 
HETATM    5  N2  UNL     1       1.094   1.728  -0.792  1.00  0.00    -0.242 NA
HETATM    6  C4  UNL     1       1.102   0.313  -0.632  1.00  0.00     0.175 A 
HETATM    7  N3  UNL     1       0.394  -0.146  -1.693  1.00  0.00    -0.238 NA
HETATM    8  C5  UNL     1       0.172  -1.467  -1.802  1.00  0.00     0.146 A 
HETATM    9  C6  UNL     1       0.638  -2.390  -0.870  1.00  0.00     0.057 A 
HETATM   10  N4  UNL     1       1.332  -1.904   0.154  1.00  0.00    -0.250 NA
HETATM   11  C7  UNL     1       1.560  -0.601   0.276  1.00  0.00     0.100 A 
HETATM   12  C13 UNL     1       0.070  -3.643  -1.398  1.00  0.00     0.109 C 
HETATM   13  C14 UNL     1      -1.446  -3.544  -1.546  1.00  0.00     0.119 C 
HETATM   14  N7  UNL     1      -1.756  -2.439  -1.083  1.00  0.00    -0.178 NA
HETATM   15  N8  UNL     1      -2.863  -1.715  -0.897  1.00  0.00    -0.236 N 
HETATM   16  C15 UNL     1      -2.579  -0.774   0.142  1.00  0.00     0.167 C 
HETATM   17  C16 UNL     1      -3.598   0.344   0.246  1.00  0.00     0.042 C 
HETATM   18  C17 UNL     1      -3.194   1.344   1.293  1.00  0.00     0.118 C 
ENDROOT
BRANCH  11  19
HETATM   19  C8  UNL     1       2.353  -0.230   1.483  1.00  0.00     0.184 C 
BRANCH  19  20
HETATM   20  N5  UNL     1       3.704   0.088   1.157  1.00  0.00    -0.364 N 
HETATM   21  C9  UNL     1       4.499   1.007   0.388  1.00  0.00     0.122 A 
HETATM   22  C10 UNL     1       5.391   1.773  -0.223  1.00  0.00     0.030 C 
HETATM   23  C12 UNL     1       5.052  -0.151   1.273  1.00  0.00     0.239 A 
HETATM   24  C11 UNL     1       6.591   1.283   0.402  1.00  0.00     0.111 C 
HETATM   25  N6  UNL     1       6.393   0.303   1.207  1.00  0.00    -0.273 NA
ENDBRANCH  19  20
ENDBRANCH  11  19
BRANCH  15  26
HETATM   26  N9  UNL     1      -4.126  -1.735  -1.500  1.00  0.00    -0.231 NA
HETATM   27  H16 UNL     1      -4.801  -2.012  -0.781  1.00  0.00     0.144 HD
HETATM   28  H17 UNL     1      -4.177  -2.360  -2.321  1.00  0.00     0.144 HD
ENDBRANCH  15  26
TORSDOF 3
