REMARK  5 active torsions:
REMARK  status: ('A' for Active; 'I' for Inactive)
REMARK    1  A    between atoms: C2_2  and  C3_3 
REMARK    2  A    between atoms: C3_3  and  N1_4 
REMARK    3  A    between atoms: N1_4  and  C4_5 
REMARK    4  A    between atoms: N2_7  and  C6_8 
REMARK    5  A    between atoms: N5_14  and  C9_15 
ROOT
HETATM    1  C4  UNL     1       1.253   0.422  -1.713  1.00  0.00     0.192 A 
HETATM    2  C5  UNL     1       0.521  -0.105  -2.810  1.00  0.00     0.104 A 
HETATM    3  N2  UNL     1      -0.066  -0.138  -1.712  1.00  0.00    -0.226 NA
HETATM    4  C6  UNL     1      -0.393   1.204  -1.213  1.00  0.00     0.192 A 
HETATM    5  C7  UNL     1       0.808   2.218  -1.398  1.00  0.00     0.132 A 
HETATM    6  N3  UNL     1       1.722   1.738  -2.416  1.00  0.00    -0.180 NA
HETATM    7  C8  UNL     1       0.015   2.915  -0.510  1.00  0.00     0.202 A 
HETATM    8  O1  UNL     1       0.274   4.174  -0.816  1.00  0.00    -0.219 OA
HETATM    9  N4  UNL     1       0.303   1.421  -0.811  1.00  0.00     0.000 N 
HETATM   10  N5  UNL     1      -0.554   0.942   0.166  1.00  0.00    -0.188 NA
ENDROOT
BRANCH  10  11
HETATM   11  C9  UNL     1      -1.776   0.312   0.664  1.00  0.00     0.028 A 
HETATM   12  C10 UNL     1      -1.800   0.181   2.062  1.00  0.00     0.025 A 
HETATM   13  C11 UNL     1      -2.885  -0.397   2.628  1.00  0.00     0.002 A 
HETATM   14  C12 UNL     1      -3.881  -0.810   1.783  1.00  0.00     0.000 A 
HETATM   15  C13 UNL     1      -3.922  -0.714   0.414  1.00  0.00     0.002 A 
HETATM   16  C14 UNL     1      -2.823  -0.129  -0.158  1.00  0.00     0.025 A 
ENDBRANCH  10  11
BRANCH   1  17
HETATM   17  N1  UNL     1       2.278  -0.021  -1.004  1.00  0.00    -0.380 N 
HETATM   18  H6  UNL     1       3.216   0.308  -1.302  1.00  0.00     0.157 HD
BRANCH  17  19
HETATM   19  C3  UNL     1       2.244  -1.219  -0.266  1.00  0.00     0.144 C 
BRANCH  19  20
HETATM   20  C2  UNL     1       3.540  -1.459   0.426  1.00  0.00    -0.018 C 
HETATM   21  C1  UNL     1       3.716  -1.575   1.757  1.00  0.00     0.008 C 
ENDBRANCH  19  20
ENDBRANCH  17  19
ENDBRANCH   1  17
TORSDOF 5
