REMARK  4 active torsions:
REMARK  status: ('A' for Active; 'I' for Inactive)
REMARK    1  A    between atoms: N2_4  and  C3_5 
REMARK    2  A    between atoms: C4_6  and  C5_7 
REMARK    3  A    between atoms: C7_10  and  N4_11 
REMARK    4  A    between atoms: C17_23  and  N7_24 
ROOT
HETATM    1  C5  UNL     1       1.683  -0.302   0.266  1.00  0.00    -0.039 C 
HETATM    2  C6  UNL     1       1.999  -1.597   0.546  1.00  0.00     0.125 C 
HETATM    3  N3  UNL     1       3.341  -2.032   0.870  1.00  0.00    -0.247 NA
HETATM    4  C7  UNL     1       4.376  -1.756   0.126  1.00  0.00     0.102 C 
HETATM    5  C8  UNL     1       5.128  -1.155  -1.042  1.00  0.00     0.124 C 
HETATM    6  C9  UNL     1       5.964   0.008  -0.625  1.00  0.00     0.096 C 
HETATM    7  N5  UNL     1       5.257   0.889  -0.203  1.00  0.00    -0.277 NA
HETATM    8  C10 UNL     1       5.111   2.122   0.320  1.00  0.00     0.112 C 
HETATM    9  C11 UNL     1       3.957   2.602   0.829  1.00  0.00    -0.007 C 
HETATM   10  C12 UNL     1       2.553   2.007   0.984  1.00  0.00     0.033 C 
HETATM   11  C13 UNL     1       2.760   0.659   0.339  1.00  0.00     0.044 C 
ENDROOT
BRANCH   1  12
HETATM   12  C4  UNL     1       0.329   0.055  -0.051  1.00  0.00     0.027 C 
HETATM   13  C3  UNL     1      -0.691  -0.784  -0.102  1.00  0.00     0.115 C 
BRANCH  13  14
HETATM   14  N2  UNL     1      -2.021  -0.430  -0.413  1.00  0.00    -0.253 N 
HETATM   15  N1  UNL     1      -2.600   0.470   0.501  1.00  0.00    -0.178 NA
HETATM   16  C2  UNL     1      -3.844   0.671   0.744  1.00  0.00     0.063 C 
HETATM   17  C1  UNL     1      -4.089   1.711   1.786  1.00  0.00     0.070 C 
HETATM   18  C17 UNL     1      -5.068   0.078   0.197  1.00  0.00     0.294 C 
HETATM   19  C16 UNL     1      -4.788  -1.114  -0.687  1.00  0.00     0.315 C 
HETATM   20  N6  UNL     1      -3.954  -0.772  -1.799  1.00  0.00     0.105 N 
HETATM   21  C14 UNL     1      -2.564  -1.036  -1.599  1.00  0.00     0.421 C 
HETATM   22  C15 UNL     1      -4.243   0.537  -2.339  1.00  0.00     0.312 C 
BRANCH  18  23
HETATM   23  N7  UNL     1      -5.891  -0.327   1.314  1.00  0.00     0.090 N 
HETATM   24  H26 UNL     1      -5.279  -0.607   2.120  1.00  0.00     0.313 HD
HETATM   25  H27 UNL     1      -6.423  -1.180   1.033  1.00  0.00     0.313 HD
ENDBRANCH  18  23
ENDBRANCH  13  14
ENDBRANCH   1  12
BRANCH   4  26
HETATM   26  N4  UNL     1       5.204  -2.474   1.061  1.00  0.00    -0.387 N 
HETATM   27  H7  UNL     1       5.628  -2.485   2.016  1.00  0.00     0.157 HD
HETATM   28  H8  UNL     1       5.551  -3.383   0.641  1.00  0.00     0.157 HD
ENDBRANCH   4  26
TORSDOF 4
