REMARK  6 active torsions:
REMARK  status: ('A' for Active; 'I' for Inactive)
REMARK    1  A    between atoms: C2_2  and  C3_3 
REMARK    2  A    between atoms: C4_4  and  C5_5 
REMARK    3  A    between atoms: C5_5  and  C6_6 
REMARK    4  A    between atoms: C6_6  and  N1_7 
REMARK    5  A    between atoms: N1_7  and  C7_8 
REMARK    6  A    between atoms: C14_18  and  O1_19 
ROOT
HETATM    1  C7  UNL     1       1.201  -0.563   0.147  1.00  0.00     0.155 A 
HETATM    2  N2  UNL     1       1.961  -1.607  -0.218  1.00  0.00    -0.222 NA
HETATM    3  C8  UNL     1       1.436  -2.797  -0.513  1.00  0.00     0.238 A 
HETATM    4  N3  UNL     1       0.139  -3.086  -0.482  1.00  0.00    -0.215 NA
HETATM    5  C9  UNL     1      -0.714  -2.082  -0.120  1.00  0.00     0.202 A 
HETATM    6  C10 UNL     1      -0.150  -0.837   0.188  1.00  0.00     0.128 A 
HETATM    7  N4  UNL     1      -0.890   0.309   0.595  1.00  0.00    -0.379 N 
HETATM    8  C11 UNL     1      -2.222   0.751   0.240  1.00  0.00     0.161 C 
HETATM    9  C12 UNL     1      -3.192  -0.318   0.027  1.00  0.00    -0.004 A 
HETATM   10  C13 UNL     1      -4.434   0.298  -0.016  1.00  0.00     0.048 A 
HETATM   11  C14 UNL     1      -5.599  -0.443  -0.210  1.00  0.00     0.069 A 
HETATM   12  C16 UNL     1      -5.539  -1.808  -0.363  1.00  0.00     0.039 A 
HETATM   13  C17 UNL     1      -4.308  -2.460  -0.325  1.00  0.00     0.040 A 
HETATM   14  C18 UNL     1      -3.181  -1.686  -0.131  1.00  0.00     0.086 A 
HETATM   15  O2  UNL     1      -2.046  -2.483  -0.119  1.00  0.00    -0.289 OA
HETATM   16  H12 UNL     1      -0.318   0.890   1.271  1.00  0.00     0.160 HD
ENDROOT
BRANCH   1  17
HETATM   17  N1  UNL     1       1.772   0.707   0.442  1.00  0.00    -0.372 N 
HETATM   18  H10 UNL     1       1.344   1.606   0.709  1.00  0.00     0.161 HD
BRANCH  17  19
HETATM   19  C6  UNL     1       3.216   0.768   0.345  1.00  0.00     0.125 C 
BRANCH  19  20
HETATM   20  C5  UNL     1       3.705   2.129   0.670  1.00  0.00     0.047 C 
BRANCH  20  21
HETATM   21  C4  UNL     1       5.151   2.332   0.609  1.00  0.00    -0.025 C 
HETATM   22  C3  UNL     1       6.061   1.452   0.300  1.00  0.00    -0.008 C 
BRANCH  22  23
HETATM   23  C2  UNL     1       5.808   0.063  -0.054  1.00  0.00    -0.027 C 
HETATM   24  C1  UNL     1       6.713  -0.860  -0.375  1.00  0.00     0.031 C 
ENDBRANCH  22  23
ENDBRANCH  20  21
ENDBRANCH  19  20
ENDBRANCH  17  19
ENDBRANCH   1  17
BRANCH  11  25
HETATM   25  O1  UNL     1      -6.876   0.082  -0.267  1.00  0.00    -0.356 OA
HETATM   26  C15 UNL     1      -7.089   1.482  -0.124  1.00  0.00     0.210 C 
ENDBRANCH  11  25
TORSDOF 6
