REMARK  5 active torsions:
REMARK  status: ('A' for Active; 'I' for Inactive)
REMARK    1  A    between atoms: B1_1  and  C1_2 
REMARK    2  A    between atoms: C1_2  and  C2_3 
REMARK    3  A    between atoms: C3_5  and  C4_6 
REMARK    4  A    between atoms: N3_9  and  C6_10 
REMARK    5  A    between atoms: C14_20  and  N6_21 
ROOT
HETATM    1  C2  UNL     1       4.549  -0.506   0.693  1.00  0.00     0.087 A 
HETATM    2  N1  UNL     1       3.240  -0.319   0.362  1.00  0.00    -0.244 NA
HETATM    3  C3  UNL     1       2.823  -0.240  -0.900  1.00  0.00     0.088 A 
HETATM    4  C13 UNL     1       3.781  -0.357  -1.886  1.00  0.00     0.151 A 
HETATM    5  N5  UNL     1       5.078  -0.542  -1.586  1.00  0.00    -0.239 NA
HETATM    6  C14 UNL     1       5.506  -0.623  -0.296  1.00  0.00     0.148 A 
ENDROOT
BRANCH   3   7
HETATM    7  C4  UNL     1       1.432  -0.041  -1.293  1.00  0.00     0.030 A 
HETATM    8  C5  UNL     1       0.933   0.050  -2.576  1.00  0.00     0.154 A 
HETATM    9  N2  UNL     1      -0.416   0.235  -2.469  1.00  0.00    -0.184 NA
HETATM   10  N3  UNL     1      -0.754   0.261  -1.197  1.00  0.00    -0.276 N 
HETATM   11  C12 UNL     1       0.345   0.096  -0.445  1.00  0.00     0.128 A 
BRANCH  10  12
HETATM   12  C6  UNL     1      -2.105   0.441  -0.757  1.00  0.00     0.113 C 
HETATM   13  C7  UNL     1      -3.032  -0.684  -1.228  1.00  0.00     0.057 C 
HETATM   14  C8  UNL     1      -4.436  -0.209  -0.926  1.00  0.00     0.274 C 
HETATM   15  N4  UNL     1      -4.556  -0.089   0.501  1.00  0.00     0.084 N 
HETATM   16  C9  UNL     1      -5.916   0.246   0.811  1.00  0.00     0.309 C 
HETATM   17  C10 UNL     1      -3.623   0.833   1.095  1.00  0.00     0.274 C 
HETATM   18  C11 UNL     1      -2.209   0.412   0.765  1.00  0.00     0.057 C 
ENDBRANCH  10  12
ENDBRANCH   3   7
BRANCH   1  19
HETATM   19  C1  UNL     1       4.945  -0.585   2.095  1.00  0.00    -0.060 C 
BRANCH  19  20
HETATM   20  B1  UNL     1       5.372   0.814   3.055  1.00  0.00     0.147 B 
HETATM   21  H1  UNL     1       5.517   2.537   2.917  1.00  0.00    -0.031 HD
ENDBRANCH  19  20
ENDBRANCH   1  19
BRANCH   6  22
HETATM   22  N6  UNL     1       6.879  -0.819   0.026  1.00  0.00    -0.382 N 
HETATM   23  H18 UNL     1       7.397   0.081   0.198  1.00  0.00     0.157 HD
HETATM   24  H19 UNL     1       6.949  -1.869  -0.011  1.00  0.00     0.157 HD
ENDBRANCH   6  22
TORSDOF 5
