REMARK  3 active torsions:
REMARK  status: ('A' for Active; 'I' for Inactive)
REMARK    1  A    between atoms: C2_2  and  C3_3 
REMARK       I    between atoms: C3_3  and  N1_5 
REMARK    2  A    between atoms: N1_5  and  C4_6 
REMARK    3  A    between atoms: C21_28  and  C22_29 
ROOT
HETATM    1  C4  UNL     1       2.372   0.451  -0.177  1.00  0.00     0.082 A 
HETATM    2  C5  UNL     1       1.153   0.586  -0.378  1.00  0.00     0.043 A 
HETATM    3  C6  UNL     1       2.236  -0.428   0.068  1.00  0.00     0.547 A 
HETATM    4  N2  UNL     1       1.958  -1.697   0.140  1.00  0.00    -0.141 NA
HETATM    5  C7  UNL     1       0.713  -2.296  -0.185  1.00  0.00     0.540 C 
HETATM    6  C8  UNL     1       0.271  -3.568  -0.229  1.00  0.00     0.046 C 
HETATM    7  C9  UNL     1      -1.103  -3.966  -0.625  1.00  0.00     0.155 C 
HETATM    8  N3  UNL     1      -1.923  -2.850  -1.020  1.00  0.00    -0.297 NA
HETATM    9  C10 UNL     1      -2.583  -2.120  -0.275  1.00  0.00     0.160 C 
HETATM   10  C11 UNL     1      -3.493  -1.012   0.095  1.00  0.00     0.138 C 
HETATM   11  N4  UNL     1      -4.706  -0.745  -0.021  1.00  0.00    -0.263 NA
HETATM   12  C12 UNL     1      -4.846   0.544  -0.660  1.00  0.00     0.145 C 
HETATM   13  C13 UNL     1      -4.079   0.614  -1.971  1.00  0.00     0.136 C 
HETATM   14  N5  UNL     1      -2.640   0.564  -1.691  1.00  0.00    -0.422 NA
HETATM   15  C14 UNL     1      -1.850   1.598  -1.669  1.00  0.00     0.252 C 
HETATM   16  C15 UNL     1      -1.238   2.973  -1.727  1.00  0.00     0.062 C 
HETATM   17  C16 UNL     1       0.080   3.114  -1.410  1.00  0.00    -0.017 C 
HETATM   18  C17 UNL     1       1.536   3.042  -1.019  1.00  0.00    -0.019 C 
HETATM   19  C18 UNL     1       2.045   1.885  -0.613  1.00  0.00     0.061 A 
HETATM   20  C19 UNL     1      -3.940   1.306   0.342  1.00  0.00     0.153 C 
HETATM   21  N6  UNL     1      -3.182   0.169   0.826  1.00  0.00    -0.359 N 
HETATM   22  C20 UNL     1      -2.266  -0.288   1.800  1.00  0.00     0.161 C 
HETATM   23  C21 UNL     1      -0.854  -0.190   1.461  1.00  0.00    -0.037 C 
HETATM   24  C23 UNL     1       0.050   0.199   0.548  1.00  0.00    -0.005 C 
ENDROOT
BRANCH   1  25
HETATM   25  N1  UNL     1       3.628   1.046  -0.191  1.00  0.00    -0.345 N 
HETATM   26  C3  UNL     1       4.731   0.189   0.212  1.00  0.00     0.241 C 
HETATM   27  O1  UNL     1       4.888  -1.024   0.585  1.00  0.00    -0.269 OA
HETATM   28  H4  UNL     1       4.462   1.582  -0.244  1.00  0.00     0.163 HD
BRANCH  26  29
HETATM   29  C2  UNL     1       6.193   0.391   0.367  1.00  0.00     0.064 C 
HETATM   30  C1  UNL     1       6.828   1.546   0.124  1.00  0.00     0.017 C 
ENDBRANCH  26  29
ENDBRANCH   1  25
BRANCH  23  31
HETATM   31  C22 UNL     1      -0.338  -0.871   2.780  1.00  0.00     0.258 C 
HETATM   32  F1  UNL     1      -0.877  -2.099   2.823  1.00  0.00    -0.251 F 
ENDBRANCH  23  31
TORSDOF 3
