REMARK  5 active torsions:
REMARK  status: ('A' for Active; 'I' for Inactive)
REMARK    1  A    between atoms: C2_2  and  C3_3 
REMARK    2  A    between atoms: C2_2  and  N1_5 
REMARK    3  A    between atoms: N1_5  and  C4_6 
REMARK    4  A    between atoms: C9_11  and  C10_12 
REMARK    5  A    between atoms: C10_12  and  N2_13 
ROOT
HETATM    1  C4  UNL     1      -1.071  -0.315  -0.563  1.00  0.00     0.036 A 
HETATM    2  C5  UNL     1      -1.688  -1.479  -0.967  1.00  0.00     0.030 A 
HETATM    3  C6  UNL     1      -0.997  -2.645  -1.292  1.00  0.00     0.002 A 
HETATM    4  C7  UNL     1       0.394  -2.620  -1.198  1.00  0.00     0.001 A 
HETATM    5  C8  UNL     1       1.066  -1.469  -0.795  1.00  0.00     0.011 A 
HETATM    6  C9  UNL     1       0.313  -0.353  -0.490  1.00  0.00    -0.013 A 
ENDROOT
BRANCH   6   7
HETATM    7  C10 UNL     1       1.057   0.860  -0.062  1.00  0.00     0.172 C 
BRANCH   7   8
HETATM    8  N2  UNL     1       2.487   0.670  -0.034  1.00  0.00    -0.315 N 
HETATM    9  C11 UNL     1       3.401   0.865  -0.999  1.00  0.00     0.204 A 
HETATM   10 CL1  UNL     1       3.015   1.434  -2.611  1.00  0.00    -0.043 Cl
HETATM   11  N3  UNL     1       4.629   0.548  -0.496  1.00  0.00    -0.218 NA
HETATM   12  C12 UNL     1       4.482   0.151   0.793  1.00  0.00     0.087 A 
HETATM   13  C13 UNL     1       3.128   0.228   1.086  1.00  0.00     0.066 A 
HETATM   14  C15 UNL     1       4.775  -0.285   2.031  1.00  0.00     0.036 A 
HETATM   15  C14 UNL     1       3.354  -0.204   2.334  1.00  0.00     0.034 A 
ENDBRANCH   7   8
ENDBRANCH   6   7
BRANCH   1  16
HETATM   16  N1  UNL     1      -1.826   0.853  -0.241  1.00  0.00    -0.379 N 
HETATM   17  H6  UNL     1      -1.271   1.698   0.059  1.00  0.00     0.160 HD
BRANCH  16  18
HETATM   18  C2  UNL     1      -3.273   0.863  -0.327  1.00  0.00     0.139 C 
HETATM   19  C1  UNL     1      -3.743   2.245   0.079  1.00  0.00     0.039 C 
BRANCH  18  20
HETATM   20  C3  UNL     1      -3.724  -0.079   0.763  1.00  0.00     0.255 C 
HETATM   21  O1  UNL     1      -4.835  -0.453   1.148  1.00  0.00    -0.305 OA
ENDBRANCH  18  20
ENDBRANCH  16  18
ENDBRANCH   1  16
TORSDOF 5
