REMARK  5 active torsions:
REMARK  status: ('A' for Active; 'I' for Inactive)
REMARK    1  A    between atoms: C2_2  and  C3_3 
REMARK       I    between atoms: C3_3  and  N1_5 
REMARK    2  A    between atoms: N1_5  and  C4_6 
REMARK    3  A    between atoms: C8_10  and  N2_11 
REMARK    4  A    between atoms: N2_11  and  C9_12 
REMARK    5  A    between atoms: N4_17  and  C13_18 
ROOT
HETATM    1  N2  UNL     1      -0.961  -0.056   0.464  1.00  0.00    -0.342 N 
HETATM    2  H8  UNL     1      -1.155  -1.065   0.731  1.00  0.00     0.167 HD
ENDROOT
BRANCH   1   3
HETATM    3  C8  UNL     1       0.171  -0.308  -0.358  1.00  0.00     0.035 A 
HETATM    4  C7  UNL     1      -0.014  -0.499  -1.722  1.00  0.00     0.029 A 
HETATM    5  C6  UNL     1       1.068  -0.747  -2.535  1.00  0.00     0.004 A 
HETATM    6  C5  UNL     1       2.288  -0.788  -1.907  1.00  0.00     0.029 A 
HETATM    7  C4  UNL     1       2.540  -0.607  -0.555  1.00  0.00     0.036 A 
HETATM    8  C15 UNL     1       1.428  -0.360   0.224  1.00  0.00     0.059 A 
BRANCH   7   9
HETATM    9  N1  UNL     1       3.891  -0.690  -0.088  1.00  0.00    -0.327 N 
HETATM   10  C3  UNL     1       4.941   0.273   0.074  1.00  0.00     0.222 C 
HETATM   11  O1  UNL     1       4.408   1.363  -0.318  1.00  0.00    -0.273 OA
HETATM   12  H4  UNL     1       3.831  -1.725   0.096  1.00  0.00     0.169 HD
BRANCH  10  13
HETATM   13  C2  UNL     1       6.187  -0.271   0.596  1.00  0.00     0.062 C 
HETATM   14  C1  UNL     1       6.729  -1.430   1.005  1.00  0.00     0.051 C 
ENDBRANCH  10  13
ENDBRANCH   7   9
ENDBRANCH   1   3
BRANCH   1  15
HETATM   15  C9  UNL     1      -1.839   0.916   1.012  1.00  0.00     0.112 A 
HETATM   16  C10 UNL     1      -1.511   1.963   1.753  1.00  0.00     0.067 A 
HETATM   17  C11 UNL     1      -2.592   2.816   2.199  1.00  0.00     0.116 A 
HETATM   18  N3  UNL     1      -3.820   2.628   1.929  1.00  0.00    -0.282 NA
HETATM   19  C12 UNL     1      -4.280   1.531   1.141  1.00  0.00     0.281 A 
HETATM   20  N4  UNL     1      -3.218   0.664   0.674  1.00  0.00    -0.299 N 
BRANCH  20  21
HETATM   21  C13 UNL     1      -3.649  -0.447  -0.142  1.00  0.00     0.148 A 
HETATM   22  N5  UNL     1      -3.266  -1.695  -0.130  1.00  0.00    -0.164 NA
HETATM   23  N6  UNL     1      -4.176  -1.905  -1.172  1.00  0.00    -0.305 N 
HETATM   24  C14 UNL     1      -4.661  -0.541  -1.257  1.00  0.00     0.222 A 
HETATM   25  H13 UNL     1      -4.588  -2.599  -1.834  1.00  0.00     0.182 HD
ENDBRANCH  20  21
ENDBRANCH   1  15
TORSDOF 5
