REMARK  2 active torsions:
REMARK  status: ('A' for Active; 'I' for Inactive)
REMARK    1  A    between atoms: N5_23  and  C19_24 
REMARK    2  A    between atoms: C19_24  and  C20_25 
ROOT
HETATM    1  C1  UNL     1      -2.573   2.145   0.302  1.00  0.00     0.140 C 
HETATM    2  C2  UNL     1      -3.560   1.373  -0.047  1.00  0.00     0.023 C 
HETATM    3  C3  UNL     1      -4.521   0.222  -0.121  1.00  0.00    -0.005 C 
HETATM    4  C4  UNL     1      -3.916  -1.005   0.540  1.00  0.00     0.024 C 
HETATM    5  C5  UNL     1      -2.589  -1.369  -0.091  1.00  0.00     0.117 C 
HETATM    6  N1  UNL     1      -2.488  -1.087  -1.477  1.00  0.00    -0.406 N 
HETATM    7  C6  UNL     1      -3.744  -1.019  -2.175  1.00  0.00     0.117 C 
HETATM    8  C7  UNL     1      -4.774  -0.130  -1.569  1.00  0.00     0.024 C 
HETATM    9  C8  UNL     1      -1.542  -0.097  -1.879  1.00  0.00     0.195 C 
HETATM   10  C9  UNL     1      -0.471   0.026  -0.822  1.00  0.00     0.123 C 
HETATM   11  N2  UNL     1      -0.806   1.117  -0.232  1.00  0.00    -0.219 NA
HETATM   12  C10 UNL     1      -0.314   1.869   0.826  1.00  0.00     0.127 C 
HETATM   13  N3  UNL     1      -1.448   2.456   1.085  1.00  0.00    -0.267 NA
HETATM   14  C11 UNL     1       1.015   2.082   1.647  1.00  0.00     0.133 C 
HETATM   15  C12 UNL     1       1.418   0.626   1.865  1.00  0.00     0.148 A 
HETATM   16  N4  UNL     1       1.179  -0.185   2.914  1.00  0.00    -0.214 NA
HETATM   17  C13 UNL     1       1.178  -1.480   2.260  1.00  0.00     0.042 A 
HETATM   18  C14 UNL     1       0.806  -2.707   2.609  1.00  0.00     0.024 A 
HETATM   19  C15 UNL     1       0.477  -3.553   1.529  1.00  0.00     0.004 A 
HETATM   20  C16 UNL     1       0.587  -2.950   0.251  1.00  0.00     0.029 A 
HETATM   21  C17 UNL     1       1.026  -1.617   0.374  1.00  0.00     0.060 A 
HETATM   22  C18 UNL     1       1.418  -0.623   1.304  1.00  0.00     0.169 A 
HETATM   23  N5  UNL     1       1.630   0.375   0.592  1.00  0.00    -0.352 N 
HETATM   24  N6  UNL     1       0.503  -1.131  -0.929  1.00  0.00    -0.343 N 
HETATM   25  H26 UNL     1       0.716  -1.491  -1.874  1.00  0.00     0.167 HD
ENDROOT
BRANCH  23  26
HETATM   26  C19 UNL     1       2.059   0.963  -0.621  1.00  0.00     0.160 C 
BRANCH  26  27
HETATM   27  C20 UNL     1       3.571   1.278  -0.526  1.00  0.00    -0.041 A 
HETATM   28  C21 UNL     1       4.407   0.176  -0.673  1.00  0.00     0.009 A 
HETATM   29  C22 UNL     1       5.791   0.197  -0.644  1.00  0.00     0.001 A 
HETATM   30  C23 UNL     1       6.362   1.433  -0.452  1.00  0.00     0.000 A 
HETATM   31  C24 UNL     1       5.561   2.555  -0.301  1.00  0.00     0.001 A 
HETATM   32  C25 UNL     1       4.195   2.489  -0.336  1.00  0.00     0.009 A 
ENDBRANCH  26  27
ENDBRANCH  23  26
TORSDOF 2
