REMARK  3 active torsions:
REMARK  status: ('A' for Active; 'I' for Inactive)
REMARK    1  A    between atoms: C2_2  and  C3_3 
REMARK    2  A    between atoms: C9_10  and  N2_11 
REMARK    3  A    between atoms: C17_21  and  N4_22 
ROOT
HETATM    1  C1  UNL     1      -0.711  -0.754  -3.106  1.00  0.00     0.026 C 
HETATM    2  C2  UNL     1      -0.137  -0.967  -1.674  1.00  0.00     0.033 C 
HETATM    3  C14 UNL     1       0.981  -0.069  -1.548  1.00  0.00     0.017 C 
HETATM    4  C15 UNL     1       2.199   0.018  -1.045  1.00  0.00     0.041 C 
HETATM    5  N3  UNL     1       2.364   1.330  -1.502  1.00  0.00    -0.261 NA
HETATM    6  C16 UNL     1       2.861   2.498  -1.327  1.00  0.00     0.166 C 
HETATM    7  C17 UNL     1       3.658   2.924  -0.244  1.00  0.00     0.138 C 
HETATM    8  N5  UNL     1       4.198   2.430   0.938  1.00  0.00    -0.243 NA
HETATM    9  C18 UNL     1       3.919   1.034   1.245  1.00  0.00     0.116 C 
HETATM   10  C19 UNL     1       3.571  -0.204   1.007  1.00  0.00     0.006 C 
HETATM   11  C20 UNL     1       3.171  -0.790  -0.326  1.00  0.00     0.096 C 
HETATM   12  C21 UNL     1       3.012  -2.228  -0.189  1.00  0.00     0.264 A 
HETATM   13  C22 UNL     1       2.540  -2.633   1.217  1.00  0.00     0.309 A 
HETATM   14  N6  UNL     1       1.954  -3.014  -0.050  1.00  0.00     0.098 N 
HETATM   15  C23 UNL     1       0.613  -2.923  -0.300  1.00  0.00     0.274 C 
HETATM   16  C24 UNL     1       0.308  -2.418  -1.684  1.00  0.00     0.050 C 
ENDROOT
BRANCH   2  17
HETATM   17  C3  UNL     1      -1.317  -0.766  -0.807  1.00  0.00     0.195 A 
HETATM   18  N1  UNL     1      -2.351  -1.383  -0.331  1.00  0.00     0.157 N 
HETATM   19  C4  UNL     1      -3.192  -0.483   0.533  1.00  0.00     0.242 A 
HETATM   20  C9  UNL     1      -2.942  -1.464   0.025  1.00  0.00     0.257 A 
HETATM   21  N2  UNL     1      -2.246  -0.213   0.004  1.00  0.00     0.000 N 
HETATM   22  C5  UNL     1      -3.654   0.654   1.218  1.00  0.00    -0.001 A 
HETATM   23  C8  UNL     1      -4.321  -1.576   0.773  1.00  0.00     0.100 A 
HETATM   24  C6  UNL     1      -4.906   0.417   1.837  1.00  0.00     0.005 A 
HETATM   25  C13 UNL     1      -3.700   2.043   1.825  1.00  0.00     0.224 C 
HETATM   26  C7  UNL     1      -5.342  -0.961   1.581  1.00  0.00    -0.016 A 
HETATM   27  C12 UNL     1      -2.253   2.460   2.066  1.00  0.00     0.010 C 
HETATM   28  F1  UNL     1      -4.275   2.931   0.968  1.00  0.00    -0.240 F 
HETATM   29  C11 UNL     1      -1.350   1.776   1.341  1.00  0.00    -0.027 C 
HETATM   30  C10 UNL     1      -1.508   1.126  -0.012  1.00  0.00     0.030 C 
ENDBRANCH   2  17
BRANCH   7  31
HETATM   31  N4  UNL     1       4.030   4.294  -0.453  1.00  0.00    -0.383 N 
HETATM   32  H14 UNL     1       4.986   3.974  -0.819  1.00  0.00     0.157 HD
HETATM   33  H15 UNL     1       3.135   4.770  -0.120  1.00  0.00     0.157 HD
ENDBRANCH   7  31
TORSDOF 3
