REMARK  3 active torsions:
REMARK  status: ('A' for Active; 'I' for Inactive)
REMARK    1  A    between atoms: C4_5  and  N2_6 
REMARK    2  A    between atoms: N6_20  and  C15_21 
REMARK    3  A    between atoms: C15_21  and  N7_22 
ROOT
HETATM    1  N2  UNL     1       0.711  -1.020  -1.050  1.00  0.00    -0.254 N 
HETATM    2  N3  UNL     1       0.127  -2.127  -1.654  1.00  0.00    -0.183 NA
HETATM    3  C5  UNL     1      -1.063  -2.688  -1.594  1.00  0.00     0.146 C 
HETATM    4  C6  UNL     1      -2.162  -1.767  -1.078  1.00  0.00    -0.035 C 
HETATM    5  C7  UNL     1      -3.264  -2.330  -0.458  1.00  0.00     0.008 C 
HETATM    6  C8  UNL     1      -4.382  -1.557   0.148  1.00  0.00    -0.002 C 
HETATM    7  C9  UNL     1      -4.427  -0.271   0.276  1.00  0.00    -0.006 C 
HETATM    8  C10 UNL     1      -4.563   1.173   0.459  1.00  0.00     0.172 C 
HETATM    9  N4  UNL     1      -4.011   2.040  -0.583  1.00  0.00    -0.289 NA
HETATM   10  C11 UNL     1      -2.648   2.287  -0.623  1.00  0.00     0.381 A 
HETATM   11  C12 UNL     1      -1.274   1.796   0.311  1.00  0.00     0.304 A 
HETATM   12  N5  UNL     1      -0.382   0.988  -0.000  1.00  0.00    -0.185 NA
HETATM   13  C13 UNL     1      -0.188  -0.066  -0.637  1.00  0.00     0.137 A 
HETATM   14  C14 UNL     1      -1.472   0.431  -0.617  1.00  0.00     0.261 A 
HETATM   15  N6  UNL     1      -2.128   1.427  -0.129  1.00  0.00     0.054 N 
HETATM   16  C15 UNL     1      -2.109   2.547   0.598  1.00  0.00     0.304 A 
HETATM   17  C16 UNL     1      -2.338  -0.370  -1.494  1.00  0.00     0.105 C 
ENDROOT
BRANCH   1  18
HETATM   18  C4  UNL     1       1.893  -0.398  -0.596  1.00  0.00     0.114 C 
HETATM   19  C3  UNL     1       2.322  -0.787   0.791  1.00  0.00     0.047 C 
HETATM   20  C2  UNL     1       3.564   0.104   1.060  1.00  0.00     0.118 C 
HETATM   21  N1  UNL     1       4.557  -0.206   0.107  1.00  0.00    -0.416 N 
HETATM   22  C1  UNL     1       5.850   0.255   0.206  1.00  0.00     0.143 C 
HETATM   23  C18 UNL     1       4.189  -1.206  -0.824  1.00  0.00     0.118 C 
HETATM   24  C17 UNL     1       2.991  -0.736  -1.588  1.00  0.00     0.047 C 
ENDBRANCH   1  18
BRANCH  16  25
HETATM   25  N7  UNL     1      -1.314   3.457   1.369  1.00  0.00    -0.393 N 
HETATM   26  H16 UNL     1      -1.875   3.778   2.226  1.00  0.00     0.152 HD
HETATM   27  H17 UNL     1      -0.333   3.914   1.339  1.00  0.00     0.152 HD
ENDBRANCH  16  25
TORSDOF 3
