REMARK  7 active torsions:
REMARK  status: ('A' for Active; 'I' for Inactive)
REMARK    1  A    between atoms: C2_2  and  N1_3 
REMARK    2  A    between atoms: N1_3  and  C4_5 
REMARK    3  A    between atoms: C4_5  and  C5_6 
REMARK    4  A    between atoms: C5_6  and  C6_7 
REMARK    5  A    between atoms: C6_7  and  N2_8 
REMARK    6  A    between atoms: C8_10  and  C9_11 
REMARK    7  A    between atoms: C12_16  and  C13_17 
ROOT
HETATM    1  N2  UNL     1      -0.251  -1.676   0.404  1.00  0.00    -0.280 N 
HETATM    2  C7  UNL     1      -1.185  -1.076  -0.374  1.00  0.00     0.125 A 
HETATM    3  C8  UNL     1      -2.287  -0.699   0.402  1.00  0.00     0.010 A 
HETATM    4  C14 UNL     1      -1.945  -1.112   1.670  1.00  0.00     0.152 A 
HETATM    5  N5  UNL     1      -0.735  -1.682   1.615  1.00  0.00    -0.184 NA
ENDROOT
BRANCH   3   6
HETATM    6  C9  UNL     1      -3.511  -0.044  -0.097  1.00  0.00    -0.003 C 
HETATM    7  C10 UNL     1      -3.634   0.123  -1.399  1.00  0.00     0.128 C 
HETATM    8  N3  UNL     1      -4.814   0.743  -1.898  1.00  0.00    -0.256 NA
HETATM    9  C11 UNL     1      -5.774   1.143  -1.146  1.00  0.00     0.202 C 
HETATM   10  N4  UNL     1      -5.641   0.945   0.255  1.00  0.00    -0.373 N 
HETATM   11  C12 UNL     1      -4.447   0.427   0.957  1.00  0.00     0.146 C 
HETATM   12  H18 UNL     1      -6.425   1.168   0.904  1.00  0.00     0.161 HD
BRANCH  11  13
HETATM   13  C13 UNL     1      -3.815   1.703   1.513  1.00  0.00     0.252 C 
HETATM   14  F1  UNL     1      -2.581   1.541   2.045  1.00  0.00    -0.253 F 
ENDBRANCH  11  13
ENDBRANCH   3   6
BRANCH   1  15
HETATM   15  C6  UNL     1       1.026  -2.199  -0.040  1.00  0.00     0.152 C 
BRANCH  15  16
HETATM   16  C5  UNL     1       2.013  -1.054   0.089  1.00  0.00     0.052 C 
BRANCH  16  17
HETATM   17  C4  UNL     1       3.395  -1.462  -0.347  1.00  0.00     0.273 C 
BRANCH  17  18
HETATM   18  N1  UNL     1       4.285  -0.351  -0.186  1.00  0.00     0.083 N 
HETATM   19  C3  UNL     1       4.291   0.061   1.194  1.00  0.00     0.309 C 
BRANCH  18  20
HETATM   20  C2  UNL     1       3.952   0.694  -1.116  1.00  0.00     0.267 C 
HETATM   21  C1  UNL     1       5.080   1.727  -1.154  1.00  0.00     0.037 C 
ENDBRANCH  18  20
ENDBRANCH  17  18
ENDBRANCH  16  17
ENDBRANCH  15  16
ENDBRANCH   1  15
TORSDOF 7
