REMARK  8 active torsions:
REMARK  status: ('A' for Active; 'I' for Inactive)
REMARK    1  A    between atoms: N1_2  and  C2_3 
REMARK    2  A    between atoms: N2_4  and  C3_5 
REMARK    3  A    between atoms: C3_5  and  C4_6 
REMARK    4  A    between atoms: C3_5  and  N4_9 
REMARK    5  A    between atoms: C6_10  and  S1_11 
REMARK    6  A    between atoms: N6_19  and  C13_20 
REMARK    7  A    between atoms: C16_24  and  C17_25 
REMARK    8  A    between atoms: C17_25  and  C18_26 
ROOT
HETATM    1  C4  UNL     1       2.065  -3.416  -0.541  1.00  0.00     0.174 C 
HETATM    2  C5  UNL     1       2.941  -4.569  -0.444  1.00  0.00     0.063 C 
HETATM    3  N3  UNL     1       3.633  -5.490  -0.364  1.00  0.00    -0.197 NA
ENDROOT
BRANCH   1   4
HETATM    4  C3  UNL     1       2.928  -2.171  -0.802  1.00  0.00     0.243 C 
BRANCH   4   5
HETATM    5  N2  UNL     1       3.823  -2.071   0.292  1.00  0.00    -0.257 NA
HETATM    6  C2  UNL     1       4.875  -1.406   0.338  1.00  0.00     0.198 C 
BRANCH   6   7
HETATM    7  N1  UNL     1       5.818  -0.534  -0.241  1.00  0.00    -0.389 N 
HETATM    8  C1  UNL     1       5.053   0.327  -1.122  1.00  0.00     0.147 C 
HETATM    9  H4  UNL     1       6.756  -0.777   0.133  1.00  0.00     0.159 HD
ENDBRANCH   6   7
ENDBRANCH   4   5
BRANCH   4  10
HETATM   10  N4  UNL     1       2.055  -1.021  -0.928  1.00  0.00    -0.264 NA
HETATM   11  C6  UNL     1       0.988  -1.159  -1.659  1.00  0.00     0.192 C 
BRANCH  11  12
HETATM   12  S1  UNL     1       0.122   0.360  -1.644  1.00  0.00     0.045 SA
HETATM   13  N5  UNL     1      -0.141   1.521  -2.781  1.00  0.00    -0.199 NA
HETATM   14  C7  UNL     1      -1.007   2.589  -2.031  1.00  0.00     0.094 A 
HETATM   15  C8  UNL     1      -1.388   3.703  -2.739  1.00  0.00     0.035 A 
HETATM   16  C12 UNL     1      -1.326   2.340  -0.715  1.00  0.00     0.077 A 
HETATM   17  C9  UNL     1      -2.133   4.642  -2.121  1.00  0.00     0.002 A 
HETATM   18  C10 UNL     1      -2.504   4.490  -0.806  1.00  0.00     0.002 A 
HETATM   19  C11 UNL     1      -2.079   3.345  -0.175  1.00  0.00     0.033 A 
HETATM   20  N6  UNL     1      -0.807   1.124  -0.225  1.00  0.00    -0.269 N 
BRANCH  20  21
HETATM   21  C13 UNL     1      -0.928   0.551   1.059  1.00  0.00     0.070 A 
HETATM   22  C14 UNL     1      -0.065   0.609   2.069  1.00  0.00     0.027 A 
HETATM   23  C15 UNL     1      -0.610  -0.135   3.214  1.00  0.00     0.178 A 
HETATM   24  N7  UNL     1      -1.867  -0.611   2.731  1.00  0.00    -0.288 NA
HETATM   25  C16 UNL     1      -2.074  -0.236   1.510  1.00  0.00     0.063 A 
BRANCH  25  26
HETATM   26  C17 UNL     1      -3.305  -0.550   0.713  1.00  0.00     0.139 C 
BRANCH  26  27
HETATM   27  C18 UNL     1      -4.209  -1.392   1.537  1.00  0.00     0.128 C 
HETATM   28  C19 UNL     1      -5.645  -1.122   1.853  1.00  0.00     0.091 C 
HETATM   29  O1  UNL     1      -3.522  -2.361   1.907  1.00  0.00    -0.298 OA
ENDBRANCH  26  27
ENDBRANCH  25  26
ENDBRANCH  20  21
ENDBRANCH  11  12
ENDBRANCH   4  10
ENDBRANCH   1   4
TORSDOF 8
