REMARK  4 active torsions:
REMARK  status: ('A' for Active; 'I' for Inactive)
REMARK    1  A    between atoms: C2_2  and  C3_3 
REMARK    2  A    between atoms: C4_4  and  C5_5 
REMARK    3  A    between atoms: C12_15  and  N3_16 
REMARK    4  A    between atoms: N4_18  and  C14_19 
ROOT
HETATM    1  C5  UNL     1      -4.050  -0.127  -0.680  1.00  0.00     0.067 C 
HETATM    2  C6  UNL     1      -4.522   0.037   0.570  1.00  0.00     0.129 C 
HETATM    3  F1  UNL     1      -5.712   0.646   0.787  1.00  0.00    -0.208 F 
HETATM    4  C7  UNL     1      -3.891  -0.393   1.837  1.00  0.00     0.092 C 
HETATM    5  C8  UNL     1      -3.421  -1.796   1.807  1.00  0.00    -0.016 C 
HETATM    6  C9  UNL     1      -3.511  -2.778   0.901  1.00  0.00    -0.010 C 
HETATM    7  C10 UNL     1      -3.566  -2.633  -0.587  1.00  0.00     0.152 C 
HETATM    8  N1  UNL     1      -3.192  -1.255  -0.957  1.00  0.00    -0.357 N 
HETATM    9  C11 UNL     1      -1.872  -1.052  -1.603  1.00  0.00     0.276 C 
HETATM   10  N2  UNL     1      -0.950  -0.520  -0.671  1.00  0.00    -0.251 NA
HETATM   11  C12 UNL     1       0.285  -0.362  -0.660  1.00  0.00     0.148 C 
HETATM   12  C13 UNL     1       0.626   0.254   0.644  1.00  0.00     0.119 C 
HETATM   13  N4  UNL     1       1.811   0.551   0.984  1.00  0.00    -0.243 NA
HETATM   14  C22 UNL     1      -0.358   0.596   1.701  1.00  0.00     0.145 C 
HETATM   15  N7  UNL     1      -1.567   0.283   1.328  1.00  0.00    -0.298 NA
HETATM   16  C23 UNL     1      -2.717   0.496   2.139  1.00  0.00     0.164 C 
ENDROOT
BRANCH  11  17
HETATM   17  N3  UNL     1       1.352  -0.629  -1.553  1.00  0.00    -0.382 N 
HETATM   18  H13 UNL     1       1.257  -1.664  -1.410  1.00  0.00     0.157 HD
HETATM   19  H14 UNL     1       1.965   0.004  -2.115  1.00  0.00     0.157 HD
ENDBRANCH  11  17
BRANCH  13  20
HETATM   20  C14 UNL     1       3.004   0.390   0.280  1.00  0.00     0.071 C 
HETATM   21  C15 UNL     1       3.482  -0.869   0.258  1.00  0.00     0.013 C 
HETATM   22  C16 UNL     1       4.793  -1.437  -0.226  1.00  0.00     0.040 C 
HETATM   23  C17 UNL     1       5.848  -1.331   0.846  1.00  0.00     0.040 C 
HETATM   24  C21 UNL     1       5.331  -0.571  -1.356  1.00  0.00     0.283 C 
HETATM   25  C18 UNL     1       7.001  -0.614   0.185  1.00  0.00     0.275 C 
HETATM   26  N5  UNL     1       6.393   0.213  -0.818  1.00  0.00     0.108 NA
HETATM   27  C19 UNL     1       6.084   1.543  -0.428  1.00  0.00     0.420 C 
HETATM   28  N6  UNL     1       4.729   1.973  -0.692  1.00  0.00    -0.269 NA
HETATM   29  C20 UNL     1       3.517   1.649  -0.308  1.00  0.00     0.143 C 
ENDBRANCH  13  20
BRANCH   1  30
HETATM   30  C4  UNL     1      -4.331   0.761  -1.779  1.00  0.00     0.032 C 
HETATM   31  C3  UNL     1      -5.042   1.857  -1.864  1.00  0.00    -0.002 C 
BRANCH  31  32
HETATM   32  C2  UNL     1      -5.861   2.755  -1.107  1.00  0.00    -0.009 C 
HETATM   33  C1  UNL     1      -6.591   3.851  -1.127  1.00  0.00     0.013 C 
ENDBRANCH  31  32
ENDBRANCH   1  30
TORSDOF 4
