REMARK  2 active torsions:
REMARK  status: ('A' for Active; 'I' for Inactive)
REMARK    1  A    between atoms: C11_14  and  N4_15 
REMARK    2  A    between atoms: C13_17  and  C14_18 
ROOT
HETATM    1  C1  UNL     1      -4.171  -1.885  -0.738  1.00  0.00     0.310 C 
HETATM    2  N1  UNL     1      -2.757  -1.581  -0.874  1.00  0.00     0.096 N 
HETATM    3  C2  UNL     1      -2.116  -1.937   0.341  1.00  0.00     0.300 C 
HETATM    4  C3  UNL     1      -0.909  -1.163   0.805  1.00  0.00     0.136 C 
HETATM    5  N2  UNL     1      -1.323  -0.071   1.774  1.00  0.00    -0.366 N 
HETATM    6  C4  UNL     1      -2.336   0.836   1.440  1.00  0.00     0.124 A 
HETATM    7  C5  UNL     1      -3.091   1.845   1.885  1.00  0.00     0.050 A 
HETATM    8  C6  UNL     1      -3.973   2.338   0.953  1.00  0.00     0.006 A 
HETATM    9  C7  UNL     1      -4.091   1.862  -0.321  1.00  0.00     0.029 A 
HETATM   10  C8  UNL     1      -3.301   0.841  -0.709  1.00  0.00     0.070 A 
HETATM   11  N3  UNL     1      -2.618   0.581   0.270  1.00  0.00    -0.234 NA
HETATM   12  C9  UNL     1      -2.579  -0.232  -1.357  1.00  0.00     0.276 C 
HETATM   13  C10 UNL     1      -1.073   0.029  -1.475  1.00  0.00     0.072 C 
HETATM   14  C11 UNL     1      -0.273  -0.640  -0.418  1.00  0.00     0.136 C 
HETATM   15  H7  UNL     1      -0.747  -0.114   2.689  1.00  0.00     0.161 HD
ENDROOT
BRANCH  14  16
HETATM   16  N4  UNL     1       0.983   0.082  -0.133  1.00  0.00    -0.273 N 
HETATM   17  C12 UNL     1       2.277  -0.352  -0.149  1.00  0.00     0.128 A 
HETATM   18  C13 UNL     1       3.097   0.692   0.188  1.00  0.00     0.029 A 
HETATM   19  C18 UNL     1       2.292   1.775   0.412  1.00  0.00     0.154 A 
HETATM   20  N6  UNL     1       1.038   1.356   0.207  1.00  0.00    -0.184 NA
BRANCH  18  21
HETATM   21  C14 UNL     1       4.548   0.579   0.268  1.00  0.00     0.065 A 
HETATM   22  C15 UNL     1       5.209  -0.547   0.021  1.00  0.00     0.011 A 
HETATM   23  C16 UNL     1       6.672  -0.325   0.190  1.00  0.00     0.076 A 
HETATM   24  C17 UNL     1       6.699   1.115   0.572  1.00  0.00     0.094 A 
HETATM   25  N5  UNL     1       5.501   1.572   0.602  1.00  0.00    -0.264 NA
ENDBRANCH  18  21
ENDBRANCH  14  16
TORSDOF 2
