REMARK  5 active torsions:
REMARK  status: ('A' for Active; 'I' for Inactive)
REMARK    1  A    between atoms: C3_3  and  N1_5 
REMARK    2  A    between atoms: N1_5  and  C4_6 
REMARK    3  A    between atoms: C12_16  and  C13_17 
REMARK    4  A    between atoms: C13_17  and  C14_18 
REMARK    5  A    between atoms: C18_23  and  N4_24 
ROOT
HETATM    1  C4  UNL     1       3.100   1.035  -1.183  1.00  0.00     0.060 C 
HETATM    2  C5  UNL     1       3.425   0.738   0.094  1.00  0.00     0.093 C 
HETATM    3  C6  UNL     1       1.929   0.804   0.469  1.00  0.00     0.108 C 
HETATM    4  C7  UNL     1       0.550   1.014   0.039  1.00  0.00     0.122 C 
HETATM    5  F1  UNL     1      -0.540   1.266  -0.747  1.00  0.00    -0.246 F 
HETATM    6  C8  UNL     1       0.016   1.321   1.314  1.00  0.00     0.235 C 
HETATM    7  C9  UNL     1      -0.624   1.613   2.408  1.00  0.00     0.051 C 
HETATM    8  N2  UNL     1      -1.356   0.647   1.013  1.00  0.00     0.184 N 
HETATM    9  C10 UNL     1      -2.689   0.245   0.671  1.00  0.00     0.565 A 
HETATM   10  C11 UNL     1      -3.062   0.067   2.152  1.00  0.00     0.202 A 
HETATM   11  C12 UNL     1      -3.836  -0.265   3.170  1.00  0.00     0.018 C 
HETATM   12  N3  UNL     1      -1.820   0.421   1.330  1.00  0.00     0.196 N 
HETATM   13  C16 UNL     1      -1.287  -0.811   1.091  1.00  0.00     0.437 A 
HETATM   14  C17 UNL     1      -0.344  -1.804   0.312  1.00  0.00     0.160 C 
HETATM   15  C18 UNL     1      -1.204  -2.202  -0.868  1.00  0.00     0.112 C 
HETATM   16  N5  UNL     1      -0.975  -1.878  -2.080  1.00  0.00    -0.185 NA
HETATM   17  C19 UNL     1       0.110  -1.104  -2.513  1.00  0.00     0.038 C 
HETATM   18  C20 UNL     1       1.000  -0.494  -2.852  1.00  0.00    -0.062 C 
HETATM   19  C21 UNL     1       2.144   0.264  -3.271  1.00  0.00     0.217 C 
HETATM   20  N6  UNL     1       2.567   1.351  -2.494  1.00  0.00    -0.373 N 
HETATM   21  H23 UNL     1       2.784   2.452  -2.597  1.00  0.00     0.161 HD
ENDROOT
BRANCH   1  22
HETATM   22  N1  UNL     1       4.547   0.985  -1.478  1.00  0.00    -0.248 NA
HETATM   23  H4  UNL     1       4.338   1.997  -1.257  1.00  0.00     0.132 HD
BRANCH  22  24
HETATM   24  C3  UNL     1       5.782   1.967  -1.590  1.00  0.00     0.142 A 
HETATM   25  C2  UNL     1       6.722   0.798  -1.982  1.00  0.00     0.051 A 
HETATM   26  C1  UNL     1       7.277   2.026  -1.759  1.00  0.00     0.236 A 
HETATM   27  O1  UNL     1       6.397   3.083  -1.523  1.00  0.00    -0.360 OA
ENDBRANCH  22  24
ENDBRANCH   1  22
BRANCH  15  28
HETATM   28  N4  UNL     1      -2.230  -3.034  -0.384  1.00  0.00    -0.387 N 
HETATM   29  H19 UNL     1      -2.425  -3.980  -0.811  1.00  0.00     0.157 HD
HETATM   30  H20 UNL     1      -2.903  -2.931   0.373  1.00  0.00     0.157 HD
ENDBRANCH  15  28
BRANCH  11  31
HETATM   31  C13 UNL     1      -4.937  -0.732   2.400  1.00  0.00     0.022 C 
BRANCH  31  32
HETATM   32  C14 UNL     1      -6.126  -1.214   2.066  1.00  0.00    -0.006 C 
HETATM   33  C15 UNL     1      -6.222  -1.320   0.585  1.00  0.00     0.011 C 
ENDBRANCH  31  32
ENDBRANCH  11  31
TORSDOF 5
