REMARK  6 active torsions:
REMARK  status: ('A' for Active; 'I' for Inactive)
REMARK    1  A    between atoms: C2_2  and  C3_3 
REMARK       I    between atoms: C3_3  and  N1_5 
REMARK    2  A    between atoms: N1_5  and  C4_6 
REMARK    3  A    between atoms: C4_6  and  C8_11 
REMARK    4  A    between atoms: C5_7  and  C6_8 
REMARK    5  A    between atoms: C8_11  and  O2_12 
REMARK    6  A    between atoms: O2_12  and  N2_13 
ROOT
HETATM    1  C4  UNL     1       1.105  -1.594   0.851  1.00  0.00     0.038 C 
HETATM    2  C5  UNL     1       1.470  -2.867   0.794  1.00  0.00     0.029 C 
ENDROOT
BRANCH   1   3
HETATM    3  N1  UNL     1       2.069  -0.569   1.056  1.00  0.00    -0.325 N 
HETATM    4  C3  UNL     1       2.403   0.529   0.237  1.00  0.00     0.244 C 
HETATM    5  O1  UNL     1       1.953   0.905  -0.885  1.00  0.00    -0.268 OA
HETATM    6  H4  UNL     1       2.588  -0.675   1.956  1.00  0.00     0.169 HD
BRANCH   4   7
HETATM    7  C2  UNL     1       3.445   1.465   0.665  1.00  0.00     0.064 C 
HETATM    8  C1  UNL     1       3.436   2.312  -0.364  1.00  0.00     0.017 C 
ENDBRANCH   4   7
ENDBRANCH   1   3
BRANCH   1   9
HETATM    9  C8  UNL     1      -0.323  -1.209   0.702  1.00  0.00     0.259 C 
BRANCH   9  10
HETATM   10  O2  UNL     1      -0.408  -0.359  -0.421  1.00  0.00    -0.266 OA
BRANCH  10  11
HETATM   11  N2  UNL     1      -1.636   0.142  -0.777  1.00  0.00    -0.213 N 
HETATM   12  C9  UNL     1      -2.208  -0.343  -1.916  1.00  0.00     0.240 A 
HETATM   13  N3  UNL     1      -3.407   0.271  -2.094  1.00  0.00    -0.239 NA
HETATM   14  C10 UNL     1      -3.575   1.142  -1.058  1.00  0.00     0.087 A 
HETATM   15  C11 UNL     1      -4.574   2.034  -0.693  1.00  0.00     0.034 A 
HETATM   16  C15 UNL     1      -2.467   1.058  -0.239  1.00  0.00     0.092 A 
HETATM   17  C12 UNL     1      -4.395   2.778   0.463  1.00  0.00     0.002 A 
HETATM   18  C13 UNL     1      -3.276   2.667   1.254  1.00  0.00     0.002 A 
HETATM   19  C14 UNL     1      -2.260   1.780   0.910  1.00  0.00     0.034 A 
ENDBRANCH  10  11
ENDBRANCH   9  10
ENDBRANCH   1   9
BRANCH   2  20
HETATM   20  C6  UNL     1       2.877  -3.218   0.944  1.00  0.00     0.031 C 
HETATM   21  C7  UNL     1       3.226  -4.493   0.885  1.00  0.00     0.188 C 
HETATM   22  F1  UNL     1       4.460  -5.036   0.997  1.00  0.00    -0.219 F 
ENDBRANCH   2  20
TORSDOF 6
