REMARK  2 active torsions:
REMARK  status: ('A' for Active; 'I' for Inactive)
REMARK    1  A    between atoms: C3_3  and  C4_4 
REMARK    2  A    between atoms: C9_12  and  N4_13 
ROOT
HETATM    1  C4  UNL     1      -1.702  -1.521  -0.331  1.00  0.00     0.050 C 
HETATM    2  C5  UNL     1      -1.028  -0.437   0.410  1.00  0.00     0.130 C 
HETATM    3  N1  UNL     1       0.301  -0.104   0.023  1.00  0.00    -0.383 N 
HETATM    4  C6  UNL     1       0.886  -0.220  -1.276  1.00  0.00     0.128 A 
HETATM    5  C7  UNL     1       0.393  -0.862  -2.418  1.00  0.00     0.196 A 
HETATM    6  N2  UNL     1       1.127  -0.847  -3.564  1.00  0.00    -0.216 NA
HETATM    7  C8  UNL     1       2.320  -0.201  -3.546  1.00  0.00     0.238 A 
HETATM    8  N3  UNL     1       2.817   0.425  -2.457  1.00  0.00    -0.221 NA
HETATM    9  C9  UNL     1       2.110   0.430  -1.297  1.00  0.00     0.166 A 
HETATM   10  O1  UNL     1      -0.797  -1.559  -2.599  1.00  0.00    -0.332 OA
HETATM   11  C15 UNL     1      -1.933  -1.338  -1.778  1.00  0.00     0.187 C 
HETATM   12  H9  UNL     1       0.923   0.271   0.787  1.00  0.00     0.160 HD
ENDROOT
BRANCH   9  13
HETATM   13  N4  UNL     1       2.583   1.072  -0.121  1.00  0.00    -0.315 N 
HETATM   14  C10 UNL     1       3.390   0.417   0.867  1.00  0.00     0.094 A 
HETATM   15  C11 UNL     1       3.750   1.154   1.906  1.00  0.00    -0.004 A 
HETATM   16  C12 UNL     1       3.423   2.556   2.166  1.00  0.00     0.076 A 
HETATM   17  C13 UNL     1       2.581   3.119   1.065  1.00  0.00     0.008 A 
HETATM   18 BR1  UNL     1       2.105   4.952   1.322  1.00  0.00    -0.054 Br
HETATM   19  C14 UNL     1       2.195   2.423   0.006  1.00  0.00     0.113 A 
ENDBRANCH   9  13
BRANCH   1  20
HETATM   20  C3  UNL     1      -3.045  -1.760   0.278  1.00  0.00    -0.023 C 
HETATM   21  C2  UNL     1      -3.935  -1.314   1.160  1.00  0.00    -0.034 C 
HETATM   22  C1  UNL     1      -5.284  -1.734   1.630  1.00  0.00     0.036 C 
ENDBRANCH   1  20
TORSDOF 2
