REMARK  1 active torsions:
REMARK  status: ('A' for Active; 'I' for Inactive)
REMARK    1  A    between atoms: C9_11  and  N3_12 
ROOT
HETATM    1  C1  UNL     1      -5.258  -0.761   2.190  1.00  0.00     0.026 C 
HETATM    2  C2  UNL     1      -4.761  -0.795   0.972  1.00  0.00     0.018 C 
HETATM    3  C3  UNL     1      -4.993  -1.980   0.106  1.00  0.00     0.166 C 
HETATM    4  N1  UNL     1      -3.681  -2.503  -0.208  1.00  0.00    -0.381 N 
HETATM    5  C4  UNL     1      -2.661  -2.410   0.810  1.00  0.00     0.097 C 
HETATM    6  C5  UNL     1      -1.798  -2.606  -0.128  1.00  0.00     0.005 C 
HETATM    7  C6  UNL     1      -2.748  -3.143  -1.112  1.00  0.00     0.165 C 
HETATM    8  C7  UNL     1      -0.417  -2.471  -0.432  1.00  0.00     0.084 A 
HETATM    9  C8  UNL     1       0.101  -3.439  -1.288  1.00  0.00     0.151 A 
HETATM   10  N2  UNL     1       1.430  -3.329  -1.593  1.00  0.00    -0.239 NA
HETATM   11  C9  UNL     1       2.141  -2.306  -1.053  1.00  0.00     0.153 A 
HETATM   12  C10 UNL     1       1.627  -1.328  -0.190  1.00  0.00     0.148 A 
HETATM   13  N4  UNL     1       0.343  -1.466   0.081  1.00  0.00    -0.239 NA
HETATM   14  C11 UNL     1       2.648  -0.377   0.206  1.00  0.00     0.164 A 
HETATM   15  N5  UNL     1       3.596  -0.739   1.122  1.00  0.00    -0.226 NA
HETATM   16  C12 UNL     1       4.450   0.309   1.315  1.00  0.00     0.086 A 
HETATM   17  C13 UNL     1       5.561   0.478   2.110  1.00  0.00     0.034 A 
HETATM   18  C14 UNL     1       6.201   1.700   2.046  1.00  0.00     0.002 A 
HETATM   19  C15 UNL     1       5.742   2.725   1.211  1.00  0.00     0.002 A 
HETATM   20  C16 UNL     1       4.621   2.462   0.452  1.00  0.00     0.032 A 
HETATM   21  C17 UNL     1       3.949   1.274   0.476  1.00  0.00     0.065 A 
HETATM   22  N6  UNL     1       2.861   0.890  -0.206  1.00  0.00    -0.321 N 
HETATM   23  C18 UNL     1       1.925   1.387  -1.162  1.00  0.00     0.201 C 
HETATM   24  C19 UNL     1       1.263   2.636  -0.803  1.00  0.00     0.112 C 
HETATM   25  F1  UNL     1       1.783   3.859  -0.587  1.00  0.00    -0.209 F 
HETATM   26  C20 UNL     1      -0.077   2.686  -0.645  1.00  0.00     0.041 C 
HETATM   27  C21 UNL     1      -1.336   1.916  -0.683  1.00  0.00     0.027 C 
HETATM   28  C22 UNL     1      -2.670   1.993  -0.522  1.00  0.00     0.008 C 
HETATM   29  C23 UNL     1      -3.119   3.353  -0.170  1.00  0.00     0.068 C 
HETATM   30  N7  UNL     1      -3.267   0.718  -0.727  1.00  0.00    -0.327 N 
HETATM   31  C24 UNL     1      -3.964   0.302   0.435  1.00  0.00     0.252 C 
HETATM   32  O1  UNL     1      -3.695   1.335   1.099  1.00  0.00    -0.268 OA
HETATM   33  H22 UNL     1      -3.164   0.214  -1.638  1.00  0.00     0.169 HD
ENDROOT
BRANCH  11  34
HETATM   34  N3  UNL     1       3.514  -2.365  -1.495  1.00  0.00    -0.382 N 
HETATM   35  H9  UNL     1       3.874  -2.352  -2.479  1.00  0.00     0.157 HD
HETATM   36  H10 UNL     1       4.420  -2.433  -0.950  1.00  0.00     0.157 HD
ENDBRANCH  11  34
TORSDOF 1
