REMARK  5 active torsions:
REMARK  status: ('A' for Active; 'I' for Inactive)
REMARK    1  A    between atoms: C2_2  and  C3_3 
REMARK       I    between atoms: C3_3  and  N1_5 
REMARK    2  A    between atoms: N1_5  and  C4_6 
REMARK    3  A    between atoms: C8_10  and  N2_11 
REMARK    4  A    between atoms: N2_11  and  C9_12 
REMARK    5  A    between atoms: C14_17  and  N3_18 
ROOT
HETATM    1  C4  UNL     1       2.099   1.093  -0.343  1.00  0.00     0.037 A 
HETATM    2  C5  UNL     1       1.969   1.116  -1.717  1.00  0.00     0.029 A 
HETATM    3  C6  UNL     1       0.799   0.646  -2.308  1.00  0.00     0.004 A 
HETATM    4  C7  UNL     1      -0.235   0.156  -1.538  1.00  0.00     0.029 A 
HETATM    5  C8  UNL     1      -0.044   0.160  -0.173  1.00  0.00     0.034 A 
HETATM    6  C16 UNL     1       1.082   0.607   0.484  1.00  0.00     0.059 A 
ENDROOT
BRANCH   5   7
HETATM    7  N2  UNL     1      -1.084  -0.336   0.658  1.00  0.00    -0.354 N 
HETATM    8  H8  UNL     1      -1.042  -0.395   1.697  1.00  0.00     0.166 HD
BRANCH   7   9
HETATM    9  C9  UNL     1      -2.358  -0.847   0.391  1.00  0.00     0.061 A 
HETATM   10  C10 UNL     1      -2.792  -2.131   0.728  1.00  0.00     0.032 A 
HETATM   11  C11 UNL     1      -4.052  -2.620   0.459  1.00  0.00     0.002 A 
HETATM   12  C12 UNL     1      -4.958  -1.811  -0.181  1.00  0.00     0.002 A 
HETATM   13  C13 UNL     1      -4.591  -0.535  -0.539  1.00  0.00     0.034 A 
HETATM   14  C14 UNL     1      -3.320  -0.087  -0.250  1.00  0.00     0.082 A 
BRANCH  14  15
HETATM   15  N3  UNL     1      -3.066   1.247  -0.670  1.00  0.00    -0.270 NA
HETATM   16  C15 UNL     1      -3.244   2.259   0.132  1.00  0.00     0.149 C 
ENDBRANCH  14  15
ENDBRANCH   7   9
ENDBRANCH   5   7
BRANCH   1  17
HETATM   17  N1  UNL     1       3.285   1.568   0.273  1.00  0.00    -0.324 N 
HETATM   18  C3  UNL     1       4.233   0.508   0.421  1.00  0.00     0.244 C 
HETATM   19  O1  UNL     1       3.947  -0.653   0.020  1.00  0.00    -0.268 OA
HETATM   20  H4  UNL     1       3.613   2.492   0.635  1.00  0.00     0.169 HD
BRANCH  18  21
HETATM   21  C2  UNL     1       5.552   0.594   1.000  1.00  0.00     0.064 C 
HETATM   22  C1  UNL     1       5.818  -0.693   0.803  1.00  0.00     0.017 C 
ENDBRANCH  18  21
ENDBRANCH   1  17
TORSDOF 5
