REMARK  5 active torsions:
REMARK  status: ('A' for Active; 'I' for Inactive)
REMARK    1  A    between atoms: C2_2  and  C3_3 
REMARK       I    between atoms: C3_3  and  N1_5 
REMARK    2  A    between atoms: N1_5  and  C4_6 
REMARK    3  A    between atoms: C8_10  and  N2_11 
REMARK    4  A    between atoms: N2_11  and  C9_12 
REMARK    5  A    between atoms: C14_17  and  O2_18 
ROOT
HETATM    1  C4  UNL     1       2.801   0.348   0.432  1.00  0.00     0.037 A 
HETATM    2  C5  UNL     1       3.004   1.003   1.621  1.00  0.00     0.029 A 
HETATM    3  C6  UNL     1       1.972   1.275   2.478  1.00  0.00     0.004 A 
HETATM    4  C7  UNL     1       0.705   0.879   2.131  1.00  0.00     0.029 A 
HETATM    5  C8  UNL     1       0.410   0.218   0.958  1.00  0.00     0.034 A 
HETATM    6  C16 UNL     1       1.518  -0.017   0.148  1.00  0.00     0.059 A 
ENDROOT
BRANCH   5   7
HETATM    7  N2  UNL     1      -0.882  -0.185   0.545  1.00  0.00    -0.354 N 
HETATM    8  H8  UNL     1      -0.818  -1.126   0.051  1.00  0.00     0.166 HD
BRANCH   7   9
HETATM    9  C9  UNL     1      -2.166   0.394   0.664  1.00  0.00     0.066 A 
HETATM   10  C10 UNL     1      -2.468   1.602   1.218  1.00  0.00     0.032 A 
HETATM   11  C11 UNL     1      -3.728   2.145   1.340  1.00  0.00     0.002 A 
HETATM   12  C12 UNL     1      -4.789   1.408   0.861  1.00  0.00     0.003 A 
HETATM   13  C13 UNL     1      -4.526   0.182   0.293  1.00  0.00     0.039 A 
HETATM   14  C14 UNL     1      -3.249  -0.319   0.194  1.00  0.00     0.094 A 
BRANCH  14  15
HETATM   15  O2  UNL     1      -3.101  -1.547  -0.387  1.00  0.00    -0.354 OA
HETATM   16  C15 UNL     1      -4.175  -2.322  -0.887  1.00  0.00     0.210 C 
ENDBRANCH  14  15
ENDBRANCH   7   9
ENDBRANCH   5   7
BRANCH   1  17
HETATM   17  N1  UNL     1       3.939   0.119  -0.377  1.00  0.00    -0.324 N 
HETATM   18  C3  UNL     1       4.036  -0.511  -1.642  1.00  0.00     0.244 C 
HETATM   19  O1  UNL     1       3.016  -0.953  -2.188  1.00  0.00    -0.268 OA
HETATM   20  H4  UNL     1       4.891   0.433  -0.064  1.00  0.00     0.169 HD
BRANCH  18  21
HETATM   21  C2  UNL     1       5.260  -0.702  -2.402  1.00  0.00     0.064 C 
HETATM   22  C1  UNL     1       4.866  -1.330  -3.513  1.00  0.00     0.017 C 
ENDBRANCH  18  21
ENDBRANCH   1  17
TORSDOF 5
