REMARK  5 active torsions:
REMARK  status: ('A' for Active; 'I' for Inactive)
REMARK    1  A    between atoms: C10_15  and  N6_16 
REMARK    2  A    between atoms: C11_17  and  C12_18 
REMARK    3  A    between atoms: C12_18  and  N7_19 
REMARK    4  A    between atoms: N7_19  and  C14_21 
REMARK    5  A    between atoms: C19_26  and  N8_27 
ROOT
HETATM    1  C1  UNL     1      -3.202  -1.639  -2.216  1.00  0.00     0.173 C 
HETATM    2  N1  UNL     1      -1.903  -1.921  -1.574  1.00  0.00    -0.306 N 
HETATM    3  C2  UNL     1      -1.884  -2.559  -0.279  1.00  0.00     0.186 C 
HETATM    4  C3  UNL     1      -2.455  -1.952   0.909  1.00  0.00     0.235 C 
HETATM    5  C4  UNL     1      -3.931  -1.873   0.790  1.00  0.00     0.088 C 
HETATM    6  N2  UNL     1      -5.094  -1.815   0.717  1.00  0.00    -0.195 NA
HETATM    7  N3  UNL     1      -1.970  -0.661   1.330  1.00  0.00    -0.260 N 
HETATM    8  C5  UNL     1      -2.710   0.291   0.681  1.00  0.00     0.127 A 
HETATM    9  C6  UNL     1      -2.299   1.602   1.026  1.00  0.00     0.002 A 
HETATM   10  C7  UNL     1      -1.279   1.331   1.916  1.00  0.00     0.151 A 
HETATM   11  N4  UNL     1      -1.088  -0.015   2.092  1.00  0.00    -0.183 NA
HETATM   12  C8  UNL     1      -3.116   2.596   0.286  1.00  0.00     0.033 C 
HETATM   13  C9  UNL     1      -2.553   2.438  -0.935  1.00  0.00     0.120 C 
HETATM   14  N5  UNL     1      -1.558   1.464  -0.775  1.00  0.00    -0.243 NA
HETATM   15  C10 UNL     1      -0.961   0.744  -1.625  1.00  0.00     0.131 C 
HETATM   16  C11 UNL     1       0.189  -0.059  -1.260  1.00  0.00     0.038 C 
HETATM   17  C20 UNL     1       0.278  -1.360  -1.335  1.00  0.00     0.119 C 
HETATM   18  N9  UNL     1      -0.649  -1.757  -2.183  1.00  0.00    -0.175 NA
ENDROOT
BRANCH  16  19
HETATM   19  C12 UNL     1       1.212   0.891  -0.847  1.00  0.00     0.167 C 
BRANCH  19  20
HETATM   20  N7  UNL     1       2.464   0.256  -0.465  1.00  0.00    -0.379 N 
HETATM   21  C13 UNL     1       3.258  -0.397  -1.485  1.00  0.00     0.150 C 
BRANCH  20  22
HETATM   22  C14 UNL     1       3.032   0.187   0.835  1.00  0.00     0.056 A 
HETATM   23  C15 UNL     1       3.251  -1.074   1.353  1.00  0.00     0.031 A 
HETATM   24  C16 UNL     1       3.805  -1.159   2.616  1.00  0.00     0.002 A 
HETATM   25  C17 UNL     1       4.139  -0.051   3.361  1.00  0.00     0.002 A 
HETATM   26  C18 UNL     1       3.916   1.217   2.833  1.00  0.00     0.031 A 
HETATM   27  C19 UNL     1       3.359   1.301   1.562  1.00  0.00     0.052 A 
BRANCH  27  28
HETATM   28  N8  UNL     1       3.138   2.601   1.040  1.00  0.00    -0.397 N 
HETATM   29  H22 UNL     1       2.504   3.421   1.173  1.00  0.00     0.156 HD
HETATM   30  H23 UNL     1       3.688   3.032   0.284  1.00  0.00     0.156 HD
ENDBRANCH  27  28
ENDBRANCH  20  22
ENDBRANCH  19  20
ENDBRANCH  16  19
BRANCH  15  31
HETATM   31  N6  UNL     1      -0.913   0.487  -3.017  1.00  0.00    -0.383 N 
HETATM   32  H11 UNL     1      -0.263   0.832  -3.744  1.00  0.00     0.157 HD
HETATM   33  H12 UNL     1      -1.396  -0.039  -3.770  1.00  0.00     0.157 HD
ENDBRANCH  15  31
TORSDOF 5
