REMARK  6 active torsions:
REMARK  status: ('A' for Active; 'I' for Inactive)
REMARK    1  A    between atoms: C3_4  and  C4_5 
REMARK    2  A    between atoms: C4_5  and  N2_6 
REMARK    3  A    between atoms: C7_9  and  C8_10 
REMARK    4  A    between atoms: C15_20  and  N5_21 
REMARK    5  A    between atoms: N5_21  and  N6_22 
REMARK    6  A    between atoms: N6_22  and  C16_23 
ROOT
HETATM    1  N2  UNL     1      -0.724  -0.746  -1.145  1.00  0.00    -0.285 NA
HETATM    2  C5  UNL     1       0.298  -0.183  -0.672  1.00  0.00     0.079 C 
HETATM    3  C6  UNL     1       1.306  -0.029  -1.774  1.00  0.00     0.074 C 
HETATM    4  C7  UNL     1       2.486  -0.990  -1.654  1.00  0.00     0.047 C 
HETATM    5  C9  UNL     1       3.526  -0.466  -2.689  1.00  0.00    -0.023 C 
HETATM    6  C10 UNL     1       4.197   0.493  -2.058  1.00  0.00    -0.024 C 
HETATM    7  C11 UNL     1       4.077   1.098  -0.685  1.00  0.00     0.046 C 
HETATM    8  C12 UNL     1       4.835   2.058  -0.101  1.00  0.00     0.001 C 
HETATM    9  C13 UNL     1       4.276   2.335   1.267  1.00  0.00     0.151 C 
HETATM   10  N3  UNL     1       3.040   1.704   1.399  1.00  0.00    -0.283 NA
HETATM   11  C14 UNL     1       2.134   1.410   2.136  1.00  0.00     0.229 C 
HETATM   12  N4  UNL     1       1.740   0.876   0.909  1.00  0.00    -0.220 NA
HETATM   13  C15 UNL     1       0.624   0.356   0.651  1.00  0.00     0.197 C 
ENDROOT
BRANCH   1  14
HETATM   14  C4  UNL     1      -0.960  -1.196  -2.476  1.00  0.00     0.190 C 
BRANCH  14  15
HETATM   15  C3  UNL     1      -2.287  -1.918  -2.531  1.00  0.00    -0.002 A 
HETATM   16  C2  UNL     1      -2.334  -3.206  -2.009  1.00  0.00     0.122 A 
HETATM   17  N1  UNL     1      -3.632  -3.560  -2.256  1.00  0.00    -0.285 N 
HETATM   18  C1  UNL     1      -4.223  -4.840  -1.886  1.00  0.00     0.179 C 
HETATM   19  N7  UNL     1      -4.230  -2.594  -2.837  1.00  0.00    -0.185 NA
HETATM   20  C22 UNL     1      -3.531  -1.521  -3.074  1.00  0.00     0.149 A 
ENDBRANCH  14  15
ENDBRANCH   1  14
BRANCH  13  21
HETATM   21  N5  UNL     1      -0.498   0.282   1.582  1.00  0.00    -0.127 NA
BRANCH  21  22
HETATM   22  N6  UNL     1      -0.783   1.463   2.012  1.00  0.00    -0.148 NA
BRANCH  22  23
HETATM   23  C16 UNL     1      -1.798   1.760   2.917  1.00  0.00     0.079 A 
HETATM   24  C17 UNL     1      -2.623   2.750   2.439  1.00  0.00     0.033 A 
HETATM   25  C18 UNL     1      -3.714   3.262   3.143  1.00  0.00     0.002 A 
HETATM   26  C19 UNL     1      -4.004   2.756   4.402  1.00  0.00     0.000 A 
HETATM   27  C20 UNL     1      -3.173   1.744   4.912  1.00  0.00     0.002 A 
HETATM   28  C21 UNL     1      -2.105   1.282   4.157  1.00  0.00     0.033 A 
ENDBRANCH  22  23
ENDBRANCH  21  22
ENDBRANCH  13  21
BRANCH   4  29
HETATM   29  C8  UNL     1       3.062  -0.755  -0.339  1.00  0.00     0.399 C 
HETATM   30  O1  UNL     1       3.391  -1.556   0.648  1.00  0.00    -0.429 OA
ENDBRANCH   4  29
TORSDOF 6
