REMARK  0 active torsions:
REMARK  status: ('A' for Active; 'I' for Inactive)
ROOT
HETATM    1  C1  UNL     1      -4.424   2.528  -0.089  1.00  0.00     0.041 C 
HETATM    2  C2  UNL     1      -3.546   1.412  -0.446  1.00  0.00     0.164 A 
HETATM    3  N1  UNL     1      -2.670   0.148  -0.461  1.00  0.00    -0.227 NA
HETATM    4  C3  UNL     1      -1.661   1.129  -0.190  1.00  0.00     0.121 C 
HETATM    5  C4  UNL     1      -0.319   0.455   0.228  1.00  0.00     0.058 C 
HETATM    6  C5  UNL     1       0.601   1.723   0.007  1.00  0.00     0.091 C 
HETATM    7  N2  UNL     1       1.793   1.581   0.308  1.00  0.00    -0.302 NA
HETATM    8  C6  UNL     1       2.843   2.538   0.202  1.00  0.00     0.175 C 
HETATM    9  C7  UNL     1       4.135   1.792   0.048  1.00  0.00    -0.005 C 
HETATM   10  C8  UNL     1       4.466   0.481  -0.037  1.00  0.00    -0.003 C 
HETATM   11  C9  UNL     1       3.636  -0.756  -0.037  1.00  0.00    -0.003 C 
HETATM   12  C10 UNL     1       3.418  -2.106  -0.050  1.00  0.00    -0.007 C 
HETATM   13  C11 UNL     1       2.018  -2.613  -0.048  1.00  0.00     0.149 C 
HETATM   14  N3  UNL     1       1.038  -1.601  -0.362  1.00  0.00    -0.389 N 
HETATM   15  C12 UNL     1      -0.045  -2.232   0.440  1.00  0.00     0.089 C 
HETATM   16  C13 UNL     1      -0.957  -2.862   1.224  1.00  0.00     0.085 C 
HETATM   17  C14 UNL     1      -2.231  -2.229   0.649  1.00  0.00     0.020 C 
HETATM   18  C15 UNL     1      -3.323  -1.714   0.169  1.00  0.00    -0.152 C 
HETATM   19  C16 UNL     1      -4.636  -1.090  -0.405  1.00  0.00     0.172 C 
HETATM   20  N4  UNL     1      -4.111   0.049  -0.797  1.00  0.00    -0.211 NA
HETATM   21  C17 UNL     1       0.057  -0.629  -0.644  1.00  0.00     0.133 C 
ENDROOT
TORSDOF 0
