REMARK  1 active torsions:
REMARK  status: ('A' for Active; 'I' for Inactive)
REMARK    1  A    between atoms: C3_3  and  C4_4 
REMARK       I    between atoms: C7_8  and  N2_9 
ROOT
HETATM    1  C4  UNL     1      -2.829  -0.198  -0.325  1.00  0.00     0.009 C 
HETATM    2  C5  UNL     1      -1.559   0.094  -0.634  1.00  0.00    -0.030 C 
HETATM    3  C6  UNL     1      -0.993   1.428  -0.951  1.00  0.00     0.177 C 
HETATM    4  N1  UNL     1       0.106   1.866  -0.133  1.00  0.00    -0.220 N 
HETATM    5  C7  UNL     1       1.518   1.581   0.056  1.00  0.00     0.697 C 
HETATM    6  N2  UNL     1       2.362   2.726  -0.208  1.00  0.00    -0.229 N 
HETATM    7  C8  UNL     1       3.731   2.954   0.269  1.00  0.00     0.165 C 
HETATM    8  N3  UNL     1       2.081   0.576   0.382  1.00  0.00    -0.059 NA
HETATM    9  C9  UNL     1       3.249  -0.019   0.637  1.00  0.00     0.248 C 
HETATM   10  N4  UNL     1       3.766  -1.118   0.926  1.00  0.00    -0.256 NA
HETATM   11  C10 UNL     1       3.319  -2.428   1.155  1.00  0.00     0.325 C 
HETATM   12  O1  UNL     1       2.453  -2.965   0.110  1.00  0.00    -0.330 OA
HETATM   13  C11 UNL     1       1.284  -2.187  -0.122  1.00  0.00     0.071 A 
HETATM   14  C12 UNL     1       1.299  -1.800  -1.427  1.00  0.00     0.037 A 
HETATM   15  C13 UNL     1       0.252  -0.999  -1.811  1.00  0.00     0.014 A 
HETATM   16  C14 UNL     1      -0.475  -0.868  -0.670  1.00  0.00    -0.028 A 
HETATM   17  C15 UNL     1      -0.466  -1.277   0.634  1.00  0.00     0.014 A 
HETATM   18  C16 UNL     1       0.574  -2.082   1.040  1.00  0.00     0.037 A 
HETATM   19  H9  UNL     1      -0.185   2.619   0.564  1.00  0.00     0.178 HD
HETATM   20  H10 UNL     1       1.995   3.517  -0.811  1.00  0.00     0.177 HD
ENDROOT
BRANCH   1  21
HETATM   21  C3  UNL     1      -3.908   0.741  -0.238  1.00  0.00    -0.004 C 
HETATM   22  C2  UNL     1      -5.140   0.396   0.076  1.00  0.00    -0.031 C 
HETATM   23  C1  UNL     1      -5.578  -0.990   0.382  1.00  0.00     0.036 C 
ENDBRANCH   1  21
TORSDOF 1
