REMARK  2 active torsions:
REMARK  status: ('A' for Active; 'I' for Inactive)
REMARK       I    between atoms: C2_2  and  N1_4 
REMARK    1  A    between atoms: N1_4  and  C3_5 
REMARK    2  A    between atoms: N5_21  and  C16_22 
ROOT
HETATM    1  C3  UNL     1       2.019  -0.330  -0.931  1.00  0.00     0.012 C 
HETATM    2  C4  UNL     1       1.938  -1.589  -0.379  1.00  0.00     0.004 C 
HETATM    3  C5  UNL     1       0.738  -2.040   0.380  1.00  0.00     0.024 C 
HETATM    4  C6  UNL     1      -0.033  -2.893   1.101  1.00  0.00     0.018 C 
HETATM    5  C7  UNL     1      -1.368  -2.459   1.564  1.00  0.00     0.125 C 
HETATM    6  N2  UNL     1      -1.688  -1.223   1.198  1.00  0.00    -0.381 N 
HETATM    7  C8  UNL     1      -2.663  -1.001   0.148  1.00  0.00     0.122 C 
HETATM    8  C9  UNL     1      -3.613   0.185   0.034  1.00  0.00     0.054 C 
HETATM    9  C10 UNL     1      -3.112   1.197   0.984  1.00  0.00     0.075 C 
HETATM   10  C11 UNL     1      -3.459   2.395   1.471  1.00  0.00     0.043 C 
HETATM   11  N3  UNL     1      -2.743   0.092   2.055  1.00  0.00    -0.280 NA
HETATM   12  C12 UNL     1      -1.713   0.060   1.166  1.00  0.00     0.203 A 
HETATM   13  C13 UNL     1      -1.437   1.381   0.389  1.00  0.00     0.268 A 
HETATM   14  N4  UNL     1      -0.249   1.357  -0.370  1.00  0.00     0.066 N 
HETATM   15  C14 UNL     1      -0.265   0.181   0.126  1.00  0.00     0.290 A 
HETATM   16  C15 UNL     1       0.218   1.393  -0.659  1.00  0.00     0.277 A 
HETATM   17  N5  UNL     1      -0.369   2.739  -0.832  1.00  0.00    -0.080 NA
HETATM   18  C16 UNL     1      -1.564   2.588  -0.024  1.00  0.00     0.141 A 
HETATM   19  N6  UNL     1      -1.448   1.220   0.464  1.00  0.00     0.000 N 
HETATM   20  C17 UNL     1       1.580   1.046  -1.286  1.00  0.00     0.119 C 
ENDROOT
BRANCH   1  21
HETATM   21  N1  UNL     1       3.368  -0.417  -1.531  1.00  0.00    -0.331 N 
HETATM   22  C2  UNL     1       4.232   0.341  -0.656  1.00  0.00     0.217 C 
HETATM   23  C1  UNL     1       5.719   0.419  -0.985  1.00  0.00     0.117 C 
HETATM   24  O1  UNL     1       3.970   0.994   0.425  1.00  0.00    -0.274 OA
HETATM   25  H4  UNL     1       3.863  -0.827  -2.343  1.00  0.00     0.168 HD
ENDBRANCH   1  21
TORSDOF 2
