REMARK  6 active torsions:
REMARK  status: ('A' for Active; 'I' for Inactive)
REMARK    1  A    between atoms: C2_2  and  C3_3 
REMARK       I    between atoms: C3_3  and  N1_5 
REMARK    2  A    between atoms: N1_5  and  C4_6 
REMARK    3  A    between atoms: C5_7  and  C6_8 
REMARK    4  A    between atoms: C7_9  and  C8_10 
REMARK    5  A    between atoms: C8_10  and  N2_12 
REMARK    6  A    between atoms: C16_19  and  N3_20 
ROOT
HETATM    1  C8  UNL     1      -0.948   1.296   1.608  1.00  0.00     0.027 C 
HETATM    2  C9  UNL     1      -1.673   2.060   2.410  1.00  0.00     0.043 C 
ENDROOT
BRANCH   1   3
HETATM    3  C7  UNL     1       0.415   1.658   1.267  1.00  0.00     0.029 C 
HETATM    4  C6  UNL     1       1.241   1.003   0.493  1.00  0.00     0.003 C 
BRANCH   4   5
HETATM    5  C5  UNL     1       1.239  -0.218  -0.296  1.00  0.00     0.017 C 
HETATM    6  C4  UNL     1       2.154  -0.822  -1.074  1.00  0.00     0.091 C 
BRANCH   6   7
HETATM    7  N1  UNL     1       3.415  -0.179  -1.191  1.00  0.00    -0.334 N 
HETATM    8  C3  UNL     1       4.719  -0.672  -0.838  1.00  0.00     0.244 C 
HETATM    9  O1  UNL     1       4.925  -1.811  -0.348  1.00  0.00    -0.268 OA
HETATM   10  H4  UNL     1       3.279   0.777  -1.598  1.00  0.00     0.168 HD
BRANCH   8  11
HETATM   11  C2  UNL     1       5.813   0.257  -1.091  1.00  0.00     0.064 C 
HETATM   12  C1  UNL     1       5.741   1.478  -1.598  1.00  0.00     0.017 C 
ENDBRANCH   8  11
ENDBRANCH   6   7
ENDBRANCH   4   5
ENDBRANCH   1   3
BRANCH   1  13
HETATM   13  N2  UNL     1      -1.698   0.164   1.192  1.00  0.00    -0.313 N 
HETATM   14  C10 UNL     1      -2.541   0.115   0.021  1.00  0.00     0.047 A 
HETATM   15  C11 UNL     1      -3.147   0.601  -1.119  1.00  0.00     0.030 A 
HETATM   16  C15 UNL     1      -2.846  -1.207   0.344  1.00  0.00     0.021 A 
HETATM   17  C12 UNL     1      -3.998  -0.157  -1.897  1.00  0.00     0.002 A 
HETATM   18  C13 UNL     1      -4.284  -1.463  -1.556  1.00  0.00     0.001 A 
HETATM   19  C14 UNL     1      -3.699  -1.989  -0.422  1.00  0.00     0.013 A 
HETATM   20  C16 UNL     1      -2.005  -1.229   1.557  1.00  0.00     0.360 A 
BRANCH  20  21
HETATM   21  N3  UNL     1      -2.762  -1.378   2.768  1.00  0.00     0.106 N 
HETATM   22  H16 UNL     1      -2.173  -1.715   3.555  1.00  0.00     0.316 HD
HETATM   23  H17 UNL     1      -3.634  -1.925   2.612  1.00  0.00     0.316 HD
ENDBRANCH  20  21
ENDBRANCH   1  13
TORSDOF 6
