REMARK  7 active torsions:
REMARK  status: ('A' for Active; 'I' for Inactive)
REMARK    1  A    between atoms: N1_1  and  C1_2 
REMARK    2  A    between atoms: C2_3  and  N2_4 
REMARK    3  A    between atoms: N4_9  and  C6_10 
REMARK    4  A    between atoms: C6_10  and  C7_11 
REMARK    5  A    between atoms: C7_11  and  O1_12 
REMARK    6  A    between atoms: C12_19  and  C13_20 
REMARK    7  A    between atoms: C14_21  and  N6_22 
ROOT
HETATM    1  C1  UNL     1      -0.671  -2.181   1.135  1.00  0.00     0.135 C 
HETATM    2  C2  UNL     1       0.699  -1.836   0.890  1.00  0.00     0.133 C 
HETATM    3  N3  UNL     1       1.933  -1.576   0.888  1.00  0.00    -0.231 NA
HETATM    4  C3  UNL     1       2.807  -1.647   1.974  1.00  0.00     0.101 A 
HETATM    5  C4  UNL     1       3.708  -1.630   2.958  1.00  0.00     0.041 A 
HETATM    6  C5  UNL     1       3.942  -0.774   1.958  1.00  0.00     0.096 A 
HETATM    7  N4  UNL     1       4.302   0.196   0.944  1.00  0.00    -0.265 N 
HETATM    8  N5  UNL     1       3.154   0.741   0.412  1.00  0.00    -0.185 NA
HETATM    9  C8  UNL     1       3.047   1.044  -0.822  1.00  0.00     0.137 C 
HETATM   10  C9  UNL     1       1.938   1.618  -1.572  1.00  0.00     0.029 C 
HETATM   11  C10 UNL     1       0.707   2.090  -1.600  1.00  0.00     0.186 A 
HETATM   12  C11 UNL     1      -0.180   2.183  -0.405  1.00  0.00     0.136 A 
HETATM   13  O2  UNL     1       0.981   1.752  -0.231  1.00  0.00    -0.361 OA
HETATM   14  C12 UNL     1      -1.030   2.268   0.763  1.00  0.00     0.074 C 
HETATM   15  C15 UNL     1      -1.804   1.027   1.005  1.00  0.00     0.003 C 
HETATM   16  C16 UNL     1      -2.010   0.052   0.153  1.00  0.00     0.096 C 
HETATM   17  N7  UNL     1      -2.607  -1.204  -0.077  1.00  0.00    -0.303 N 
HETATM   18  C17 UNL     1      -1.907  -2.200   0.440  1.00  0.00     0.167 A 
HETATM   19  N8  UNL     1      -2.563  -3.327   0.190  1.00  0.00    -0.226 NA
HETATM   20  C18 UNL     1      -3.705  -3.022  -0.503  1.00  0.00     0.086 A 
HETATM   21  C19 UNL     1      -4.778  -3.657  -1.053  1.00  0.00     0.034 A 
HETATM   22  C20 UNL     1      -5.780  -2.944  -1.718  1.00  0.00     0.002 A 
HETATM   23  C21 UNL     1      -5.695  -1.549  -1.829  1.00  0.00     0.002 A 
HETATM   24  C22 UNL     1      -4.623  -0.835  -1.288  1.00  0.00     0.032 A 
HETATM   25  C23 UNL     1      -3.717  -1.656  -0.666  1.00  0.00     0.069 A 
ENDROOT
BRANCH  14  26
HETATM   26  C13 UNL     1      -1.815   3.517   0.902  1.00  0.00     0.001 C 
HETATM   27  C14 UNL     1      -2.162   4.562   0.150  1.00  0.00     0.077 C 
BRANCH  27  28
HETATM   28  N6  UNL     1      -2.936   5.734   0.385  1.00  0.00    -0.408 N 
HETATM   29  H15 UNL     1      -2.349   6.486   0.829  1.00  0.00     0.155 HD
HETATM   30  H16 UNL     1      -3.930   5.679   0.094  1.00  0.00     0.155 HD
ENDBRANCH  27  28
ENDBRANCH  14  26
BRANCH   1  31
HETATM   31  N1  UNL     1      -0.394  -2.501   2.332  1.00  0.00    -0.294 NA
HETATM   32  H1  UNL     1      -1.026  -2.849   3.048  1.00  0.00     0.187 HD
ENDBRANCH   1  31
BRANCH   7  33
HETATM   33  C6  UNL     1       5.738   0.348   0.744  1.00  0.00     0.177 C 
BRANCH  33  34
HETATM   34  C7  UNL     1       6.346  -0.903   0.136  1.00  0.00     0.185 C 
BRANCH  34  35
HETATM   35  O1  UNL     1       6.145  -2.007   0.964  1.00  0.00    -0.399 OA
HETATM   36  H8  UNL     1       6.939  -2.585   1.058  1.00  0.00     0.209 HD
ENDBRANCH  34  35
ENDBRANCH  33  34
ENDBRANCH   7  33
BRANCH   2  37
HETATM   37  N2  UNL     1       0.577  -1.464  -0.470  1.00  0.00    -0.285 NA
HETATM   38  H2  UNL     1       0.816  -1.931  -1.390  1.00  0.00     0.125 HD
HETATM   39  H3  UNL     1       0.813  -1.924  -1.393  1.00  0.00     0.125 HD
ENDBRANCH   2  37
TORSDOF 7
