REMARK  3 active torsions:
REMARK  status: ('A' for Active; 'I' for Inactive)
REMARK    1  A    between atoms: P1_1  and  N1_2 
REMARK    2  A    between atoms: C6_11  and  N5_12 
REMARK    3  A    between atoms: N5_12  and  C7_13 
ROOT
HETATM    1  N1  UNL     1       4.406   0.025  -0.099  1.00  0.00    -0.284 N 
HETATM    2  C1  UNL     1       3.108  -0.300   0.418  1.00  0.00     0.186 C 
HETATM    3  C2  UNL     1       1.990   0.574  -0.031  1.00  0.00     0.087 A 
HETATM    4  C3  UNL     1       2.387   1.935  -0.502  1.00  0.00     0.087 C 
HETATM    5  C4  UNL     1       3.800   2.119  -0.803  1.00  0.00     0.114 C 
HETATM    6  N2  UNL     1       4.765   1.267  -0.634  1.00  0.00    -0.190 NA
HETATM    7  N3  UNL     1       1.114   0.762   1.109  1.00  0.00    -0.368 N 
HETATM    8  C5  UNL     1      -0.214   0.473   1.461  1.00  0.00     0.206 A 
HETATM    9  N4  UNL     1      -0.960  -0.123   0.618  1.00  0.00    -0.226 NA
HETATM   10  C6  UNL     1      -0.678  -0.569  -0.668  1.00  0.00     0.139 A 
HETATM   11  P2  UNL     1       0.857  -0.309  -1.252  1.00  0.00     0.026 P 
HETATM   12  H8  UNL     1       1.681   1.236   1.815  1.00  0.00     0.161 HD
ENDROOT
BRANCH  10  13
HETATM   13  N5  UNL     1      -1.781  -1.225  -1.349  1.00  0.00    -0.340 N 
HETATM   14  H10 UNL     1      -1.509  -1.963  -2.053  1.00  0.00     0.167 HD
BRANCH  13  15
HETATM   15  C7  UNL     1      -3.120  -0.803  -0.992  1.00  0.00     0.035 A 
HETATM   16  C8  UNL     1      -4.139  -0.121  -1.622  1.00  0.00     0.029 A 
HETATM   17  C9  UNL     1      -5.289   0.123  -0.909  1.00  0.00     0.004 A 
HETATM   18  C10 UNL     1      -5.449  -0.284   0.384  1.00  0.00     0.019 A 
HETATM   19  C11 UNL     1      -4.450  -0.970   1.047  1.00  0.00     0.013 A 
HETATM   20 BR1  UNL     1      -4.766  -1.493   2.868  1.00  0.00    -0.051 Br
HETATM   21  C12 UNL     1      -3.276  -1.226   0.332  1.00  0.00     0.048 A 
ENDBRANCH  13  15
ENDBRANCH  10  13
BRANCH   1  22
HETATM   22  P1  UNL     1       5.744  -1.188  -0.094  1.00  0.00    -0.017 P 
HETATM   23  H1  UNL     1       5.869  -1.648  -1.478  1.00  0.00     0.079 HD
HETATM   24  H2  UNL     1       5.372  -2.359   0.696  1.00  0.00     0.079 HD
ENDBRANCH   1  22
TORSDOF 3
