REMARK  2 active torsions:
REMARK  status: ('A' for Active; 'I' for Inactive)
REMARK    1  A    between atoms: C3_3  and  C4_4 
REMARK       I    between atoms: C4_4  and  N1_6 
REMARK    2  A    between atoms: N1_6  and  C5_7 
ROOT
HETATM    1  C5  UNL     1      -0.956  -1.219  -0.409  1.00  0.00     0.139 A 
HETATM    2  N2  UNL     1      -0.976  -2.486   0.003  1.00  0.00    -0.240 NA
HETATM    3  C6  UNL     1       0.095  -3.158   0.375  1.00  0.00     0.151 A 
HETATM    4  C7  UNL     1       1.288  -2.470   0.318  1.00  0.00     0.090 A 
HETATM    5  N3  UNL     1       2.324  -3.227   0.722  1.00  0.00    -0.240 NA
HETATM    6  C8  UNL     1       3.567  -2.731   0.746  1.00  0.00     0.236 A 
HETATM    7  N4  UNL     1       3.672  -1.433   0.337  1.00  0.00    -0.224 NA
HETATM    8  C9  UNL     1       2.632  -0.685  -0.065  1.00  0.00     0.142 A 
HETATM    9  C10 UNL     1       1.354  -1.163  -0.102  1.00  0.00     0.052 A 
HETATM   10  C11 UNL     1       0.225  -0.506  -0.478  1.00  0.00     0.022 A 
HETATM   11  C12 UNL     1       0.110   0.885  -0.979  1.00  0.00     0.118 C 
HETATM   12 BR1  UNL     1       1.433   1.313  -2.340  1.00  0.00    -0.082 Br
HETATM   13  C13 UNL     1       0.002   1.895   0.069  1.00  0.00    -0.006 C 
HETATM   14  C14 UNL     1       0.854   2.431   0.907  1.00  0.00    -0.001 C 
HETATM   15  C15 UNL     1       2.280   2.232   1.138  1.00  0.00     0.024 C 
HETATM   16  C16 UNL     1       3.315   1.519   0.704  1.00  0.00     0.007 C 
HETATM   17  C17 UNL     1       4.744   1.564   1.194  1.00  0.00     0.068 C 
HETATM   18  N5  UNL     1       3.420   0.501  -0.316  1.00  0.00    -0.344 N 
HETATM   19  H16 UNL     1       4.048   0.617  -1.167  1.00  0.00     0.167 HD
ENDROOT
BRANCH   1  20
HETATM   20  N1  UNL     1      -2.245  -0.714  -0.741  1.00  0.00    -0.308 N 
HETATM   21  C4  UNL     1      -3.450  -1.504  -0.671  1.00  0.00     0.246 C 
HETATM   22  O1  UNL     1      -3.244  -2.714  -0.279  1.00  0.00    -0.268 OA
HETATM   23  H6  UNL     1      -2.526   0.232  -1.057  1.00  0.00     0.170 HD
BRANCH  21  24
HETATM   24  C3  UNL     1      -4.779  -1.017  -1.004  1.00  0.00     0.070 C 
HETATM   25  C2  UNL     1      -5.417   0.088  -1.425  1.00  0.00    -0.026 C 
HETATM   26  C1  UNL     1      -5.219   1.499  -1.823  1.00  0.00     0.036 C 
ENDBRANCH  21  24
ENDBRANCH   1  20
TORSDOF 2
