REMARK  4 active torsions:
REMARK  status: ('A' for Active; 'I' for Inactive)
REMARK    1  A    between atoms: C3_3  and  C4_4 
REMARK    2  A    between atoms: C4_4  and  C5_6 
REMARK    3  A    between atoms: C7_8  and  N1_9 
REMARK    4  A    between atoms: N1_9  and  C8_10 
ROOT
HETATM    1  C5  UNL     1      -1.824  -0.601   0.235  1.00  0.00     0.107 C 
HETATM    2  C6  UNL     1      -0.889   0.152  -0.288  1.00  0.00     0.072 C 
HETATM    3  C7  UNL     1       0.562   0.205  -0.707  1.00  0.00     0.211 A 
HETATM    4  N2  UNL     1       0.757   0.261  -2.074  1.00  0.00    -0.226 NA
HETATM    5  C14 UNL     1       0.870  -0.961  -1.574  1.00  0.00     0.179 A 
HETATM    6  N3  UNL     1       1.033  -2.352  -1.233  1.00  0.00    -0.240 NA
HETATM    7  C15 UNL     1       0.324  -3.098  -0.422  1.00  0.00     0.138 C 
HETATM    8  C16 UNL     1      -0.853  -2.958   0.462  1.00  0.00     0.136 C 
HETATM    9  N4  UNL     1      -1.638  -1.945   0.659  1.00  0.00    -0.256 NA
ENDROOT
BRANCH   3  10
HETATM   10  N1  UNL     1       1.534   0.459   0.310  1.00  0.00    -0.352 N 
HETATM   11  H7  UNL     1       1.147   0.603   1.292  1.00  0.00     0.163 HD
BRANCH  10  12
HETATM   12  C8  UNL     1       2.929   0.542   0.186  1.00  0.00     0.031 A 
HETATM   13  C9  UNL     1       3.629   0.383  -0.991  1.00  0.00     0.029 A 
HETATM   14  C10 UNL     1       4.995   0.460  -1.143  1.00  0.00     0.004 A 
HETATM   15  C11 UNL     1       5.727   0.722  -0.004  1.00  0.00     0.019 A 
HETATM   16  C12 UNL     1       5.111   0.893   1.202  1.00  0.00     0.013 A 
HETATM   17 BR1  UNL     1       6.111   1.254   2.774  1.00  0.00    -0.051 Br
HETATM   18  C13 UNL     1       3.739   0.800   1.271  1.00  0.00     0.048 A 
ENDBRANCH  10  12
ENDBRANCH   3  10
BRANCH   1  19
HETATM   19  C4  UNL     1      -3.171  -0.099   0.428  1.00  0.00     0.200 C 
HETATM   20  O1  UNL     1      -3.996  -0.881   0.933  1.00  0.00    -0.286 OA
BRANCH  19  21
HETATM   21  C3  UNL     1      -3.719   1.206   0.118  1.00  0.00     0.053 C 
HETATM   22  C2  UNL     1      -4.969   1.553   0.339  1.00  0.00    -0.027 C 
HETATM   23  C1  UNL     1      -6.218   0.979   0.886  1.00  0.00     0.036 C 
ENDBRANCH  19  21
ENDBRANCH   1  19
TORSDOF 4
