REMARK  6 active torsions:
REMARK  status: ('A' for Active; 'I' for Inactive)
REMARK    1  A    between atoms: O1_1  and  C1_2 
REMARK    2  A    between atoms: C1_2  and  C2_3 
REMARK    3  A    between atoms: C2_3  and  N1_4 
REMARK    4  A    between atoms: C4_6  and  C5_7 
REMARK    5  A    between atoms: C8_11  and  P1_12 
REMARK    6  A    between atoms: P1_12  and  C9_13 
ROOT
HETATM    1  C5  UNL     1      -2.754   0.976  -0.354  1.00  0.00     0.088 A 
HETATM    2  C6  UNL     1      -2.313   2.078  -1.044  1.00  0.00     0.148 A 
HETATM    3  N2  UNL     1      -0.990   2.287  -1.174  1.00  0.00    -0.268 NA
HETATM    4  C7  UNL     1      -0.083   1.452  -0.650  1.00  0.00     0.148 A 
HETATM    5  C8  UNL     1      -0.511   0.341   0.046  1.00  0.00     0.077 A 
HETATM    6  N5  UNL     1      -1.838   0.134   0.174  1.00  0.00    -0.245 NA
ENDROOT
BRANCH   5   7
HETATM    7  P1  UNL     1       0.562  -0.921   0.837  1.00  0.00    -0.045 P 
HETATM    8  H9  UNL     1       0.392  -0.906   2.269  1.00  0.00     0.066 HD
BRANCH   7   9
HETATM    9  C9  UNL     1       2.358  -0.622   0.441  1.00  0.00     0.165 C 
HETATM   10  C10 UNL     1       2.869   0.386   1.392  1.00  0.00     0.061 C 
HETATM   11  C11 UNL     1       4.292   0.354   1.705  1.00  0.00    -0.023 C 
HETATM   12  C12 UNL     1       5.453   0.226   1.041  1.00  0.00     0.010 C 
HETATM   13  C13 UNL     1       5.617   0.057  -0.415  1.00  0.00    -0.006 A 
HETATM   14  C14 UNL     1       7.012   0.060  -0.517  1.00  0.00     0.014 A 
HETATM   15  C18 UNL     1       4.814  -0.082  -1.533  1.00  0.00     0.089 A 
HETATM   16  C15 UNL     1       7.635  -0.077  -1.741  1.00  0.00     0.001 A 
HETATM   17  C16 UNL     1       6.827  -0.218  -2.871  1.00  0.00     0.002 A 
HETATM   18  C17 UNL     1       5.452  -0.219  -2.757  1.00  0.00     0.034 A 
HETATM   19  N3  UNL     1       3.407  -0.121  -1.748  1.00  0.00    -0.154 NA
HETATM   20  N4  UNL     1       2.439  -0.338  -0.951  1.00  0.00    -0.182 NA
ENDBRANCH   7   9
ENDBRANCH   5   7
BRANCH   1  21
HETATM   21  C4  UNL     1      -4.179   0.709  -0.187  1.00  0.00     0.030 A 
HETATM   22  C3  UNL     1      -4.688  -0.385   0.497  1.00  0.00     0.127 A 
HETATM   23  N1  UNL     1      -6.033  -0.195   0.377  1.00  0.00    -0.278 N 
HETATM   24  N6  UNL     1      -6.333   0.895  -0.306  1.00  0.00    -0.184 NA
HETATM   25  C19 UNL     1      -5.193   1.498  -0.682  1.00  0.00     0.154 A 
BRANCH  23  26
HETATM   26  C2  UNL     1      -7.039  -1.080   0.931  1.00  0.00     0.176 C 
BRANCH  26  27
HETATM   27  C1  UNL     1      -7.406  -2.162  -0.078  1.00  0.00     0.185 C 
BRANCH  27  28
HETATM   28  O1  UNL     1      -7.903  -1.534  -1.214  1.00  0.00    -0.399 OA
HETATM   29  H1  UNL     1      -8.373  -0.697  -0.947  1.00  0.00     0.209 HD
ENDBRANCH  27  28
ENDBRANCH  26  27
ENDBRANCH  23  26
ENDBRANCH   1  21
TORSDOF 6
