REMARK  6 active torsions:
REMARK  status: ('A' for Active; 'I' for Inactive)
REMARK    1  A    between atoms: C3_3  and  C4_4 
REMARK       I    between atoms: C4_4  and  N1_6 
REMARK    2  A    between atoms: N1_6  and  C5_7 
REMARK    3  A    between atoms: C8_10  and  N2_11 
REMARK    4  A    between atoms: N2_11  and  C9_12 
REMARK    5  A    between atoms: C9_12  and  C10_13 
REMARK    6  A    between atoms: C10_13  and  C11_14 
ROOT
HETATM    1  C5  UNL     1       0.951  -1.163  -0.503  1.00  0.00     0.131 A 
HETATM    2  C6  UNL     1      -0.147  -0.493  -0.033  1.00  0.00     0.068 A 
HETATM    3  C7  UNL     1      -1.438  -0.897  -0.301  1.00  0.00     0.043 A 
HETATM    4  C8  UNL     1      -2.470  -0.152   0.220  1.00  0.00     0.138 A 
HETATM    5  N3  UNL     1      -3.688  -0.625  -0.096  1.00  0.00    -0.224 NA
HETATM    6  C12 UNL     1      -3.881  -1.722  -0.849  1.00  0.00     0.236 A 
HETATM    7  N4  UNL     1      -2.863  -2.446  -1.355  1.00  0.00    -0.240 NA
HETATM    8  C13 UNL     1      -1.618  -2.022  -1.073  1.00  0.00     0.089 A 
HETATM    9  C14 UNL     1      -0.501  -2.697  -1.546  1.00  0.00     0.151 A 
HETATM   10  N5  UNL     1       0.763  -2.276  -1.267  1.00  0.00    -0.241 NA
ENDROOT
BRANCH   1  11
HETATM   11  N1  UNL     1       2.288  -0.727  -0.214  1.00  0.00    -0.308 N 
HETATM   12  C4  UNL     1       2.976   0.186  -1.061  1.00  0.00     0.246 C 
HETATM   13  O1  UNL     1       2.431   0.644  -2.099  1.00  0.00    -0.268 OA
HETATM   14  H6  UNL     1       2.675  -1.145   0.658  1.00  0.00     0.170 HD
BRANCH  12  15
HETATM   15  C3  UNL     1       4.334   0.585  -0.703  1.00  0.00     0.070 C 
HETATM   16  C2  UNL     1       5.050   0.202   0.343  1.00  0.00    -0.026 C 
HETATM   17  C1  UNL     1       6.433   0.631   0.674  1.00  0.00     0.036 C 
ENDBRANCH  12  15
ENDBRANCH   1  11
BRANCH   4  18
HETATM   18  N2  UNL     1      -2.334   1.015   1.021  1.00  0.00    -0.370 N 
HETATM   19  H8  UNL     1      -1.432   1.446   1.310  1.00  0.00     0.161 HD
BRANCH  18  20
HETATM   20  C9  UNL     1      -3.539   1.676   1.485  1.00  0.00     0.152 C 
BRANCH  20  21
HETATM   21  C10 UNL     1      -4.358   2.112   0.298  1.00  0.00     0.051 C 
BRANCH  21  22
HETATM   22  C11 UNL     1      -5.655   1.959   0.347  1.00  0.00     0.219 C 
HETATM   23  O2  UNL     1      -6.885   1.995   0.590  1.00  0.00    -0.284 OA
ENDBRANCH  21  22
ENDBRANCH  20  21
ENDBRANCH  18  20
ENDBRANCH   4  18
TORSDOF 6
