REMARK  4 active torsions:
REMARK  status: ('A' for Active; 'I' for Inactive)
REMARK    1  A    between atoms: C3_3  and  C4_4 
REMARK       I    between atoms: C4_4  and  N1_6 
REMARK    2  A    between atoms: N1_6  and  C5_7 
REMARK    3  A    between atoms: C8_10  and  N2_11 
REMARK    4  A    between atoms: N2_11  and  C9_12 
ROOT
HETATM    1  C5  UNL     1       1.134  -1.360  -0.835  1.00  0.00     0.131 A 
HETATM    2  C6  UNL     1       0.084  -0.777  -0.156  1.00  0.00     0.068 A 
HETATM    3  C7  UNL     1      -0.896  -1.491   0.519  1.00  0.00     0.047 A 
HETATM    4  C8  UNL     1      -1.937  -0.885   1.192  1.00  0.00     0.165 A 
HETATM    5  N3  UNL     1      -2.845  -1.682   1.823  1.00  0.00    -0.111 NA
HETATM    6  N4  UNL     1      -2.701  -3.001   1.771  1.00  0.00    -0.041 NA
HETATM    7  N5  UNL     1      -1.705  -3.574   1.127  1.00  0.00    -0.128 NA
HETATM    8  C15 UNL     1      -0.762  -2.880   0.476  1.00  0.00     0.112 A 
HETATM    9  C16 UNL     1       0.297  -3.480  -0.208  1.00  0.00     0.153 A 
HETATM   10  N6  UNL     1       1.222  -2.710  -0.849  1.00  0.00    -0.241 NA
ENDROOT
BRANCH   4  11
HETATM   11  N2  UNL     1      -2.010   0.548   1.192  1.00  0.00    -0.339 N 
HETATM   12  H8  UNL     1      -1.550   1.169   1.909  1.00  0.00     0.167 HD
BRANCH  11  13
HETATM   13  C9  UNL     1      -2.763   1.165   0.140  1.00  0.00     0.035 A 
HETATM   14  C10 UNL     1      -3.368   0.355  -0.801  1.00  0.00     0.029 A 
HETATM   15  C11 UNL     1      -4.085   0.974  -1.798  1.00  0.00     0.004 A 
HETATM   16  C12 UNL     1      -4.257   2.329  -1.947  1.00  0.00     0.019 A 
HETATM   17  C13 UNL     1      -3.618   3.083  -0.960  1.00  0.00     0.013 A 
HETATM   18 BR1  UNL     1      -3.778   4.998  -1.051  1.00  0.00    -0.051 Br
HETATM   19  C14 UNL     1      -2.888   2.514   0.058  1.00  0.00     0.048 A 
ENDBRANCH  11  13
ENDBRANCH   4  11
BRANCH   1  20
HETATM   20  N1  UNL     1       2.104  -0.530  -1.507  1.00  0.00    -0.308 N 
HETATM   21  C4  UNL     1       3.158  -0.218  -0.615  1.00  0.00     0.246 C 
HETATM   22  O1  UNL     1       2.978  -0.736   0.510  1.00  0.00    -0.268 OA
HETATM   23  H6  UNL     1       2.112  -0.162  -2.506  1.00  0.00     0.170 HD
BRANCH  21  24
HETATM   24  C3  UNL     1       4.293   0.609  -1.002  1.00  0.00     0.070 C 
HETATM   25  C2  UNL     1       5.259   0.882  -0.144  1.00  0.00    -0.026 C 
HETATM   26  C1  UNL     1       5.235   0.364   1.245  1.00  0.00     0.036 C 
ENDBRANCH  21  24
ENDBRANCH   1  20
TORSDOF 4
