REMARK  3 active torsions:
REMARK  status: ('A' for Active; 'I' for Inactive)
REMARK    1  A    between atoms: C3_3  and  C4_4 
REMARK       I    between atoms: C4_4  and  N1_6 
REMARK    2  A    between atoms: N1_6  and  C5_7 
REMARK    3  A    between atoms: C8_10  and  N2_11 
ROOT
HETATM    1  C5  UNL     1       1.783  -0.910   1.308  1.00  0.00     0.131 A 
HETATM    2  C6  UNL     1       0.456  -0.976   0.918  1.00  0.00     0.068 A 
HETATM    3  C7  UNL     1      -0.380  -1.990   1.333  1.00  0.00     0.044 A 
HETATM    4  C8  UNL     1      -1.687  -1.968   0.892  1.00  0.00     0.140 A 
HETATM    5  N3  UNL     1      -2.475  -2.984   1.326  1.00  0.00    -0.224 NA
HETATM    6  C15 UNL     1      -2.017  -3.959   2.138  1.00  0.00     0.236 A 
HETATM    7  N4  UNL     1      -0.736  -3.949   2.549  1.00  0.00    -0.240 NA
HETATM    8  C16 UNL     1       0.089  -2.981   2.159  1.00  0.00     0.089 A 
HETATM    9  C17 UNL     1       1.416  -2.896   2.536  1.00  0.00     0.151 A 
HETATM   10  N5  UNL     1       2.233  -1.893   2.122  1.00  0.00    -0.241 NA
ENDROOT
BRANCH   1  11
HETATM   11  N1  UNL     1       2.669   0.127   0.893  1.00  0.00    -0.308 N 
HETATM   12  C4  UNL     1       3.392  -0.121  -0.317  1.00  0.00     0.246 C 
HETATM   13  O1  UNL     1       3.149  -1.229  -0.862  1.00  0.00    -0.268 OA
HETATM   14  H6  UNL     1       2.754   0.984   1.459  1.00  0.00     0.170 HD
BRANCH  12  15
HETATM   15  C3  UNL     1       4.319   0.892  -0.808  1.00  0.00     0.070 C 
HETATM   16  C2  UNL     1       4.623   2.072  -0.291  1.00  0.00    -0.026 C 
HETATM   17  C1  UNL     1       5.595   2.980  -0.927  1.00  0.00     0.036 C 
ENDBRANCH  12  15
ENDBRANCH   1  11
BRANCH   4  18
HETATM   18  N2  UNL     1      -2.244  -0.961   0.020  1.00  0.00    -0.361 N 
HETATM   19  C9  UNL     1      -1.954  -0.519  -1.346  1.00  0.00     0.152 C 
HETATM   20  C10 UNL     1      -1.979   0.970  -1.345  1.00  0.00    -0.005 C 
HETATM   21  C11 UNL     1      -3.033   1.511  -0.741  1.00  0.00    -0.084 C 
HETATM   22  C12 UNL     1      -3.264   2.995  -0.620  1.00  0.00     0.043 C 
HETATM   23  C13 UNL     1      -4.057   0.600  -0.141  1.00  0.00     0.053 C 
HETATM   24  C14 UNL     1      -3.299  -0.330   0.781  1.00  0.00     0.129 C 
ENDBRANCH   4  18
TORSDOF 3
