REMARK  5 active torsions:
REMARK  status: ('A' for Active; 'I' for Inactive)
REMARK    1  A    between atoms: C3_3  and  C4_4 
REMARK       I    between atoms: C4_4  and  N1_6 
REMARK    2  A    between atoms: N1_6  and  C5_7 
REMARK    3  A    between atoms: C8_10  and  N2_11 
REMARK    4  A    between atoms: N2_11  and  C9_12 
REMARK    5  A    between atoms: C9_12  and  C10_13 
ROOT
HETATM    1  C5  UNL     1       1.232  -0.528   0.268  1.00  0.00     0.132 A 
HETATM    2  C6  UNL     1      -0.047  -0.144  -0.118  1.00  0.00     0.068 A 
HETATM    3  C7  UNL     1      -0.896  -1.091   0.410  1.00  0.00     0.043 A 
HETATM    4  C8  UNL     1      -2.251  -1.028   0.226  1.00  0.00     0.138 C 
HETATM    5  N3  UNL     1      -3.109  -2.050   0.396  1.00  0.00    -0.224 NA
HETATM    6  C12 UNL     1      -2.963  -3.203   1.111  1.00  0.00     0.235 C 
HETATM    7  N4  UNL     1      -1.872  -3.667   1.773  1.00  0.00    -0.252 NA
HETATM    8  C13 UNL     1      -0.612  -3.167   1.793  1.00  0.00     0.150 C 
HETATM    9  C14 UNL     1      -0.095  -2.070   1.133  1.00  0.00     0.090 A 
HETATM   10  N5  UNL     1       1.156  -1.658   0.996  1.00  0.00    -0.229 NA
ENDROOT
BRANCH   1  11
HETATM   11  N1  UNL     1       2.429   0.165  -0.058  1.00  0.00    -0.308 N 
HETATM   12  C4  UNL     1       3.696  -0.308   0.384  1.00  0.00     0.246 C 
HETATM   13  O1  UNL     1       3.663  -1.363   1.069  1.00  0.00    -0.268 OA
HETATM   14  H6  UNL     1       2.398   1.037  -0.629  1.00  0.00     0.170 HD
BRANCH  12  15
HETATM   15  C3  UNL     1       4.947   0.392   0.060  1.00  0.00     0.070 C 
HETATM   16  C2  UNL     1       5.077   1.496  -0.646  1.00  0.00    -0.026 C 
HETATM   17  C1  UNL     1       6.409   2.131  -0.919  1.00  0.00     0.036 C 
ENDBRANCH  12  15
ENDBRANCH   1  11
BRANCH   4  18
HETATM   18  N2  UNL     1      -2.845   0.200  -0.178  1.00  0.00    -0.371 N 
HETATM   19  H8  UNL     1      -2.312   1.063  -0.345  1.00  0.00     0.161 HD
BRANCH  18  20
HETATM   20  C9  UNL     1      -4.288   0.288  -0.380  1.00  0.00     0.149 C 
BRANCH  20  21
HETATM   21  C10 UNL     1      -4.722   1.639  -0.798  1.00  0.00    -0.000 C 
HETATM   22  C11 UNL     1      -5.578   2.382  -0.100  1.00  0.00     0.053 C 
HETATM   23 BR1  UNL     1      -6.090   4.123  -0.708  1.00  0.00    -0.064 Br
ENDBRANCH  20  21
ENDBRANCH  18  20
ENDBRANCH   4  18
TORSDOF 5
