REMARK  8 active torsions:
REMARK  status: ('A' for Active; 'I' for Inactive)
REMARK    1  A    between atoms: B1_2  and  C2_3 
REMARK    2  A    between atoms: C3_4  and  C4_5 
REMARK    3  A    between atoms: C4_5  and  C5_6 
REMARK    4  A    between atoms: C5_6  and  C6_7 
REMARK    5  A    between atoms: C7_8  and  N1_9 
REMARK       I    between atoms: N1_9  and  C8_10 
REMARK    6  A    between atoms: C8_10  and  C9_12 
REMARK    7  A    between atoms: C13_18  and  N4_19 
REMARK    8  A    between atoms: N4_19  and  C14_20 
ROOT
HETATM    1  C2  UNL     1      -1.226   0.013   0.147  1.00  0.00     0.060 A 
HETATM    2  C3  UNL     1      -0.265  -1.021   0.629  1.00  0.00     0.034 A 
HETATM    3  N2  UNL     1      -0.656  -2.196   1.346  1.00  0.00    -0.247 NA
HETATM    4  C12 UNL     1      -1.886  -2.466   1.658  1.00  0.00     0.235 A 
HETATM    5  N3  UNL     1      -2.885  -1.542   1.261  1.00  0.00    -0.229 NA
HETATM    6  C13 UNL     1      -2.559  -0.452   0.594  1.00  0.00     0.106 A 
ENDROOT
BRANCH   2   7
HETATM    7  C4  UNL     1       1.048  -1.157   0.565  1.00  0.00     0.004 C 
BRANCH   7   8
HETATM    8  C5  UNL     1       2.385  -1.631   0.690  1.00  0.00     0.057 C 
BRANCH   8   9
HETATM    9  C6  UNL     1       3.244  -0.729   1.474  1.00  0.00    -0.006 C 
HETATM   10  C7  UNL     1       4.319  -0.009   1.311  1.00  0.00     0.087 C 
BRANCH  10  11
HETATM   11  N1  UNL     1       4.744  -0.175  -0.029  1.00  0.00    -0.334 N 
HETATM   12  C8  UNL     1       4.685   1.079  -0.723  1.00  0.00     0.244 C 
HETATM   13  O1  UNL     1       4.269   1.907   0.134  1.00  0.00    -0.268 OA
HETATM   14  H11 UNL     1       5.067  -1.018  -0.544  1.00  0.00     0.168 HD
BRANCH  12  15
HETATM   15  C9  UNL     1       5.025   1.347  -2.108  1.00  0.00     0.070 C 
HETATM   16  C10 UNL     1       5.461   0.693  -3.154  1.00  0.00    -0.026 C 
HETATM   17  C11 UNL     1       5.862  -0.679  -3.551  1.00  0.00     0.036 C 
ENDBRANCH  12  15
ENDBRANCH  10  11
ENDBRANCH   8   9
ENDBRANCH   7   8
ENDBRANCH   2   7
BRANCH   1  18
HETATM   18  B1  UNL     1      -1.177   0.108  -1.446  1.00  0.00     0.172 B 
HETATM   19  C1  UNL     1       0.164   0.519  -2.203  1.00  0.00    -0.058 C 
HETATM   20  H4  UNL     1      -1.891  -0.622  -2.082  1.00  0.00    -0.026 HD
ENDBRANCH   1  18
BRANCH   6  21
HETATM   21  N4  UNL     1      -3.616   0.418   0.250  1.00  0.00    -0.344 N 
HETATM   22  H18 UNL     1      -3.560   0.889  -0.674  1.00  0.00     0.167 HD
BRANCH  21  23
HETATM   23  C14 UNL     1      -4.730   0.680   1.084  1.00  0.00     0.034 A 
HETATM   24  C15 UNL     1      -5.717   1.518   0.627  1.00  0.00     0.029 A 
HETATM   25  C16 UNL     1      -6.852   1.882   1.301  1.00  0.00     0.004 A 
HETATM   26  C17 UNL     1      -7.033   1.353   2.585  1.00  0.00     0.019 A 
HETATM   27  C18 UNL     1      -6.069   0.503   3.097  1.00  0.00     0.013 A 
HETATM   28 BR1  UNL     1      -6.296  -0.229   4.844  1.00  0.00    -0.051 Br
HETATM   29  C19 UNL     1      -4.926   0.172   2.346  1.00  0.00     0.048 A 
ENDBRANCH  21  23
ENDBRANCH   6  21
TORSDOF 8
