REMARK  5 active torsions:
REMARK  status: ('A' for Active; 'I' for Inactive)
REMARK    1  A    between atoms: C3_3  and  C4_4 
REMARK       I    between atoms: C4_4  and  N1_6 
REMARK    2  A    between atoms: N1_6  and  C5_7 
REMARK    3  A    between atoms: C5_7  and  C6_8 
REMARK    4  A    between atoms: C11_15  and  N4_16 
REMARK    5  A    between atoms: N4_16  and  C12_17 
ROOT
HETATM    1  C6  UNL     1      -1.291  -1.428  -0.742  1.00  0.00    -0.039 A 
HETATM    2  C7  UNL     1      -1.449  -2.797  -0.840  1.00  0.00     0.011 A 
HETATM    3  C8  UNL     1      -0.334  -3.596  -0.700  1.00  0.00     0.033 A 
HETATM    4  C9  UNL     1       0.896  -3.020  -0.468  1.00  0.00     0.072 A 
HETATM    5  N2  UNL     1       1.949  -3.877  -0.341  1.00  0.00    -0.241 NA
HETATM    6  C10 UNL     1       3.193  -3.383  -0.110  1.00  0.00     0.236 A 
HETATM    7  N3  UNL     1       3.323  -2.058  -0.019  1.00  0.00    -0.224 NA
HETATM    8  C11 UNL     1       2.360  -1.143  -0.129  1.00  0.00     0.142 A 
HETATM    9  C18 UNL     1       1.112  -1.655  -0.361  1.00  0.00     0.039 A 
HETATM   10  C19 UNL     1      -0.022  -0.926  -0.508  1.00  0.00     0.026 A 
ENDROOT
BRANCH   1  11
HETATM   11  C5  UNL     1      -2.480  -0.543  -0.890  1.00  0.00     0.161 C 
BRANCH  11  12
HETATM   12  N1  UNL     1      -3.141  -0.282   0.377  1.00  0.00    -0.353 N 
HETATM   13  C4  UNL     1      -4.263   0.558   0.242  1.00  0.00     0.241 C 
HETATM   14  O1  UNL     1      -4.462   0.911  -0.946  1.00  0.00    -0.269 OA
HETATM   15  H6  UNL     1      -2.850  -0.658   1.320  1.00  0.00     0.163 HD
BRANCH  13  16
HETATM   16  C3  UNL     1      -5.083   0.958   1.375  1.00  0.00     0.070 C 
HETATM   17  C2  UNL     1      -6.127   1.749   1.205  1.00  0.00    -0.026 C 
HETATM   18  C1  UNL     1      -6.487   2.247  -0.146  1.00  0.00     0.036 C 
ENDBRANCH  13  16
ENDBRANCH  11  12
ENDBRANCH   1  11
BRANCH   8  19
HETATM   19  N4  UNL     1       2.520   0.256  -0.028  1.00  0.00    -0.340 N 
HETATM   20  H12 UNL     1       1.721   0.907  -0.140  1.00  0.00     0.167 HD
BRANCH  19  21
HETATM   21  C12 UNL     1       3.700   0.986   0.224  1.00  0.00     0.033 A 
HETATM   22  C13 UNL     1       4.907   0.394   0.509  1.00  0.00     0.029 A 
HETATM   23  C14 UNL     1       6.082   1.070   0.757  1.00  0.00     0.002 A 
HETATM   24  C15 UNL     1       6.097   2.441   0.727  1.00  0.00     0.000 A 
HETATM   25  C16 UNL     1       4.931   3.083   0.450  1.00  0.00     0.002 A 
HETATM   26  C17 UNL     1       3.788   2.360   0.211  1.00  0.00     0.029 A 
ENDBRANCH  19  21
ENDBRANCH   8  19
TORSDOF 5
