REMARK  6 active torsions:
REMARK  status: ('A' for Active; 'I' for Inactive)
REMARK    1  A    between atoms: C2_2  and  C3_4 
REMARK    2  A    between atoms: C4_5  and  C5_6 
REMARK    3  A    between atoms: C6_7  and  N1_8 
REMARK    4  A    between atoms: N1_8  and  C7_9 
REMARK    5  A    between atoms: C12_16  and  N4_17 
REMARK       I    between atoms: N4_17  and  C13_18 
REMARK    6  A    between atoms: C13_18  and  C14_20 
ROOT
HETATM    1  C7  UNL     1       0.757  -1.551  -0.052  1.00  0.00     0.141 A 
HETATM    2  N2  UNL     1       1.584  -2.564   0.222  1.00  0.00    -0.224 NA
HETATM    3  C8  UNL     1       1.213  -3.855   0.178  1.00  0.00     0.236 A 
HETATM    4  N3  UNL     1      -0.072  -4.107  -0.165  1.00  0.00    -0.241 NA
HETATM    5  C9  UNL     1      -0.942  -3.122  -0.450  1.00  0.00     0.072 A 
HETATM    6  C10 UNL     1      -2.266  -3.394  -0.803  1.00  0.00     0.035 A 
HETATM    7  C11 UNL     1      -3.154  -2.380  -1.094  1.00  0.00     0.032 A 
HETATM    8  C12 UNL     1      -2.697  -1.066  -1.028  1.00  0.00     0.036 A 
HETATM    9  C17 UNL     1      -1.399  -0.735  -0.685  1.00  0.00     0.047 A 
HETATM   10  C18 UNL     1      -0.554  -1.784  -0.404  1.00  0.00     0.041 A 
ENDROOT
BRANCH   1  11
HETATM   11  N1  UNL     1       1.306  -0.245   0.040  1.00  0.00    -0.350 N 
HETATM   12  H7  UNL     1       0.876   0.689  -0.121  1.00  0.00     0.166 HD
BRANCH  11  13
HETATM   13  C6  UNL     1       2.669  -0.067   0.408  1.00  0.00     0.090 C 
HETATM   14  C5  UNL     1       3.488   0.838  -0.103  1.00  0.00     0.017 C 
BRANCH  14  15
HETATM   15  C4  UNL     1       4.866   0.915   0.364  1.00  0.00     0.003 C 
HETATM   16  C3  UNL     1       5.705   1.802  -0.122  1.00  0.00     0.018 C 
BRANCH  16  17
HETATM   17  C2  UNL     1       7.088   1.886   0.340  1.00  0.00     0.001 C 
HETATM   18  C1  UNL     1       7.934   2.782  -0.151  1.00  0.00     0.032 C 
HETATM   19 BR1  UNL     1       7.686   0.665   1.693  1.00  0.00    -0.052 Br
ENDBRANCH  16  17
ENDBRANCH  14  15
ENDBRANCH  11  13
ENDBRANCH   1  11
BRANCH   8  20
HETATM   20  N4  UNL     1      -3.554   0.049  -1.315  1.00  0.00    -0.324 N 
HETATM   21  C13 UNL     1      -4.300   0.639  -0.243  1.00  0.00     0.245 C 
HETATM   22  O1  UNL     1      -4.068   0.047   0.848  1.00  0.00    -0.268 OA
HETATM   23  H11 UNL     1      -3.657   0.453  -2.293  1.00  0.00     0.169 HD
BRANCH  21  24
HETATM   24  C14 UNL     1      -5.194   1.767  -0.418  1.00  0.00     0.070 C 
HETATM   25  C15 UNL     1      -5.870   2.291   0.592  1.00  0.00    -0.026 C 
HETATM   26  C16 UNL     1      -5.734   1.734   1.963  1.00  0.00     0.036 C 
ENDBRANCH  21  24
ENDBRANCH   8  20
TORSDOF 6
