REMARK  0 active torsions:
REMARK  status: ('A' for Active; 'I' for Inactive)
ROOT
HETATM    1  C1  UNL     1       0.761   2.853  -0.417  1.00  0.00     0.019 C 
HETATM    2  C2  UNL     1       0.021   1.679   0.088  1.00  0.00    -0.002 C 
HETATM    3  C3  UNL     1      -1.041   1.811  -0.726  1.00  0.00     0.027 C 
HETATM    4  C4  UNL     1      -2.350   1.436  -1.276  1.00  0.00    -0.023 C 
HETATM    5  C5  UNL     1      -3.432   0.653  -1.334  1.00  0.00    -0.011 C 
HETATM    6  C6  UNL     1      -4.041  -0.539  -0.737  1.00  0.00     0.148 C 
HETATM    7  N1  UNL     1      -3.246  -1.190   0.292  1.00  0.00    -0.369 N 
HETATM    8  C7  UNL     1      -1.975  -1.737  -0.137  1.00  0.00     0.156 A 
HETATM    9  N2  UNL     1      -2.247  -2.667  -1.040  1.00  0.00    -0.222 NA
HETATM   10  C8  UNL     1      -1.198  -3.313  -1.624  1.00  0.00     0.238 A 
HETATM   11  N3  UNL     1       0.090  -3.018  -1.294  1.00  0.00    -0.215 NA
HETATM   12  C9  UNL     1       0.303  -2.060  -0.364  1.00  0.00     0.202 A 
HETATM   13  C10 UNL     1      -0.692  -1.359   0.276  1.00  0.00     0.129 A 
HETATM   14  N4  UNL     1      -0.486  -0.347   1.281  1.00  0.00    -0.374 N 
HETATM   15  C11 UNL     1       0.490   0.744   1.203  1.00  0.00     0.127 C 
HETATM   16  C12 UNL     1       1.856   0.305   1.067  1.00  0.00    -0.001 A 
HETATM   17  C13 UNL     1       2.812   1.129   1.612  1.00  0.00     0.012 A 
HETATM   18  C14 UNL     1       4.201   0.935   1.621  1.00  0.00     0.001 A 
HETATM   19  C15 UNL     1       4.563  -0.257   0.981  1.00  0.00     0.003 A 
HETATM   20  C16 UNL     1       3.682  -1.137   0.411  1.00  0.00     0.038 A 
HETATM   21  C17 UNL     1       2.323  -0.863   0.450  1.00  0.00     0.086 A 
HETATM   22  O1  UNL     1       1.702  -1.943  -0.207  1.00  0.00    -0.289 OA
HETATM   23  H9  UNL     1      -3.112  -1.498   1.274  1.00  0.00     0.161 HD
HETATM   24  H11 UNL     1      -1.108  -0.432   2.130  1.00  0.00     0.160 HD
ENDROOT
TORSDOF 0
