REMARK  4 active torsions:
REMARK  status: ('A' for Active; 'I' for Inactive)
REMARK    1  A    between atoms: C2_2  and  C3_3 
REMARK       I    between atoms: C3_3  and  N1_5 
REMARK    2  A    between atoms: N1_5  and  C4_6 
REMARK    3  A    between atoms: C9_12  and  N3_13 
REMARK    4  A    between atoms: C14_19  and  N4_20 
ROOT
HETATM    1  C4  UNL     1       2.458   0.508  -0.686  1.00  0.00     0.092 C 
HETATM    2  C5  UNL     1       2.253   1.967  -0.558  1.00  0.00     0.055 C 
HETATM    3  C6  UNL     1       0.939   2.390  -0.023  1.00  0.00     0.007 C 
HETATM    4  C7  UNL     1      -0.060   1.649   0.427  1.00  0.00     0.058 A 
HETATM    5  N2  UNL     1      -1.276   2.165   0.916  1.00  0.00    -0.263 NA
HETATM    6  C8  UNL     1      -2.170   1.309   1.327  1.00  0.00     0.119 A 
HETATM    7  C9  UNL     1      -2.022  -0.161   1.326  1.00  0.00     0.146 A 
HETATM    8  C15 UNL     1      -0.729  -0.626   0.802  1.00  0.00     0.013 A 
HETATM    9  C16 UNL     1       0.204   0.234   0.374  1.00  0.00    -0.029 A 
HETATM   10  C17 UNL     1       1.433  -0.392  -0.115  1.00  0.00     0.066 C 
ENDROOT
BRANCH   7  11
HETATM   11  N3  UNL     1      -3.080  -0.818   0.589  1.00  0.00    -0.369 N 
HETATM   12  C10 UNL     1      -3.155  -0.439  -0.774  1.00  0.00     0.148 C 
HETATM   13  C11 UNL     1      -4.295   0.459  -1.094  1.00  0.00     0.007 C 
HETATM   14  C12 UNL     1      -5.273   0.687  -0.254  1.00  0.00    -0.010 C 
HETATM   15 BR1  UNL     1      -6.712   1.853  -0.725  1.00  0.00    -0.056 Br
HETATM   16  C13 UNL     1      -5.331   0.076   1.081  1.00  0.00     0.102 C 
HETATM   17  C14 UNL     1      -4.302  -0.982   1.291  1.00  0.00     0.320 C 
BRANCH  17  18
HETATM   18  N4  UNL     1      -4.871  -2.270   0.894  1.00  0.00     0.101 N 
HETATM   19  H19 UNL     1      -4.068  -2.948   0.745  1.00  0.00     0.315 HD
HETATM   20  H20 UNL     1      -5.249  -2.107  -0.068  1.00  0.00     0.315 HD
ENDBRANCH  17  18
ENDBRANCH   7  11
BRANCH   1  21
HETATM   21  N1  UNL     1       3.727   0.187  -0.012  1.00  0.00    -0.356 N 
HETATM   22  C3  UNL     1       4.833  -0.362  -0.678  1.00  0.00     0.217 C 
HETATM   23  O1  UNL     1       4.893  -0.648  -1.902  1.00  0.00    -0.274 OA
HETATM   24  H6  UNL     1       3.748   0.397   0.996  1.00  0.00     0.162 HD
BRANCH  22  25
HETATM   25  C2  UNL     1       6.063  -0.640   0.133  1.00  0.00     0.098 C 
HETATM   26  C1  UNL     1       7.157  -1.225  -0.718  1.00  0.00     0.014 C 
ENDBRANCH  22  25
ENDBRANCH   1  21
TORSDOF 4
