REMARK  5 active torsions:
REMARK  status: ('A' for Active; 'I' for Inactive)
REMARK    1  A    between atoms: C2_2  and  C3_3 
REMARK       I    between atoms: C3_3  and  N1_5 
REMARK    2  A    between atoms: N1_5  and  C4_6 
REMARK    3  A    between atoms: C4_6  and  C5_7 
REMARK    4  A    between atoms: C7_9  and  N2_10 
REMARK    5  A    between atoms: N2_10  and  C8_11 
ROOT
HETATM    1  C5  UNL     1       0.875   2.149  -0.849  1.00  0.00     0.057 A 
HETATM    2  C6  UNL     1      -0.269   1.375  -0.985  1.00  0.00     0.079 A 
HETATM    3  C7  UNL     1      -1.408   1.786  -0.325  1.00  0.00     0.131 A 
HETATM    4  N3  UNL     1      -1.451   2.898   0.437  1.00  0.00    -0.224 NA
HETATM    5  C14 UNL     1      -0.308   3.637   0.549  1.00  0.00     0.235 A 
HETATM    6  N4  UNL     1       0.823   3.261  -0.084  1.00  0.00    -0.245 NA
ENDROOT
BRANCH   3   7
HETATM    7  N2  UNL     1      -2.523   0.926  -0.527  1.00  0.00    -0.341 N 
HETATM    8  H10 UNL     1      -3.014   1.287  -1.374  1.00  0.00     0.167 HD
BRANCH   7   9
HETATM    9  C8  UNL     1      -2.925  -0.201   0.238  1.00  0.00     0.034 A 
HETATM   10  C9  UNL     1      -2.172  -0.540   1.331  1.00  0.00     0.029 A 
HETATM   11  C10 UNL     1      -2.642  -1.661   2.021  1.00  0.00     0.004 A 
HETATM   12  C11 UNL     1      -3.776  -2.374   1.635  1.00  0.00     0.019 A 
HETATM   13  C12 UNL     1      -4.468  -1.954   0.519  1.00  0.00     0.013 A 
HETATM   14 BR1  UNL     1      -6.029  -2.910  -0.038  1.00  0.00    -0.051 Br
HETATM   15  C13 UNL     1      -4.040  -0.851  -0.194  1.00  0.00     0.048 A 
ENDBRANCH   7   9
ENDBRANCH   3   7
BRANCH   1  16
HETATM   16  C4  UNL     1       2.204   1.898  -1.467  1.00  0.00     0.181 C 
BRANCH  16  17
HETATM   17  N1  UNL     1       3.078   1.085  -0.639  1.00  0.00    -0.355 N 
HETATM   18  C3  UNL     1       2.972  -0.305  -0.467  1.00  0.00     0.217 C 
HETATM   19  O1  UNL     1       2.071  -0.985  -1.041  1.00  0.00    -0.274 OA
HETATM   20  H6  UNL     1       3.851   1.582  -0.130  1.00  0.00     0.162 HD
BRANCH  18  21
HETATM   21  C2  UNL     1       3.948  -1.013   0.419  1.00  0.00     0.098 C 
HETATM   22  C1  UNL     1       3.608  -2.485   0.428  1.00  0.00     0.014 C 
ENDBRANCH  18  21
ENDBRANCH  16  17
ENDBRANCH   1  16
TORSDOF 5
