REMARK  5 active torsions:
REMARK  status: ('A' for Active; 'I' for Inactive)
REMARK    1  A    between atoms: C2_2  and  C3_3 
REMARK    2  A    between atoms: C3_3  and  C4_4 
REMARK       I    between atoms: C4_4  and  N1_6 
REMARK    3  A    between atoms: N1_6  and  C5_7 
REMARK    4  A    between atoms: N2_13  and  C11_14 
REMARK    5  A    between atoms: N3_15  and  C12_16 
ROOT
HETATM    1  C5  UNL     1       1.453  -0.512  -0.693  1.00  0.00     0.010 A 
HETATM    2  C6  UNL     1       0.810   0.200   0.398  1.00  0.00     0.112 A 
HETATM    3  C7  UNL     1      -0.674   0.265   0.891  1.00  0.00     0.187 A 
HETATM    4  C8  UNL     1      -1.432  -0.878  -0.430  1.00  0.00     0.072 A 
HETATM    5  C9  UNL     1      -0.914  -1.628  -1.610  1.00  0.00     0.017 A 
HETATM    6  C10 UNL     1       0.379  -1.157  -1.302  1.00  0.00     0.032 A 
HETATM    7  N2  UNL     1      -0.337  -0.660  -0.435  1.00  0.00     0.000 N 
HETATM    8  C11 UNL     1      -0.912  -0.164   0.391  1.00  0.00     0.187 A 
HETATM    9  N3  UNL     1      -1.920   0.535   1.607  1.00  0.00    -0.016 N 
HETATM   10  H10 UNL     1      -1.860   1.060   2.548  1.00  0.00     0.289 HD
ENDROOT
BRANCH   9  11
HETATM   11  C12 UNL     1      -3.343   0.594   1.622  1.00  0.00     0.138 A 
HETATM   12  C13 UNL     1      -4.340   0.362   2.458  1.00  0.00     0.037 A 
HETATM   13  C14 UNL     1      -5.659   0.449   2.250  1.00  0.00     0.004 A 
HETATM   14  C15 UNL     1      -6.080   0.850   0.966  1.00  0.00     0.019 A 
HETATM   15  C16 UNL     1      -5.139   1.143  -0.053  1.00  0.00     0.013 A 
HETATM   16 BR1  UNL     1      -5.951   1.622  -1.700  1.00  0.00    -0.051 Br
HETATM   17  C17 UNL     1      -3.822   0.995   0.339  1.00  0.00     0.056 A 
ENDBRANCH   9  11
BRANCH   1  18
HETATM   18  N1  UNL     1       2.899  -0.326  -0.742  1.00  0.00    -0.333 N 
HETATM   19  C4  UNL     1       3.676  -1.197   0.086  1.00  0.00     0.227 C 
HETATM   20  O1  UNL     1       2.818  -1.943   0.617  1.00  0.00    -0.273 OA
HETATM   21  H6  UNL     1       3.126   0.449  -1.421  1.00  0.00     0.168 HD
BRANCH  19  22
HETATM   22  C3  UNL     1       5.000  -0.646  -0.232  1.00  0.00     0.095 C 
BRANCH  22  23
HETATM   23  C2  UNL     1       6.296  -0.421  -0.294  1.00  0.00    -0.000 C 
HETATM   24  C1  UNL     1       6.336   0.750  -1.205  1.00  0.00     0.011 C 
ENDBRANCH  22  23
ENDBRANCH  19  22
ENDBRANCH   1  18
TORSDOF 5
