REMARK  5 active torsions:
REMARK  status: ('A' for Active; 'I' for Inactive)
REMARK    1  A    between atoms: C2_2  and  C3_3 
REMARK    2  A    between atoms: C3_3  and  N1_4 
REMARK    3  A    between atoms: C7_8  and  N2_9 
REMARK    4  A    between atoms: N2_9  and  C8_10 
REMARK    5  A    between atoms: C16_21  and  O1_22 
ROOT
HETATM    1  N1  UNL     1      -2.688   0.077  -0.839  1.00  0.00     0.122 NA
HETATM    2  C4  UNL     1      -1.886   1.114  -0.289  1.00  0.00     0.303 C 
HETATM    3  C5  UNL     1      -0.862   1.758  -1.085  1.00  0.00     0.007 C 
HETATM    4  C6  UNL     1       0.456   1.694  -0.927  1.00  0.00     0.048 C 
HETATM    5  C7  UNL     1       1.324   0.994   0.018  1.00  0.00     0.129 C 
HETATM    6  N3  UNL     1       1.284   0.073   0.903  1.00  0.00    -0.225 NA
HETATM    7  C14 UNL     1       0.203  -0.708   1.325  1.00  0.00     0.229 C 
HETATM    8  N4  UNL     1      -0.686  -1.390   0.664  1.00  0.00    -0.278 NA
HETATM    9  C15 UNL     1      -0.725  -1.477  -0.776  1.00  0.00     0.214 C 
HETATM   10  C16 UNL     1      -1.967  -0.999  -1.440  1.00  0.00     0.376 C 
ENDROOT
BRANCH   5  11
HETATM   11  N2  UNL     1       2.745   1.256  -0.070  1.00  0.00    -0.341 N 
HETATM   12  H12 UNL     1       2.965   2.265  -0.370  1.00  0.00     0.167 HD
BRANCH  11  13
HETATM   13  C8  UNL     1       3.858   0.405   0.164  1.00  0.00     0.034 A 
HETATM   14  C9  UNL     1       3.835  -0.934   0.456  1.00  0.00     0.029 A 
HETATM   15  C10 UNL     1       4.949  -1.702   0.693  1.00  0.00     0.004 A 
HETATM   16  C11 UNL     1       6.180  -1.106   0.639  1.00  0.00     0.019 A 
HETATM   17  C12 UNL     1       6.246   0.239   0.348  1.00  0.00     0.013 A 
HETATM   18 BR1  UNL     1       7.960   1.048   0.277  1.00  0.00    -0.051 Br
HETATM   19  C13 UNL     1       5.111   0.978   0.115  1.00  0.00     0.048 A 
ENDBRANCH  11  13
ENDBRANCH   5  11
BRANCH   1  20
HETATM   20  C3  UNL     1      -3.517  -0.430   0.242  1.00  0.00     0.276 C 
BRANCH  20  21
HETATM   21  C2  UNL     1      -4.532   0.597   0.634  1.00  0.00     0.026 C 
HETATM   22  C1  UNL     1      -5.427   0.015   1.737  1.00  0.00     0.007 C 
ENDBRANCH  20  21
ENDBRANCH   1  20
BRANCH  10  23
HETATM   23  O1  UNL     1      -1.962  -1.014  -2.827  1.00  0.00    -0.366 OA
HETATM   24  H21 UNL     1      -2.331  -0.114  -3.096  1.00  0.00     0.212 HD
ENDBRANCH  10  23
TORSDOF 5
