REMARK  2 active torsions:
REMARK  status: ('A' for Active; 'I' for Inactive)
REMARK    1  A    between atoms: C1_2  and  N1_3 
REMARK    2  A    between atoms: N1_3  and  C2_4 
ROOT
HETATM    1  C2  UNL     1       2.068  -0.041  -0.600  1.00  0.00     0.124 C 
HETATM    2  C3  UNL     1       1.946  -1.385  -0.495  1.00  0.00     0.062 C 
HETATM    3  C4  UNL     1       0.520  -1.515  -0.115  1.00  0.00    -0.015 A 
HETATM    4  C5  UNL     1       0.165  -1.227   1.183  1.00  0.00     0.015 A 
HETATM    5  C6  UNL     1      -1.212  -1.272   1.446  1.00  0.00     0.030 A 
HETATM    6  C7  UNL     1      -2.062  -1.593   0.405  1.00  0.00     0.030 A 
HETATM    7  C8  UNL     1      -1.664  -1.879  -0.875  1.00  0.00     0.049 A 
HETATM    8  C9  UNL     1      -0.321  -1.839  -1.149  1.00  0.00     0.023 A 
HETATM    9 BR1  UNL     1       0.234  -2.228  -2.899  1.00  0.00    -0.050 Br
HETATM   10  N2  UNL     1      -3.326  -1.458   1.045  1.00  0.00    -0.372 N 
HETATM   11  C10 UNL     1      -3.626  -0.289   0.196  1.00  0.00     0.272 C 
HETATM   12  N3  UNL     1      -2.472   0.534   0.100  1.00  0.00    -0.264 NA
HETATM   13  C11 UNL     1      -2.398   1.806   0.209  1.00  0.00     0.228 C 
HETATM   14  N4  UNL     1      -1.021   1.584  -0.023  1.00  0.00    -0.253 NA
HETATM   15  C12 UNL     1      -0.206   2.569  -0.108  1.00  0.00     0.137 C 
HETATM   16  C13 UNL     1       1.216   2.205  -0.354  1.00  0.00     0.138 C 
HETATM   17  N5  UNL     1       1.078   0.947  -0.393  1.00  0.00    -0.242 NA
HETATM   18  H8  UNL     1      -3.709  -2.061   1.805  1.00  0.00     0.161 HD
ENDROOT
BRANCH   1  19
HETATM   19  N1  UNL     1       3.338   0.543  -0.964  1.00  0.00    -0.362 N 
HETATM   20  H3  UNL     1       3.327   0.656  -2.004  1.00  0.00     0.162 HD
BRANCH  19  21
HETATM   21  C1  UNL     1       4.268   0.818   0.132  1.00  0.00     0.237 C 
HETATM   22 CL1  UNL     1       4.686  -0.683   1.009  1.00  0.00    -0.109 Cl
ENDBRANCH  19  21
ENDBRANCH   1  19
TORSDOF 2
