REMARK  4 active torsions:
REMARK  status: ('A' for Active; 'I' for Inactive)
REMARK    1  A    between atoms: C1_2  and  C2_3 
REMARK       I    between atoms: C1_2  and  N1_6 
REMARK    2  A    between atoms: N1_6  and  C4_7 
REMARK    3  A    between atoms: C7_10  and  N2_11 
REMARK    4  A    between atoms: N2_11  and  C8_12 
ROOT
HETATM    1  C2  UNL     1       5.037  -0.618  -2.197  1.00  0.00     0.086 C 
HETATM    2  C3  UNL     1       5.496   0.615  -2.303  1.00  0.00     0.223 C 
HETATM    3 CL1  UNL     1       5.971   2.298  -2.274  1.00  0.00    -0.230 Cl
ENDROOT
BRANCH   1   4
HETATM    4  C1  UNL     1       4.057  -0.944  -1.178  1.00  0.00     0.247 C 
HETATM    5  O1  UNL     1       3.688  -2.142  -1.163  1.00  0.00    -0.268 OA
HETATM    6  N1  UNL     1       3.592   0.067  -0.296  1.00  0.00    -0.308 N 
HETATM    7  H3  UNL     1       3.935   1.041  -0.357  1.00  0.00     0.170 HD
BRANCH   6   8
HETATM    8  C4  UNL     1       2.633  -0.173   0.728  1.00  0.00     0.131 A 
HETATM    9  C5  UNL     1       1.280  -0.040   0.502  1.00  0.00     0.068 A 
HETATM   10  C6  UNL     1       0.295  -0.255   1.438  1.00  0.00     0.044 A 
HETATM   11  C7  UNL     1      -1.052  -0.120   1.206  1.00  0.00     0.142 A 
HETATM   12  C15 UNL     1       0.778  -0.625   2.658  1.00  0.00     0.089 A 
HETATM   13  N3  UNL     1      -1.808  -0.379   2.259  1.00  0.00    -0.224 NA
HETATM   14  C14 UNL     1      -1.416  -0.743   3.475  1.00  0.00     0.236 A 
HETATM   15  N4  UNL     1      -0.093  -0.865   3.666  1.00  0.00    -0.240 NA
HETATM   16  C16 UNL     1       2.128  -0.759   2.890  1.00  0.00     0.151 A 
HETATM   17  N5  UNL     1       3.052  -0.541   1.952  1.00  0.00    -0.241 NA
BRANCH  11  18
HETATM   18  N2  UNL     1      -1.498   0.266  -0.080  1.00  0.00    -0.340 N 
HETATM   19  H5  UNL     1      -0.834   0.449  -0.853  1.00  0.00     0.167 HD
BRANCH  18  20
HETATM   20  C8  UNL     1      -2.813   0.475  -0.573  1.00  0.00     0.033 A 
HETATM   21  C9  UNL     1      -3.158   0.838  -1.850  1.00  0.00     0.029 A 
HETATM   22  C10 UNL     1      -4.447   1.027  -2.274  1.00  0.00     0.002 A 
HETATM   23  C11 UNL     1      -5.502   0.857  -1.412  1.00  0.00     0.000 A 
HETATM   24  C12 UNL     1      -5.206   0.492  -0.117  1.00  0.00     0.002 A 
HETATM   25  C13 UNL     1      -3.895   0.313   0.266  1.00  0.00     0.029 A 
ENDBRANCH  18  20
ENDBRANCH  11  18
ENDBRANCH   6   8
ENDBRANCH   1   4
TORSDOF 4
