REMARK  3 active torsions:
REMARK  status: ('A' for Active; 'I' for Inactive)
REMARK    1  A    between atoms: C1_2  and  C2_3 
REMARK       I    between atoms: C1_2  and  N1_6 
REMARK    2  A    between atoms: N1_6  and  C4_7 
REMARK    3  A    between atoms: C7_10  and  N2_11 
ROOT
HETATM    1  C4  UNL     1       1.711  -0.355   0.253  1.00  0.00     0.131 A 
HETATM    2  C5  UNL     1       0.338  -0.298   0.145  1.00  0.00     0.068 A 
HETATM    3  C6  UNL     1      -0.352  -1.502   0.230  1.00  0.00     0.044 A 
HETATM    4  C7  UNL     1      -1.724  -1.424   0.119  1.00  0.00     0.147 A 
HETATM    5  N3  UNL     1      -2.421  -2.591   0.199  1.00  0.00    -0.223 NA
HETATM    6  C13 UNL     1      -1.803  -3.767   0.378  1.00  0.00     0.236 A 
HETATM    7  N4  UNL     1      -0.462  -3.816   0.483  1.00  0.00    -0.240 NA
HETATM    8  C14 UNL     1       0.289  -2.711   0.414  1.00  0.00     0.089 A 
HETATM    9  C15 UNL     1       1.675  -2.701   0.516  1.00  0.00     0.151 A 
HETATM   10  N5  UNL     1       2.348  -1.525   0.433  1.00  0.00    -0.241 NA
ENDROOT
BRANCH   1  11
HETATM   11  N1  UNL     1       2.461   0.850   0.173  1.00  0.00    -0.308 N 
HETATM   12  C1  UNL     1       3.871   0.880   0.274  1.00  0.00     0.247 C 
HETATM   13  O1  UNL     1       4.541  -0.172   0.442  1.00  0.00    -0.268 OA
HETATM   14  H3  UNL     1       1.994   1.768   0.035  1.00  0.00     0.170 HD
BRANCH  12  15
HETATM   15  C2  UNL     1       4.675   2.095   0.196  1.00  0.00     0.086 C 
HETATM   16  C3  UNL     1       5.986   1.946   0.310  1.00  0.00     0.090 C 
HETATM   17 CL1  UNL     1       6.808   0.416   0.544  1.00  0.00    -0.097 Cl
ENDBRANCH  12  15
ENDBRANCH   1  11
BRANCH   4  18
HETATM   18  N2  UNL     1      -2.473  -0.225  -0.072  1.00  0.00    -0.316 N 
HETATM   19  C8  UNL     1      -2.946   0.523   1.046  1.00  0.00     0.094 A 
HETATM   20  C9  UNL     1      -3.626   1.611   0.759  1.00  0.00    -0.004 A 
HETATM   21  C10 UNL     1      -3.955   2.149  -0.578  1.00  0.00     0.076 A 
HETATM   22  C11 UNL     1      -3.396   1.264  -1.630  1.00  0.00     0.008 A 
HETATM   23 BR1  UNL     1      -3.748   1.842  -3.420  1.00  0.00    -0.054 Br
HETATM   24  C12 UNL     1      -2.693   0.139  -1.433  1.00  0.00     0.113 A 
ENDBRANCH   4  18
TORSDOF 3
