REMARK  9 active torsions:
REMARK  status: ('A' for Active; 'I' for Inactive)
REMARK    1  A    between atoms: N1_1  and  C1_2 
REMARK    2  A    between atoms: C3_5  and  C4_6 
REMARK    3  A    between atoms: C4_6  and  C5_7 
REMARK    4  A    between atoms: C5_7  and  C6_8 
REMARK    5  A    between atoms: C6_8  and  O1_9 
REMARK    6  A    between atoms: C8_11  and  C9_12 
REMARK    7  A    between atoms: C9_12  and  N3_13 
REMARK    8  A    between atoms: C10_14  and  N4_15 
REMARK    9  A    between atoms: N4_15  and  C11_16 
ROOT
HETATM    1  C1  UNL     1      -1.586  -2.909  -0.084  1.00  0.00     0.097 C 
HETATM    2  N2  UNL     1      -2.609  -2.441   0.583  1.00  0.00    -0.247 NA
HETATM    3  C2  UNL     1      -3.079  -1.082   0.716  1.00  0.00     0.125 C 
HETATM    4  C3  UNL     1      -2.757   0.174   0.365  1.00  0.00    -0.040 C 
HETATM    5  C7  UNL     1      -1.539   0.494  -0.435  1.00  0.00     0.013 C 
HETATM    6  C8  UNL     1      -0.330  -0.013  -0.757  1.00  0.00    -0.059 C 
HETATM    7  C17 UNL     1       0.296  -1.316  -0.328  1.00  0.00     0.043 C 
HETATM    8  C18 UNL     1      -0.453  -2.452  -0.968  1.00  0.00     0.082 C 
ENDROOT
BRANCH   6   9
HETATM    9  C9  UNL     1       0.536   0.772  -1.646  1.00  0.00     0.184 C 
BRANCH   9  10
HETATM   10  N3  UNL     1       1.789   1.105  -0.997  1.00  0.00    -0.281 NA
HETATM   11  C10 UNL     1       1.785   1.073   0.314  1.00  0.00     0.201 C 
BRANCH  11  12
HETATM   12  N4  UNL     1       3.014   1.400   0.946  1.00  0.00    -0.351 N 
HETATM   13  H15 UNL     1       2.994   2.016   1.803  1.00  0.00     0.166 HD
BRANCH  12  14
HETATM   14  C11 UNL     1       4.268   0.937   0.486  1.00  0.00     0.034 A 
HETATM   15  C12 UNL     1       4.509   0.113  -0.569  1.00  0.00     0.029 A 
HETATM   16  C13 UNL     1       5.777  -0.287  -0.954  1.00  0.00     0.004 A 
HETATM   17  C14 UNL     1       6.878   0.134  -0.278  1.00  0.00     0.024 A 
HETATM   18  C15 UNL     1       6.695   0.964   0.793  1.00  0.00     0.036 A 
HETATM   19 CL1  UNL     1       8.090   1.526   1.688  1.00  0.00    -0.084 Cl
HETATM   20  C16 UNL     1       5.435   1.337   1.143  1.00  0.00     0.053 A 
ENDBRANCH  12  14
ENDBRANCH  11  12
ENDBRANCH   9  10
ENDBRANCH   6   9
BRANCH   4  21
HETATM   21  C4  UNL     1      -3.402   1.439   0.616  1.00  0.00     0.042 C 
BRANCH  21  22
HETATM   22  C5  UNL     1      -4.732   1.494   1.239  1.00  0.00     0.030 C 
BRANCH  22  23
HETATM   23  C6  UNL     1      -5.875   0.890   0.504  1.00  0.00     0.164 C 
BRANCH  23  24
HETATM   24  O1  UNL     1      -6.070   1.506  -0.755  1.00  0.00    -0.401 OA
HETATM   25  H10 UNL     1      -5.735   2.439  -0.726  1.00  0.00     0.209 HD
ENDBRANCH  23  24
ENDBRANCH  22  23
ENDBRANCH  21  22
ENDBRANCH   4  21
BRANCH   1  26
HETATM   26  N1  UNL     1      -1.663  -4.302   0.181  1.00  0.00    -0.387 N 
HETATM   27  H1  UNL     1      -2.437  -4.712  -0.404  1.00  0.00     0.157 HD
HETATM   28  H2  UNL     1      -1.030  -4.792   0.858  1.00  0.00     0.157 HD
ENDBRANCH   1  26
TORSDOF 9
