REMARK  8 active torsions:
REMARK  status: ('A' for Active; 'I' for Inactive)
REMARK    1  A    between atoms: O1_1  and  C1_2 
REMARK    2  A    between atoms: C1_2  and  C2_3 
REMARK    3  A    between atoms: C2_3  and  C3_4 
REMARK    4  A    between atoms: C3_4  and  N1_5 
REMARK    5  A    between atoms: N1_5  and  C4_6 
REMARK    6  A    between atoms: C6_8  and  C7_9 
REMARK    7  A    between atoms: C10_13  and  N3_14 
REMARK    8  A    between atoms: N3_14  and  C11_15 
ROOT
HETATM    1  C7  UNL     1       0.473  -2.036  -1.173  1.00  0.00     0.088 A 
HETATM    2  C8  UNL     1       1.044  -2.625  -2.295  1.00  0.00     0.148 A 
HETATM    3  N2  UNL     1       2.360  -2.498  -2.528  1.00  0.00    -0.267 NA
HETATM    4  C9  UNL     1       3.075  -1.780  -1.626  1.00  0.00     0.166 A 
HETATM    5  C10 UNL     1       2.534  -1.182  -0.500  1.00  0.00     0.146 A 
HETATM    6  N4  UNL     1       1.213  -1.342  -0.319  1.00  0.00    -0.228 NA
ENDROOT
BRANCH   1   7
HETATM    7  C6  UNL     1      -0.954  -2.168  -0.906  1.00  0.00     0.011 A 
HETATM    8  C5  UNL     1      -1.721  -1.699   0.091  1.00  0.00     0.046 A 
HETATM    9  C4  UNL     1      -3.140  -2.106  -0.078  1.00  0.00     0.365 A 
HETATM   10  N5  UNL     1      -3.105  -2.869  -1.294  1.00  0.00    -0.262 NA
HETATM   11  C17 UNL     1      -1.896  -2.896  -1.741  1.00  0.00     0.127 A 
BRANCH   9  12
HETATM   12  N1  UNL     1      -4.019  -0.976  -0.136  1.00  0.00     0.112 N 
HETATM   13  H8  UNL     1      -4.982  -1.264  -0.351  1.00  0.00     0.319 HD
BRANCH  12  14
HETATM   14  C3  UNL     1      -3.899  -0.230   1.104  1.00  0.00     0.275 C 
BRANCH  14  15
HETATM   15  C2  UNL     1      -4.806   0.982   1.112  1.00  0.00     0.056 C 
BRANCH  15  16
HETATM   16  C1  UNL     1      -4.467   1.919  -0.021  1.00  0.00     0.165 C 
BRANCH  16  17
HETATM   17  O1  UNL     1      -3.137   2.350   0.112  1.00  0.00    -0.401 OA
HETATM   18  H1  UNL     1      -3.078   3.305  -0.121  1.00  0.00     0.209 HD
ENDBRANCH  16  17
ENDBRANCH  15  16
ENDBRANCH  14  15
ENDBRANCH  12  14
ENDBRANCH   9  12
ENDBRANCH   1   7
BRANCH   5  19
HETATM   19  N3  UNL     1       3.449  -0.478   0.322  1.00  0.00    -0.340 N 
HETATM   20  H13 UNL     1       3.680  -1.257   0.945  1.00  0.00     0.167 HD
BRANCH  19  21
HETATM   21  C11 UNL     1       3.957   0.848   0.370  1.00  0.00     0.035 A 
HETATM   22  C12 UNL     1       3.563   1.765  -0.579  1.00  0.00     0.029 A 
HETATM   23  C13 UNL     1       4.093   3.049  -0.481  1.00  0.00     0.004 A 
HETATM   24  C14 UNL     1       4.980   3.349   0.548  1.00  0.00     0.024 A 
HETATM   25  C15 UNL     1       5.340   2.376   1.479  1.00  0.00     0.036 A 
HETATM   26 CL1  UNL     1       6.465   2.748   2.789  1.00  0.00    -0.084 Cl
HETATM   27  C16 UNL     1       4.828   1.081   1.411  1.00  0.00     0.053 A 
ENDBRANCH  19  21
ENDBRANCH   5  19
TORSDOF 8
