REMARK  0 active torsions:
REMARK  status: ('A' for Active; 'I' for Inactive)
ROOT
HETATM    1 CL1  UNL     1       5.784  -0.722   0.630  1.00  0.00    -0.200 Cl
HETATM    2  C1  UNL     1       4.370  -0.050  -0.129  1.00  0.00     0.048 A 
HETATM    3  C2  UNL     1       3.961  -1.259   0.277  1.00  0.00     0.189 A 
HETATM    4  C3  UNL     1       2.663  -1.978   0.175  1.00  0.00     0.107 C 
HETATM    5  N1  UNL     1       1.429  -2.095  -0.185  1.00  0.00    -0.279 NA
HETATM    6  C4  UNL     1       0.677  -3.290   0.123  1.00  0.00     0.315 C 
HETATM    7  O1  UNL     1      -0.615  -2.913   0.498  1.00  0.00    -0.370 OA
HETATM    8  C5  UNL     1      -1.395  -3.983   0.844  1.00  0.00     0.171 C 
HETATM    9  C6  UNL     1      -2.811  -3.519   1.224  1.00  0.00     0.056 C 
HETATM   10  C7  UNL     1      -2.646  -2.540   2.349  1.00  0.00     0.275 C 
HETATM   11  N2  UNL     1      -1.846  -1.430   1.905  1.00  0.00     0.112 N 
HETATM   12  C8  UNL     1      -2.473  -0.585   0.926  1.00  0.00     0.369 C 
HETATM   13  C9  UNL     1      -1.420   0.218   0.219  1.00  0.00     0.067 C 
HETATM   14  S1  UNL     1      -1.109   1.800   0.124  1.00  0.00    -0.172 SA
HETATM   15  C10 UNL     1      -2.524   2.619   0.922  1.00  0.00     0.115 C 
HETATM   16  C11 UNL     1      -3.429   1.548   1.482  1.00  0.00     0.096 C 
HETATM   17  N3  UNL     1      -3.401   0.270   1.591  1.00  0.00    -0.266 NA
HETATM   18  C12 UNL     1      -1.038   2.315  -1.583  1.00  0.00     0.216 C 
HETATM   19  N4  UNL     1       0.074   3.130  -1.900  1.00  0.00    -0.285 NA
HETATM   20  C13 UNL     1       0.078   4.038  -2.831  1.00  0.00     0.155 C 
HETATM   21  S2  UNL     1       1.568   5.020  -3.141  1.00  0.00    -0.122 SA
HETATM   22  C14 UNL     1       2.980   4.169  -2.363  1.00  0.00     0.045 C 
HETATM   23  C15 UNL     1       3.815   3.301  -1.746  1.00  0.00     0.068 C 
HETATM   24  C16 UNL     1       3.365   1.959  -1.294  1.00  0.00    -0.023 C 
HETATM   25  C17 UNL     1       4.370   1.319  -0.723  1.00  0.00    -0.009 C 
HETATM   26  H11 UNL     1      -1.568  -0.830   2.718  1.00  0.00     0.319 HD
ENDROOT
TORSDOF 0
