REMARK  7 active torsions:
REMARK  status: ('A' for Active; 'I' for Inactive)
REMARK    1  A    between atoms: O1_1  and  C1_2 
REMARK    2  A    between atoms: C1_2  and  C2_3 
REMARK    3  A    between atoms: C2_3  and  C3_4 
REMARK    4  A    between atoms: C3_4  and  C4_5 
REMARK    5  A    between atoms: C7_9  and  C8_10 
REMARK    6  A    between atoms: C11_14  and  N3_15 
REMARK    7  A    between atoms: N3_15  and  C12_16 
ROOT
HETATM    1  C8  UNL     1      -0.153  -1.209   0.760  1.00  0.00     0.088 A 
HETATM    2  C9  UNL     1       0.200  -2.486   1.115  1.00  0.00     0.148 A 
HETATM    3  N2  UNL     1      -0.701  -3.464   1.149  1.00  0.00    -0.267 NA
HETATM    4  C10 UNL     1      -1.979  -3.213   0.834  1.00  0.00     0.166 A 
HETATM    5  C11 UNL     1      -2.400  -1.953   0.468  1.00  0.00     0.146 A 
HETATM    6  N4  UNL     1      -1.436  -1.021   0.457  1.00  0.00    -0.228 NA
ENDROOT
BRANCH   1   7
HETATM    7  C7  UNL     1       0.835  -0.143   0.724  1.00  0.00     0.012 A 
HETATM    8  C6  UNL     1       0.516   1.148   0.372  1.00  0.00     0.130 A 
HETATM    9  N1  UNL     1       1.381   2.173   0.320  1.00  0.00    -0.272 NA
HETATM   10  C5  UNL     1       2.677   1.979   0.627  1.00  0.00     0.123 A 
HETATM   11  C4  UNL     1       3.087   0.697   0.994  1.00  0.00    -0.040 A 
HETATM   12  C18 UNL     1       2.147  -0.334   1.032  1.00  0.00     0.024 A 
BRANCH  11  13
HETATM   13  C3  UNL     1       4.509   0.447   1.339  1.00  0.00     0.042 C 
BRANCH  13  14
HETATM   14  C2  UNL     1       5.307   0.053   0.102  1.00  0.00     0.030 C 
BRANCH  14  15
HETATM   15  C1  UNL     1       5.209   1.208  -0.888  1.00  0.00     0.164 C 
BRANCH  15  16
HETATM   16  O1  UNL     1       5.927   0.908  -2.058  1.00  0.00    -0.401 OA
HETATM   17  H1  UNL     1       5.714  -0.037  -2.267  1.00  0.00     0.209 HD
ENDBRANCH  15  16
ENDBRANCH  14  15
ENDBRANCH  13  14
ENDBRANCH  11  13
ENDBRANCH   1   7
BRANCH   5  18
HETATM   18  N3  UNL     1      -3.762  -1.733   0.143  1.00  0.00    -0.340 N 
HETATM   19  H12 UNL     1      -4.398  -2.585   0.203  1.00  0.00     0.167 HD
BRANCH  18  20
HETATM   20  C12 UNL     1      -4.429  -0.547  -0.256  1.00  0.00     0.035 A 
HETATM   21  C13 UNL     1      -5.779  -0.527  -0.535  1.00  0.00     0.029 A 
HETATM   22  C14 UNL     1      -6.440   0.608  -0.921  1.00  0.00     0.004 A 
HETATM   23  C15 UNL     1      -5.772   1.805  -1.051  1.00  0.00     0.024 A 
HETATM   24  C16 UNL     1      -4.421   1.855  -0.788  1.00  0.00     0.036 A 
HETATM   25 CL1  UNL     1      -3.543   3.361  -0.945  1.00  0.00    -0.084 Cl
HETATM   26  C17 UNL     1      -3.817   0.678  -0.404  1.00  0.00     0.053 A 
ENDBRANCH  18  20
ENDBRANCH   5  18
TORSDOF 7
