REMARK  2 active torsions:
REMARK  status: ('A' for Active; 'I' for Inactive)
REMARK    1  A    between atoms: C5_6  and  N1_7 
REMARK    2  A    between atoms: N1_7  and  C6_8 
ROOT
HETATM    1  C6  UNL     1       1.218  -0.311  -0.684  1.00  0.00     0.172 C 
HETATM    2  N2  UNL     1       1.177  -0.143   0.598  1.00  0.00    -0.114 NA
HETATM    3  O1  UNL     1      -0.175  -0.024   1.093  1.00  0.00    -0.255 OA
HETATM    4  C7  UNL     1      -0.537   1.218   1.579  1.00  0.00     0.204 C 
HETATM    5  C8  UNL     1      -1.907   1.404   2.035  1.00  0.00     0.033 C 
HETATM    6  C9  UNL     1      -3.077   1.307   1.180  1.00  0.00     0.043 C 
HETATM    7  C10 UNL     1      -3.638   0.079   0.697  1.00  0.00    -0.033 C 
HETATM    8  C11 UNL     1      -4.107  -1.122   0.967  1.00  0.00     0.123 C 
HETATM    9  N3  UNL     1      -4.673  -2.194   0.221  1.00  0.00    -0.276 NA
HETATM   10  C12 UNL     1      -4.815  -1.967  -1.066  1.00  0.00     0.093 C 
HETATM   11  C13 UNL     1      -4.386  -0.584  -1.586  1.00  0.00     0.087 C 
HETATM   12  C14 UNL     1      -3.263  -0.177  -0.746  1.00  0.00    -0.028 C 
HETATM   13  C15 UNL     1      -2.175  -0.329  -1.483  1.00  0.00     0.124 C 
HETATM   14  N4  UNL     1      -0.880  -0.279  -0.941  1.00  0.00    -0.269 NA
HETATM   15  C16 UNL     1       0.153  -0.425  -1.682  1.00  0.00     0.168 C 
ENDROOT
BRANCH   1  16
HETATM   16  N1  UNL     1       2.559  -0.415  -1.127  1.00  0.00    -0.338 N 
HETATM   17  H4  UNL     1       2.810  -0.578  -2.129  1.00  0.00     0.167 HD
BRANCH  16  18
HETATM   18  C5  UNL     1       3.802  -0.343  -0.448  1.00  0.00     0.035 A 
HETATM   19  C4  UNL     1       4.078   0.986  -0.123  1.00  0.00     0.029 A 
HETATM   20  C3  UNL     1       5.271   1.290   0.526  1.00  0.00     0.004 A 
HETATM   21  C2  UNL     1       6.111   0.248   0.809  1.00  0.00     0.024 A 
HETATM   22  C1  UNL     1       5.829  -1.077   0.481  1.00  0.00     0.036 A 
HETATM   23 CL1  UNL     1       6.878  -2.442   0.817  1.00  0.00    -0.084 Cl
HETATM   24  C17 UNL     1       4.648  -1.385  -0.163  1.00  0.00     0.053 A 
ENDBRANCH  16  18
ENDBRANCH   1  16
TORSDOF 2
