REMARK  8 active torsions:
REMARK  status: ('A' for Active; 'I' for Inactive)
REMARK    1  A    between atoms: O1_1  and  C1_2 
REMARK    2  A    between atoms: C1_2  and  C2_3 
REMARK    3  A    between atoms: C2_3  and  C3_4 
REMARK    4  A    between atoms: C3_4  and  N1_5 
REMARK    5  A    between atoms: N1_5  and  C4_6 
REMARK    6  A    between atoms: C7_10  and  C8_11 
REMARK    7  A    between atoms: C11_15  and  N4_16 
REMARK    8  A    between atoms: N4_16  and  C12_17 
ROOT
HETATM    1  C8  UNL     1      -1.016  -0.003   2.079  1.00  0.00     0.088 A 
HETATM    2  C9  UNL     1      -1.882   0.008   3.144  1.00  0.00     0.148 A 
HETATM    3  N3  UNL     1      -3.182  -0.353   2.976  1.00  0.00    -0.267 NA
HETATM    4  C10 UNL     1      -3.584  -0.717   1.740  1.00  0.00     0.166 A 
HETATM    5  C11 UNL     1      -2.763  -0.746   0.641  1.00  0.00     0.146 A 
HETATM    6  N5  UNL     1      -1.503  -0.377   0.895  1.00  0.00    -0.228 NA
ENDROOT
BRANCH   1   7
HETATM    7  C7  UNL     1       0.394   0.345   2.163  1.00  0.00     0.014 A 
HETATM    8  C6  UNL     1       1.026   0.740   3.321  1.00  0.00     0.130 A 
HETATM    9  N2  UNL     1       2.327   1.070   3.414  1.00  0.00    -0.270 NA
HETATM   10  C5  UNL     1       3.075   1.015   2.313  1.00  0.00     0.145 A 
HETATM   11  C4  UNL     1       2.553   0.634   1.095  1.00  0.00     0.046 A 
HETATM   12  C18 UNL     1       1.213   0.305   1.050  1.00  0.00     0.046 A 
BRANCH  11  13
HETATM   13  N1  UNL     1       3.353   0.583  -0.059  1.00  0.00    -0.389 N 
HETATM   14  H8  UNL     1       2.915   0.286  -0.975  1.00  0.00     0.159 HD
BRANCH  13  15
HETATM   15  C3  UNL     1       4.761   0.927  -0.020  1.00  0.00     0.122 C 
BRANCH  15  16
HETATM   16  C2  UNL     1       5.354   0.801  -1.394  1.00  0.00     0.045 C 
BRANCH  16  17
HETATM   17  C1  UNL     1       6.811   1.138  -1.454  1.00  0.00     0.165 C 
BRANCH  17  18
HETATM   18  O1  UNL     1       7.109   2.435  -1.056  1.00  0.00    -0.401 OA
HETATM   19  H1  UNL     1       8.034   2.464  -0.722  1.00  0.00     0.209 HD
ENDBRANCH  17  18
ENDBRANCH  16  17
ENDBRANCH  15  16
ENDBRANCH  13  15
ENDBRANCH  11  13
ENDBRANCH   1   7
BRANCH   5  20
HETATM   20  N4  UNL     1      -3.095  -1.091  -0.685  1.00  0.00    -0.340 N 
HETATM   21  H13 UNL     1      -2.310  -1.156  -1.384  1.00  0.00     0.167 HD
BRANCH  20  22
HETATM   22  C12 UNL     1      -4.311  -1.388  -1.334  1.00  0.00     0.035 A 
HETATM   23  C13 UNL     1      -4.391  -2.297  -2.395  1.00  0.00     0.029 A 
HETATM   24  C14 UNL     1      -5.586  -2.554  -3.025  1.00  0.00     0.004 A 
HETATM   25  C15 UNL     1      -6.766  -1.945  -2.659  1.00  0.00     0.024 A 
HETATM   26  C16 UNL     1      -6.721  -1.043  -1.616  1.00  0.00     0.036 A 
HETATM   27 CL1  UNL     1      -8.239  -0.307  -1.184  1.00  0.00    -0.084 Cl
HETATM   28  C17 UNL     1      -5.503  -0.791  -0.989  1.00  0.00     0.053 A 
ENDBRANCH  20  22
ENDBRANCH   5  20
TORSDOF 8
