REMARK  8 active torsions:
REMARK  status: ('A' for Active; 'I' for Inactive)
REMARK    1  A    between atoms: O1_1  and  C1_2 
REMARK    2  A    between atoms: C1_2  and  C2_3 
REMARK    3  A    between atoms: C2_3  and  C3_4 
REMARK    4  A    between atoms: C3_4  and  C4_5 
REMARK    5  A    between atoms: C4_5  and  N1_6 
REMARK    6  A    between atoms: N1_6  and  C5_7 
REMARK    7  A    between atoms: C8_11  and  C9_12 
REMARK    8  A    between atoms: C12_16  and  C13_17 
ROOT
HETATM    1  C5  UNL     1      -1.912  -1.036  -0.331  1.00  0.00     0.046 A 
HETATM    2  C6  UNL     1      -1.502  -1.530  -1.528  1.00  0.00     0.145 A 
HETATM    3  N2  UNL     1      -0.238  -1.581  -1.983  1.00  0.00    -0.270 NA
HETATM    4  C7  UNL     1       0.765  -1.098  -1.194  1.00  0.00     0.130 A 
HETATM    5  C8  UNL     1       0.415  -0.582   0.036  1.00  0.00     0.014 A 
HETATM    6  C18 UNL     1      -0.894  -0.550   0.461  1.00  0.00     0.046 A 
ENDROOT
BRANCH   5   7
HETATM    7  C9  UNL     1       1.510  -0.076   0.853  1.00  0.00     0.086 A 
HETATM    8  C10 UNL     1       1.382   0.479   2.108  1.00  0.00     0.148 A 
HETATM    9  N3  UNL     1       2.422   0.934   2.828  1.00  0.00    -0.268 NA
HETATM   10  C11 UNL     1       3.669   0.864   2.336  1.00  0.00     0.148 A 
HETATM   11  C12 UNL     1       3.840   0.315   1.083  1.00  0.00     0.083 A 
HETATM   12  N4  UNL     1       2.766  -0.140   0.374  1.00  0.00    -0.245 NA
BRANCH  11  13
HETATM   13  C13 UNL     1       5.152   0.175   0.419  1.00  0.00    -0.006 A 
HETATM   14  C14 UNL     1       5.429  -0.339  -0.786  1.00  0.00     0.011 A 
HETATM   15  C15 UNL     1       6.851  -0.266  -1.011  1.00  0.00    -0.002 A 
HETATM   16  C16 UNL     1       7.432   0.281   0.035  1.00  0.00    -0.002 A 
HETATM   17  C17 UNL     1       6.399   0.621   1.062  1.00  0.00     0.140 A 
HETATM   18 CL1  UNL     1       6.299   2.393   1.266  1.00  0.00    -0.116 Cl
ENDBRANCH  11  13
ENDBRANCH   5   7
BRANCH   1  19
HETATM   19  N1  UNL     1      -3.240  -0.973   0.129  1.00  0.00    -0.389 N 
HETATM   20  H10 UNL     1      -3.417  -0.601   1.098  1.00  0.00     0.159 HD
BRANCH  19  21
HETATM   21  C4  UNL     1      -4.461  -1.354  -0.545  1.00  0.00     0.120 C 
BRANCH  21  22
HETATM   22  C3  UNL     1      -4.720  -0.350  -1.647  1.00  0.00     0.022 C 
BRANCH  22  23
HETATM   23  C2  UNL     1      -4.855   1.017  -0.993  1.00  0.00     0.028 C 
BRANCH  23  24
HETATM   24  C1  UNL     1      -5.991   1.085  -0.001  1.00  0.00     0.164 C 
BRANCH  24  25
HETATM   25  O1  UNL     1      -5.974   2.407   0.495  1.00  0.00    -0.401 OA
HETATM   26  H1  UNL     1      -6.865   2.672   0.833  1.00  0.00     0.209 HD
ENDBRANCH  24  25
ENDBRANCH  23  24
ENDBRANCH  22  23
ENDBRANCH  21  22
ENDBRANCH  19  21
ENDBRANCH   1  19
TORSDOF 8
