REMARK  2 active torsions:
REMARK  status: ('A' for Active; 'I' for Inactive)
REMARK    1  A    between atoms: C5_6  and  N1_7 
REMARK    2  A    between atoms: N1_7  and  C6_8 
ROOT
HETATM    1  C6  UNL     1       1.015  -0.579  -0.165  1.00  0.00     0.160 A 
HETATM    2  N2  UNL     1       1.602  -1.755  -0.403  1.00  0.00    -0.222 NA
HETATM    3  C7  UNL     1       0.885  -2.857  -0.646  1.00  0.00     0.238 A 
HETATM    4  N3  UNL     1      -0.471  -2.850  -0.667  1.00  0.00    -0.215 NA
HETATM    5  C8  UNL     1      -1.141  -1.686  -0.433  1.00  0.00     0.202 A 
HETATM    6  C9  UNL     1      -0.351  -0.576  -0.187  1.00  0.00     0.129 A 
HETATM    7  N4  UNL     1      -0.884   0.735   0.067  1.00  0.00    -0.379 N 
HETATM    8  C10 UNL     1      -2.102   1.102   0.763  1.00  0.00     0.161 C 
HETATM    9  C11 UNL     1      -3.291   0.377   0.301  1.00  0.00    -0.007 A 
HETATM   10  C12 UNL     1      -4.397   1.209   0.479  1.00  0.00     0.011 A 
HETATM   11  C13 UNL     1      -5.664   0.793   0.130  1.00  0.00     0.001 A 
HETATM   12  C14 UNL     1      -5.870  -0.470  -0.409  1.00  0.00     0.003 A 
HETATM   13  C15 UNL     1      -4.780  -1.324  -0.597  1.00  0.00     0.038 A 
HETATM   14  C16 UNL     1      -3.512  -0.894  -0.243  1.00  0.00     0.086 A 
HETATM   15  O1  UNL     1      -2.530  -1.858  -0.491  1.00  0.00    -0.289 OA
HETATM   16  H6  UNL     1      -0.238   1.478  -0.346  1.00  0.00     0.160 HD
ENDROOT
BRANCH   1  17
HETATM   17  N1  UNL     1       1.771   0.579   0.096  1.00  0.00    -0.339 N 
HETATM   18  H4  UNL     1       1.521   1.555   0.307  1.00  0.00     0.167 HD
BRANCH  17  19
HETATM   19  C5  UNL     1       3.185   0.621   0.142  1.00  0.00     0.035 A 
HETATM   20  C4  UNL     1       3.880  -0.500   0.537  1.00  0.00     0.029 A 
HETATM   21  C3  UNL     1       5.257  -0.529   0.579  1.00  0.00     0.004 A 
HETATM   22  C2  UNL     1       6.032   0.545   0.236  1.00  0.00     0.019 A 
HETATM   23  C1  UNL     1       5.390   1.695  -0.168  1.00  0.00     0.013 A 
HETATM   24 BR1  UNL     1       6.305   3.285  -0.682  1.00  0.00    -0.051 Br
HETATM   25  C17 UNL     1       4.015   1.694  -0.200  1.00  0.00     0.048 A 
ENDBRANCH  17  19
ENDBRANCH   1  17
TORSDOF 2
