REMARK  2 active torsions:
REMARK  status: ('A' for Active; 'I' for Inactive)
REMARK    1  A    between atoms: C5_6  and  N1_7 
REMARK    2  A    between atoms: N1_7  and  B1_8 
ROOT
HETATM    1  B1  UNL     1       0.048  -0.233  -1.443  1.00  0.00     0.375 B 
HETATM    2  C6  UNL     1       0.776   1.167  -1.190  1.00  0.00    -0.045 C 
HETATM    3  C7  UNL     1       1.404   1.899  -0.280  1.00  0.00    -0.012 C 
HETATM    4  C8  UNL     1       2.111   2.809   0.617  1.00  0.00     0.011 C 
HETATM    5  C9  UNL     1       3.296   2.427   1.088  1.00  0.00    -0.028 C 
HETATM    6  C10 UNL     1       3.383   1.098   1.140  1.00  0.00     0.005 C 
HETATM    7  C11 UNL     1       3.476   0.537  -0.225  1.00  0.00     0.148 C 
HETATM    8  N2  UNL     1       3.013  -0.802  -0.423  1.00  0.00    -0.384 N 
HETATM    9  C12 UNL     1       1.802  -1.536  -0.119  1.00  0.00     0.062 A 
HETATM   10  C13 UNL     1       2.061  -2.612   0.754  1.00  0.00     0.148 A 
HETATM   11  N3  UNL     1       1.147  -3.506   1.248  1.00  0.00    -0.252 NA
HETATM   12  C14 UNL     1      -0.117  -3.304   0.836  1.00  0.00     0.231 A 
HETATM   13  N4  UNL     1      -0.410  -2.300   0.010  1.00  0.00    -0.253 NA
HETATM   14  C15 UNL     1       0.469  -1.424  -0.477  1.00  0.00     0.053 A 
HETATM   15  H11 UNL     1       3.632  -1.524  -0.924  1.00  0.00     0.160 HD
ENDROOT
BRANCH   1  16
HETATM   16  N1  UNL     1      -1.422  -0.108  -1.791  1.00  0.00    -0.429 N 
HETATM   17  H4  UNL     1      -1.581  -0.276  -2.803  1.00  0.00     0.139 HD
BRANCH  16  18
HETATM   18  C5  UNL     1      -2.447   0.199  -0.856  1.00  0.00     0.015 A 
HETATM   19  C4  UNL     1      -2.083   0.398   0.458  1.00  0.00     0.028 A 
HETATM   20  C3  UNL     1      -3.123   0.697   1.339  1.00  0.00     0.003 A 
HETATM   21  C2  UNL     1      -4.428   0.780   0.882  1.00  0.00     0.019 A 
HETATM   22  C1  UNL     1      -4.764   0.572  -0.461  1.00  0.00     0.013 A 
HETATM   23 BR1  UNL     1      -6.560   0.694  -1.051  1.00  0.00    -0.051 Br
HETATM   24  C16 UNL     1      -3.731   0.272  -1.355  1.00  0.00     0.046 A 
ENDBRANCH  16  18
ENDBRANCH   1  16
TORSDOF 2
