REMARK  4 active torsions:
REMARK  status: ('A' for Active; 'I' for Inactive)
REMARK    1  A    between atoms: N1_7  and  C7_8 
REMARK    2  A    between atoms: C9_11  and  C10_12 
REMARK    3  A    between atoms: N3_13  and  C11_14 
REMARK    4  A    between atoms: C17_22  and  N5_23 
ROOT
HETATM    1  C10 UNL     1       0.148   0.942   0.363  1.00  0.00     0.118 C 
HETATM    2  N3  UNL     1      -0.156  -0.150  -0.217  1.00  0.00    -0.273 NA
ENDROOT
BRANCH   2   3
HETATM    3  C11 UNL     1      -1.461  -0.492  -0.645  1.00  0.00     0.145 C 
HETATM    4  C12 UNL     1      -2.760  -0.379  -0.841  1.00  0.00     0.081 C 
HETATM    5  N4  UNL     1      -3.316  -1.503  -1.518  1.00  0.00    -0.388 N 
HETATM    6  C17 UNL     1      -3.283   0.901  -0.297  1.00  0.00     0.405 C 
HETATM    7  C13 UNL     1      -4.628  -2.143  -1.538  1.00  0.00     0.119 C 
HETATM    8  H16 UNL     1      -2.627  -1.969  -2.135  1.00  0.00     0.159 HD
HETATM    9  C14 UNL     1      -5.694  -1.093  -1.329  1.00  0.00     0.022 C 
HETATM   10  C15 UNL     1      -5.837  -0.697   0.110  1.00  0.00     0.028 C 
HETATM   11  C16 UNL     1      -5.521   0.795   0.273  1.00  0.00     0.171 C 
HETATM   12  O1  UNL     1      -4.590   1.132  -0.681  1.00  0.00    -0.353 OA
BRANCH   6  13
HETATM   13  N5  UNL     1      -3.250   0.855   1.147  1.00  0.00     0.113 N 
HETATM   14  H26 UNL     1      -2.807   1.703   1.574  1.00  0.00     0.316 HD
HETATM   15  H27 UNL     1      -2.803  -0.007   1.517  1.00  0.00     0.316 HD
ENDBRANCH   6  13
ENDBRANCH   2   3
BRANCH   1  16
HETATM   16  C9  UNL     1       1.588   1.122   0.742  1.00  0.00     0.175 A 
HETATM   17  C7  UNL     1       2.517   1.347  -0.370  1.00  0.00     0.150 A 
HETATM   18  C8  UNL     1       2.674   2.629   0.288  1.00  0.00     0.111 A 
HETATM   19  N2  UNL     1       1.891   2.402   1.200  1.00  0.00    -0.291 NA
BRANCH  17  20
HETATM   20  N1  UNL     1       3.647   0.476  -0.413  1.00  0.00    -0.394 N 
HETATM   21  C2  UNL     1       4.702   0.685   0.487  1.00  0.00     0.079 C 
HETATM   22  C1  UNL     1       4.495  -0.204   1.712  1.00  0.00     0.032 C 
HETATM   23  C3  UNL     1       6.065   0.306  -0.051  1.00  0.00     0.051 C 
HETATM   24  C4  UNL     1       5.879  -0.831  -0.989  1.00  0.00    -0.027 C 
HETATM   25  C5  UNL     1       4.780  -1.383  -1.484  1.00  0.00    -0.011 C 
HETATM   26  C6  UNL     1       3.497  -0.775  -1.037  1.00  0.00     0.145 C 
ENDBRANCH  17  20
ENDBRANCH   1  16
TORSDOF 4
