REMARK  1 active torsions:
REMARK  status: ('A' for Active; 'I' for Inactive)
REMARK    1  A    between atoms: C3_3  and  N1_4 
ROOT
HETATM    1  N1  UNL     1       1.119  -0.344   1.329  1.00  0.00    -0.302 N 
HETATM    2  C4  UNL     1       1.144   0.911   2.063  1.00  0.00     0.194 C 
HETATM    3  C5  UNL     1       1.660   2.021   1.197  1.00  0.00     0.111 C 
HETATM    4  N2  UNL     1       1.477   1.672   0.015  1.00  0.00    -0.276 NA
HETATM    5  C6  UNL     1       1.753   2.291  -1.184  1.00  0.00     0.112 C 
HETATM    6  C7  UNL     1       0.665   3.060  -1.485  1.00  0.00    -0.002 C 
HETATM    7  C8  UNL     1      -0.119   4.030  -2.357  1.00  0.00     0.075 C 
HETATM    8  C9  UNL     1      -1.427   3.495  -2.760  1.00  0.00     0.093 C 
HETATM    9  N3  UNL     1      -1.406   2.223  -2.547  1.00  0.00    -0.277 NA
HETATM   10  C10 UNL     1      -2.479   1.348  -2.804  1.00  0.00     0.112 C 
HETATM   11  C11 UNL     1      -2.734   0.567  -1.778  1.00  0.00    -0.007 C 
HETATM   12  C12 UNL     1      -2.595  -0.013  -0.431  1.00  0.00     0.030 C 
HETATM   13  C13 UNL     1      -2.380  -1.495  -0.553  1.00  0.00     0.034 C 
HETATM   14  C14 UNL     1      -2.314  -2.278   0.678  1.00  0.00     0.274 C 
HETATM   15  N4  UNL     1      -1.340  -2.114   1.671  1.00  0.00     0.102 NA
HETATM   16  C15 UNL     1      -1.714  -3.057   2.756  1.00  0.00     0.312 C 
HETATM   17  C16 UNL     1       0.013  -2.427   1.372  1.00  0.00     0.411 C 
HETATM   18  N5  UNL     1       0.797  -1.514   0.643  1.00  0.00    -0.307 N 
HETATM   19  H27 UNL     1       0.544  -1.336  -0.350  1.00  0.00     0.182 HD
ENDROOT
BRANCH   1  20
HETATM   20  C3  UNL     1       2.484  -0.688   1.112  1.00  0.00     0.106 C 
HETATM   21  C2  UNL     1       3.421  -0.789   0.190  1.00  0.00    -0.012 C 
HETATM   22  C1  UNL     1       4.868  -1.200   0.236  1.00  0.00     0.037 C 
ENDBRANCH   1  20
TORSDOF 1
