REMARK  1 active torsions:
REMARK  status: ('A' for Active; 'I' for Inactive)
REMARK    1  A    between atoms: N1_2  and  C2_3 
ROOT
HETATM    1  C2  UNL     1       3.183  -0.172   0.451  1.00  0.00     0.262 C 
HETATM    2  C3  UNL     1       3.446   1.250   0.145  1.00  0.00     0.033 C 
HETATM    3  C4  UNL     1       3.308   2.575  -0.107  1.00  0.00     0.029 C 
HETATM    4 CL1  UNL     1       4.834   3.469  -0.417  1.00  0.00    -0.085 Cl
HETATM    5  C5  UNL     1       2.068   3.419  -0.160  1.00  0.00     0.002 C 
HETATM    6  C6  UNL     1       1.017   2.588   0.105  1.00  0.00     0.046 C 
HETATM    7  C7  UNL     1      -0.352   3.222   0.108  1.00  0.00    -0.013 C 
HETATM    8  C8  UNL     1      -1.479   2.507   0.359  1.00  0.00     0.010 C 
HETATM    9  C9  UNL     1      -2.942   2.657   0.469  1.00  0.00     0.126 C 
HETATM   10  N2  UNL     1      -3.735   1.880  -0.435  1.00  0.00    -0.373 N 
HETATM   11  C10 UNL     1      -3.906   0.485  -0.541  1.00  0.00     0.141 A 
HETATM   12  C11 UNL     1      -5.019  -0.087  -1.111  1.00  0.00     0.166 A 
HETATM   13  N3  UNL     1      -5.191  -1.417  -1.205  1.00  0.00    -0.267 NA
HETATM   14  C12 UNL     1      -4.280  -2.292  -0.743  1.00  0.00     0.148 A 
HETATM   15  C13 UNL     1      -3.192  -1.686  -0.186  1.00  0.00     0.088 A 
HETATM   16  N4  UNL     1      -3.004  -0.359  -0.084  1.00  0.00    -0.228 NA
HETATM   17  C14 UNL     1      -2.050  -2.386   0.392  1.00  0.00     0.014 A 
HETATM   18  C15 UNL     1      -2.327  -3.586   0.977  1.00  0.00     0.130 A 
HETATM   19  N5  UNL     1      -1.261  -4.242   1.522  1.00  0.00    -0.270 NA
HETATM   20  C16 UNL     1      -0.018  -3.728   1.479  1.00  0.00     0.145 A 
HETATM   21  C17 UNL     1       0.272  -2.537   0.901  1.00  0.00     0.046 A 
HETATM   22  C18 UNL     1      -0.758  -1.854   0.348  1.00  0.00     0.046 A 
HETATM   23  N6  UNL     1       1.518  -1.912   0.797  1.00  0.00    -0.386 N 
HETATM   24  C19 UNL     1       1.678  -0.472   0.536  1.00  0.00     0.159 C 
HETATM   25  H13 UNL     1      -4.306   2.404  -1.165  1.00  0.00     0.161 HD
HETATM   26  H19 UNL     1       2.276  -2.625   0.934  1.00  0.00     0.159 HD
ENDROOT
BRANCH   1  27
HETATM   27  N1  UNL     1       3.690  -1.026  -0.643  1.00  0.00     0.088 N 
HETATM   28  C1  UNL     1       5.119  -0.822  -0.785  1.00  0.00     0.307 C 
HETATM   29  H4  UNL     1       3.243  -0.750  -1.530  1.00  0.00     0.316 HD
ENDBRANCH   1  27
TORSDOF 1
