REMARK  3 active torsions:
REMARK  status: ('A' for Active; 'I' for Inactive)
REMARK    1  A    between atoms: C2_2  and  N1_3 
REMARK    2  A    between atoms: N1_3  and  C3_4 
REMARK    3  A    between atoms: C8_10  and  N3_11 
ROOT
HETATM    1  C3  UNL     1      -2.291  -1.247   0.189  1.00  0.00     0.056 A 
HETATM    2  C4  UNL     1      -2.736  -2.420   0.758  1.00  0.00     0.146 A 
HETATM    3  N2  UNL     1      -1.891  -3.421   1.052  1.00  0.00    -0.270 NA
HETATM    4  C5  UNL     1      -0.584  -3.281   0.787  1.00  0.00     0.125 A 
HETATM    5  C6  UNL     1      -0.128  -2.141   0.230  1.00  0.00    -0.014 A 
HETATM    6  C7  UNL     1      -0.962  -1.041  -0.107  1.00  0.00     0.033 A 
HETATM    7  C8  UNL     1      -0.569   0.270  -0.714  1.00  0.00     0.379 C 
HETATM    8  N4  UNL     1       0.775   0.512  -0.940  1.00  0.00    -0.261 NA
HETATM    9  C11 UNL     1       1.536   0.930  -1.868  1.00  0.00     0.127 C 
HETATM   10  C12 UNL     1       2.751   0.781  -1.031  1.00  0.00     0.009 A 
HETATM   11  C13 UNL     1       3.206   2.057  -0.751  1.00  0.00     0.017 A 
HETATM   12  C14 UNL     1       4.337   2.341   0.018  1.00  0.00     0.025 A 
HETATM   13  C15 UNL     1       5.056   1.289   0.539  1.00  0.00     0.036 A 
HETATM   14 CL1  UNL     1       6.476   1.607   1.506  1.00  0.00    -0.084 Cl
HETATM   15  C16 UNL     1       4.559   0.028   0.230  1.00  0.00     0.055 A 
HETATM   16  C17 UNL     1       3.440  -0.275  -0.530  1.00  0.00     0.056 A 
HETATM   17  N5  UNL     1       3.301  -1.678  -0.585  1.00  0.00    -0.320 N 
HETATM   18  N6  UNL     1       2.392  -2.631   0.017  1.00  0.00    -0.236 NA
HETATM   19  C18 UNL     1       1.231  -1.888  -0.106  1.00  0.00     0.151 C 
HETATM   20  H20 UNL     1       4.064  -2.053  -1.220  1.00  0.00     0.181 HD
HETATM   21  H21 UNL     1       2.384  -3.442  -0.605  1.00  0.00     0.146 HD
ENDROOT
BRANCH   1  22
HETATM   22  N1  UNL     1      -3.302  -0.259  -0.088  1.00  0.00    -0.389 N 
HETATM   23  H6  UNL     1      -3.121   0.669  -0.530  1.00  0.00     0.159 HD
BRANCH  22  24
HETATM   24  C2  UNL     1      -4.698  -0.486   0.230  1.00  0.00     0.115 C 
HETATM   25  C1  UNL     1      -5.592   0.674  -0.141  1.00  0.00     0.026 C 
ENDBRANCH  22  24
ENDBRANCH   1  22
BRANCH   7  26
HETATM   26  N3  UNL     1      -1.009   1.267   0.288  1.00  0.00     0.109 N 
HETATM   27  C9  UNL     1      -0.715   2.608  -0.119  1.00  0.00     0.312 C 
HETATM   28  C10 UNL     1      -0.343   1.010   1.557  1.00  0.00     0.312 C 
ENDBRANCH   7  26
TORSDOF 3
