REMARK  10 active torsions:
REMARK  status: ('A' for Active; 'I' for Inactive)
REMARK    1  A    between atoms: N1_2  and  C3_4 
REMARK    2  A    between atoms: C3_4  and  C4_5 
REMARK    3  A    between atoms: C4_5  and  N2_6 
REMARK    4  A    between atoms: N2_6  and  C5_7 
REMARK    5  A    between atoms: C8_11  and  C9_12 
REMARK    6  A    between atoms: C9_12  and  N4_13 
REMARK    7  A    between atoms: C10_14  and  C11_15 
REMARK    8  A    between atoms: C11_15  and  N5_16 
REMARK    9  A    between atoms: N5_16  and  C12_17 
REMARK   10  A    between atoms: C12_17  and  C13_18 
ROOT
HETATM    1  C5  UNL     1      -2.449  -0.842  -0.036  1.00  0.00     0.046 A 
HETATM    2  C6  UNL     1      -1.776  -1.939  -0.552  1.00  0.00     0.145 A 
HETATM    3  N3  UNL     1      -0.458  -1.907  -0.821  1.00  0.00    -0.270 NA
HETATM    4  C7  UNL     1       0.267  -0.795  -0.598  1.00  0.00     0.125 A 
HETATM    5  C8  UNL     1      -0.318   0.351  -0.085  1.00  0.00    -0.019 A 
HETATM    6  C19 UNL     1      -1.682   0.294   0.186  1.00  0.00     0.041 A 
ENDROOT
BRANCH   5   7
HETATM    7  C9  UNL     1       0.434   1.623   0.188  1.00  0.00     0.188 C 
BRANCH   7   8
HETATM    8  N4  UNL     1       0.906   1.528   1.556  1.00  0.00    -0.299 NA
HETATM    9  C10 UNL     1       2.008   0.950   1.875  1.00  0.00     0.113 C 
BRANCH   9  10
HETATM   10  C11 UNL     1       3.120   0.249   1.252  1.00  0.00     0.335 C 
BRANCH  10  11
HETATM   11  N5  UNL     1       4.210  -0.388   1.048  1.00  0.00    -0.433 NA
BRANCH  11  12
HETATM   12  C12 UNL     1       4.621  -0.785  -0.297  1.00  0.00     0.142 C 
BRANCH  12  13
HETATM   13  C13 UNL     1       6.035  -0.294  -0.459  1.00  0.00    -0.040 A 
HETATM   14  C14 UNL     1       7.063  -1.147  -0.086  1.00  0.00     0.009 A 
HETATM   15  C15 UNL     1       8.389  -0.727  -0.222  1.00  0.00     0.002 A 
HETATM   16  C16 UNL     1       8.654   0.546  -0.732  1.00  0.00     0.024 A 
HETATM   17  C17 UNL     1       7.608   1.397  -1.105  1.00  0.00     0.034 A 
HETATM   18 CL1  UNL     1       7.987   3.002  -1.747  1.00  0.00    -0.084 Cl
HETATM   19  C18 UNL     1       6.288   0.975  -0.969  1.00  0.00     0.032 A 
ENDBRANCH  12  13
ENDBRANCH  11  12
ENDBRANCH  10  11
ENDBRANCH   9  10
ENDBRANCH   7   8
ENDBRANCH   5   7
BRANCH   1  20
HETATM   20  N2  UNL     1      -3.853  -0.849   0.261  1.00  0.00    -0.387 N 
HETATM   21  H11 UNL     1      -4.348  -1.760   0.057  1.00  0.00     0.159 HD
BRANCH  20  22
HETATM   22  C4  UNL     1      -4.534   0.291   0.792  1.00  0.00     0.150 C 
BRANCH  22  23
HETATM   23  C3  UNL     1      -6.007  -0.087   0.983  1.00  0.00     0.290 C 
BRANCH  23  24
HETATM   24  N1  UNL     1      -6.513  -0.450  -0.328  1.00  0.00     0.081 N 
HETATM   25  C1  UNL     1      -7.920  -0.830  -0.262  1.00  0.00     0.309 C 
HETATM   26  C2  UNL     1      -6.290   0.604  -1.276  1.00  0.00     0.309 C 
ENDBRANCH  23  24
ENDBRANCH  22  23
ENDBRANCH  20  22
ENDBRANCH   1  20
TORSDOF 10
