REMARK  1 active torsions:
REMARK  status: ('A' for Active; 'I' for Inactive)
REMARK    1  A    between atoms: N1_2  and  C3_4 
ROOT
HETATM    1  C3  UNL     1      -1.803   0.446   0.714  1.00  0.00     0.263 C 
HETATM    2  C4  UNL     1      -1.530   1.836   1.192  1.00  0.00     0.030 C 
HETATM    3  C5  UNL     1      -0.875   2.997   1.405  1.00  0.00     0.019 C 
HETATM    4 CL1  UNL     1      -1.508   4.425   2.297  1.00  0.00    -0.088 Cl
HETATM    5  C6  UNL     1       0.277   2.424   0.640  1.00  0.00     0.065 C 
HETATM    6  C7  UNL     1       1.500   2.670   0.199  1.00  0.00    -0.014 C 
HETATM    7  C8  UNL     1       2.824   3.298  -0.123  1.00  0.00     0.014 C 
HETATM    8  C9  UNL     1       3.660   2.569  -0.781  1.00  0.00     0.089 C 
HETATM    9  N2  UNL     1       3.920   1.345  -1.388  1.00  0.00    -0.350 N 
HETATM   10  C10 UNL     1       3.781  -0.037  -1.296  1.00  0.00     0.145 A 
HETATM   11  C11 UNL     1       4.829  -0.929  -1.168  1.00  0.00     0.166 A 
HETATM   12  N3  UNL     1       4.674  -2.261  -1.083  1.00  0.00    -0.267 NA
HETATM   13  C12 UNL     1       3.431  -2.760  -1.124  1.00  0.00     0.148 A 
HETATM   14  C13 UNL     1       2.357  -1.913  -1.250  1.00  0.00     0.088 A 
HETATM   15  N4  UNL     1       2.545  -0.562  -1.335  1.00  0.00    -0.228 NA
HETATM   16  C14 UNL     1       0.997  -2.357  -1.296  1.00  0.00     0.014 A 
HETATM   17  C15 UNL     1       0.710  -3.718  -1.366  1.00  0.00     0.130 A 
HETATM   18  N5  UNL     1      -0.590  -4.120  -1.402  1.00  0.00    -0.270 NA
HETATM   19  C16 UNL     1      -1.585  -3.214  -1.373  1.00  0.00     0.145 A 
HETATM   20  C17 UNL     1      -1.401  -1.853  -1.305  1.00  0.00     0.046 A 
HETATM   21  C18 UNL     1      -0.074  -1.496  -1.270  1.00  0.00     0.046 A 
HETATM   22  N6  UNL     1      -2.391  -0.860  -1.268  1.00  0.00    -0.386 N 
HETATM   23  C19 UNL     1      -2.182   0.462  -0.762  1.00  0.00     0.159 C 
HETATM   24  H13 UNL     1       4.434   1.425  -2.293  1.00  0.00     0.166 HD
HETATM   25  H19 UNL     1      -3.266  -1.254  -1.658  1.00  0.00     0.159 HD
ENDROOT
BRANCH   1  26
HETATM   26  N1  UNL     1      -2.885  -0.198   1.391  1.00  0.00     0.089 N 
HETATM   27  C1  UNL     1      -2.753  -0.325   2.808  1.00  0.00     0.310 C 
HETATM   28  C2  UNL     1      -4.198   0.232   1.015  1.00  0.00     0.310 C 
ENDBRANCH   1  26
TORSDOF 1
