REMARK  5 active torsions:
REMARK  status: ('A' for Active; 'I' for Inactive)
REMARK    1  A    between atoms: C2_3  and  C3_4 
REMARK    2  A    between atoms: C3_4  and  N1_5 
REMARK    3  A    between atoms: N1_5  and  C4_6 
REMARK    4  A    between atoms: C7_10  and  C8_11 
REMARK    5  A    between atoms: C8_11  and  C9_12 
ROOT
HETATM    1  C4  UNL     1       0.340  -1.149  -0.630  1.00  0.00     0.141 A 
HETATM    2  C5  UNL     1       0.037  -0.411  -1.750  1.00  0.00     0.166 A 
HETATM    3  N2  UNL     1       0.974   0.302  -2.429  1.00  0.00    -0.267 NA
HETATM    4  C6  UNL     1       2.264   0.295  -1.995  1.00  0.00     0.143 A 
HETATM    5  C7  UNL     1       2.554  -0.446  -0.875  1.00  0.00     0.058 A 
HETATM    6  N4  UNL     1       1.615  -1.142  -0.221  1.00  0.00    -0.233 NA
ENDROOT
BRANCH   1   7
HETATM    7  N1  UNL     1      -0.656  -1.859   0.033  1.00  0.00    -0.370 N 
HETATM    8  H3  UNL     1      -0.293  -2.418   0.864  1.00  0.00     0.161 HD
BRANCH   7   9
HETATM    9  C3  UNL     1      -2.064  -2.036  -0.116  1.00  0.00     0.157 C 
BRANCH   9  10
HETATM   10  C2  UNL     1      -2.726  -0.692   0.065  1.00  0.00    -0.040 A 
HETATM   11  C1  UNL     1      -3.477  -0.208  -0.910  1.00  0.00     0.037 A 
HETATM   12 CL1  UNL     1      -3.811  -0.959  -2.434  1.00  0.00    -0.084 Cl
HETATM   13  C15 UNL     1      -4.061   1.094  -0.629  1.00  0.00     0.020 A 
HETATM   14  C14 UNL     1      -3.726   1.553   0.561  1.00  0.00    -0.025 A 
HETATM   15  C13 UNL     1      -2.910   1.111   1.712  1.00  0.00     0.031 A 
HETATM   16  C12 UNL     1      -2.318  -0.237   1.408  1.00  0.00     0.041 A 
ENDBRANCH   9  10
ENDBRANCH   7   9
ENDBRANCH   1   7
BRANCH   5  17
HETATM   17  C8  UNL     1       3.945  -0.480  -0.370  1.00  0.00     0.102 C 
BRANCH  17  18
HETATM   18  C9  UNL     1       4.234   0.600   0.613  1.00  0.00    -0.017 A 
HETATM   19  C10 UNL     1       5.103   1.625   0.661  1.00  0.00     0.125 A 
HETATM   20  N3  UNL     1       4.618   2.053   1.940  1.00  0.00    -0.272 NA
HETATM   21  C11 UNL     1       3.778   1.076   1.912  1.00  0.00     0.125 A 
ENDBRANCH  17  18
ENDBRANCH   5  17
TORSDOF 5
