REMARK  1 active torsions:
REMARK  status: ('A' for Active; 'I' for Inactive)
REMARK    1  A    between atoms: N1_1  and  C1_2 
ROOT
HETATM    1  C1  UNL     1       0.553  -0.569   0.688  1.00  0.00     0.259 C 
HETATM    2  C2  UNL     1       0.003  -0.225  -0.680  1.00  0.00     0.100 C 
HETATM    3  C3  UNL     1      -1.257   0.498  -0.712  1.00  0.00     0.048 C 
HETATM    4  C4  UNL     1      -2.637   0.326  -0.386  1.00  0.00    -0.010 A 
HETATM    5  C5  UNL     1      -3.499   1.372  -0.494  1.00  0.00     0.013 A 
HETATM    6  C6  UNL     1      -4.858   1.249  -0.216  1.00  0.00     0.002 A 
HETATM    7  C7  UNL     1      -5.360   0.039   0.183  1.00  0.00     0.019 A 
HETATM    8  C8  UNL     1      -4.550  -1.068   0.316  1.00  0.00     0.011 A 
HETATM    9 BR1  UNL     1      -5.246  -2.752   0.869  1.00  0.00    -0.051 Br
HETATM   10  C9  UNL     1      -3.223  -0.854   0.019  1.00  0.00     0.032 A 
HETATM   11  N2  UNL     1      -1.034   1.733  -1.160  1.00  0.00    -0.246 NA
HETATM   12  C10 UNL     1       0.309   2.124  -1.516  1.00  0.00     0.229 C 
HETATM   13  N3  UNL     1       0.770   2.228  -0.334  1.00  0.00    -0.257 NA
HETATM   14  C11 UNL     1       2.110   2.593   0.056  1.00  0.00     0.325 C 
HETATM   15  O1  UNL     1       2.639   1.611   0.928  1.00  0.00    -0.330 OA
HETATM   16  C12 UNL     1       2.819   0.273   0.656  1.00  0.00     0.079 A 
HETATM   17  C13 UNL     1       4.196   0.062   0.495  1.00  0.00     0.037 A 
HETATM   18  C14 UNL     1       4.759  -1.188   0.207  1.00  0.00     0.003 A 
HETATM   19  C15 UNL     1       3.908  -2.288   0.073  1.00  0.00     0.001 A 
HETATM   20  C16 UNL     1       2.560  -2.044   0.238  1.00  0.00     0.012 A 
HETATM   21  C17 UNL     1       1.984  -0.830   0.519  1.00  0.00     0.008 A 
ENDROOT
BRANCH   1  22
HETATM   22  N1  UNL     1      -0.239  -1.640   1.235  1.00  0.00     0.087 N 
HETATM   23  H1  UNL     1      -0.019  -1.897   2.201  1.00  0.00     0.313 HD
HETATM   24  H2  UNL     1      -0.102  -2.474   0.625  1.00  0.00     0.313 HD
ENDBRANCH   1  22
TORSDOF 1
