REMARK  5 active torsions:
REMARK  status: ('A' for Active; 'I' for Inactive)
REMARK    1  A    between atoms: C2_2  and  C3_3 
REMARK    2  A    between atoms: C3_3  and  N1_4 
REMARK    3  A    between atoms: N1_4  and  C4_5 
REMARK    4  A    between atoms: C11_14  and  C12_15 
REMARK    5  A    between atoms: C15_19  and  N5_20 
ROOT
HETATM    1  C4  UNL     1      -0.362  -1.200  -1.499  1.00  0.00     0.043 C 
HETATM    2  C5  UNL     1      -1.006  -1.796  -2.681  1.00  0.00     0.061 C 
HETATM    3  C6  UNL     1      -2.470  -2.156  -2.598  1.00  0.00     0.036 C 
HETATM    4  C7  UNL     1      -2.816  -3.381  -3.422  1.00  0.00     0.270 C 
HETATM    5  N2  UNL     1      -2.900  -4.584  -2.511  1.00  0.00     0.088 NA
HETATM    6  C8  UNL     1      -1.593  -4.598  -2.023  1.00  0.00     0.316 C 
HETATM    7  C9  UNL     1      -1.023  -5.424  -0.989  1.00  0.00     0.119 C 
HETATM    8  N3  UNL     1      -0.307  -4.763  -0.073  1.00  0.00    -0.274 NA
HETATM    9  C10 UNL     1      -0.121  -3.364  -0.100  1.00  0.00     0.131 C 
HETATM   10  C11 UNL     1      -0.065  -2.037  -0.440  1.00  0.00     0.036 C 
HETATM   11  H12 UNL     1      -3.644  -4.335  -1.799  1.00  0.00     0.316 HD
ENDROOT
BRANCH  10  12
HETATM   12  C12 UNL     1       0.567  -1.351   0.747  1.00  0.00     0.090 A 
HETATM   13  C13 UNL     1       1.082  -2.067   1.843  1.00  0.00     0.149 A 
HETATM   14  N4  UNL     1       1.626  -1.432   2.883  1.00  0.00    -0.267 NA
HETATM   15  C14 UNL     1       1.693  -0.097   2.896  1.00  0.00     0.167 A 
HETATM   16  C15 UNL     1       1.181   0.668   1.801  1.00  0.00     0.153 A 
HETATM   17  N6  UNL     1       0.691  -0.106   0.882  1.00  0.00    -0.227 NA
BRANCH  16  18
HETATM   18  N5  UNL     1       1.433   1.996   2.173  1.00  0.00    -0.296 N 
HETATM   19  C16 UNL     1       0.781   2.722   3.233  1.00  0.00     0.096 A 
HETATM   20  C17 UNL     1       1.314   3.904   3.355  1.00  0.00    -0.001 A 
HETATM   21  C18 UNL     1       2.392   4.645   2.703  1.00  0.00     0.031 A 
HETATM   22  C19 UNL     1       3.513   4.974   3.708  1.00  0.00     0.018 C 
HETATM   23  C20 UNL     1       2.998   3.817   1.625  1.00  0.00     0.024 A 
HETATM   24  C21 UNL     1       2.491   2.626   1.464  1.00  0.00     0.108 A 
HETATM   25 CL1  UNL     1       3.335   1.753   0.158  1.00  0.00    -0.064 Cl
ENDBRANCH  16  18
ENDBRANCH  10  12
BRANCH   1  26
HETATM   26  N1  UNL     1      -0.111   0.071  -1.405  1.00  0.00    -0.285 NA
BRANCH  26  27
HETATM   27  C3  UNL     1      -0.479   0.930  -2.502  1.00  0.00     0.137 C 
BRANCH  27  28
HETATM   28  C2  UNL     1      -1.265   1.971  -2.632  1.00  0.00     0.014 C 
HETATM   29  C1  UNL     1      -2.233   3.117  -2.416  1.00  0.00     0.012 C 
ENDBRANCH  27  28
ENDBRANCH  26  27
ENDBRANCH   1  26
TORSDOF 5
