REMARK  7 active torsions:
REMARK  status: ('A' for Active; 'I' for Inactive)
REMARK    1  A    between atoms: C2_2  and  N4_20 
REMARK    2  A    between atoms: C3_3  and  C4_4 
REMARK    3  A    between atoms: C9_10  and  N2_11 
REMARK    4  A    between atoms: N2_11  and  C10_12 
REMARK    5  A    between atoms: N4_20  and  C16_21 
REMARK    6  A    between atoms: C16_21  and  C17_22 
REMARK    7  A    between atoms: C17_22  and  N5_23 
ROOT
HETATM    1  C4  UNL     1      -0.581  -2.092  -0.113  1.00  0.00     0.094 C 
HETATM    2  C5  UNL     1      -0.826  -2.991  -1.473  1.00  0.00     0.093 C 
HETATM    3  C6  UNL     1       0.895  -3.518  -1.239  1.00  0.00     0.408 A 
HETATM    4  C7  UNL     1       0.326  -4.319  -1.883  1.00  0.00     0.340 A 
HETATM    5  N1  UNL     1       0.930  -3.444  -1.179  1.00  0.00     0.198 N 
HETATM    6  C8  UNL     1       0.867  -2.403  -0.325  1.00  0.00     0.437 A 
HETATM    7  C9  UNL     1       1.997  -1.854   0.122  1.00  0.00     0.296 A 
HETATM    8  N3  UNL     1       1.767  -2.791  -0.651  1.00  0.00     0.228 N 
ENDROOT
BRANCH   1   9
HETATM    9  C3  UNL     1      -1.029  -0.755  -0.360  1.00  0.00     0.007 C 
HETATM   10  C2  UNL     1      -2.117  -0.185  -0.904  1.00  0.00    -0.003 C 
HETATM   11  C1  UNL     1      -3.305  -0.875  -1.477  1.00  0.00     0.067 C 
BRANCH  10  12
HETATM   12  N4  UNL     1      -2.062   1.226  -0.913  1.00  0.00    -0.392 N 
HETATM   13  H14 UNL     1      -1.780   1.305  -1.930  1.00  0.00     0.159 HD
BRANCH  12  14
HETATM   14  C16 UNL     1      -2.233   2.382  -0.075  1.00  0.00     0.150 C 
BRANCH  14  15
HETATM   15  C17 UNL     1      -3.662   2.630   0.335  1.00  0.00     0.290 C 
BRANCH  15  16
HETATM   16  N5  UNL     1      -3.634   3.866   1.167  1.00  0.00     0.081 N 
HETATM   17  C18 UNL     1      -2.971   3.641   2.407  1.00  0.00     0.309 C 
HETATM   18  C19 UNL     1      -4.996   4.234   1.434  1.00  0.00     0.309 C 
ENDBRANCH  15  16
ENDBRANCH  14  15
ENDBRANCH  12  14
ENDBRANCH  10  12
ENDBRANCH   1   9
BRANCH   7  19
HETATM   19  N2  UNL     1       3.142  -1.249   0.628  1.00  0.00    -0.334 N 
HETATM   20  H9  UNL     1       2.846  -0.680   1.411  1.00  0.00     0.167 HD
BRANCH  19  21
HETATM   21  C10 UNL     1       4.481  -1.141   0.437  1.00  0.00     0.035 A 
HETATM   22  C11 UNL     1       4.742  -0.250  -0.603  1.00  0.00     0.029 A 
HETATM   23  C12 UNL     1       6.020  -0.011  -0.879  1.00  0.00     0.004 A 
HETATM   24  C13 UNL     1       7.153  -0.516  -0.295  1.00  0.00     0.024 A 
HETATM   25  C14 UNL     1       6.821  -1.398   0.744  1.00  0.00     0.036 A 
HETATM   26 CL1  UNL     1       7.900  -2.302   1.795  1.00  0.00    -0.084 Cl
HETATM   27  C15 UNL     1       5.526  -1.700   1.098  1.00  0.00     0.053 A 
ENDBRANCH  19  21
ENDBRANCH   7  19
TORSDOF 7
