REMARK  4 active torsions:
REMARK  status: ('A' for Active; 'I' for Inactive)
REMARK    1  A    between atoms: C5_5  and  C6_6 
REMARK    2  A    between atoms: C6_6  and  C7_7 
REMARK    3  A    between atoms: C7_7  and  N1_8 
REMARK    4  A    between atoms: N1_8  and  C8_9 
ROOT
HETATM    1  C8  UNL     1      -0.276  -0.846  -0.018  1.00  0.00     0.046 A 
HETATM    2  C9  UNL     1       0.316  -1.806  -0.822  1.00  0.00     0.148 A 
HETATM    3  N2  UNL     1       1.619  -1.726  -1.177  1.00  0.00    -0.241 NA
HETATM    4  C10 UNL     1       2.411  -0.718  -0.774  1.00  0.00     0.133 A 
HETATM    5  C11 UNL     1       1.914   0.272   0.021  1.00  0.00    -0.005 A 
HETATM    6  C12 UNL     1       0.598   0.172   0.366  1.00  0.00     0.042 A 
HETATM    7  C13 UNL     1       2.693   1.420   0.518  1.00  0.00     0.089 C 
HETATM    8  C14 UNL     1       3.595   1.984  -0.519  1.00  0.00     0.094 C 
HETATM    9  N3  UNL     1       4.813   2.411  -0.511  1.00  0.00    -0.275 NA
HETATM   10  C15 UNL     1       5.565   2.392   0.695  1.00  0.00     0.135 C 
HETATM   11  C16 UNL     1       6.095   1.429   1.402  1.00  0.00     0.135 C 
HETATM   12  N4  UNL     1       5.734   0.300   0.650  1.00  0.00    -0.270 NA
HETATM   13  C17 UNL     1       6.352  -0.807   0.598  1.00  0.00     0.141 C 
HETATM   14  C18 UNL     1       5.859  -1.898  -0.230  1.00  0.00     0.066 C 
HETATM   15 CL1  UNL     1       6.679  -3.438  -0.330  1.00  0.00    -0.081 Cl
HETATM   16  C19 UNL     1       4.777  -1.792  -0.947  1.00  0.00     0.115 C 
HETATM   17  N5  UNL     1       3.717  -0.916  -1.309  1.00  0.00    -0.349 N 
HETATM   18  H20 UNL     1       3.666  -0.207  -2.072  1.00  0.00     0.167 HD
ENDROOT
BRANCH   1  19
HETATM   19  N1  UNL     1      -1.643  -0.874   0.391  1.00  0.00    -0.388 N 
HETATM   20  H10 UNL     1      -1.958  -0.102   0.988  1.00  0.00     0.159 HD
BRANCH  19  21
HETATM   21  C7  UNL     1      -2.410  -2.002  -0.099  1.00  0.00     0.124 C 
BRANCH  21  22
HETATM   22  C6  UNL     1      -3.837  -1.965   0.376  1.00  0.00     0.059 C 
BRANCH  22  23
HETATM   23  C5  UNL     1      -4.604  -0.792  -0.024  1.00  0.00    -0.039 A 
HETATM   24  C4  UNL     1      -4.734   0.399   0.662  1.00  0.00     0.010 A 
HETATM   25  C3  UNL     1      -5.486   1.461   0.201  1.00  0.00     0.027 A 
HETATM   26  C2  UNL     1      -6.133   1.279  -1.027  1.00  0.00     0.030 A 
HETATM   27  C1  UNL     1      -6.971   2.382  -1.600  1.00  0.00     0.070 C 
HETATM   28  N6  UNL     1      -6.030   0.127  -1.728  1.00  0.00    -0.265 NA
HETATM   29  C20 UNL     1      -5.280  -0.868  -1.221  1.00  0.00     0.124 A 
ENDBRANCH  22  23
ENDBRANCH  21  22
ENDBRANCH  19  21
ENDBRANCH   1  19
TORSDOF 4
