REMARK  8 active torsions:
REMARK  status: ('A' for Active; 'I' for Inactive)
REMARK    1  A    between atoms: C2_2  and  C3_3 
REMARK    2  A    between atoms: C3_3  and  N1_4 
REMARK    3  A    between atoms: N1_4  and  C4_5 
REMARK    4  A    between atoms: C11_14  and  C12_15 
REMARK    5  A    between atoms: N4_16  and  C13_17 
REMARK    6  A    between atoms: C13_17  and  N5_18 
REMARK    7  A    between atoms: C14_19  and  N6_20 
REMARK    8  A    between atoms: N6_20  and  C15_21 
ROOT
HETATM    1  C4  UNL     1      -2.439   0.568   0.531  1.00  0.00     0.047 C 
HETATM    2  C5  UNL     1      -3.855   0.890   0.238  1.00  0.00     0.062 C 
HETATM    3  C6  UNL     1      -4.315   0.238  -1.065  1.00  0.00     0.036 C 
HETATM    4  C7  UNL     1      -4.297  -1.243  -0.960  1.00  0.00     0.270 C 
HETATM    5  N2  UNL     1      -4.444  -1.943  -2.216  1.00  0.00     0.088 N 
HETATM    6  C8  UNL     1      -3.275  -1.688  -3.070  1.00  0.00     0.316 C 
HETATM    7  C9  UNL     1      -2.020  -2.219  -2.507  1.00  0.00     0.119 C 
HETATM    8  N3  UNL     1      -1.908  -1.258  -1.698  1.00  0.00    -0.274 NA
HETATM    9  C10 UNL     1      -0.932  -1.021  -0.771  1.00  0.00     0.130 C 
HETATM   10  C11 UNL     1      -1.248  -0.185   0.202  1.00  0.00     0.023 C 
HETATM   11  H12 UNL     1      -4.579  -2.948  -2.049  1.00  0.00     0.316 HD
ENDROOT
BRANCH  10  12
HETATM   12  C12 UNL     1      -0.114  -0.038   1.105  1.00  0.00     0.127 C 
HETATM   13  N4  UNL     1       0.969  -0.671   0.888  1.00  0.00    -0.279 NA
BRANCH  13  14
HETATM   14  C13 UNL     1       2.166  -0.637   1.670  1.00  0.00     0.298 C 
BRANCH  14  15
HETATM   15  N5  UNL     1       3.322  -0.156   0.939  1.00  0.00    -0.263 NA
HETATM   16  C14 UNL     1       3.163  -0.016  -0.357  1.00  0.00     0.203 C 
BRANCH  16  17
HETATM   17  N6  UNL     1       4.328   0.459  -1.026  1.00  0.00    -0.351 N 
HETATM   18  H21 UNL     1       4.249   1.231  -1.757  1.00  0.00     0.166 HD
BRANCH  17  19
HETATM   19  C15 UNL     1       5.636  -0.039  -0.790  1.00  0.00     0.034 A 
HETATM   20  C16 UNL     1       6.750   0.494  -1.452  1.00  0.00     0.029 A 
HETATM   21  C17 UNL     1       8.032   0.032  -1.250  1.00  0.00     0.004 A 
HETATM   22  C18 UNL     1       8.277  -0.996  -0.370  1.00  0.00     0.024 A 
HETATM   23  C19 UNL     1       7.208  -1.554   0.307  1.00  0.00     0.036 A 
HETATM   24 CL1  UNL     1       7.509  -2.861   1.426  1.00  0.00    -0.084 Cl
HETATM   25  C20 UNL     1       5.946  -1.059   0.073  1.00  0.00     0.053 A 
ENDBRANCH  17  19
ENDBRANCH  16  17
ENDBRANCH  14  15
ENDBRANCH  13  14
ENDBRANCH  10  12
BRANCH   1  26
HETATM   26  N1  UNL     1      -2.288   1.315   1.609  1.00  0.00    -0.265 NA
BRANCH  26  27
HETATM   27  C3  UNL     1      -3.370   2.083   2.083  1.00  0.00     0.112 C 
BRANCH  27  28
HETATM   28  C2  UNL     1      -4.460   2.726   2.397  1.00  0.00    -0.012 C 
HETATM   29  C1  UNL     1      -4.452   3.656   3.578  1.00  0.00     0.037 C 
ENDBRANCH  27  28
ENDBRANCH  26  27
ENDBRANCH   1  26
TORSDOF 8
