REMARK  6 active torsions:
REMARK  status: ('A' for Active; 'I' for Inactive)
REMARK    1  A    between atoms: C2_2  and  N1_3 
REMARK    2  A    between atoms: N1_3  and  C4_5 
REMARK    3  A    between atoms: C4_5  and  C5_6 
REMARK    4  A    between atoms: C5_6  and  N2_7 
REMARK    5  A    between atoms: N2_7  and  C6_8 
REMARK    6  A    between atoms: C9_13  and  C10_14 
ROOT
HETATM    1  C6  UNL     1      -0.248  -2.636  -0.682  1.00  0.00     0.046 C 
HETATM    2  C7  UNL     1      -0.003  -2.068  -1.837  1.00  0.00     0.147 C 
HETATM    3  N3  UNL     1       0.053  -1.131  -2.897  1.00  0.00    -0.252 NA
HETATM    4  C8  UNL     1       0.689   0.014  -2.733  1.00  0.00     0.233 C 
HETATM    5  N4  UNL     1       1.402   0.655  -1.724  1.00  0.00    -0.240 NA
HETATM    6  C9  UNL     1       2.109   0.140  -0.789  1.00  0.00     0.086 C 
HETATM    7  C16 UNL     1       2.311  -1.286  -0.626  1.00  0.00     0.315 C 
HETATM    8  N5  UNL     1       2.430  -2.505  -0.563  1.00  0.00    -0.394 NA
HETATM    9  C17 UNL     1       2.036  -3.631  -1.237  1.00  0.00     0.089 C 
HETATM   10  C18 UNL     1       1.396  -3.814  -0.102  1.00  0.00    -0.008 C 
HETATM   11  C19 UNL     1       0.107  -3.965  -0.245  1.00  0.00     0.044 C 
ENDROOT
BRANCH   1  12
HETATM   12  N2  UNL     1      -0.889  -1.417  -0.339  1.00  0.00    -0.387 N 
HETATM   13  H13 UNL     1      -0.483  -0.588   0.185  1.00  0.00     0.159 HD
BRANCH  12  14
HETATM   14  C5  UNL     1      -2.299  -1.224  -0.714  1.00  0.00     0.150 C 
BRANCH  14  15
HETATM   15  C4  UNL     1      -2.829   0.101  -0.292  1.00  0.00     0.291 C 
BRANCH  15  16
HETATM   16  N1  UNL     1      -2.794   0.351   1.111  1.00  0.00     0.085 N 
HETATM   17  C3  UNL     1      -3.480  -0.715   1.828  1.00  0.00     0.309 C 
BRANCH  16  18
HETATM   18  C2  UNL     1      -3.337   1.656   1.376  1.00  0.00     0.267 C 
HETATM   19  C1  UNL     1      -2.556   2.691   0.574  1.00  0.00     0.037 C 
ENDBRANCH  16  18
ENDBRANCH  15  16
ENDBRANCH  14  15
ENDBRANCH  12  14
ENDBRANCH   1  12
BRANCH   6  20
HETATM   20  C10 UNL     1       2.765   1.032   0.159  1.00  0.00    -0.004 A 
HETATM   21  C11 UNL     1       3.555   0.639   1.216  1.00  0.00     0.014 A 
HETATM   22  C12 UNL     1       4.143   1.527   2.074  1.00  0.00     0.003 A 
HETATM   23  C13 UNL     1       3.972   2.876   1.920  1.00  0.00     0.024 A 
HETATM   24  C14 UNL     1       3.185   3.348   0.873  1.00  0.00     0.035 A 
HETATM   25 CL1  UNL     1       2.922   5.061   0.615  1.00  0.00    -0.084 Cl
HETATM   26  C15 UNL     1       2.625   2.394   0.049  1.00  0.00     0.037 A 
ENDBRANCH   6  20
TORSDOF 6
