REMARK  5 active torsions:
REMARK  status: ('A' for Active; 'I' for Inactive)
REMARK    1  A    between atoms: C1_2  and  C2_3 
REMARK       I    between atoms: C1_2  and  N1_9 
REMARK    2  A    between atoms: C3_4  and  C4_5 
REMARK    3  A    between atoms: N1_9  and  C5_10 
REMARK    4  A    between atoms: C10_17  and  N3_18 
REMARK    5  A    between atoms: N3_18  and  C11_19 
ROOT
HETATM    1  C5  UNL     1       1.619   1.037  -0.527  1.00  0.00     0.005 A 
HETATM    2  C6  UNL     1       0.827   0.069  -0.802  1.00  0.00     0.065 A 
HETATM    3  C7  UNL     1       0.590  -1.321  -1.096  1.00  0.00    -0.022 C 
HETATM    4  C8  UNL     1      -0.008  -1.871  -0.018  1.00  0.00    -0.114 C 
HETATM    5  B1  UNL     1      -0.886  -0.873   1.011  1.00  0.00     0.201 B 
HETATM    6  C9  UNL     1      -1.245   0.705   1.267  1.00  0.00     0.062 A 
HETATM    7  N2  UNL     1      -1.696   1.402  -0.097  1.00  0.00    -0.268 NA
HETATM    8  C10 UNL     1      -2.341   0.372  -0.730  1.00  0.00     0.076 A 
HETATM    9  C17 UNL     1      -1.072   1.110  -0.431  1.00  0.00     0.117 A 
HETATM   10  C18 UNL     1       0.187   1.459  -0.316  1.00  0.00     0.069 A 
ENDROOT
BRANCH   1  11
HETATM   11  N1  UNL     1       2.685   1.782  -0.264  1.00  0.00    -0.330 N 
HETATM   12  C1  UNL     1       3.801   0.909  -0.282  1.00  0.00     0.245 C 
HETATM   13  O1  UNL     1       4.058  -0.295  -0.455  1.00  0.00    -0.268 OA
HETATM   14  H3  UNL     1       2.682   2.780  -0.087  1.00  0.00     0.168 HD
BRANCH  12  15
HETATM   15  C2  UNL     1       5.162   1.435  -0.039  1.00  0.00     0.079 C 
HETATM   16  C3  UNL     1       6.068   0.434  -0.107  1.00  0.00     0.094 C 
BRANCH  16  17
HETATM   17  C4  UNL     1       7.510   0.777   0.108  1.00  0.00     0.408 C 
HETATM   18  F1  UNL     1       7.863   0.992   1.404  1.00  0.00    -0.167 F 
HETATM   19  F2  UNL     1       7.824   1.929  -0.638  1.00  0.00    -0.167 F 
HETATM   20  F3  UNL     1       8.243  -0.260  -0.474  1.00  0.00    -0.167 F 
ENDBRANCH  16  17
ENDBRANCH  12  15
ENDBRANCH   1  11
BRANCH   8  21
HETATM   21  N3  UNL     1      -3.014  -0.644  -1.425  1.00  0.00    -0.349 N 
HETATM   22  H8  UNL     1      -2.422  -0.672  -2.257  1.00  0.00     0.167 HD
BRANCH  21  23
HETATM   23  C11 UNL     1      -4.053  -0.916  -0.490  1.00  0.00     0.034 A 
HETATM   24  C12 UNL     1      -3.844  -2.178   0.052  1.00  0.00     0.029 A 
HETATM   25  C13 UNL     1      -4.766  -2.602   0.977  1.00  0.00     0.004 A 
HETATM   26  C14 UNL     1      -5.829  -1.815   1.337  1.00  0.00     0.019 A 
HETATM   27  C15 UNL     1      -5.971  -0.548   0.740  1.00  0.00     0.013 A 
HETATM   28 BR1  UNL     1      -7.480   0.505   1.275  1.00  0.00    -0.051 Br
HETATM   29  C16 UNL     1      -5.072  -0.070  -0.197  1.00  0.00     0.048 A 
ENDBRANCH  21  23
ENDBRANCH   8  21
TORSDOF 5
