REMARK  4 active torsions:
REMARK  status: ('A' for Active; 'I' for Inactive)
REMARK    1  A    between atoms: C2_2  and  C3_4 
REMARK    2  A    between atoms: C4_5  and  C5_6 
REMARK    3  A    between atoms: C6_7  and  N1_8 
REMARK    4  A    between atoms: C9_12  and  C10_13 
ROOT
HETATM    1  N1  UNL     1      -0.398  -0.111   1.206  1.00  0.00    -0.258 N 
HETATM    2  C7  UNL     1      -1.242  -0.955   2.156  1.00  0.00     0.232 C 
HETATM    3  N2  UNL     1      -2.659  -0.777   2.218  1.00  0.00    -0.241 NA
HETATM    4  C8  UNL     1      -3.114   0.170   1.096  1.00  0.00     0.071 C 
HETATM    5  C9  UNL     1      -3.355  -0.298  -0.179  1.00  0.00     0.062 C 
HETATM    6  C11 UNL     1      -1.991  -0.224  -0.903  1.00  0.00     0.056 C 
HETATM    7  C12 UNL     1      -1.872  -0.760  -2.129  1.00  0.00     0.045 C 
HETATM    8  N3  UNL     1      -1.099   0.483   0.047  1.00  0.00    -0.282 N 
HETATM    9  C13 UNL     1      -0.813   1.950   0.225  1.00  0.00     0.177 C 
HETATM   10  C14 UNL     1      -2.078   2.423   1.034  1.00  0.00    -0.003 C 
HETATM   11  C15 UNL     1      -2.999   1.596   1.667  1.00  0.00     0.030 C 
ENDROOT
BRANCH   1  12
HETATM   12  C6  UNL     1       0.959   0.238   1.268  1.00  0.00     0.117 C 
HETATM   13  C5  UNL     1       1.782  -0.407   0.449  1.00  0.00     0.019 C 
BRANCH  13  14
HETATM   14  C4  UNL     1       3.214  -0.137   0.414  1.00  0.00     0.002 C 
HETATM   15  C3  UNL     1       4.090  -0.740  -0.374  1.00  0.00     0.015 C 
BRANCH  15  16
HETATM   16  C2  UNL     1       5.506  -0.404  -0.338  1.00  0.00    -0.011 C 
HETATM   17  C1  UNL     1       6.383  -1.006  -1.125  1.00  0.00     0.051 C 
HETATM   18 BR1  UNL     1       6.232   0.917   0.829  1.00  0.00    -0.056 Br
ENDBRANCH  15  16
ENDBRANCH  13  14
ENDBRANCH   1  12
BRANCH   5  19
HETATM   19  C10 UNL     1      -4.530  -0.816  -0.941  1.00  0.00     0.391 C 
HETATM   20  F1  UNL     1      -4.694  -0.056  -2.052  1.00  0.00    -0.209 F 
HETATM   21  F2  UNL     1      -4.392  -2.146  -1.231  1.00  0.00    -0.209 F 
ENDBRANCH   5  19
TORSDOF 4
