REMARK  4 active torsions:
REMARK  status: ('A' for Active; 'I' for Inactive)
REMARK    1  A    between atoms: C10_12  and  N3_13 
REMARK    2  A    between atoms: N3_13  and  C11_14 
REMARK    3  A    between atoms: C12_15  and  C13_16 
REMARK    4  A    between atoms: C16_19  and  C17_20 
ROOT
HETATM    1  C1  UNL     1      -4.403   0.852  -0.393  1.00  0.00     0.039 C 
HETATM    2  C2  UNL     1      -3.308   0.386  -1.011  1.00  0.00     0.013 C 
HETATM    3  N1  UNL     1      -2.277   1.357  -1.289  1.00  0.00    -0.389 N 
HETATM    4  C3  UNL     1      -0.784   1.267  -1.416  1.00  0.00     0.162 C 
HETATM    5  C4  UNL     1      -0.461  -0.169  -1.758  1.00  0.00     0.006 C 
HETATM    6  C5  UNL     1      -1.063  -1.040  -2.640  1.00  0.00     0.021 C 
HETATM    7  C6  UNL     1      -1.994  -1.616  -1.601  1.00  0.00    -0.039 C 
HETATM    8  C7  UNL     1      -1.984  -2.619  -0.678  1.00  0.00     0.009 C 
HETATM    9  C8  UNL     1      -0.775  -3.026   0.103  1.00  0.00     0.020 C 
HETATM   10  C9  UNL     1       0.454  -2.509   0.349  1.00  0.00     0.119 C 
HETATM   11  N2  UNL     1       1.115  -1.280  -0.068  1.00  0.00    -0.243 NA
HETATM   12  C10 UNL     1       0.667  -0.245  -0.759  1.00  0.00     0.135 C 
HETATM   13  C16 UNL     1      -3.352  -1.055  -1.280  1.00  0.00     0.175 C 
HETATM   14  H3  UNL     1      -2.754   2.302  -1.416  1.00  0.00     0.159 HD
ENDROOT
BRANCH  12  15
HETATM   15  N3  UNL     1       1.313   1.001  -0.533  1.00  0.00    -0.350 N 
HETATM   16  H10 UNL     1       0.992   1.694  -1.273  1.00  0.00     0.166 HD
BRANCH  15  17
HETATM   17  C11 UNL     1       2.195   1.166   0.518  1.00  0.00     0.090 C 
HETATM   18  C12 UNL     1       3.488   1.390   0.548  1.00  0.00     0.017 C 
BRANCH  18  19
HETATM   19  C13 UNL     1       4.245   1.537   1.784  1.00  0.00    -0.003 C 
HETATM   20  C14 UNL     1       5.547   1.763   1.737  1.00  0.00    -0.031 C 
HETATM   21  C15 UNL     1       6.300   1.909   3.008  1.00  0.00     0.036 C 
ENDBRANCH  18  19
ENDBRANCH  15  17
ENDBRANCH  12  15
BRANCH  13  22
HETATM   22  C17 UNL     1      -4.406  -1.495  -2.258  1.00  0.00     0.400 C 
HETATM   23  F1  UNL     1      -4.230  -0.892  -3.509  1.00  0.00    -0.170 F 
HETATM   24  F2  UNL     1      -4.253  -2.879  -2.421  1.00  0.00    -0.170 F 
HETATM   25  F3  UNL     1      -5.667  -1.274  -1.882  1.00  0.00    -0.170 F 
ENDBRANCH  13  22
TORSDOF 4
