REMARK  3 active torsions:
REMARK  status: ('A' for Active; 'I' for Inactive)
REMARK    1  A    between atoms: C2_3  and  C3_4 
REMARK    2  A    between atoms: C16_19  and  N4_20 
REMARK    3  A    between atoms: N4_20  and  C17_21 
ROOT
HETATM    1  C3  UNL     1      -3.574   0.100   0.493  1.00  0.00     0.057 C 
HETATM    2  C4  UNL     1      -5.010  -0.399   0.732  1.00  0.00     0.016 C 
HETATM    3  C5  UNL     1      -5.716  -0.586  -0.597  1.00  0.00     0.021 C 
HETATM    4  C6  UNL     1      -5.743  -2.030  -0.975  1.00  0.00     0.120 C 
HETATM    5  N2  UNL     1      -4.451  -2.654  -0.809  1.00  0.00    -0.389 N 
HETATM    6  C7  UNL     1      -3.140  -2.222  -0.465  1.00  0.00     0.048 C 
HETATM    7  C8  UNL     1      -2.809  -1.060   0.080  1.00  0.00    -0.042 C 
HETATM    8  C9  UNL     1      -1.444  -0.622   0.430  1.00  0.00     0.046 C 
HETATM    9  C10 UNL     1      -0.498  -0.693  -0.787  1.00  0.00     0.022 C 
HETATM   10  C11 UNL     1       0.198   0.645  -0.857  1.00  0.00     0.015 C 
HETATM   11  C12 UNL     1       0.424  -1.834  -0.716  1.00  0.00    -0.006 C 
HETATM   12  C13 UNL     1       1.840  -1.642  -0.490  1.00  0.00     0.084 A 
HETATM   13  C14 UNL     1       2.802  -2.604  -0.422  1.00  0.00     0.148 A 
HETATM   14  N3  UNL     1       4.104  -2.383  -0.202  1.00  0.00    -0.267 NA
HETATM   15  C15 UNL     1       4.555  -1.133  -0.028  1.00  0.00     0.166 A 
HETATM   16  C16 UNL     1       3.631  -0.123  -0.087  1.00  0.00     0.146 A 
HETATM   17  N5  UNL     1       2.351  -0.428  -0.310  1.00  0.00    -0.228 NA
HETATM   18  C23 UNL     1       0.010  -3.079  -0.851  1.00  0.00     0.126 C 
HETATM   19  N6  UNL     1      -1.218  -3.791  -1.077  1.00  0.00    -0.270 NA
HETATM   20  C24 UNL     1      -2.481  -3.467  -0.929  1.00  0.00     0.145 C 
HETATM   21  H12 UNL     1      -4.609  -3.679  -1.013  1.00  0.00     0.159 HD
ENDROOT
BRANCH  16  22
HETATM   22  N4  UNL     1       3.941   1.252   0.063  1.00  0.00    -0.340 N 
HETATM   23  H21 UNL     1       3.165   1.965   0.111  1.00  0.00     0.167 HD
BRANCH  22  24
HETATM   24  C17 UNL     1       5.190   1.901   0.165  1.00  0.00     0.035 A 
HETATM   25  C18 UNL     1       6.315   1.526  -0.578  1.00  0.00     0.029 A 
HETATM   26  C19 UNL     1       7.496   2.237  -0.354  1.00  0.00     0.004 A 
HETATM   27  C20 UNL     1       7.649   3.281   0.540  1.00  0.00     0.024 A 
HETATM   28  C21 UNL     1       6.545   3.641   1.262  1.00  0.00     0.036 A 
HETATM   29 CL1  UNL     1       6.688   4.954   2.406  1.00  0.00    -0.084 Cl
HETATM   30  C22 UNL     1       5.369   2.957   1.061  1.00  0.00     0.053 A 
ENDBRANCH  22  24
ENDBRANCH  16  22
BRANCH   1  31
HETATM   31  C2  UNL     1      -3.181   0.820   1.684  1.00  0.00     0.254 C 
HETATM   32  N1  UNL     1      -3.154   2.093   1.825  1.00  0.00    -0.428 NA
HETATM   33  C1  UNL     1      -3.541   2.978   0.736  1.00  0.00     0.131 C 
ENDBRANCH   1  31
TORSDOF 3
