REMARK  5 active torsions:
REMARK  status: ('A' for Active; 'I' for Inactive)
REMARK    1  A    between atoms: N1_1  and  C1_2 
REMARK    2  A    between atoms: C3_4  and  C4_5 
REMARK    3  A    between atoms: C4_5  and  C5_6 
REMARK    4  A    between atoms: C6_7  and  C7_8 
REMARK    5  A    between atoms: C7_8  and  C8_9 
ROOT
HETATM    1  C1  UNL     1      -0.197   0.860   1.967  1.00  0.00     0.095 C 
HETATM    2  C2  UNL     1      -0.617   0.412   0.800  1.00  0.00     0.017 C 
HETATM    3  C3  UNL     1       0.338   0.522  -0.305  1.00  0.00     0.051 C 
HETATM    4  N2  UNL     1      -0.038   0.133  -1.423  1.00  0.00    -0.246 NA
HETATM    5  C9  UNL     1       0.609   0.106  -2.624  1.00  0.00     0.229 C 
HETATM    6  N3  UNL     1      -0.552   0.490  -3.124  1.00  0.00    -0.257 NA
HETATM    7  C10 UNL     1      -1.659   0.680  -2.173  1.00  0.00     0.325 C 
HETATM    8  O1  UNL     1      -1.777  -0.527  -1.446  1.00  0.00    -0.329 OA
HETATM    9  C11 UNL     1      -2.656  -0.665  -0.393  1.00  0.00     0.082 A 
HETATM   10  C12 UNL     1      -3.915  -1.183  -0.415  1.00  0.00     0.038 A 
HETATM   11  C13 UNL     1      -4.590  -1.208   0.784  1.00  0.00     0.003 A 
HETATM   12  C14 UNL     1      -3.980  -0.721   1.920  1.00  0.00     0.001 A 
HETATM   13  C15 UNL     1      -2.700  -0.219   1.828  1.00  0.00     0.015 A 
HETATM   14  C16 UNL     1      -1.951  -0.155   0.671  1.00  0.00     0.011 A 
ENDROOT
BRANCH   3  15
HETATM   15  C4  UNL     1       1.717   1.031  -0.172  1.00  0.00     0.087 C 
BRANCH  15  16
HETATM   16  C5  UNL     1       2.482   0.090   0.687  1.00  0.00    -0.021 C 
HETATM   17  C6  UNL     1       3.545  -0.512   0.222  1.00  0.00    -0.002 C 
BRANCH  17  18
HETATM   18  C7  UNL     1       4.368  -0.629  -0.963  1.00  0.00     0.026 C 
BRANCH  18  19
HETATM   19  C8  UNL     1       5.266  -0.915  -1.881  1.00  0.00     0.052 C 
HETATM   20 BR1  UNL     1       5.634  -0.433  -3.667  1.00  0.00    -0.044 Br
HETATM   21  I1  UNL     1       6.453  -2.268  -0.800  1.00  0.00    -0.036 I 
ENDBRANCH  18  19
ENDBRANCH  17  18
ENDBRANCH  15  16
ENDBRANCH   3  15
BRANCH   1  22
HETATM   22  N1  UNL     1      -0.411   1.104   3.328  1.00  0.00    -0.407 N 
HETATM   23  H1  UNL     1      -0.823   1.969   3.761  1.00  0.00     0.155 HD
HETATM   24  H2  UNL     1      -0.194   0.447   4.124  1.00  0.00     0.155 HD
ENDBRANCH   1  22
TORSDOF 5
