REMARK  0 active torsions:
REMARK  status: ('A' for Active; 'I' for Inactive)
ROOT
HETATM    1 CL1  UNL     1       2.029   2.438  -2.964  1.00  0.00    -0.086 Cl
HETATM    2  C1  UNL     1       1.881   1.673  -1.518  1.00  0.00     0.050 A 
HETATM    3  C2  UNL     1       2.683   1.942  -0.335  1.00  0.00     0.053 A 
HETATM    4  C3  UNL     1       2.157   0.972   0.552  1.00  0.00     0.053 A 
HETATM    5  C4  UNL     1       1.000   0.002   0.134  1.00  0.00     0.054 A 
HETATM    6  C5  UNL     1       0.038  -0.456  -0.963  1.00  0.00     0.397 A 
HETATM    7  C6  UNL     1       0.887   0.562  -1.302  1.00  0.00     0.211 A 
HETATM    8  C7  UNL     1       0.746  -0.734  -2.261  1.00  0.00     0.250 A 
HETATM    9  N1  UNL     1       0.083   0.296  -2.135  1.00  0.00     0.050 N 
HETATM   10  N2  UNL     1      -0.885   1.075  -2.415  1.00  0.00    -0.250 N 
HETATM   11  C8  UNL     1      -1.401   1.998  -1.453  1.00  0.00     0.147 C 
HETATM   12  C9  UNL     1      -2.051   1.840  -0.193  1.00  0.00     0.025 C 
HETATM   13  C10 UNL     1      -1.657   1.234   1.084  1.00  0.00     0.040 C 
HETATM   14  C11 UNL     1      -1.557  -0.231   1.262  1.00  0.00    -0.033 A 
HETATM   15  C12 UNL     1      -2.873  -0.723   1.140  1.00  0.00     0.121 A 
HETATM   16  N3  UNL     1      -3.410  -1.940   1.176  1.00  0.00    -0.273 NA
HETATM   17  C13 UNL     1      -2.652  -3.031   1.365  1.00  0.00     0.114 A 
HETATM   18  C14 UNL     1      -1.306  -2.594   1.495  1.00  0.00     0.025 A 
HETATM   19  C15 UNL     1      -0.645  -1.337   1.472  1.00  0.00     0.093 A 
HETATM   20  C16 UNL     1       0.746  -1.727   1.661  1.00  0.00     0.123 A 
HETATM   21  N4  UNL     1       0.276  -1.202   0.627  1.00  0.00    -0.243 NA
HETATM   22  C17 UNL     1       2.085  -1.808   0.913  1.00  0.00     0.073 C 
HETATM   23  C18 UNL     1       3.176  -1.072   1.530  1.00  0.00     0.117 C 
HETATM   24  N5  UNL     1       2.978   0.460   1.774  1.00  0.00    -0.363 N 
HETATM   25  N6  UNL     1       2.423  -2.428  -0.479  1.00  0.00    -0.280 N 
HETATM   26  C19 UNL     1       1.753  -1.816  -1.559  1.00  0.00     0.180 C 
HETATM   27  H3  UNL     1      -1.210   0.910  -3.392  1.00  0.00     0.187 HD
HETATM   28  H14 UNL     1       2.970   1.337   2.158  1.00  0.00     0.165 HD
ENDROOT
TORSDOF 0
