REMARK  1 active torsions:
REMARK  status: ('A' for Active; 'I' for Inactive)
REMARK    1  A    between atoms: C5_6  and  C6_7 
ROOT
HETATM    1  C6  UNL     1       0.321  -0.235  -0.239  1.00  0.00     0.039 C 
HETATM    2  C7  UNL     1       0.147  -1.608  -0.941  1.00  0.00    -0.006 C 
HETATM    3  C8  UNL     1      -1.153  -1.488  -1.212  1.00  0.00     0.011 C 
HETATM    4  C9  UNL     1      -1.337  -0.858   0.095  1.00  0.00    -0.008 C 
HETATM    5  C10 UNL     1      -0.372  -0.665   1.031  1.00  0.00     0.007 C 
HETATM    6  C11 UNL     1      -2.678  -0.094   0.118  1.00  0.00     0.096 A 
HETATM    7  N1  UNL     1      -3.796  -0.841   0.203  1.00  0.00    -0.239 NA
HETATM    8  C12 UNL     1      -4.883   0.039   0.217  1.00  0.00     0.233 A 
HETATM    9  N2  UNL     1      -4.825   1.379   0.159  1.00  0.00    -0.252 NA
HETATM   10  C13 UNL     1      -3.728   2.141   0.074  1.00  0.00     0.149 A 
HETATM   11  C14 UNL     1      -2.602   1.396   0.047  1.00  0.00     0.075 A 
HETATM   12  N3  UNL     1      -1.188   1.813  -0.204  1.00  0.00    -0.385 N 
HETATM   13  C15 UNL     1      -0.144   0.955  -0.851  1.00  0.00     0.142 C 
HETATM   14  H9  UNL     1      -1.222   2.817   0.178  1.00  0.00     0.159 HD
ENDROOT
BRANCH   1  15
HETATM   15  C5  UNL     1       1.778  -0.223   0.048  1.00  0.00    -0.039 A 
HETATM   16  C4  UNL     1       2.248  -1.436   0.580  1.00  0.00     0.009 A 
HETATM   17  C3  UNL     1       3.572  -1.715   0.953  1.00  0.00     0.002 A 
HETATM   18  C2  UNL     1       4.496  -0.709   0.782  1.00  0.00     0.019 A 
HETATM   19  C1  UNL     1       4.080   0.497   0.263  1.00  0.00     0.011 A 
HETATM   20 BR1  UNL     1       5.285   1.947  -0.009  1.00  0.00    -0.051 Br
HETATM   21  C16 UNL     1       2.769   0.714  -0.084  1.00  0.00     0.027 A 
ENDBRANCH   1  15
TORSDOF 1
