REMARK  4 active torsions:
REMARK  status: ('A' for Active; 'I' for Inactive)
REMARK    1  A    between atoms: C2_2  and  C3_3 
REMARK    2  A    between atoms: C4_4  and  C5_5 
REMARK       I    between atoms: C5_5  and  N1_7 
REMARK    3  A    between atoms: C10_14  and  N4_15 
REMARK    4  A    between atoms: N4_15  and  C11_16 
ROOT
HETATM    1  C5  UNL     1       3.141  -0.112   0.817  1.00  0.00     0.263 C 
HETATM    2  O1  UNL     1       4.310  -0.356   1.184  1.00  0.00    -0.267 OA
HETATM    3  N1  UNL     1       2.108  -1.082   0.716  1.00  0.00    -0.231 N 
HETATM    4  C6  UNL     1       0.813  -0.633   0.271  1.00  0.00     0.199 A 
HETATM    5  C7  UNL     1      -0.183  -1.730   0.196  1.00  0.00     0.038 A 
HETATM    6  C8  UNL     1       0.232  -2.989   0.554  1.00  0.00     0.089 A 
HETATM    7  N2  UNL     1      -0.665  -4.011   0.495  1.00  0.00    -0.240 NA
HETATM    8  C9  UNL     1      -1.936  -3.725   0.081  1.00  0.00     0.236 A 
HETATM    9  N3  UNL     1      -2.290  -2.489  -0.255  1.00  0.00    -0.224 NA
HETATM   10  C10 UNL     1      -1.462  -1.443  -0.221  1.00  0.00     0.139 A 
HETATM   11  C17 UNL     1       1.559  -3.310   0.989  1.00  0.00     0.171 A 
HETATM   12  N5  UNL     1       2.454  -2.384   1.063  1.00  0.00    -0.179 NA
ENDROOT
BRANCH  10  13
HETATM   13  N4  UNL     1      -1.806  -0.117  -0.576  1.00  0.00    -0.340 N 
HETATM   14  H9  UNL     1      -1.039   0.611  -0.507  1.00  0.00     0.167 HD
BRANCH  13  15
HETATM   15  C11 UNL     1      -3.056   0.383  -1.018  1.00  0.00     0.035 A 
HETATM   16  C12 UNL     1      -4.215  -0.350  -1.131  1.00  0.00     0.029 A 
HETATM   17  C13 UNL     1      -5.422   0.140  -1.563  1.00  0.00     0.004 A 
HETATM   18  C14 UNL     1      -5.512   1.466  -1.920  1.00  0.00     0.019 A 
HETATM   19  C15 UNL     1      -4.376   2.239  -1.823  1.00  0.00     0.013 A 
HETATM   20 BR1  UNL     1      -4.473   4.080  -2.311  1.00  0.00    -0.051 Br
HETATM   21  C16 UNL     1      -3.204   1.695  -1.386  1.00  0.00     0.048 A 
ENDBRANCH  13  15
ENDBRANCH  10  13
BRANCH   1  22
HETATM   22  C4  UNL     1       2.955   1.296   0.503  1.00  0.00     0.075 C 
HETATM   23  C3  UNL     1       3.986   2.112   0.633  1.00  0.00     0.002 C 
BRANCH  23  24
HETATM   24  C2  UNL     1       5.310   1.716   1.066  1.00  0.00    -0.026 C 
HETATM   25  C1  UNL     1       6.385   2.440   1.226  1.00  0.00     0.031 C 
ENDBRANCH  23  24
ENDBRANCH   1  22
TORSDOF 4
