REMARK  7 active torsions:
REMARK  status: ('A' for Active; 'I' for Inactive)
REMARK    1  A    between atoms: C1_2  and  C2_3 
REMARK    2  A    between atoms: C2_3  and  C3_4 
REMARK    3  A    between atoms: C4_5  and  C5_6 
REMARK    4  A    between atoms: C5_6  and  N1_7 
REMARK    5  A    between atoms: N1_7  and  C6_8 
REMARK    6  A    between atoms: C11_15  and  N4_16 
REMARK    7  A    between atoms: N4_16  and  C12_17 
ROOT
HETATM    1  C6  UNL     1       0.940  -1.056  -0.037  1.00  0.00     0.029 A 
HETATM    2  C7  UNL     1       1.219  -2.403   0.062  1.00  0.00     0.031 A 
HETATM    3  C8  UNL     1       0.150  -3.271   0.114  1.00  0.00     0.035 A 
HETATM    4  C9  UNL     1      -1.140  -2.788   0.066  1.00  0.00     0.072 A 
HETATM    5  N2  UNL     1      -2.134  -3.707   0.122  1.00  0.00    -0.241 NA
HETATM    6  C10 UNL     1      -3.423  -3.327   0.082  1.00  0.00     0.236 A 
HETATM    7  N3  UNL     1      -3.658  -2.018  -0.014  1.00  0.00    -0.224 NA
HETATM    8  C11 UNL     1      -2.763  -1.046  -0.074  1.00  0.00     0.142 A 
HETATM    9  C18 UNL     1      -1.471  -1.457  -0.032  1.00  0.00     0.041 A 
HETATM   10  C19 UNL     1      -0.374  -0.638  -0.079  1.00  0.00     0.046 A 
ENDROOT
BRANCH   8  11
HETATM   11  N4  UNL     1      -3.043   0.333  -0.175  1.00  0.00    -0.340 N 
HETATM   12  H13 UNL     1      -2.293   1.043  -0.219  1.00  0.00     0.167 HD
BRANCH  11  13
HETATM   13  C12 UNL     1      -4.295   0.997  -0.235  1.00  0.00     0.035 A 
HETATM   14  C13 UNL     1      -4.472   2.380  -0.337  1.00  0.00     0.029 A 
HETATM   15  C14 UNL     1      -5.690   2.993  -0.392  1.00  0.00     0.004 A 
HETATM   16  C15 UNL     1      -6.850   2.257  -0.348  1.00  0.00     0.019 A 
HETATM   17  C16 UNL     1      -6.718   0.882  -0.247  1.00  0.00     0.013 A 
HETATM   18 BR1  UNL     1      -8.359  -0.085  -0.190  1.00  0.00    -0.051 Br
HETATM   19  C17 UNL     1      -5.468   0.313  -0.195  1.00  0.00     0.048 A 
ENDBRANCH  11  13
ENDBRANCH   8  11
BRANCH   1  20
HETATM   20  N1  UNL     1       2.035  -0.148  -0.090  1.00  0.00    -0.386 N 
HETATM   21  H9  UNL     1       1.848   0.878  -0.166  1.00  0.00     0.160 HD
BRANCH  20  22
HETATM   22  C5  UNL     1       3.374  -0.685  -0.039  1.00  0.00     0.147 C 
BRANCH  22  23
HETATM   23  C4  UNL     1       4.414   0.361  -0.103  1.00  0.00    -0.011 C 
HETATM   24  C3  UNL     1       5.459   0.794  -0.814  1.00  0.00    -0.027 C 
BRANCH  24  25
HETATM   25  C2  UNL     1       6.334   1.992  -0.536  1.00  0.00     0.058 C 
BRANCH  25  26
HETATM   26  C1  UNL     1       7.740   1.459  -0.361  1.00  0.00     0.225 C 
HETATM   27  F1  UNL     1       7.761   0.566   0.702  1.00  0.00    -0.255 F 
ENDBRANCH  25  26
ENDBRANCH  24  25
ENDBRANCH  22  23
ENDBRANCH  20  22
ENDBRANCH   1  20
TORSDOF 7
