REMARK  4 active torsions:
REMARK  status: ('A' for Active; 'I' for Inactive)
REMARK    1  A    between atoms: C2_2  and  C3_3 
REMARK    2  A    between atoms: C4_4  and  C5_5 
REMARK       I    between atoms: C5_5  and  N1_7 
REMARK    3  A    between atoms: N1_7  and  C6_8 
REMARK    4  A    between atoms: C10_15  and  C11_16 
ROOT
HETATM    1  C6  UNL     1       1.242   0.193   1.046  1.00  0.00     0.148 A 
HETATM    2  N2  UNL     1       1.750   0.068   2.311  1.00  0.00    -0.239 NA
HETATM    3  C7  UNL     1       0.877  -0.128   3.329  1.00  0.00     0.151 A 
HETATM    4  C8  UNL     1      -0.486  -0.209   3.163  1.00  0.00     0.089 A 
HETATM    5  N3  UNL     1      -1.383  -0.372   4.124  1.00  0.00    -0.240 NA
HETATM    6  C9  UNL     1      -2.699  -0.408   3.836  1.00  0.00     0.234 A 
HETATM    7  N4  UNL     1      -3.142  -0.282   2.551  1.00  0.00    -0.240 NA
HETATM    8  C10 UNL     1      -2.256  -0.113   1.518  1.00  0.00     0.082 A 
HETATM    9  C17 UNL     1      -0.934  -0.079   1.873  1.00  0.00     0.045 A 
HETATM   10  C18 UNL     1      -0.105   0.121   0.822  1.00  0.00     0.071 A 
HETATM   11 BR1  UNL     1      -0.542   0.411  -0.982  1.00  0.00    -0.046 Br
ENDROOT
BRANCH   1  12
HETATM   12  N1  UNL     1       2.282   0.397   0.067  1.00  0.00    -0.307 N 
HETATM   13  C5  UNL     1       2.764   1.681  -0.320  1.00  0.00     0.246 C 
HETATM   14  O1  UNL     1       2.047   2.449   0.408  1.00  0.00    -0.268 OA
HETATM   15  H6  UNL     1       2.481  -0.616  -0.181  1.00  0.00     0.170 HD
BRANCH  13  16
HETATM   16  C4  UNL     1       3.800   1.573  -1.314  1.00  0.00     0.074 C 
HETATM   17  C3  UNL     1       4.567   0.868  -2.086  1.00  0.00     0.005 C 
BRANCH  17  18
HETATM   18  C2  UNL     1       4.581  -0.575  -2.182  1.00  0.00    -0.010 C 
HETATM   19  C1  UNL     1       5.408  -1.187  -3.005  1.00  0.00     0.011 C 
ENDBRANCH  17  18
ENDBRANCH  13  16
ENDBRANCH   1  12
BRANCH   8  20
HETATM   20  C11 UNL     1      -3.000  -0.026   0.279  1.00  0.00    -0.006 A 
HETATM   21  C12 UNL     1      -3.125  -0.834  -0.862  1.00  0.00     0.014 A 
HETATM   22  C13 UNL     1      -3.886  -0.468  -1.930  1.00  0.00     0.001 A 
HETATM   23  C14 UNL     1      -4.574   0.717  -1.941  1.00  0.00     0.000 A 
HETATM   24  C15 UNL     1      -4.496   1.544  -0.868  1.00  0.00     0.001 A 
HETATM   25  C16 UNL     1      -3.721   1.176   0.223  1.00  0.00     0.014 A 
ENDBRANCH   8  20
TORSDOF 4
