REMARK  5 active torsions:
REMARK  status: ('A' for Active; 'I' for Inactive)
REMARK    1  A    between atoms: C1_2  and  C2_3 
REMARK       I    between atoms: C1_2  and  N1_9 
REMARK    2  A    between atoms: C3_4  and  C4_5 
REMARK    3  A    between atoms: N1_9  and  C5_10 
REMARK    4  A    between atoms: C10_17  and  N4_18 
REMARK    5  A    between atoms: N4_18  and  C11_19 
ROOT
HETATM    1  C5  UNL     1      -1.183  -1.119  -0.565  1.00  0.00     0.036 A 
HETATM    2  C6  UNL     1      -1.315  -2.510  -0.481  1.00  0.00     0.032 A 
HETATM    3  C7  UNL     1      -0.245  -3.351  -0.630  1.00  0.00     0.035 A 
HETATM    4  C8  UNL     1       1.006  -2.827  -0.871  1.00  0.00     0.072 A 
HETATM    5  N2  UNL     1       2.074  -3.639  -1.020  1.00  0.00    -0.241 NA
HETATM    6  C9  UNL     1       3.244  -3.019  -1.251  1.00  0.00     0.236 A 
HETATM    7  N3  UNL     1       3.421  -1.697  -1.341  1.00  0.00    -0.224 NA
HETATM    8  C10 UNL     1       2.349  -0.866  -1.192  1.00  0.00     0.142 A 
HETATM    9  C17 UNL     1       1.127  -1.468  -0.953  1.00  0.00     0.041 A 
HETATM   10  C18 UNL     1       0.055  -0.587  -0.805  1.00  0.00     0.047 A 
ENDROOT
BRANCH   1  11
HETATM   11  N1  UNL     1      -2.409  -0.421  -0.382  1.00  0.00    -0.324 N 
HETATM   12  C1  UNL     1      -2.917   0.033   0.856  1.00  0.00     0.245 C 
HETATM   13  O1  UNL     1      -2.035  -0.335   1.674  1.00  0.00    -0.268 OA
HETATM   14  H3  UNL     1      -2.748  -0.375  -1.368  1.00  0.00     0.169 HD
BRANCH  12  15
HETATM   15  C2  UNL     1      -4.190   0.724   0.807  1.00  0.00     0.079 C 
HETATM   16  C3  UNL     1      -5.195   1.175   0.105  1.00  0.00     0.094 C 
BRANCH  16  17
HETATM   17  C4  UNL     1      -5.370   1.060  -1.364  1.00  0.00     0.408 C 
HETATM   18  F1  UNL     1      -6.568   1.611  -1.773  1.00  0.00    -0.167 F 
HETATM   19  F2  UNL     1      -4.304   1.710  -1.958  1.00  0.00    -0.167 F 
HETATM   20  F3  UNL     1      -5.383  -0.278  -1.755  1.00  0.00    -0.167 F 
ENDBRANCH  16  17
ENDBRANCH  12  15
ENDBRANCH   1  11
BRANCH   8  21
HETATM   21  N4  UNL     1       2.519   0.563  -1.284  1.00  0.00    -0.340 N 
HETATM   22  H7  UNL     1       2.448   1.078  -2.175  1.00  0.00     0.167 HD
BRANCH  21  23
HETATM   23  C11 UNL     1       2.796   1.289  -0.089  1.00  0.00     0.035 A 
HETATM   24  C12 UNL     1       2.981   2.673  -0.128  1.00  0.00     0.029 A 
HETATM   25  C13 UNL     1       3.246   3.295   1.089  1.00  0.00     0.004 A 
HETATM   26  C14 UNL     1       3.341   2.683   2.308  1.00  0.00     0.019 A 
HETATM   27  C15 UNL     1       3.152   1.317   2.302  1.00  0.00     0.013 A 
HETATM   28 BR1  UNL     1       3.252   0.311   3.920  1.00  0.00    -0.051 Br
HETATM   29  C16 UNL     1       2.887   0.637   1.134  1.00  0.00     0.048 A 
ENDBRANCH  21  23
ENDBRANCH   8  21
TORSDOF 5
