REMARK  6 active torsions:
REMARK  status: ('A' for Active; 'I' for Inactive)
REMARK    1  A    between atoms: C1_2  and  C2_3 
REMARK       I    between atoms: C1_2  and  N1_8 
REMARK    2  A    between atoms: C3_4  and  C4_5 
REMARK    3  A    between atoms: C4_5  and  C5_6 
REMARK    4  A    between atoms: N1_8  and  C6_9 
REMARK    5  A    between atoms: C11_16  and  N4_17 
REMARK    6  A    between atoms: N4_17  and  C12_18 
ROOT
HETATM    1  C6  UNL     1       1.064  -1.680   0.327  1.00  0.00     0.036 A 
HETATM    2  C7  UNL     1       1.257  -2.799   1.108  1.00  0.00     0.032 A 
HETATM    3  C8  UNL     1       0.167  -3.308   1.779  1.00  0.00     0.035 A 
HETATM    4  C9  UNL     1      -1.064  -2.705   1.661  1.00  0.00     0.072 A 
HETATM    5  N2  UNL     1      -2.084  -3.267   2.353  1.00  0.00    -0.241 NA
HETATM    6  C10 UNL     1      -3.327  -2.758   2.308  1.00  0.00     0.236 A 
HETATM    7  N3  UNL     1      -3.500  -1.674   1.548  1.00  0.00    -0.224 NA
HETATM    8  C11 UNL     1      -2.565  -1.047   0.830  1.00  0.00     0.142 A 
HETATM    9  C18 UNL     1      -1.309  -1.598   0.904  1.00  0.00     0.041 A 
HETATM   10  C19 UNL     1      -0.195  -1.123   0.251  1.00  0.00     0.047 A 
ENDROOT
BRANCH   1  11
HETATM   11  N1  UNL     1       2.176  -1.137  -0.375  1.00  0.00    -0.324 N 
HETATM   12  C1  UNL     1       3.079  -0.148   0.103  1.00  0.00     0.245 C 
HETATM   13  O1  UNL     1       3.135   0.472   1.198  1.00  0.00    -0.268 OA
HETATM   14  H7  UNL     1       2.329  -1.513  -1.330  1.00  0.00     0.169 HD
BRANCH  12  15
HETATM   15  C2  UNL     1       4.175   0.289  -0.775  1.00  0.00     0.070 C 
HETATM   16  C3  UNL     1       4.925   1.217  -0.174  1.00  0.00    -0.019 C 
BRANCH  16  17
HETATM   17  C4  UNL     1       6.119   1.904  -0.730  1.00  0.00     0.058 C 
BRANCH  17  18
HETATM   18  C5  UNL     1       7.326   1.617   0.164  1.00  0.00     0.225 C 
HETATM   19  F1  UNL     1       7.093   2.074   1.435  1.00  0.00    -0.255 F 
ENDBRANCH  17  18
ENDBRANCH  16  17
ENDBRANCH  12  15
ENDBRANCH   1  11
BRANCH   8  20
HETATM   20  N4  UNL     1      -2.754   0.102   0.026  1.00  0.00    -0.340 N 
HETATM   21  H11 UNL     1      -1.985   0.530  -0.499  1.00  0.00     0.167 HD
BRANCH  20  22
HETATM   22  C12 UNL     1      -3.925   0.859  -0.223  1.00  0.00     0.035 A 
HETATM   23  C13 UNL     1      -4.023   1.977  -1.028  1.00  0.00     0.029 A 
HETATM   24  C14 UNL     1      -5.189   2.671  -1.232  1.00  0.00     0.004 A 
HETATM   25  C15 UNL     1      -6.363   2.284  -0.631  1.00  0.00     0.019 A 
HETATM   26  C16 UNL     1      -6.314   1.173   0.182  1.00  0.00     0.013 A 
HETATM   27 BR1  UNL     1      -7.965   0.674   0.993  1.00  0.00    -0.051 Br
HETATM   28  C17 UNL     1      -5.122   0.505   0.359  1.00  0.00     0.048 A 
ENDBRANCH  20  22
ENDBRANCH   8  20
TORSDOF 6
