REMARK  2 active torsions:
REMARK  status: ('A' for Active; 'I' for Inactive)
REMARK    1  A    between atoms: C9_11  and  N3_12 
REMARK    2  A    between atoms: N3_12  and  C10_13 
ROOT
HETATM    1  C1  UNL     1       5.662  -1.091   0.841  1.00  0.00     0.019 C 
HETATM    2  C2  UNL     1       4.517  -0.538   0.579  1.00  0.00    -0.059 A 
HETATM    3  C3  UNL     1       4.045   0.833   0.675  1.00  0.00     0.010 A 
HETATM    4  C4  UNL     1       2.855   0.386   0.229  1.00  0.00    -0.066 A 
HETATM    5  C5  UNL     1       1.449   0.681  -0.152  1.00  0.00     0.079 C 
HETATM    6  C6  UNL     1       0.601  -0.446   0.278  1.00  0.00     0.017 A 
HETATM    7  C7  UNL     1       1.034  -1.632   0.828  1.00  0.00     0.047 A 
HETATM    8  N1  UNL     1       0.231  -2.628   1.207  1.00  0.00    -0.246 NA
HETATM    9  C8  UNL     1      -1.105  -2.413   1.019  1.00  0.00     0.235 A 
HETATM   10  N2  UNL     1      -1.597  -1.289   0.493  1.00  0.00    -0.224 NA
HETATM   11  C9  UNL     1      -0.783  -0.298   0.116  1.00  0.00     0.138 A 
HETATM   12  C16 UNL     1       2.467  -1.921   1.051  1.00  0.00     0.073 C 
HETATM   13  C17 UNL     1       3.237  -1.048   0.085  1.00  0.00     0.052 A 
ENDROOT
BRANCH  11  14
HETATM   14  N3  UNL     1      -1.357   0.850  -0.432  1.00  0.00    -0.340 N 
HETATM   15  H7  UNL     1      -0.644   1.584  -0.717  1.00  0.00     0.167 HD
BRANCH  14  16
HETATM   16  C10 UNL     1      -2.698   1.223  -0.682  1.00  0.00     0.035 A 
HETATM   17  C11 UNL     1      -3.811   0.470  -0.391  1.00  0.00     0.029 A 
HETATM   18  C12 UNL     1      -5.106   0.806  -0.622  1.00  0.00     0.004 A 
HETATM   19  C13 UNL     1      -5.321   2.033  -1.212  1.00  0.00     0.019 A 
HETATM   20  C14 UNL     1      -4.267   2.855  -1.539  1.00  0.00     0.013 A 
HETATM   21 BR1  UNL     1      -4.574   4.549  -2.354  1.00  0.00    -0.051 Br
HETATM   22  C15 UNL     1      -2.990   2.429  -1.266  1.00  0.00     0.048 A 
ENDBRANCH  14  16
ENDBRANCH  11  14
TORSDOF 2
