REMARK  6 active torsions:
REMARK  status: ('A' for Active; 'I' for Inactive)
REMARK    1  A    between atoms: C2_2  and  C3_3 
REMARK    2  A    between atoms: C3_3  and  C4_4 
REMARK    3  A    between atoms: C4_4  and  N1_6 
REMARK    4  A    between atoms: N1_6  and  C6_7 
REMARK    5  A    between atoms: C9_10  and  C10_11 
REMARK    6  A    between atoms: C10_11  and  N2_12 
ROOT
HETATM    1  C6  UNL     1       0.978  -0.023  -0.260  1.00  0.00     0.024 C 
HETATM    2  C7  UNL     1       0.667   1.196  -0.843  1.00  0.00     0.072 C 
HETATM    3  C8  UNL     1      -0.620   1.952  -1.062  1.00  0.00    -0.010 C 
HETATM    4  C9  UNL     1      -1.981   1.934  -0.837  1.00  0.00    -0.064 C 
HETATM    5  C11 UNL     1      -2.215   0.835   0.158  1.00  0.00     0.055 C 
HETATM    6  C12 UNL     1      -2.943  -0.282  -0.423  1.00  0.00     0.118 C 
HETATM    7  N3  UNL     1      -3.072  -1.508   0.257  1.00  0.00    -0.412 N 
HETATM    8  C13 UNL     1      -2.060  -2.448   0.404  1.00  0.00     0.117 C 
HETATM    9  C14 UNL     1      -1.181  -2.506   1.572  1.00  0.00     0.000 C 
HETATM   10  C15 UNL     1      -0.418  -1.439   1.635  1.00  0.00     0.011 C 
HETATM   11  C16 UNL     1       0.196  -1.165   0.352  1.00  0.00    -0.016 C 
HETATM   12  C17 UNL     1       0.050  -1.874  -0.754  1.00  0.00     0.004 C 
HETATM   13  C18 UNL     1      -1.200  -2.641  -0.855  1.00  0.00     0.107 C 
HETATM   14 BR1  UNL     1      -0.771  -4.545  -0.988  1.00  0.00    -0.085 Br
HETATM   15  H19 UNL     1      -3.954  -1.661   0.761  1.00  0.00     0.153 HD
ENDROOT
BRANCH   1  16
HETATM   16  N1  UNL     1       2.372   0.117  -0.503  1.00  0.00    -0.386 N 
HETATM   17  H8  UNL     1       2.741  -0.409  -1.317  1.00  0.00     0.160 HD
BRANCH  16  18
HETATM   18  C4  UNL     1       3.241   0.930   0.314  1.00  0.00     0.093 C 
HETATM   19  C5  UNL     1       3.100   0.451   1.750  1.00  0.00     0.033 C 
BRANCH  18  20
HETATM   20  C3  UNL     1       4.634   0.966  -0.104  1.00  0.00     0.091 C 
BRANCH  20  21
HETATM   21  C2  UNL     1       5.353  -0.127  -0.167  1.00  0.00    -0.174 C 
HETATM   22  C1  UNL     1       5.831  -1.363  -0.202  1.00  0.00     0.091 C 
ENDBRANCH  20  21
ENDBRANCH  18  20
ENDBRANCH  16  18
ENDBRANCH   1  16
BRANCH   4  23
HETATM   23  C10 UNL     1      -3.067   2.821  -1.185  1.00  0.00     0.145 C 
BRANCH  23  24
HETATM   24  N2  UNL     1      -3.786   3.371  -0.085  1.00  0.00    -0.427 N 
HETATM   25  H13 UNL     1      -3.269   3.995   0.533  1.00  0.00     0.150 HD
HETATM   26  H14 UNL     1      -4.594   2.870   0.268  1.00  0.00     0.150 HD
ENDBRANCH  23  24
ENDBRANCH   4  23
TORSDOF 6
