REMARK  7 active torsions:
REMARK  status: ('A' for Active; 'I' for Inactive)
REMARK    1  A    between atoms: N1_2  and  C2_3 
REMARK    2  A    between atoms: C3_4  and  N2_5 
REMARK    3  A    between atoms: N2_5  and  C4_6 
REMARK    4  A    between atoms: C11_16  and  O1_17 
REMARK    5  A    between atoms: O1_17  and  C12_18 
REMARK    6  A    between atoms: C13_19  and  C14_20 
REMARK    7  A    between atoms: C15_21  and  C16_22 
ROOT
HETATM    1  C2  UNL     1      -0.450   0.029  -0.777  1.00  0.00     0.129 A 
HETATM    2  C3  UNL     1      -1.451  -0.902  -0.815  1.00  0.00     0.160 A 
HETATM    3  N3  UNL     1      -1.222  -2.221  -0.660  1.00  0.00    -0.222 NA
HETATM    4  C10 UNL     1      -0.005  -2.715  -0.458  1.00  0.00     0.238 A 
HETATM    5  N4  UNL     1       0.982  -1.804  -0.419  1.00  0.00    -0.215 NA
HETATM    6  C11 UNL     1       0.816  -0.483  -0.567  1.00  0.00     0.211 A 
ENDROOT
BRANCH   2   7
HETATM    7  N2  UNL     1      -2.814  -0.574  -1.028  1.00  0.00    -0.339 N 
HETATM    8  H5  UNL     1      -2.912  -0.696  -2.059  1.00  0.00     0.167 HD
BRANCH   7   9
HETATM    9  C4  UNL     1      -3.691  -0.202   0.026  1.00  0.00     0.035 A 
HETATM   10  C5  UNL     1      -3.123  -0.203   1.281  1.00  0.00     0.029 A 
HETATM   11  C6  UNL     1      -3.899   0.145   2.364  1.00  0.00     0.004 A 
HETATM   12  C7  UNL     1      -5.219   0.480   2.118  1.00  0.00     0.019 A 
HETATM   13  C8  UNL     1      -5.774   0.477   0.854  1.00  0.00     0.013 A 
HETATM   14 BR1  UNL     1      -7.622   0.958   0.616  1.00  0.00    -0.051 Br
HETATM   15  C9  UNL     1      -5.000   0.128  -0.239  1.00  0.00     0.048 A 
ENDBRANCH   7   9
ENDBRANCH   2   7
BRANCH   1  16
HETATM   16  N1  UNL     1      -0.692   1.395  -0.935  1.00  0.00    -0.388 N 
HETATM   17  C1  UNL     1      -1.880   2.147  -1.158  1.00  0.00     0.146 C 
HETATM   18  H4  UNL     1       0.170   2.015  -0.879  1.00  0.00     0.159 HD
ENDBRANCH   1  16
BRANCH   6  19
HETATM   19  O1  UNL     1       1.859   0.426  -0.521  1.00  0.00    -0.238 OA
BRANCH  19  20
HETATM   20  C12 UNL     1       3.148   0.034  -0.320  1.00  0.00     0.066 C 
HETATM   21  C13 UNL     1       4.294  -0.295  -0.133  1.00  0.00    -0.048 C 
BRANCH  21  22
HETATM   22  C14 UNL     1       5.663  -0.663   0.093  1.00  0.00     0.065 C 
HETATM   23  C15 UNL     1       6.611   0.270  -0.030  1.00  0.00     0.013 C 
BRANCH  23  24
HETATM   24  C16 UNL     1       8.041  -0.125   0.209  1.00  0.00     0.250 C 
HETATM   25  F1  UNL     1       8.018  -1.458   0.520  1.00  0.00    -0.251 F 
ENDBRANCH  23  24
ENDBRANCH  21  22
ENDBRANCH  19  20
ENDBRANCH   6  19
TORSDOF 7
