REMARK  5 active torsions:
REMARK  status: ('A' for Active; 'I' for Inactive)
REMARK    1  A    between atoms: C2_2  and  C3_3 
REMARK    2  A    between atoms: C3_3  and  C4_4 
REMARK       I    between atoms: C4_4  and  N1_6 
REMARK    3  A    between atoms: N1_6  and  C5_7 
REMARK    4  A    between atoms: C7_9  and  C8_10 
REMARK    5  A    between atoms: N2_13  and  C11_14 
ROOT
HETATM    1  C8  UNL     1      -0.032  -0.505   0.471  1.00  0.00     0.026 C 
HETATM    2  C9  UNL     1      -0.670   0.613   1.215  1.00  0.00     0.031 C 
HETATM    3  C10 UNL     1      -2.108   0.876   0.893  1.00  0.00     0.144 C 
HETATM    4  N2  UNL     1      -2.481   0.445  -0.431  1.00  0.00    -0.313 N 
HETATM    5  N3  UNL     1      -1.441   0.328  -1.359  1.00  0.00    -0.237 NA
HETATM    6  C17 UNL     1      -0.583  -0.726  -0.912  1.00  0.00     0.119 C 
HETATM    7  H18 UNL     1      -0.953   1.240  -1.391  1.00  0.00     0.146 HD
ENDROOT
BRANCH   1   8
HETATM    8  C7  UNL     1       1.423  -0.142   0.321  1.00  0.00     0.004 C 
HETATM    9  C5  UNL     1       2.629  -0.597   0.698  1.00  0.00     0.005 C 
HETATM   10  C6  UNL     1       2.695  -1.822   1.514  1.00  0.00     0.068 C 
BRANCH   9  11
HETATM   11  N1  UNL     1       3.851   0.074   0.331  1.00  0.00    -0.328 N 
HETATM   12  C4  UNL     1       4.677   0.541   1.390  1.00  0.00     0.252 C 
HETATM   13  O1  UNL     1       4.325   0.361   2.585  1.00  0.00    -0.268 OA
HETATM   14  H4  UNL     1       4.104   0.202  -0.677  1.00  0.00     0.169 HD
BRANCH  12  15
HETATM   15  C3  UNL     1       5.898   1.211   0.990  1.00  0.00     0.125 C 
BRANCH  15  16
HETATM   16  C2  UNL     1       6.684   0.652   0.111  1.00  0.00    -0.149 C 
HETATM   17  C1  UNL     1       7.312  -0.089  -0.777  1.00  0.00     0.096 C 
ENDBRANCH  15  16
ENDBRANCH  12  15
ENDBRANCH   9  11
ENDBRANCH   1   8
BRANCH   4  18
HETATM   18  C11 UNL     1      -3.802   0.144  -0.824  1.00  0.00     0.046 A 
HETATM   19  C12 UNL     1      -4.083  -0.264  -2.115  1.00  0.00     0.031 A 
HETATM   20  C13 UNL     1      -5.383  -0.554  -2.479  1.00  0.00     0.004 A 
HETATM   21  C14 UNL     1      -6.441  -0.458  -1.616  1.00  0.00     0.019 A 
HETATM   22  C15 UNL     1      -6.181  -0.047  -0.308  1.00  0.00     0.013 A 
HETATM   23 BR1  UNL     1      -7.606   0.107   0.945  1.00  0.00    -0.051 Br
HETATM   24  C16 UNL     1      -4.868   0.237   0.033  1.00  0.00     0.049 A 
ENDBRANCH   4  18
TORSDOF 5
