REMARK  4 active torsions:
REMARK  status: ('A' for Active; 'I' for Inactive)
REMARK    1  A    between atoms: C2_2  and  O1_3 
REMARK    2  A    between atoms: C3_4  and  C4_5 
REMARK       I    between atoms: C4_5  and  N1_7 
REMARK    3  A    between atoms: N1_7  and  C5_8 
REMARK    4  A    between atoms: C10_15  and  N4_16 
ROOT
HETATM    1  C5  UNL     1       1.549   0.398   0.983  1.00  0.00     0.036 A 
HETATM    2  C6  UNL     1       1.857   1.164   2.101  1.00  0.00     0.032 A 
HETATM    3  C7  UNL     1       0.869   1.813   2.831  1.00  0.00     0.035 A 
HETATM    4  C8  UNL     1      -0.462   1.705   2.449  1.00  0.00     0.072 A 
HETATM    5  N2  UNL     1      -1.472   2.319   3.117  1.00  0.00    -0.241 NA
HETATM    6  C9  UNL     1      -2.741   2.167   2.679  1.00  0.00     0.236 A 
HETATM    7  N3  UNL     1      -3.002   1.417   1.592  1.00  0.00    -0.223 NA
HETATM    8  C10 UNL     1      -2.051   0.783   0.886  1.00  0.00     0.144 A 
HETATM    9  C17 UNL     1      -0.758   0.942   1.339  1.00  0.00     0.041 A 
HETATM   10  C18 UNL     1       0.223   0.298   0.614  1.00  0.00     0.047 A 
ENDROOT
BRANCH   1  11
HETATM   11  N1  UNL     1       2.642  -0.236   0.293  1.00  0.00    -0.324 N 
HETATM   12  C4  UNL     1       3.082  -1.547   0.646  1.00  0.00     0.248 C 
HETATM   13  O2  UNL     1       2.315  -1.891   1.601  1.00  0.00    -0.268 OA
HETATM   14  H6  UNL     1       2.913   0.491  -0.405  1.00  0.00     0.169 HD
BRANCH  12  15
HETATM   15  C3  UNL     1       4.195  -1.968  -0.190  1.00  0.00     0.105 C 
HETATM   16  C2  UNL     1       5.014  -1.662  -1.174  1.00  0.00     0.044 C 
HETATM   17  C1  UNL     1       4.985  -0.388  -1.906  1.00  0.00     0.076 C 
BRANCH  16  18
HETATM   18  O1  UNL     1       5.942  -2.601  -1.520  1.00  0.00    -0.365 OA
HETATM   19  H4  UNL     1       6.950  -2.476  -1.488  1.00  0.00     0.217 HD
ENDBRANCH  16  18
ENDBRANCH  12  15
ENDBRANCH   1  11
BRANCH   8  20
HETATM   20  N4  UNL     1      -2.487   0.015  -0.226  1.00  0.00    -0.332 N 
HETATM   21  C11 UNL     1      -2.203  -1.349  -0.414  1.00  0.00     0.093 A 
HETATM   22  C12 UNL     1      -2.586  -2.076  -1.437  1.00  0.00     0.018 A 
HETATM   23  C13 UNL     1      -3.377  -1.469  -2.494  1.00  0.00     0.018 A 
HETATM   24  C14 UNL     1      -3.666  -0.191  -2.349  1.00  0.00     0.011 A 
HETATM   25 BR1  UNL     1      -4.687   0.840  -3.593  1.00  0.00    -0.053 Br
HETATM   26  C15 UNL     1      -3.289   0.702  -1.221  1.00  0.00     0.127 A 
HETATM   27  C16 UNL     1      -4.533   1.219  -0.509  1.00  0.00     0.038 C 
ENDBRANCH   8  20
TORSDOF 4
