REMARK  0 active torsions:
REMARK  status: ('A' for Active; 'I' for Inactive)
ROOT
HETATM    1  O1  UNL     1       1.181   0.933   0.618  1.00  0.00    -0.125 OA
HETATM    2  C1  UNL     1       2.186   1.200  -0.137  1.00  0.00     0.307 A 
HETATM    3  C2  UNL     1       3.459   1.124  -0.888  1.00  0.00     0.081 C 
HETATM    4  C3  UNL     1       3.408   1.048  -2.184  1.00  0.00    -0.024 C 
HETATM    5  C4  UNL     1       2.581   0.162  -2.709  1.00  0.00     0.002 C 
HETATM    6  C5  UNL     1       1.843  -0.633  -1.763  1.00  0.00     0.092 A 
HETATM    7  C6  UNL     1       2.070  -1.782  -1.204  1.00  0.00     0.052 A 
HETATM    8 BR1  UNL     1       3.552  -1.455  -2.368  1.00  0.00    -0.144 Br
HETATM    9  C7  UNL     1       2.128  -2.982  -0.419  1.00  0.00     0.040 A 
HETATM   10  C8  UNL     1       1.225  -2.293   0.172  1.00  0.00     0.116 A 
HETATM   11  N1  UNL     1       0.256  -1.975   1.105  1.00  0.00    -0.346 N 
HETATM   12  S1  UNL     1      -1.479  -1.676   1.195  1.00  0.00     0.021 SA
HETATM   13  N2  UNL     1      -2.535  -2.747   0.548  1.00  0.00    -0.197 NA
HETATM   14  C9  UNL     1      -3.895  -2.382   0.699  1.00  0.00     0.237 C 
HETATM   15  N3  UNL     1      -4.229  -1.317   1.290  1.00  0.00    -0.277 NA
HETATM   16  C10 UNL     1      -3.417  -0.318   1.892  1.00  0.00     0.194 C 
HETATM   17  C11 UNL     1      -2.194   0.032   1.088  1.00  0.00     0.012 C 
HETATM   18  C12 UNL     1      -1.558   1.041   0.412  1.00  0.00     0.036 C 
HETATM   19  C13 UNL     1      -1.280   2.353  -0.151  1.00  0.00     0.041 C 
HETATM   20  C14 UNL     1       0.009   2.927   0.333  1.00  0.00     0.281 C 
HETATM   21  N4  UNL     1       1.205   2.223  -0.039  1.00  0.00     0.105 N 
HETATM   22  H6  UNL     1       0.211  -1.786   2.150  1.00  0.00     0.169 HD
HETATM   23  H15 UNL     1       1.704   2.941  -0.674  1.00  0.00     0.328 HD
ENDROOT
TORSDOF 0
