REMARK  2 active torsions:
REMARK  status: ('A' for Active; 'I' for Inactive)
REMARK    1  A    between atoms: C10_13  and  N3_14 
REMARK    2  A    between atoms: N3_14  and  C11_15 
ROOT
HETATM    1  C1  UNL     1       3.029  -1.295   2.572  1.00  0.00     0.021 C 
HETATM    2  C2  UNL     1       3.314  -0.684   1.427  1.00  0.00    -0.028 A 
HETATM    3  C3  UNL     1       4.700  -0.480   1.067  1.00  0.00     0.009 A 
HETATM    4  C4  UNL     1       4.865   0.141  -0.089  1.00  0.00     0.003 A 
HETATM    5  C5  UNL     1       3.743   0.572  -0.911  1.00  0.00     0.035 A 
HETATM    6  C6  UNL     1       2.462   0.370  -0.557  1.00  0.00     0.090 A 
HETATM    7  O1  UNL     1       1.609   0.883  -1.523  1.00  0.00    -0.323 OA
HETATM    8  C7  UNL     1       1.855   2.091  -2.169  1.00  0.00     0.161 C 
HETATM    9  C8  UNL     1       0.709   2.691  -2.485  1.00  0.00     0.142 C 
HETATM   10  N1  UNL     1      -0.130   1.690  -1.948  1.00  0.00    -0.252 NA
HETATM   11  C9  UNL     1      -0.376   0.601  -2.560  1.00  0.00     0.234 C 
HETATM   12  N2  UNL     1      -1.116   0.465  -1.360  1.00  0.00    -0.227 NA
HETATM   13  C10 UNL     1      -0.815  -0.445  -0.462  1.00  0.00     0.134 C 
HETATM   14  C17 UNL     1       0.276  -1.430  -0.539  1.00  0.00     0.349 C 
HETATM   15  N4  UNL     1       1.198  -1.425   0.542  1.00  0.00     0.105 N 
HETATM   16  C18 UNL     1       2.059  -0.300   0.678  1.00  0.00     0.309 A 
HETATM   17  H16 UNL     1       0.718  -1.564   1.464  1.00  0.00     0.317 HD
ENDROOT
BRANCH  13  18
HETATM   18  N3  UNL     1      -1.676  -0.421   0.670  1.00  0.00    -0.343 N 
HETATM   19  H9  UNL     1      -1.225  -0.540   1.629  1.00  0.00     0.167 HD
BRANCH  18  20
HETATM   20  C11 UNL     1      -3.076  -0.260   0.638  1.00  0.00     0.034 A 
HETATM   21  C12 UNL     1      -3.842  -0.135  -0.499  1.00  0.00     0.029 A 
HETATM   22  C13 UNL     1      -5.205   0.026  -0.558  1.00  0.00     0.004 A 
HETATM   23  C14 UNL     1      -5.908   0.072   0.650  1.00  0.00     0.019 A 
HETATM   24  C15 UNL     1      -5.179  -0.049   1.815  1.00  0.00     0.013 A 
HETATM   25 BR1  UNL     1      -6.104   0.008   3.485  1.00  0.00    -0.051 Br
HETATM   26  C16 UNL     1      -3.812  -0.209   1.803  1.00  0.00     0.048 A 
ENDBRANCH  18  20
ENDBRANCH  13  18
TORSDOF 2
