REMARK  7 active torsions:
REMARK  status: ('A' for Active; 'I' for Inactive)
REMARK    1  A    between atoms: C1_2  and  O2_3 
REMARK    2  A    between atoms: C1_2  and  C2_4 
REMARK    3  A    between atoms: C3_5  and  C4_6 
REMARK    4  A    between atoms: C5_7  and  C6_8 
REMARK    5  A    between atoms: C7_9  and  C8_10 
REMARK    6  A    between atoms: C9_11  and  N1_12 
REMARK    7  A    between atoms: N1_12  and  C10_13 
ROOT
HETATM    1  C8  UNL     1       0.274  -0.673   0.242  1.00  0.00     0.017 C 
HETATM    2  C9  UNL     1      -1.039  -0.841   0.220  1.00  0.00     0.090 C 
ENDROOT
BRANCH   2   3
HETATM    3  N1  UNL     1      -1.820  -0.631  -0.943  1.00  0.00    -0.350 N 
HETATM    4  H10 UNL     1      -1.365  -0.213  -1.783  1.00  0.00     0.166 HD
BRANCH   3   5
HETATM    5  C10 UNL     1      -3.194  -0.990  -0.942  1.00  0.00     0.141 A 
HETATM    6  N2  UNL     1      -3.656  -2.224  -1.298  1.00  0.00    -0.224 NA
HETATM    7  C11 UNL     1      -4.955  -2.531  -1.287  1.00  0.00     0.236 A 
HETATM    8  N3  UNL     1      -5.832  -1.575  -0.910  1.00  0.00    -0.241 NA
HETATM    9  C12 UNL     1      -5.466  -0.342  -0.546  1.00  0.00     0.072 A 
HETATM   10  C13 UNL     1      -6.408   0.611  -0.165  1.00  0.00     0.032 A 
HETATM   11  C17 UNL     1      -4.107  -0.027  -0.559  1.00  0.00     0.039 A 
HETATM   12  C14 UNL     1      -5.979   1.887   0.206  1.00  0.00     0.002 A 
HETATM   13  C15 UNL     1      -4.632   2.197   0.193  1.00  0.00     0.001 A 
HETATM   14  C16 UNL     1      -3.701   1.249  -0.186  1.00  0.00     0.018 A 
ENDBRANCH   3   5
ENDBRANCH   2   3
BRANCH   1  15
HETATM   15  C7  UNL     1       1.068  -0.892   1.444  1.00  0.00     0.001 C 
HETATM   16  C6  UNL     1       2.367  -0.743   1.530  1.00  0.00     0.000 C 
BRANCH  16  17
HETATM   17  C5  UNL     1       3.118  -0.328   0.356  1.00  0.00     0.000 C 
HETATM   18  C4  UNL     1       4.410  -0.156   0.352  1.00  0.00     0.000 C 
BRANCH  18  19
HETATM   19  C3  UNL     1       5.336   0.248  -0.692  1.00  0.00     0.007 C 
HETATM   20  C2  UNL     1       6.641   0.404  -0.635  1.00  0.00     0.081 C 
BRANCH  20  21
HETATM   21  C1  UNL     1       7.537   0.222   0.473  1.00  0.00     0.165 C 
HETATM   22  O1  UNL     1       7.170  -0.141   1.634  1.00  0.00    -0.647 OA
BRANCH  21  23
HETATM   23  O2  UNL     1       8.888   0.431   0.355  1.00  0.00    -0.773 OA
HETATM   24  H1  UNL     1       9.425   0.653   1.178  1.00  0.00     0.167 HD
ENDBRANCH  21  23
ENDBRANCH  20  21
ENDBRANCH  18  19
ENDBRANCH  16  17
ENDBRANCH   1  15
TORSDOF 7
