REMARK  6 active torsions:
REMARK  status: ('A' for Active; 'I' for Inactive)
REMARK    1  A    between atoms: C1_2  and  O2_3 
REMARK    2  A    between atoms: C1_2  and  C2_4 
REMARK    3  A    between atoms: C3_5  and  C4_6 
REMARK       I    between atoms: C4_6  and  N1_8 
REMARK    4  A    between atoms: N1_8  and  C5_9 
REMARK    5  A    between atoms: C11_15  and  N2_16 
REMARK    6  A    between atoms: N2_16  and  C12_17 
ROOT
HETATM    1  C5  UNL     1      -1.535   0.000  -0.810  1.00  0.00     0.035 A 
HETATM    2  C6  UNL     1      -1.836  -0.743  -1.924  1.00  0.00     0.032 A 
HETATM    3  C7  UNL     1      -0.941  -1.109  -2.904  1.00  0.00     0.035 A 
HETATM    4  C8  UNL     1       0.372  -0.705  -2.776  1.00  0.00     0.070 A 
HETATM    5  C9  UNL     1       0.704   0.043  -1.666  1.00  0.00     0.024 A 
HETATM    6  C10 UNL     1      -0.223   0.383  -0.716  1.00  0.00     0.045 A 
HETATM    7  C11 UNL     1       2.130   0.338  -1.767  1.00  0.00     0.077 A 
HETATM    8  C18 UNL     1       2.526  -0.256  -2.883  1.00  0.00     0.116 A 
HETATM    9  N3  UNL     1       1.576  -0.853  -3.521  1.00  0.00    -0.243 NA
ENDROOT
BRANCH   1  10
HETATM   10  N1  UNL     1      -2.421   0.395   0.215  1.00  0.00    -0.324 N 
HETATM   11  C4  UNL     1      -3.804   0.137   0.359  1.00  0.00     0.245 C 
HETATM   12  O3  UNL     1      -4.399  -0.534  -0.514  1.00  0.00    -0.268 OA
HETATM   13  H4  UNL     1      -2.067   0.963   1.014  1.00  0.00     0.169 HD
BRANCH  11  14
HETATM   14  C3  UNL     1      -4.621   0.602   1.471  1.00  0.00     0.081 C 
HETATM   15  C2  UNL     1      -5.898   0.294   1.488  1.00  0.00     0.086 C 
BRANCH  15  16
HETATM   16  C1  UNL     1      -6.738   0.746   2.590  1.00  0.00     0.165 C 
HETATM   17  O1  UNL     1      -6.223   1.437   3.527  1.00  0.00    -0.647 OA
BRANCH  16  18
HETATM   18  O2  UNL     1      -8.091   0.445   2.648  1.00  0.00    -0.773 OA
HETATM   19  H1  UNL     1      -8.583   0.404   3.532  1.00  0.00     0.167 HD
ENDBRANCH  16  18
ENDBRANCH  15  16
ENDBRANCH  11  14
ENDBRANCH   1  10
BRANCH   7  20
HETATM   20  N2  UNL     1       2.903   1.101  -0.849  1.00  0.00    -0.354 N 
HETATM   21  H8  UNL     1       2.796   2.109  -0.620  1.00  0.00     0.166 HD
BRANCH  20  22
HETATM   22  C12 UNL     1       3.977   0.563  -0.085  1.00  0.00     0.033 A 
HETATM   23  C13 UNL     1       5.176   0.687  -0.785  1.00  0.00     0.029 A 
HETATM   24  C14 UNL     1       6.381   0.230  -0.241  1.00  0.00     0.004 A 
HETATM   25  C15 UNL     1       6.336  -0.355   1.029  1.00  0.00     0.019 A 
HETATM   26  C16 UNL     1       5.140  -0.473   1.715  1.00  0.00     0.013 A 
HETATM   27 BR1  UNL     1       5.019  -1.260   3.447  1.00  0.00    -0.051 Br
HETATM   28  C17 UNL     1       3.959  -0.017   1.166  1.00  0.00     0.048 A 
ENDBRANCH  20  22
ENDBRANCH   7  20
TORSDOF 6
