REMARK  3 active torsions:
REMARK  status: ('A' for Active; 'I' for Inactive)
REMARK    1  A    between atoms: C2_2  and  C3_4 
REMARK    2  A    between atoms: C4_5  and  C5_6 
REMARK    3  A    between atoms: C5_6  and  C6_8 
ROOT
HETATM    1  C6  UNL     1       0.478   0.021  -0.110  1.00  0.00    -0.012 C 
HETATM    2  C7  UNL     1       0.506   1.227   0.428  1.00  0.00    -0.015 C 
HETATM    3  C8  UNL     1      -0.810   1.981   0.652  1.00  0.00     0.001 C 
HETATM    4  C9  UNL     1      -2.166   2.187   0.612  1.00  0.00     0.042 C 
HETATM    5  C10 UNL     1      -3.619   2.131   0.435  1.00  0.00     0.126 A 
HETATM    6  C11 UNL     1      -4.462   1.245  -0.078  1.00  0.00     0.026 A 
HETATM    7 BR1  UNL     1      -5.555   2.752   0.512  1.00  0.00    -0.151 Br
HETATM    8  C12 UNL     1      -5.272   0.135  -0.651  1.00  0.00    -0.014 C 
HETATM    9  C13 UNL     1      -4.750  -1.085  -0.847  1.00  0.00    -0.024 C 
HETATM   10  C14 UNL     1      -3.685  -2.139  -0.820  1.00  0.00     0.020 C 
HETATM   11  C15 UNL     1      -2.392  -2.463  -0.482  1.00  0.00    -0.001 C 
HETATM   12  C16 UNL     1      -1.449  -1.497   0.149  1.00  0.00     0.010 C 
HETATM   13  C17 UNL     1      -0.151  -1.245  -0.485  1.00  0.00     0.043 C 
ENDROOT
BRANCH   1  14
HETATM   14  C5  UNL     1       1.949  -0.176  -0.116  1.00  0.00     0.178 C 
HETATM   15  O2  UNL     1       2.627  -1.156  -0.517  1.00  0.00    -0.288 OA
BRANCH  14  16
HETATM   16  C4  UNL     1       3.172   0.503   0.255  1.00  0.00     0.059 C 
HETATM   17  C3  UNL     1       4.264  -0.176   0.003  1.00  0.00     0.053 C 
BRANCH  17  18
HETATM   18  C2  UNL     1       5.486   0.523   0.382  1.00  0.00     0.145 C 
HETATM   19  C1  UNL     1       6.861   0.046   0.231  1.00  0.00     0.096 C 
HETATM   20  O1  UNL     1       5.223   1.645   0.882  1.00  0.00    -0.294 OA
ENDBRANCH  17  18
ENDBRANCH  14  16
ENDBRANCH   1  14
TORSDOF 3
