REMARK  5 active torsions:
REMARK  status: ('A' for Active; 'I' for Inactive)
REMARK    1  A    between atoms: C2_2  and  P1_3 
REMARK    2  A    between atoms: C2_2  and  C3_4 
REMARK    3  A    between atoms: C4_5  and  C5_6 
REMARK       I    between atoms: C5_6  and  N1_8 
REMARK    4  A    between atoms: N1_8  and  C6_9 
REMARK    5  A    between atoms: C18_24  and  N4_25 
ROOT
HETATM    1  C6  UNL     1       0.495  -0.149  -0.758  1.00  0.00     0.154 C 
HETATM    2  C7  UNL     1      -0.595  -0.935  -1.027  1.00  0.00     0.011 C 
HETATM    3  C8  UNL     1      -2.089  -0.944  -1.100  1.00  0.00     0.136 C 
HETATM    4  C9  UNL     1      -2.749   0.240  -0.837  1.00  0.00     0.610 C 
HETATM    5  N2  UNL     1      -3.763   1.265  -0.626  1.00  0.00     0.022 NA
HETATM    6  C10 UNL     1      -4.051   1.496   0.704  1.00  0.00     0.262 C 
HETATM    7  C11 UNL     1      -3.241   0.626   1.648  1.00  0.00     0.139 C 
HETATM    8  C12 UNL     1      -1.814   0.929   1.660  1.00  0.00     0.025 C 
HETATM    9  C13 UNL     1      -0.677   1.073   0.930  1.00  0.00     0.142 C 
HETATM   10  O2  UNL     1      -0.342   0.960  -0.455  1.00  0.00    -0.306 OA
HETATM   11  N3  UNL     1      -3.632  -0.718   1.381  1.00  0.00    -0.389 N 
HETATM   12  C14 UNL     1      -3.395  -2.050   1.824  1.00  0.00     0.080 C 
HETATM   13  C15 UNL     1      -2.666  -3.118   1.553  1.00  0.00    -0.004 C 
HETATM   14  C16 UNL     1      -1.815  -2.765   0.388  1.00  0.00     0.024 C 
HETATM   15  C17 UNL     1      -0.885  -3.322  -0.404  1.00  0.00     0.038 C 
HETATM   16  C18 UNL     1      -0.422  -2.374  -1.415  1.00  0.00     0.256 C 
HETATM   17  H14 UNL     1      -4.347  -0.916   0.602  1.00  0.00     0.159 HD
ENDROOT
BRANCH   1  18
HETATM   18  N1  UNL     1       1.807   0.265  -0.584  1.00  0.00    -0.304 N 
HETATM   19  C5  UNL     1       2.996  -0.461  -0.732  1.00  0.00     0.247 C 
HETATM   20  O1  UNL     1       2.975  -1.653  -1.058  1.00  0.00    -0.268 OA
HETATM   21  H7  UNL     1       1.981   1.239  -0.307  1.00  0.00     0.171 HD
BRANCH  19  22
HETATM   22  C4  UNL     1       4.246   0.232  -0.492  1.00  0.00     0.075 C 
HETATM   23  C3  UNL     1       4.798   1.404  -0.156  1.00  0.00     0.013 C 
BRANCH  23  24
HETATM   24  C2  UNL     1       4.512   2.811   0.207  1.00  0.00    -0.055 C 
HETATM   25  C1  UNL     1       5.634   3.720   0.480  1.00  0.00     0.049 C 
BRANCH  24  26
HETATM   26  P1  UNL     1       3.254   3.906   0.449  1.00  0.00    -0.069 P 
HETATM   27  H4  UNL     1       1.893   3.504   0.300  1.00  0.00     0.067 HD
ENDBRANCH  24  26
ENDBRANCH  23  24
ENDBRANCH  19  22
ENDBRANCH   1  18
BRANCH  16  28
HETATM   28  N4  UNL     1      -1.127  -2.697  -2.664  1.00  0.00     0.087 N 
HETATM   29  H20 UNL     1      -1.196  -1.828  -3.254  1.00  0.00     0.313 HD
HETATM   30  H21 UNL     1      -2.133  -2.903  -2.378  1.00  0.00     0.313 HD
ENDBRANCH  16  28
TORSDOF 5
