REMARK  5 active torsions:
REMARK  status: ('A' for Active; 'I' for Inactive)
REMARK    1  A    between atoms: C2_2  and  C3_4 
REMARK    2  A    between atoms: C4_5  and  C5_6 
REMARK       I    between atoms: C5_6  and  N1_8 
REMARK    3  A    between atoms: N1_8  and  C6_9 
REMARK    4  A    between atoms: C11_16  and  C12_17 
REMARK    5  A    between atoms: C14_19  and  N4_20 
ROOT
HETATM    1  C6  UNL     1       0.895  -1.521  -0.133  1.00  0.00     0.035 A 
HETATM    2  C7  UNL     1       1.041  -2.890  -0.091  1.00  0.00     0.032 A 
HETATM    3  C8  UNL     1      -0.012  -3.751   0.047  1.00  0.00     0.035 A 
HETATM    4  C9  UNL     1      -1.262  -3.216   0.149  1.00  0.00     0.070 A 
HETATM    5  N2  UNL     1      -2.296  -4.059   0.274  1.00  0.00    -0.241 NA
HETATM    6  C10 UNL     1      -3.522  -3.579   0.366  1.00  0.00     0.234 A 
HETATM    7  N3  UNL     1      -3.682  -2.274   0.330  1.00  0.00    -0.241 NA
HETATM    8  C11 UNL     1      -2.777  -1.316   0.212  1.00  0.00     0.078 A 
HETATM    9  C17 UNL     1      -1.517  -1.854   0.119  1.00  0.00     0.024 A 
HETATM   10  C18 UNL     1      -0.403  -1.080  -0.023  1.00  0.00     0.045 A 
ENDROOT
BRANCH   1  11
HETATM   11  N1  UNL     1       1.938  -0.576  -0.274  1.00  0.00    -0.324 N 
HETATM   12  C5  UNL     1       3.320  -0.750  -0.405  1.00  0.00     0.245 C 
HETATM   13  O2  UNL     1       3.730  -1.936  -0.399  1.00  0.00    -0.268 OA
HETATM   14  H6  UNL     1       1.693   0.444  -0.290  1.00  0.00     0.169 HD
BRANCH  12  15
HETATM   15  C4  UNL     1       4.291   0.327  -0.545  1.00  0.00     0.078 C 
HETATM   16  C3  UNL     1       4.180   1.625  -0.585  1.00  0.00     0.055 C 
BRANCH  16  17
HETATM   17  C2  UNL     1       5.170   2.684  -0.726  1.00  0.00     0.145 C 
HETATM   18  C1  UNL     1       6.611   2.357  -0.857  1.00  0.00     0.096 C 
HETATM   19  O1  UNL     1       4.778   3.879  -0.734  1.00  0.00    -0.294 OA
ENDBRANCH  16  17
ENDBRANCH  12  15
ENDBRANCH   1  11
BRANCH   8  20
HETATM   20  C12 UNL     1      -3.036   0.142   0.170  1.00  0.00    -0.008 A 
HETATM   21  C13 UNL     1      -4.368   0.325   0.167  1.00  0.00     0.039 A 
HETATM   22  C14 UNL     1      -4.752   1.718   0.127  1.00  0.00     0.024 A 
HETATM   23  C15 UNL     1      -3.624   2.384   0.110  1.00  0.00     0.022 A 
HETATM   24  C16 UNL     1      -2.418   1.468   0.143  1.00  0.00     0.118 A 
HETATM   25 BR1  UNL     1      -1.572   1.954   1.838  1.00  0.00    -0.082 Br
BRANCH  22  26
HETATM   26  N4  UNL     1      -5.922   2.513   0.101  1.00  0.00    -0.399 N 
HETATM   27  H11 UNL     1      -6.120   3.270   0.803  1.00  0.00     0.156 HD
HETATM   28  H12 UNL     1      -6.587   2.295  -0.672  1.00  0.00     0.156 HD
ENDBRANCH  22  26
ENDBRANCH   8  20
TORSDOF 5
