REMARK  3 active torsions:
REMARK  status: ('A' for Active; 'I' for Inactive)
REMARK    1  A    between atoms: N1_3  and  C2_4 
REMARK    2  A    between atoms: C8_12  and  N4_13 
REMARK    3  A    between atoms: N4_13  and  C9_14 
ROOT
HETATM    1  B1  UNL     1       4.500   5.124  -0.118  1.00  0.00     0.222 B 
HETATM    2  C1  UNL     1       4.475   2.964  -0.805  1.00  0.00    -0.158 C 
HETATM    3  N1  UNL     1       4.436   1.665  -1.215  1.00  0.00    -0.339 N 
HETATM    4  H1  UNL     1       5.404   1.806  -1.452  1.00  0.00     0.174 HD
ENDROOT
BRANCH   3   5
HETATM    5  C2  UNL     1       3.157   1.099  -1.025  1.00  0.00     0.038 C 
HETATM    6  C3  UNL     1       3.628  -0.008  -1.557  1.00  0.00     0.031 C 
HETATM    7  C4  UNL     1       2.669  -1.067  -1.666  1.00  0.00     0.021 C 
HETATM    8  C5  UNL     1       1.506  -1.746  -1.591  1.00  0.00     0.117 C 
HETATM    9  N2  UNL     1       0.443  -2.735  -1.639  1.00  0.00    -0.257 NA
HETATM   10  C6  UNL     1      -0.035  -3.078  -0.483  1.00  0.00     0.104 C 
HETATM   11  C7  UNL     1       0.295  -2.173   0.440  1.00  0.00     0.153 C 
HETATM   12  N3  UNL     1      -0.096  -0.920   0.605  1.00  0.00    -0.241 NA
HETATM   13  C8  UNL     1       0.139   0.284   0.597  1.00  0.00     0.127 C 
HETATM   14  C15 UNL     1       0.983   1.479   0.313  1.00  0.00     0.052 C 
HETATM   15  C16 UNL     1       2.111   1.750  -0.290  1.00  0.00     0.034 C 
BRANCH  13  16
HETATM   16  N4  UNL     1      -1.201   0.706   0.989  1.00  0.00    -0.341 N 
HETATM   17  H6  UNL     1      -1.527   1.697   1.275  1.00  0.00     0.167 HD
BRANCH  16  18
HETATM   18  C9  UNL     1      -2.466   0.093   1.133  1.00  0.00     0.034 A 
HETATM   19  C10 UNL     1      -3.245   0.035  -0.032  1.00  0.00     0.029 A 
HETATM   20  C11 UNL     1      -4.502  -0.533   0.001  1.00  0.00     0.004 A 
HETATM   21  C12 UNL     1      -4.965  -1.042   1.219  1.00  0.00     0.019 A 
HETATM   22  C13 UNL     1      -4.218  -0.992   2.361  1.00  0.00     0.013 A 
HETATM   23 BR1  UNL     1      -4.810  -1.669   4.043  1.00  0.00    -0.051 Br
HETATM   24  C14 UNL     1      -2.979  -0.424   2.301  1.00  0.00     0.048 A 
ENDBRANCH  16  18
ENDBRANCH  13  16
ENDBRANCH   3   5
TORSDOF 3
