REMARK  8 active torsions:
REMARK  status: ('A' for Active; 'I' for Inactive)
REMARK    1  A    between atoms: C2_2  and  C3_3 
REMARK    2  A    between atoms: C2_2  and  N1_9 
REMARK    3  A    between atoms: C3_3  and  C4_4 
REMARK    4  A    between atoms: C4_4  and  O2_6 
REMARK    5  A    between atoms: O2_6  and  C5_7 
REMARK    6  A    between atoms: N1_9  and  C7_10 
REMARK    7  A    between atoms: C11_16  and  N4_17 
REMARK    8  A    between atoms: N4_17  and  C12_18 
ROOT
HETATM    1  C7  UNL     1       0.686  -1.263   0.968  1.00  0.00     0.131 A 
HETATM    2  C8  UNL     1       0.165  -2.562   0.473  1.00  0.00     0.034 A 
HETATM    3  C9  UNL     1      -1.115  -2.429   0.176  1.00  0.00     0.070 A 
HETATM    4  N2  UNL     1      -1.960  -3.359  -0.302  1.00  0.00    -0.241 NA
HETATM    5  C10 UNL     1      -3.244  -3.020  -0.543  1.00  0.00     0.235 A 
HETATM    6  N3  UNL     1      -3.646  -1.766  -0.301  1.00  0.00    -0.224 NA
HETATM    7  C11 UNL     1      -2.878  -0.777   0.172  1.00  0.00     0.141 A 
HETATM    8  C18 UNL     1      -1.572  -1.151   0.410  1.00  0.00     0.037 A 
HETATM    9  C19 UNL     1      -0.539  -0.428   0.879  1.00  0.00     0.020 A 
ENDROOT
BRANCH   1  10
HETATM   10  N1  UNL     1       1.757  -0.755   0.158  1.00  0.00    -0.382 N 
HETATM   11  H10 UNL     1       1.665   0.168  -0.318  1.00  0.00     0.160 HD
BRANCH  10  12
HETATM   12  C2  UNL     1       2.946  -1.519   0.007  1.00  0.00     0.005 C 
HETATM   13  C1  UNL     1       3.083  -2.681   0.625  1.00  0.00     0.038 C 
BRANCH  12  14
HETATM   14  C3  UNL     1       4.048  -1.012  -0.850  1.00  0.00     0.166 C 
BRANCH  14  15
HETATM   15  C4  UNL     1       4.531   0.313  -0.321  1.00  0.00     0.264 C 
HETATM   16  O1  UNL     1       4.091   0.923   0.687  1.00  0.00    -0.265 OA
BRANCH  15  17
HETATM   17  O2  UNL     1       5.565   0.792  -1.124  1.00  0.00    -0.322 OA
BRANCH  17  18
HETATM   18  C5  UNL     1       6.193   2.041  -0.825  1.00  0.00     0.174 C 
HETATM   19  C6  UNL     1       6.812   1.994   0.553  1.00  0.00     0.034 C 
ENDBRANCH  17  18
ENDBRANCH  15  17
ENDBRANCH  14  15
ENDBRANCH  12  14
ENDBRANCH  10  12
ENDBRANCH   1  10
BRANCH   7  20
HETATM   20  N4  UNL     1      -3.279   0.554   0.435  1.00  0.00    -0.340 N 
HETATM   21  H14 UNL     1      -2.556   1.215   0.807  1.00  0.00     0.167 HD
BRANCH  20  22
HETATM   22  C12 UNL     1      -4.561   1.111   0.254  1.00  0.00     0.035 A 
HETATM   23  C13 UNL     1      -5.680   0.462  -0.219  1.00  0.00     0.029 A 
HETATM   24  C14 UNL     1      -6.924   1.026  -0.388  1.00  0.00     0.004 A 
HETATM   25  C15 UNL     1      -7.094   2.344  -0.066  1.00  0.00     0.019 A 
HETATM   26  C16 UNL     1      -6.027   3.052   0.411  1.00  0.00     0.013 A 
HETATM   27 BR1  UNL     1      -6.246   4.886   0.865  1.00  0.00    -0.051 Br
HETATM   28  C17 UNL     1      -4.805   2.439   0.560  1.00  0.00     0.048 A 
ENDBRANCH  20  22
ENDBRANCH   7  20
TORSDOF 8
