REMARK  9 active torsions:
REMARK  status: ('A' for Active; 'I' for Inactive)
REMARK    1  A    between atoms: C2_2  and  O1_3 
REMARK    2  A    between atoms: O1_3  and  S1_4 
REMARK    3  A    between atoms: S1_4  and  C3_5 
REMARK    4  A    between atoms: C3_5  and  C4_7 
REMARK    5  A    between atoms: C4_7  and  C5_8 
REMARK    6  A    between atoms: C5_8  and  N1_10 
REMARK    7  A    between atoms: N1_10  and  C7_11 
REMARK    8  A    between atoms: C12_18  and  C13_19 
REMARK    9  A    between atoms: C15_21  and  N4_22 
ROOT
HETATM    1  C7  UNL     1      -0.553  -0.896   0.099  1.00  0.00     0.029 A 
HETATM    2  C8  UNL     1      -0.256  -2.263   0.049  1.00  0.00     0.031 A 
HETATM    3  C9  UNL     1      -1.326  -3.132   0.018  1.00  0.00     0.035 A 
HETATM    4  C10 UNL     1      -2.616  -2.680   0.034  1.00  0.00     0.070 A 
HETATM    5  N2  UNL     1      -3.609  -3.582   0.028  1.00  0.00    -0.241 NA
HETATM    6  C11 UNL     1      -4.853  -3.122   0.068  1.00  0.00     0.234 A 
HETATM    7  N3  UNL     1      -5.105  -1.819   0.110  1.00  0.00    -0.240 NA
HETATM    8  C12 UNL     1      -4.203  -0.831   0.119  1.00  0.00     0.081 A 
HETATM    9  C18 UNL     1      -2.962  -1.351   0.080  1.00  0.00     0.025 A 
HETATM   10  C19 UNL     1      -1.873  -0.518   0.112  1.00  0.00     0.045 A 
ENDROOT
BRANCH   1  11
HETATM   11  N1  UNL     1       0.505   0.022   0.138  1.00  0.00    -0.385 N 
HETATM   12  H12 UNL     1       0.269   1.039   0.153  1.00  0.00     0.160 HD
BRANCH  11  13
HETATM   13  C5  UNL     1       1.897  -0.281   0.162  1.00  0.00     0.085 C 
HETATM   14  C6  UNL     1       2.207  -0.940   1.516  1.00  0.00     0.032 C 
BRANCH  13  15
HETATM   15  C4  UNL     1       2.787   0.965   0.053  1.00  0.00     0.117 C 
BRANCH  15  16
HETATM   16  C3  UNL     1       4.202   0.448   0.122  1.00  0.00     0.214 C 
HETATM   17  O2  UNL     1       4.571   0.116   1.262  1.00  0.00    -0.283 OA
BRANCH  16  18
HETATM   18  S1  UNL     1       5.231   0.338  -1.335  1.00  0.00     0.068 SA
BRANCH  18  19
HETATM   19  O1  UNL     1       6.778  -0.285  -0.958  1.00  0.00    -0.313 OA
BRANCH  19  20
HETATM   20  C2  UNL     1       7.404   0.563  -0.074  1.00  0.00     0.181 C 
HETATM   21  C1  UNL     1       8.813   0.100   0.238  1.00  0.00     0.035 C 
ENDBRANCH  19  20
ENDBRANCH  18  19
ENDBRANCH  16  18
ENDBRANCH  15  16
ENDBRANCH  13  15
ENDBRANCH  11  13
ENDBRANCH   1  11
BRANCH   8  22
HETATM   22  C13 UNL     1      -4.605   0.532   0.182  1.00  0.00    -0.007 A 
HETATM   23  C14 UNL     1      -4.146   1.735   0.034  1.00  0.00     0.027 A 
HETATM   24  C15 UNL     1      -5.091   2.846   0.248  1.00  0.00     0.281 A 
HETATM   25  C16 UNL     1      -6.334   2.110   0.600  1.00  0.00     0.026 A 
HETATM   26 BR1  UNL     1      -7.939   3.027   1.006  1.00  0.00    -0.053 Br
HETATM   27  C17 UNL     1      -6.004   0.858   0.545  1.00  0.00     0.030 A 
BRANCH  24  28
HETATM   28  N4  UNL     1      -5.239   3.556  -1.024  1.00  0.00     0.091 N 
HETATM   29  H18 UNL     1      -4.563   3.200  -1.733  1.00  0.00     0.314 HD
HETATM   30  H19 UNL     1      -6.234   3.515  -1.353  1.00  0.00     0.314 HD
ENDBRANCH  24  28
ENDBRANCH   8  22
TORSDOF 9
