REMARK  1 active torsions:
REMARK  status: ('A' for Active; 'I' for Inactive)
REMARK    1  A    between atoms: C5_5  and  C6_6 
ROOT
HETATM    1  C1  UNL     1       4.331  -0.294   1.147  1.00  0.00     0.042 C 
HETATM    2  C2  UNL     1       3.069  -0.078   0.756  1.00  0.00     0.018 C 
HETATM    3  C3  UNL     1       2.061  -0.723   1.628  1.00  0.00     0.025 C 
HETATM    4  C4  UNL     1       0.901  -1.158   1.202  1.00  0.00    -0.008 C 
HETATM    5  C5  UNL     1       0.366  -1.076  -0.302  1.00  0.00     0.102 C 
HETATM    6  C7  UNL     1       0.477   0.378  -0.432  1.00  0.00    -0.024 C 
HETATM    7  C8  UNL     1      -0.799   0.749  -0.273  1.00  0.00     0.031 C 
HETATM    8  C9  UNL     1      -1.136   2.158  -0.315  1.00  0.00     0.163 C 
HETATM    9  N1  UNL     1      -0.605   3.064  -1.092  1.00  0.00    -0.241 NA
HETATM   10  C10 UNL     1       0.441   2.891  -2.089  1.00  0.00     0.117 C 
HETATM   11  C11 UNL     1       1.523   2.085  -1.920  1.00  0.00     0.022 C 
HETATM   12  C12 UNL     1       1.637   1.352  -0.675  1.00  0.00     0.137 C 
HETATM   13  N2  UNL     1       2.909   0.728  -0.419  1.00  0.00    -0.379 N 
HETATM   14  N3  UNL     1      -1.942   3.188   0.305  1.00  0.00    -0.207 NA
HETATM   15  C13 UNL     1      -1.585   3.436   1.557  1.00  0.00     0.179 C 
HETATM   16  N4  UNL     1      -1.618   2.281   2.208  1.00  0.00    -0.312 NA
HETATM   17  B1  UNL     1      -2.619   1.349   1.463  1.00  0.00     0.413 B 
HETATM   18  N5  UNL     1      -2.569  -0.115   1.949  1.00  0.00    -0.421 N 
HETATM   19  C14 UNL     1      -2.491  -0.909   0.788  1.00  0.00     0.027 A 
HETATM   20  C15 UNL     1      -3.200  -2.063   0.564  1.00  0.00     0.029 A 
HETATM   21  C16 UNL     1      -2.992  -2.668  -0.676  1.00  0.00     0.004 A 
HETATM   22  C17 UNL     1      -2.140  -2.213  -1.697  1.00  0.00     0.020 A 
HETATM   23  C18 UNL     1      -1.425  -0.985  -1.380  1.00  0.00     0.024 A 
HETATM   24 BR1  UNL     1      -0.444  -0.480  -2.964  1.00  0.00    -0.050 Br
HETATM   25  C19 UNL     1      -1.658  -0.424  -0.149  1.00  0.00     0.021 A 
HETATM   26  H10 UNL     1       3.739   0.814  -1.028  1.00  0.00     0.160 HD
HETATM   27  H11 UNL     1      -3.758   1.745   1.506  1.00  0.00     0.029 HD
HETATM   28  H12 UNL     1      -2.599  -0.589   2.853  1.00  0.00     0.140 HD
ENDROOT
BRANCH   5  29
HETATM   29  C6  UNL     1       1.516  -1.928  -0.715  1.00  0.00     0.244 C 
HETATM   30  O1  UNL     1       2.405  -1.678  -1.445  1.00  0.00    -0.306 OA
ENDBRANCH   5  29
TORSDOF 1
