REMARK  7 active torsions:
REMARK  status: ('A' for Active; 'I' for Inactive)
REMARK    1  A    between atoms: C1_2  and  C2_3 
REMARK       I    between atoms: C1_2  and  N1_7 
REMARK    2  A    between atoms: C3_4  and  C4_5 
REMARK    3  A    between atoms: C4_5  and  O2_6 
REMARK    4  A    between atoms: N1_7  and  C5_8 
REMARK    5  A    between atoms: C6_9  and  C7_10 
REMARK    6  A    between atoms: C10_13  and  N2_14 
REMARK    7  A    between atoms: N2_14  and  C11_15 
ROOT
HETATM    1  C7  UNL     1      -1.063   0.202  -0.225  1.00  0.00     0.029 C 
HETATM    2  C8  UNL     1       0.095   0.372   0.388  1.00  0.00     0.043 A 
HETATM    3  C9  UNL     1       1.304   0.255  -0.494  1.00  0.00     0.137 A 
HETATM    4  C10 UNL     1       2.514   0.466   0.366  1.00  0.00     0.111 A 
HETATM    5  N3  UNL     1       2.570   0.705   1.615  1.00  0.00    -0.228 NA
HETATM    6  C17 UNL     1       1.346   0.794   2.339  1.00  0.00     0.235 A 
HETATM    7  N4  UNL     1       0.199   0.640   1.774  1.00  0.00    -0.246 NA
ENDROOT
BRANCH   1   8
HETATM    8  C6  UNL     1      -1.222  -0.078  -1.644  1.00  0.00     0.019 C 
HETATM    9  C5  UNL     1      -2.271  -0.271  -2.402  1.00  0.00     0.091 C 
BRANCH   9  10
HETATM   10  N1  UNL     1      -3.665  -0.360  -2.547  1.00  0.00    -0.334 N 
HETATM   11  C1  UNL     1      -4.655  -0.214  -1.549  1.00  0.00     0.244 C 
HETATM   12  O1  UNL     1      -4.425   0.026  -0.344  1.00  0.00    -0.268 OA
HETATM   13  H6  UNL     1      -4.188  -0.548  -3.408  1.00  0.00     0.168 HD
BRANCH  11  14
HETATM   14  C2  UNL     1      -6.098  -0.301  -1.669  1.00  0.00     0.072 C 
HETATM   15  C3  UNL     1      -6.943  -0.148  -0.676  1.00  0.00     0.004 C 
BRANCH  15  16
HETATM   16  C4  UNL     1      -7.009   0.123   0.755  1.00  0.00     0.191 C 
BRANCH  16  17
HETATM   17  O2  UNL     1      -7.749   1.311   0.958  1.00  0.00    -0.397 OA
HETATM   18  H5  UNL     1      -8.284   1.280   1.778  1.00  0.00     0.209 HD
ENDBRANCH  16  17
ENDBRANCH  15  16
ENDBRANCH  11  14
ENDBRANCH   9  10
ENDBRANCH   1   8
BRANCH   4  19
HETATM   19  N2  UNL     1       3.769   0.389  -0.298  1.00  0.00    -0.344 N 
HETATM   20  H12 UNL     1       3.907   0.607  -1.329  1.00  0.00     0.167 HD
BRANCH  19  21
HETATM   21  C11 UNL     1       4.993   0.009   0.342  1.00  0.00     0.034 A 
HETATM   22  C12 UNL     1       5.235  -1.368   0.303  1.00  0.00     0.029 A 
HETATM   23  C13 UNL     1       6.389  -1.850   0.891  1.00  0.00     0.004 A 
HETATM   24  C14 UNL     1       7.303  -1.032   1.509  1.00  0.00     0.019 A 
HETATM   25  C15 UNL     1       7.042   0.331   1.535  1.00  0.00     0.013 A 
HETATM   26 BR1  UNL     1       8.244   1.578   2.370  1.00  0.00    -0.051 Br
HETATM   27  C16 UNL     1       5.888   0.860   0.954  1.00  0.00     0.048 A 
ENDBRANCH  19  21
ENDBRANCH   4  19
TORSDOF 7
