REMARK  3 active torsions:
REMARK  status: ('A' for Active; 'I' for Inactive)
REMARK    1  A    between atoms: C2_2  and  O1_3 
REMARK    2  A    between atoms: O1_3  and  C3_4 
REMARK    3  A    between atoms: C3_4  and  C4_6 
ROOT
HETATM    1  C4  UNL     1       1.213   0.914   0.083  1.00  0.00     0.095 C 
HETATM    2  C5  UNL     1       0.132   0.587   0.715  1.00  0.00     0.019 C 
HETATM    3  C6  UNL     1       0.182  -0.831   1.234  1.00  0.00     0.073 C 
HETATM    4  C7  UNL     1      -0.837  -1.634   0.397  1.00  0.00     0.005 C 
HETATM    5  C8  UNL     1      -1.969  -1.183  -0.096  1.00  0.00     0.034 A 
HETATM    6  C9  UNL     1      -2.943  -0.143  -0.289  1.00  0.00     0.118 A 
HETATM    7  C10 UNL     1      -3.748   0.926  -0.258  1.00  0.00     0.064 A 
HETATM    8  C11 UNL     1      -3.511   1.920   0.902  1.00  0.00     0.139 C 
HETATM    9  N1  UNL     1      -2.377   1.176   1.543  1.00  0.00    -0.356 N 
HETATM   10  C12 UNL     1      -1.164   1.184   0.815  1.00  0.00     0.248 C 
HETATM   11  O3  UNL     1      -1.228   1.973  -0.141  1.00  0.00    -0.268 OA
HETATM   12  C13 UNL     1      -4.157   0.147  -1.414  1.00  0.00     0.234 A 
HETATM   13  F1  UNL     1      -5.163   1.058  -1.761  1.00  0.00    -0.214 F 
HETATM   14  N2  UNL     1      -3.692  -0.949  -1.849  1.00  0.00    -0.170 NA
HETATM   15  N3  UNL     1      -2.654  -1.671  -1.303  1.00  0.00    -0.283 N 
HETATM   16  H13 UNL     1      -1.922   0.620   2.277  1.00  0.00     0.162 HD
HETATM   17  H14 UNL     1      -2.314  -2.598  -1.748  1.00  0.00     0.188 HD
ENDROOT
BRANCH   1  18
HETATM   18  C3  UNL     1       2.305   0.025  -0.089  1.00  0.00     0.283 C 
HETATM   19  O2  UNL     1       3.099  -0.930  -0.096  1.00  0.00    -0.260 OA
BRANCH  18  20
HETATM   20  O1  UNL     1       3.360   0.570  -0.792  1.00  0.00    -0.319 OA
BRANCH  20  21
HETATM   21  C2  UNL     1       4.556  -0.083  -1.102  1.00  0.00     0.174 C 
HETATM   22  C1  UNL     1       5.330  -0.528   0.107  1.00  0.00     0.034 C 
ENDBRANCH  20  21
ENDBRANCH  18  20
ENDBRANCH   1  18
TORSDOF 3
