REMARK  8 active torsions:
REMARK  status: ('A' for Active; 'I' for Inactive)
REMARK    1  A    between atoms: C5_7  and  N3_8 
REMARK    2  A    between atoms: N3_8  and  C6_9 
REMARK    3  A    between atoms: C12_16  and  C13_17 
REMARK    4  A    between atoms: C13_17  and  C14_18 
REMARK    5  A    between atoms: C14_18  and  N4_19 
REMARK       I    between atoms: N4_19  and  C15_20 
REMARK    6  A    between atoms: C15_20  and  C16_22 
REMARK    7  A    between atoms: C17_23  and  C18_24 
REMARK    8  A    between atoms: C18_24  and  O3_26 
ROOT
HETATM    1  C1  UNL     1      -0.210   4.903  -1.505  1.00  0.00     0.038 C 
HETATM    2  C2  UNL     1      -0.041   3.669  -0.707  1.00  0.00     0.002 C 
HETATM    3  C3  UNL     1      -0.986   2.742  -0.702  1.00  0.00     0.076 A 
HETATM    4  N1  UNL     1      -2.127   2.928  -1.440  1.00  0.00    -0.241 NA
HETATM    5  C4  UNL     1      -3.094   1.981  -1.436  1.00  0.00     0.236 A 
HETATM    6  N2  UNL     1      -2.937   0.862  -0.710  1.00  0.00    -0.223 NA
HETATM    7  C5  UNL     1      -1.845   0.604   0.042  1.00  0.00     0.150 A 
HETATM    8  C12 UNL     1      -0.920   1.584  -0.005  1.00  0.00     0.085 A 
ENDROOT
BRANCH   8   9
HETATM    9  C13 UNL     1       0.180   1.447   0.680  1.00  0.00    -0.093 C 
BRANCH   9  10
HETATM   10  C14 UNL     1       1.355   1.102   1.145  1.00  0.00     0.148 C 
BRANCH  10  11
HETATM   11  N4  UNL     1       2.280   0.440   0.352  1.00  0.00    -0.327 N 
HETATM   12  C15 UNL     1       3.520   0.119   0.972  1.00  0.00     0.245 C 
HETATM   13  O1  UNL     1       3.605   0.487   2.174  1.00  0.00    -0.268 OA
HETATM   14  H12 UNL     1       2.126   0.175  -0.634  1.00  0.00     0.169 HD
BRANCH  12  15
HETATM   15  C16 UNL     1       4.607  -0.566   0.313  1.00  0.00     0.081 C 
HETATM   16  C17 UNL     1       4.534  -0.957  -0.941  1.00  0.00     0.086 C 
BRANCH  16  17
HETATM   17  C18 UNL     1       5.659  -1.647  -1.565  1.00  0.00     0.165 C 
HETATM   18  O2  UNL     1       6.717  -1.887  -0.938  1.00  0.00    -0.647 OA
BRANCH  17  19
HETATM   19  O3  UNL     1       5.629  -2.076  -2.882  1.00  0.00    -0.773 OA
HETATM   20  H15 UNL     1       6.442  -2.518  -3.324  1.00  0.00     0.167 HD
ENDBRANCH  17  19
ENDBRANCH  16  17
ENDBRANCH  12  15
ENDBRANCH  10  11
ENDBRANCH   9  10
ENDBRANCH   8   9
BRANCH   7  21
HETATM   21  N3  UNL     1      -1.651  -0.565   0.817  1.00  0.00    -0.340 N 
HETATM   22  H6  UNL     1      -0.736  -0.614   1.351  1.00  0.00     0.167 HD
BRANCH  21  23
HETATM   23  C6  UNL     1      -2.490  -1.671   0.983  1.00  0.00     0.035 A 
HETATM   24  C7  UNL     1      -2.131  -2.748   1.797  1.00  0.00     0.029 A 
HETATM   25  C8  UNL     1      -2.933  -3.848   1.980  1.00  0.00     0.004 A 
HETATM   26  C9  UNL     1      -4.159  -3.955   1.363  1.00  0.00     0.019 A 
HETATM   27  C10 UNL     1      -4.568  -2.923   0.548  1.00  0.00     0.013 A 
HETATM   28 BR1  UNL     1      -6.250  -3.057  -0.307  1.00  0.00    -0.051 Br
HETATM   29  C11 UNL     1      -3.725  -1.849   0.401  1.00  0.00     0.048 A 
ENDBRANCH  21  23
ENDBRANCH   7  21
TORSDOF 8
