REMARK  9 active torsions:
REMARK  status: ('A' for Active; 'I' for Inactive)
REMARK    1  A    between atoms: C4_5  and  N1_6 
REMARK    2  A    between atoms: N1_6  and  C5_7 
REMARK    3  A    between atoms: N2_8  and  C6_9 
REMARK    4  A    between atoms: N3_10  and  C7_11 
REMARK    5  A    between atoms: C7_11  and  C8_12 
REMARK    6  A    between atoms: C8_12  and  C9_13 
REMARK    7  A    between atoms: C9_13  and  N4_14 
REMARK    8  A    between atoms: N4_14  and  C10_15 
REMARK    9  A    between atoms: C10_15  and  C11_16 
ROOT
HETATM    1  C7  UNL     1       0.644  -2.132   0.106  1.00  0.00     0.155 C 
ENDROOT
BRANCH   1   2
HETATM    2  N3  UNL     1       1.733  -1.325  -0.423  1.00  0.00    -0.283 NA
HETATM    3  C6  UNL     1       1.567  -0.556  -1.446  1.00  0.00     0.227 C 
BRANCH   3   4
HETATM    4  N2  UNL     1       2.918  -0.120  -1.402  1.00  0.00    -0.238 NA
HETATM    5  C5  UNL     1       3.693  -0.388  -2.397  1.00  0.00     0.208 C 
BRANCH   5   6
HETATM    6  N1  UNL     1       5.004   0.146  -2.134  1.00  0.00    -0.354 N 
HETATM    7  H4  UNL     1       5.810   0.215  -2.820  1.00  0.00     0.166 HD
BRANCH   6   8
HETATM    8  C4  UNL     1       5.469   0.684  -0.903  1.00  0.00     0.015 A 
HETATM    9  C3  UNL     1       6.726   0.369  -0.144  1.00  0.00     0.086 A 
HETATM   10  C2  UNL     1       6.619   1.255   1.040  1.00  0.00     0.003 A 
HETATM   11  C1  UNL     1       5.497   1.934   0.940  1.00  0.00     0.032 A 
HETATM   12 CL1  UNL     1       5.254   3.036   2.305  1.00  0.00    -0.085 Cl
HETATM   13  C17 UNL     1       4.765   1.599  -0.256  1.00  0.00     0.049 A 
ENDBRANCH   6   8
ENDBRANCH   5   6
ENDBRANCH   3   4
ENDBRANCH   1   2
BRANCH   1  14
HETATM   14  C8  UNL     1      -0.634  -1.327  -0.033  1.00  0.00     0.092 C 
BRANCH  14  15
HETATM   15  C9  UNL     1      -1.848  -2.070   0.488  1.00  0.00     0.204 A 
HETATM   16  N5  UNL     1      -1.898  -3.489   0.207  1.00  0.00    -0.094 NA
HETATM   17  N6  UNL     1      -1.708  -3.017   1.496  1.00  0.00    -0.094 NA
BRANCH  15  18
HETATM   18  N4  UNL     1      -3.088  -1.361   0.386  1.00  0.00    -0.381 N 
HETATM   19  H11 UNL     1      -3.528  -1.334  -0.538  1.00  0.00     0.157 HD
BRANCH  18  20
HETATM   20  C10 UNL     1      -3.115  -0.117   1.102  1.00  0.00     0.156 C 
BRANCH  20  21
HETATM   21  C11 UNL     1      -4.483   0.469   0.875  1.00  0.00    -0.041 A 
HETATM   22  C12 UNL     1      -4.574   1.287  -0.231  1.00  0.00     0.009 A 
HETATM   23  C13 UNL     1      -5.801   1.873  -0.518  1.00  0.00     0.001 A 
HETATM   24  C14 UNL     1      -6.890   1.622   0.308  1.00  0.00     0.000 A 
HETATM   25  C15 UNL     1      -6.791   0.794   1.425  1.00  0.00     0.001 A 
HETATM   26  C16 UNL     1      -5.568   0.223   1.692  1.00  0.00     0.009 A 
ENDBRANCH  20  21
ENDBRANCH  18  20
ENDBRANCH  15  18
ENDBRANCH  14  15
ENDBRANCH   1  14
TORSDOF 9
