REMARK  10 active torsions:
REMARK  status: ('A' for Active; 'I' for Inactive)
REMARK    1  A    between atoms: N1_2  and  C3_4 
REMARK    2  A    between atoms: C3_4  and  C4_5 
REMARK    3  A    between atoms: C4_5  and  C5_6 
REMARK    4  A    between atoms: C5_6  and  C6_7 
REMARK    5  A    between atoms: C6_7  and  C7_8 
REMARK    6  A    between atoms: C6_7  and  N3_19 
REMARK    7  A    between atoms: C7_8  and  C8_9 
REMARK    8  A    between atoms: C9_10  and  N2_11 
REMARK    9  A    between atoms: N2_11  and  C10_12 
REMARK   10  A    between atoms: C16_20  and  C17_21 
ROOT
HETATM    1  C17 UNL     1      -0.217   4.294   1.944  1.00  0.00     0.170 C 
HETATM    2  C18 UNL     1       0.081   4.623   3.347  1.00  0.00     0.064 C 
HETATM    3  N4  UNL     1       0.313   4.878   4.456  1.00  0.00    -0.197 NA
ENDROOT
BRANCH   1   4
HETATM    4  C16 UNL     1       0.442   3.026   1.541  1.00  0.00     0.104 C 
HETATM    5  N3  UNL     1       0.113   2.552   0.387  1.00  0.00    -0.269 NA
BRANCH   5   6
HETATM    6  C6  UNL     1       0.754   1.325   0.003  1.00  0.00     0.034 C 
BRANCH   6   7
HETATM    7  C5  UNL     1       2.173   1.070   0.361  1.00  0.00     0.061 C 
BRANCH   7   8
HETATM    8  C4  UNL     1       2.582  -0.284  -0.159  1.00  0.00     0.036 C 
BRANCH   8   9
HETATM    9  C3  UNL     1       4.029  -0.576   0.196  1.00  0.00     0.271 C 
BRANCH   9  10
HETATM   10  N1  UNL     1       4.335  -1.878  -0.336  1.00  0.00     0.080 N 
HETATM   11  C1  UNL     1       3.656  -2.949   0.307  1.00  0.00     0.309 C 
HETATM   12  C2  UNL     1       5.742  -2.077  -0.575  1.00  0.00     0.309 C 
ENDBRANCH   9  10
ENDBRANCH   8   9
ENDBRANCH   7   8
ENDBRANCH   6   7
BRANCH   6  13
HETATM   13  C7  UNL     1      -0.117   0.588  -0.657  1.00  0.00     0.028 C 
BRANCH  13  14
HETATM   14  C8  UNL     1      -1.288   0.051  -1.320  1.00  0.00     0.019 C 
HETATM   15  C9  UNL     1      -1.751  -0.991  -1.991  1.00  0.00     0.088 C 
BRANCH  15  16
HETATM   16  N2  UNL     1      -3.086  -0.678  -2.292  1.00  0.00    -0.366 N 
HETATM   17  H16 UNL     1      -3.160  -0.410  -3.287  1.00  0.00     0.165 HD
BRANCH  16  18
HETATM   18  C10 UNL     1      -4.173  -0.720  -1.379  1.00  0.00     0.033 A 
HETATM   19  C11 UNL     1      -5.406  -0.375  -1.875  1.00  0.00     0.029 A 
HETATM   20  C12 UNL     1      -6.516  -0.393  -1.037  1.00  0.00     0.004 A 
HETATM   21  C13 UNL     1      -6.313  -0.766   0.283  1.00  0.00     0.019 A 
HETATM   22  C14 UNL     1      -5.061  -1.108   0.756  1.00  0.00     0.013 A 
HETATM   23 BR1  UNL     1      -4.918  -1.605   2.600  1.00  0.00    -0.051 Br
HETATM   24  C15 UNL     1      -3.951  -1.090  -0.081  1.00  0.00     0.048 A 
ENDBRANCH  16  18
ENDBRANCH  15  16
ENDBRANCH  13  14
ENDBRANCH   6  13
ENDBRANCH   5   6
ENDBRANCH   1   4
TORSDOF 10
