REMARK  4 active torsions:
REMARK  status: ('A' for Active; 'I' for Inactive)
REMARK    1  A    between atoms: C5_6  and  N1_7 
REMARK    2  A    between atoms: N1_7  and  C6_8 
REMARK    3  A    between atoms: C8_10  and  C9_11 
REMARK    4  A    between atoms: C9_11  and  N2_12 
ROOT
HETATM    1  C6  UNL     1      -1.409   1.080  -0.055  1.00  0.00     0.127 C 
HETATM    2  C7  UNL     1      -0.402   0.610  -0.748  1.00  0.00     0.049 C 
HETATM    3  C8  UNL     1       1.040   0.207  -0.762  1.00  0.00     0.115 C 
HETATM    4  N3  UNL     1       1.909   1.308  -0.600  1.00  0.00    -0.411 NA
HETATM    5  C14 UNL     1       1.785   2.343   0.130  1.00  0.00     0.294 C 
HETATM    6  C15 UNL     1       1.552   3.484   0.995  1.00  0.00     0.136 C 
HETATM    7  N4  UNL     1       0.462   3.515   1.706  1.00  0.00    -0.253 NA
HETATM    8  C16 UNL     1      -0.411   2.388   1.554  1.00  0.00     0.234 C 
HETATM    9  N5  UNL     1      -1.178   1.396   1.316  1.00  0.00    -0.225 NA
ENDROOT
BRANCH   1  10
HETATM   10  N1  UNL     1      -2.784   1.433  -0.158  1.00  0.00    -0.341 N 
HETATM   11  H4  UNL     1      -3.035   2.437  -0.277  1.00  0.00     0.167 HD
BRANCH  10  12
HETATM   12  C5  UNL     1      -3.560   0.228  -0.067  1.00  0.00     0.034 A 
HETATM   13  C4  UNL     1      -3.766  -0.280  -1.352  1.00  0.00     0.029 A 
HETATM   14  C3  UNL     1      -4.491  -1.444  -1.539  1.00  0.00     0.004 A 
HETATM   15  C2  UNL     1      -5.007  -2.099  -0.451  1.00  0.00     0.019 A 
HETATM   16  C1  UNL     1      -4.796  -1.585   0.807  1.00  0.00     0.013 A 
HETATM   17 BR1  UNL     1      -5.470  -2.415   2.400  1.00  0.00    -0.051 Br
HETATM   18  C17 UNL     1      -4.089  -0.446   1.019  1.00  0.00     0.048 A 
ENDBRANCH  10  12
ENDBRANCH   1  10
BRANCH   3  19
HETATM   19  C9  UNL     1       1.195  -0.836   0.304  1.00  0.00     0.147 C 
BRANCH  19  20
HETATM   20  N2  UNL     1       2.490  -1.327   0.394  1.00  0.00    -0.386 N 
HETATM   21  C10 UNL     1       3.570  -0.570   0.868  1.00  0.00     0.148 C 
HETATM   22  C11 UNL     1       4.335  -0.124  -0.344  1.00  0.00     0.017 C 
HETATM   23  C12 UNL     1       4.225  -0.813  -1.492  1.00  0.00     0.134 C 
HETATM   24  O1  UNL     1       3.422  -1.939  -1.612  1.00  0.00    -0.344 OA
HETATM   25  C13 UNL     1       2.834  -2.450  -0.428  1.00  0.00     0.294 C 
ENDBRANCH  19  20
ENDBRANCH   3  19
TORSDOF 4
