REMARK  0 active torsions:
REMARK  status: ('A' for Active; 'I' for Inactive)
ROOT
HETATM    1 BR1  UNL     1      -1.461  -3.363  -0.719  1.00  0.00    -0.050 Br
HETATM    2  C1  UNL     1      -1.903  -1.659   0.077  1.00  0.00     0.021 A 
HETATM    3  C2  UNL     1      -2.961  -1.800   0.950  1.00  0.00     0.020 A 
HETATM    4  C3  UNL     1      -3.450  -0.683   1.616  1.00  0.00     0.004 A 
HETATM    5  C4  UNL     1      -2.865   0.526   1.383  1.00  0.00     0.030 A 
HETATM    6  C5  UNL     1      -1.810   0.601   0.498  1.00  0.00     0.039 A 
HETATM    7  C6  UNL     1      -1.240  -0.458  -0.223  1.00  0.00     0.014 A 
HETATM    8  C7  UNL     1      -0.224  -0.875  -1.179  1.00  0.00     0.166 C 
HETATM    9  C8  UNL     1      -0.514  -0.146  -2.482  1.00  0.00     0.144 C 
HETATM   10  N1  UNL     1      -0.406   1.182  -2.631  1.00  0.00    -0.163 NA
HETATM   11  N2  UNL     1      -0.205   1.998  -1.464  1.00  0.00    -0.151 N 
HETATM   12  C9  UNL     1      -0.962   2.886  -0.559  1.00  0.00     0.301 C 
HETATM   13  N3  UNL     1      -1.502   2.018   0.517  1.00  0.00    -0.369 N 
HETATM   14  O1  UNL     1       1.103   1.916  -0.956  1.00  0.00    -0.199 OA
HETATM   15  C10 UNL     1       1.622   0.670  -0.452  1.00  0.00     0.171 C 
HETATM   16  C11 UNL     1       2.553   1.253   0.304  1.00  0.00     0.059 C 
HETATM   17  C12 UNL     1       3.579   0.721   1.199  1.00  0.00     0.017 C 
HETATM   18  C13 UNL     1       3.584  -0.310   1.995  1.00  0.00    -0.014 C 
HETATM   19  C14 UNL     1       3.489  -1.510   1.566  1.00  0.00    -0.016 C 
HETATM   20  C15 UNL     1       2.626  -1.874   0.659  1.00  0.00     0.006 C 
HETATM   21  C16 UNL     1       2.004  -1.842  -0.708  1.00  0.00     0.154 C 
HETATM   22  N4  UNL     1       1.163  -0.685  -0.770  1.00  0.00    -0.343 N 
HETATM   23  H8  UNL     1      -1.702   2.458   1.439  1.00  0.00     0.161 HD
ENDROOT
TORSDOF 0
