REMARK  7 active torsions:
REMARK  status: ('A' for Active; 'I' for Inactive)
REMARK    1  A    between atoms: C2_2  and  C3_3 
REMARK    2  A    between atoms: N1_5  and  C4_6 
REMARK    3  A    between atoms: C4_6  and  C5_7 
REMARK    4  A    between atoms: C5_7  and  N2_8 
REMARK    5  A    between atoms: C11_14  and  N3_15 
REMARK    6  A    between atoms: N3_15  and  C12_16 
REMARK    7  A    between atoms: C12_16  and  C13_17 
ROOT
HETATM    1  C13 UNL     1       4.699  -0.154  -1.075  1.00  0.00     0.056 C 
HETATM    2  C14 UNL     1       4.469   1.030  -1.600  1.00  0.00     0.178 C 
HETATM    3 BR1  UNL     1       3.880   2.704  -2.225  1.00  0.00    -0.200 Br
ENDROOT
BRANCH   1   4
HETATM    4  C12 UNL     1       4.330  -1.359  -0.267  1.00  0.00     0.026 C 
HETATM    5  C15 UNL     1       5.430  -1.979  -0.432  1.00  0.00    -0.002 C 
HETATM    6  C16 UNL     1       5.575  -3.296   0.231  1.00  0.00     0.038 C 
BRANCH   4   7
HETATM    7  N3  UNL     1       3.087  -0.795  -0.003  1.00  0.00    -0.341 N 
HETATM    8  H15 UNL     1       2.500  -1.394  -0.623  1.00  0.00     0.167 HD
BRANCH   7   9
HETATM    9  C11 UNL     1       2.775   0.251   0.861  1.00  0.00     0.142 A 
HETATM   10  C10 UNL     1       1.497   0.695   0.994  1.00  0.00     0.043 A 
HETATM   11  C9  UNL     1       0.564   0.046   0.220  1.00  0.00     0.078 A 
HETATM   12  C18 UNL     1       1.187   1.727   1.851  1.00  0.00     0.089 A 
HETATM   13  C8  UNL     1      -0.773   0.457   0.310  1.00  0.00     0.267 A 
HETATM   14  N1  UNL     1      -1.823  -0.178  -0.464  1.00  0.00    -0.305 N 
HETATM   15  N6  UNL     1      -1.058   1.481   1.164  1.00  0.00    -0.237 NA
HETATM   16  O1  UNL     1      -0.818   1.337  -1.010  1.00  0.00    -0.280 OA
HETATM   17  C3  UNL     1      -1.722   0.666  -1.615  1.00  0.00     0.148 A 
HETATM   18  C19 UNL     1      -0.137   2.103   1.912  1.00  0.00     0.148 A 
HETATM   19  N5  UNL     1       2.199   2.296   2.568  1.00  0.00    -0.240 NA
HETATM   20  C17 UNL     1       3.469   1.856   2.438  1.00  0.00     0.236 A 
HETATM   21  N4  UNL     1       3.759   0.831   1.582  1.00  0.00    -0.224 NA
BRANCH  14  22
HETATM   22  C4  UNL     1      -2.484  -1.279   0.154  1.00  0.00     0.160 C 
BRANCH  22  23
HETATM   23  C5  UNL     1      -3.670  -0.919   0.987  1.00  0.00     0.291 C 
BRANCH  23  24
HETATM   24  N2  UNL     1      -4.751  -0.275   0.348  1.00  0.00     0.081 N 
HETATM   25  C6  UNL     1      -4.570   1.069  -0.096  1.00  0.00     0.309 C 
HETATM   26  C7  UNL     1      -5.933  -0.351   1.177  1.00  0.00     0.309 C 
ENDBRANCH  23  24
ENDBRANCH  22  23
ENDBRANCH  14  22
BRANCH  17  27
HETATM   27  C2  UNL     1      -2.281   0.857  -2.952  1.00  0.00     0.046 C 
HETATM   28  C1  UNL     1      -3.212   0.164  -3.575  1.00  0.00     0.015 C 
ENDBRANCH  17  27
ENDBRANCH   7   9
ENDBRANCH   4   7
ENDBRANCH   1   4
TORSDOF 7
