REMARK  1 active torsions:
REMARK  status: ('A' for Active; 'I' for Inactive)
REMARK    1  A    between atoms: C3_3  and  N1_5 
ROOT
HETATM    1  N1  UNL     1       2.473  -1.463  -0.074  1.00  0.00    -0.354 N 
HETATM    2  C4  UNL     1       1.208  -1.374   0.635  1.00  0.00     0.090 C 
HETATM    3  C5  UNL     1       0.054  -1.171  -0.044  1.00  0.00     0.033 C 
HETATM    4  C6  UNL     1      -1.306  -1.027   0.519  1.00  0.00     0.019 A 
HETATM    5  C7  UNL     1      -1.831  -2.131   0.923  1.00  0.00     0.071 A 
HETATM    6  N2  UNL     1      -2.865  -1.752   1.700  1.00  0.00    -0.241 NA
HETATM    7  C8  UNL     1      -3.289  -0.522   2.005  1.00  0.00     0.234 A 
HETATM    8  N3  UNL     1      -2.625   0.568   1.484  1.00  0.00    -0.245 NA
HETATM    9  C9  UNL     1      -1.568   0.308   0.684  1.00  0.00     0.058 A 
HETATM   10  C10 UNL     1      -0.834   1.174  -0.233  1.00  0.00     0.086 C 
HETATM   11  C11 UNL     1      -1.591   1.105  -1.574  1.00  0.00    -0.014 C 
HETATM   12  C12 UNL     1      -2.190  -0.055  -1.932  1.00  0.00    -0.007 C 
HETATM   13  C13 UNL     1      -2.702  -1.432  -1.986  1.00  0.00    -0.016 C 
HETATM   14  C14 UNL     1      -2.471  -2.204  -0.902  1.00  0.00     0.061 C 
HETATM   15  C15 UNL     1      -2.601  -3.518  -0.236  1.00  0.00    -0.001 C 
HETATM   16 BR1  UNL     1      -3.174  -5.314  -0.412  1.00  0.00    -0.055 Br
HETATM   17  C16 UNL     1      -2.129  -3.524   1.058  1.00  0.00     0.048 C 
HETATM   18  C17 UNL     1      -0.358   2.493   0.102  1.00  0.00     0.116 C 
HETATM   19  C18 UNL     1      -0.661   3.016   1.485  1.00  0.00     0.193 C 
HETATM   20  O2  UNL     1      -0.616   4.409   1.441  1.00  0.00    -0.387 OA
HETATM   21  C19 UNL     1       0.550   4.887   0.870  1.00  0.00     0.187 C 
HETATM   22  C20 UNL     1       1.545   3.768   0.615  1.00  0.00     0.143 C 
HETATM   23  N4  UNL     1       1.013   2.740  -0.191  1.00  0.00    -0.403 N 
HETATM   24  C21 UNL     1       1.914   1.687  -0.482  1.00  0.00     0.119 C 
HETATM   25  C22 UNL     1       2.174   0.904   0.744  1.00  0.00     0.039 C 
HETATM   26  C23 UNL     1       2.927  -0.360   0.723  1.00  0.00     0.127 C 
ENDROOT
BRANCH   1  27
HETATM   27  C3  UNL     1       1.893  -2.570  -0.719  1.00  0.00     0.176 A 
HETATM   28  C2  UNL     1       2.938  -3.065  -1.637  1.00  0.00     0.038 A 
HETATM   29  C1  UNL     1       1.872  -3.846  -1.777  1.00  0.00     0.235 A 
HETATM   30  O1  UNL     1       0.832  -3.190  -0.720  1.00  0.00    -0.349 OA
ENDBRANCH   1  27
TORSDOF 1
