REMARK  6 active torsions:
REMARK  status: ('A' for Active; 'I' for Inactive)
REMARK    1  A    between atoms: C2_2  and  C3_3 
REMARK       I    between atoms: C3_3  and  N1_5 
REMARK    2  A    between atoms: N1_5  and  C4_6 
REMARK    3  A    between atoms: N1_5  and  C8_11 
REMARK    4  A    between atoms: C4_6  and  C5_7 
REMARK    5  A    between atoms: C5_7  and  N2_8 
REMARK    6  A    between atoms: N3_16  and  C12_17 
ROOT
HETATM    1  C8  UNL     1      -1.307  -0.618   0.342  1.00  0.00     0.155 A 
HETATM    2  S1  UNL     1      -0.969   0.280   1.687  1.00  0.00    -0.065 SA
HETATM    3  C9  UNL     1       0.603   0.674   1.869  1.00  0.00     0.070 A 
HETATM    4  C10 UNL     1       1.573   0.231   0.879  1.00  0.00     0.032 A 
HETATM    5  C11 UNL     1       2.847   0.502   0.956  1.00  0.00     0.109 A 
HETATM    6  N3  UNL     1       3.788   0.065  -0.016  1.00  0.00    -0.333 N 
HETATM    7  C18 UNL     1       3.382  -0.678  -1.169  1.00  0.00     0.211 A 
HETATM    8  C19 UNL     1       3.651   0.078  -2.463  1.00  0.00     0.058 C 
HETATM    9  N4  UNL     1       1.963  -0.953  -1.166  1.00  0.00    -0.246 NA
HETATM   10  C20 UNL     1       1.135  -0.559  -0.266  1.00  0.00     0.138 A 
HETATM   11  N5  UNL     1      -0.216  -0.949  -0.505  1.00  0.00    -0.320 N 
HETATM   12  H24 UNL     1      -0.496  -1.515  -1.334  1.00  0.00     0.169 HD
ENDROOT
BRANCH   1  13
HETATM   13  N1  UNL     1      -2.633  -1.013   0.088  1.00  0.00    -0.293 N 
HETATM   14  C3  UNL     1      -2.983  -1.785  -1.049  1.00  0.00     0.248 C 
HETATM   15  O1  UNL     1      -2.537  -2.348  -2.078  1.00  0.00    -0.268 OA
BRANCH  14  16
HETATM   16  C2  UNL     1      -4.342  -2.211  -1.346  1.00  0.00     0.064 C 
HETATM   17  C1  UNL     1      -4.506  -2.926  -2.446  1.00  0.00     0.017 C 
ENDBRANCH  14  16
BRANCH  13  18
HETATM   18  C4  UNL     1      -3.694  -0.643   0.985  1.00  0.00     0.164 C 
BRANCH  18  19
HETATM   19  C5  UNL     1      -4.237   0.682   0.510  1.00  0.00     0.291 C 
BRANCH  19  20
HETATM   20  N2  UNL     1      -5.320   1.147   1.355  1.00  0.00     0.081 N 
HETATM   21  C6  UNL     1      -6.500   0.336   1.251  1.00  0.00     0.309 C 
HETATM   22  C7  UNL     1      -5.605   2.541   1.112  1.00  0.00     0.309 C 
ENDBRANCH  19  20
ENDBRANCH  18  19
ENDBRANCH  13  18
ENDBRANCH   1  13
BRANCH   6  23
HETATM   23  C12 UNL     1       5.172   0.344   0.111  1.00  0.00     0.037 A 
HETATM   24  C13 UNL     1       6.121  -0.113  -0.783  1.00  0.00     0.030 A 
HETATM   25  C14 UNL     1       7.477   0.125  -0.716  1.00  0.00     0.004 A 
HETATM   26  C15 UNL     1       7.947   0.887   0.333  1.00  0.00     0.019 A 
HETATM   27  C16 UNL     1       7.065   1.383   1.270  1.00  0.00     0.013 A 
HETATM   28 BR1  UNL     1       7.725   2.440   2.724  1.00  0.00    -0.051 Br
HETATM   29  C17 UNL     1       5.725   1.096   1.126  1.00  0.00     0.048 A 
ENDBRANCH   6  23
TORSDOF 6
