REMARK  8 active torsions:
REMARK  status: ('A' for Active; 'I' for Inactive)
REMARK    1  A    between atoms: C1_2  and  N1_3 
REMARK    2  A    between atoms: N1_3  and  C2_4 
REMARK    3  A    between atoms: N1_3  and  C9_13 
REMARK    4  A    between atoms: C2_4  and  C3_5 
REMARK    5  A    between atoms: C3_5  and  C4_6 
REMARK    6  A    between atoms: C4_6  and  N2_7 
REMARK    7  A    between atoms: C12_16  and  N3_17 
REMARK    8  A    between atoms: N3_17  and  C13_18 
ROOT
HETATM    1  C9  UNL     1       0.013   1.249   1.790  1.00  0.00     0.132 A 
HETATM    2  C10 UNL     1       1.190   0.848   1.200  1.00  0.00     0.068 A 
HETATM    3  C11 UNL     1       2.329   0.516   1.898  1.00  0.00     0.044 A 
HETATM    4  C12 UNL     1       3.519   0.111   1.337  1.00  0.00     0.142 A 
HETATM    5  N4  UNL     1       4.483  -0.159   2.183  1.00  0.00    -0.224 NA
HETATM    6  C19 UNL     1       4.384  -0.070   3.507  1.00  0.00     0.236 A 
HETATM    7  N5  UNL     1       3.220   0.327   4.072  1.00  0.00    -0.240 NA
HETATM    8  C20 UNL     1       2.199   0.617   3.260  1.00  0.00     0.089 A 
HETATM    9  C21 UNL     1       1.048   1.012   3.896  1.00  0.00     0.151 A 
HETATM   10  N6  UNL     1      -0.040   1.326   3.152  1.00  0.00    -0.241 NA
ENDROOT
BRANCH   1  11
HETATM   11  N1  UNL     1      -1.149   1.587   1.044  1.00  0.00    -0.310 N 
BRANCH  11  12
HETATM   12  C1  UNL     1      -1.528   2.866   0.529  1.00  0.00     0.356 C 
HETATM   13  O1  UNL     1      -2.232   3.718  -0.075  1.00  0.00    -0.283 OA
ENDBRANCH  11  12
BRANCH  11  14
HETATM   14  C2  UNL     1      -2.059   0.520   0.771  1.00  0.00     0.134 C 
BRANCH  14  15
HETATM   15  C3  UNL     1      -1.790  -0.221  -0.516  1.00  0.00     0.040 C 
BRANCH  15  16
HETATM   16  C4  UNL     1      -2.871  -1.298  -0.605  1.00  0.00     0.118 C 
BRANCH  16  17
HETATM   17  N2  UNL     1      -4.163  -0.706  -0.613  1.00  0.00    -0.408 N 
HETATM   18  C5  UNL     1      -4.522   0.048  -1.766  1.00  0.00     0.143 C 
HETATM   19  C6  UNL     1      -5.694   0.943  -1.330  1.00  0.00     0.187 C 
HETATM   20  O2  UNL     1      -6.770   0.225  -0.871  1.00  0.00    -0.388 OA
HETATM   21  C7  UNL     1      -6.572  -1.121  -0.703  1.00  0.00     0.187 C 
HETATM   22  C8  UNL     1      -5.239  -1.507  -0.126  1.00  0.00     0.143 C 
ENDBRANCH  16  17
ENDBRANCH  15  16
ENDBRANCH  14  15
ENDBRANCH  11  14
ENDBRANCH   1  11
BRANCH   4  23
HETATM   23  N3  UNL     1       3.603   0.020  -0.076  1.00  0.00    -0.340 N 
HETATM   24  H17 UNL     1       2.807   0.240  -0.688  1.00  0.00     0.167 HD
BRANCH  23  25
HETATM   25  C13 UNL     1       4.701  -0.360  -0.890  1.00  0.00     0.035 A 
HETATM   26  C14 UNL     1       4.691  -0.456  -2.265  1.00  0.00     0.029 A 
HETATM   27  C15 UNL     1       5.769  -0.825  -3.029  1.00  0.00     0.004 A 
HETATM   28  C16 UNL     1       6.968  -1.131  -2.427  1.00  0.00     0.019 A 
HETATM   29  C17 UNL     1       7.026  -1.050  -1.052  1.00  0.00     0.013 A 
HETATM   30 BR1  UNL     1       8.717  -1.489  -0.281  1.00  0.00    -0.051 Br
HETATM   31  C18 UNL     1       5.916  -0.675  -0.326  1.00  0.00     0.048 A 
ENDBRANCH  23  25
ENDBRANCH   4  23
TORSDOF 8
