REMARK  9 active torsions:
REMARK  status: ('A' for Active; 'I' for Inactive)
REMARK    1  A    between atoms: C2_2  and  N1_3 
REMARK    2  A    between atoms: N1_3  and  C4_5 
REMARK    3  A    between atoms: C4_5  and  N2_6 
REMARK    4  A    between atoms: N2_6  and  C5_7 
REMARK       I    between atoms: N2_6  and  C17_23 
REMARK    5  A    between atoms: C5_7  and  N3_8 
REMARK    6  A    between atoms: C8_12  and  N5_13 
REMARK    7  A    between atoms: N5_13  and  C9_14 
REMARK    8  A    between atoms: C9_14  and  C10_15 
REMARK    9  A    between atoms: C11_16  and  C12_18 
ROOT
HETATM    1  N3  UNL     1      -1.131  -1.258  -0.123  1.00  0.00    -0.273 NA
HETATM    2  C6  UNL     1       0.095  -1.414  -0.423  1.00  0.00     0.051 A 
HETATM    3  C7  UNL     1       0.901  -1.084   0.772  1.00  0.00     0.145 A 
HETATM    4  N4  UNL     1       2.204  -1.127   0.840  1.00  0.00    -0.242 NA
HETATM    5  C8  UNL     1       2.964  -1.522  -0.318  1.00  0.00     0.119 A 
HETATM    6  C15 UNL     1       2.286  -1.824  -1.402  1.00  0.00     0.029 A 
HETATM    7  C16 UNL     1       0.839  -1.835  -1.663  1.00  0.00     0.091 A 
ENDROOT
BRANCH   1   8
HETATM    8  C5  UNL     1      -2.152  -1.506  -1.091  1.00  0.00     0.278 C 
BRANCH   8   9
HETATM    9  N2  UNL     1      -3.091  -0.403  -1.253  1.00  0.00    -0.308 N 
HETATM   10  C17 UNL     1      -2.683   0.528  -2.252  1.00  0.00     0.218 C 
HETATM   11  C18 UNL     1      -3.288   1.793  -2.744  1.00  0.00     0.117 C 
HETATM   12  O1  UNL     1      -1.629   0.443  -2.971  1.00  0.00    -0.274 OA
BRANCH   9  13
HETATM   13  C4  UNL     1      -4.336  -0.122  -0.573  1.00  0.00     0.401 C 
BRANCH  13  14
HETATM   14  N1  UNL     1      -4.227   0.675   0.603  1.00  0.00     0.101 NA
HETATM   15  C3  UNL     1      -3.569  -0.091   1.643  1.00  0.00     0.312 C 
BRANCH  14  16
HETATM   16  C2  UNL     1      -5.605   0.861   1.093  1.00  0.00     0.269 C 
HETATM   17  C1  UNL     1      -6.435   1.650   0.116  1.00  0.00     0.037 C 
ENDBRANCH  14  16
ENDBRANCH  13  14
ENDBRANCH   9  13
ENDBRANCH   8   9
ENDBRANCH   1   8
BRANCH   5  18
HETATM   18  N5  UNL     1       4.384  -1.583  -0.289  1.00  0.00    -0.372 N 
HETATM   19  H14 UNL     1       4.570  -2.583   0.006  1.00  0.00     0.161 HD
BRANCH  18  20
HETATM   20  C9  UNL     1       5.426  -0.587  -0.574  1.00  0.00     0.150 C 
BRANCH  20  21
HETATM   21  C10 UNL     1       5.377   0.454   0.483  1.00  0.00     0.012 C 
HETATM   22  C11 UNL     1       6.477   0.608   1.201  1.00  0.00     0.015 C 
HETATM   23 BR1  UNL     1       7.929  -0.538   0.748  1.00  0.00    -0.051 Br
BRANCH  22  24
HETATM   24  C12 UNL     1       6.673   1.557   2.287  1.00  0.00    -0.041 A 
HETATM   25  C13 UNL     1       5.982   2.534   2.951  1.00  0.00    -0.013 A 
HETATM   26  C14 UNL     1       7.382   2.221   3.336  1.00  0.00     0.067 A 
ENDBRANCH  22  24
ENDBRANCH  20  21
ENDBRANCH  18  20
ENDBRANCH   5  18
TORSDOF 9
