REMARK  7 active torsions:
REMARK  status: ('A' for Active; 'I' for Inactive)
REMARK    1  A    between atoms: C2_2  and  C3_3 
REMARK       I    between atoms: C3_3  and  N1_5 
REMARK    2  A    between atoms: N1_5  and  C4_6 
REMARK    3  A    between atoms: N1_5  and  C8_11 
REMARK    4  A    between atoms: C4_6  and  C5_7 
REMARK    5  A    between atoms: C5_7  and  N2_8 
REMARK    6  A    between atoms: C11_14  and  N3_15 
REMARK    7  A    between atoms: N3_15  and  C12_16 
ROOT
HETATM    1  C8  UNL     1      -1.268  -0.112   0.253  1.00  0.00     0.132 A 
HETATM    2  C9  UNL     1       0.022  -0.293   0.014  1.00  0.00     0.062 A 
HETATM    3  C10 UNL     1       0.981   0.108   1.035  1.00  0.00     0.004 A 
HETATM    4  C11 UNL     1       2.301  -0.020   0.948  1.00  0.00     0.136 C 
HETATM    5  N4  UNL     1       3.085   0.394   2.095  1.00  0.00    -0.229 NA
HETATM    6  C18 UNL     1       2.584   0.215   3.264  1.00  0.00     0.085 C 
HETATM    7  C19 UNL     1       1.286   0.131   3.471  1.00  0.00     0.022 C 
HETATM    8  C20 UNL     1       0.616   0.764   2.345  1.00  0.00     0.088 A 
HETATM    9  C21 UNL     1      -0.851   0.852   2.390  1.00  0.00     0.105 A 
HETATM   10  N5  UNL     1      -1.660   0.471   1.477  1.00  0.00    -0.246 NA
ENDROOT
BRANCH   1  11
HETATM   11  N1  UNL     1      -1.993  -0.581  -0.881  1.00  0.00    -0.297 N 
HETATM   12  C3  UNL     1      -1.873  -1.978  -1.134  1.00  0.00     0.248 C 
HETATM   13  O1  UNL     1      -2.272  -2.820  -1.954  1.00  0.00    -0.268 OA
BRANCH  12  14
HETATM   14  C2  UNL     1      -1.082  -2.852  -0.284  1.00  0.00     0.064 C 
HETATM   15  C1  UNL     1      -1.046  -4.114  -0.625  1.00  0.00     0.017 C 
ENDBRANCH  12  14
BRANCH  11  16
HETATM   16  C4  UNL     1      -2.783   0.274  -1.735  1.00  0.00     0.164 C 
BRANCH  16  17
HETATM   17  C5  UNL     1      -4.203   0.461  -1.334  1.00  0.00     0.291 C 
BRANCH  17  18
HETATM   18  N2  UNL     1      -4.321   1.055  -0.025  1.00  0.00     0.081 N 
HETATM   19  C6  UNL     1      -3.865   2.422  -0.020  1.00  0.00     0.309 C 
HETATM   20  C7  UNL     1      -5.735   1.106   0.354  1.00  0.00     0.309 C 
ENDBRANCH  17  18
ENDBRANCH  16  17
ENDBRANCH  11  16
ENDBRANCH   1  11
BRANCH   4  21
HETATM   21  N3  UNL     1       2.859  -0.584  -0.228  1.00  0.00    -0.341 N 
HETATM   22  H15 UNL     1       2.450  -1.267  -0.895  1.00  0.00     0.167 HD
BRANCH  21  23
HETATM   23  C12 UNL     1       4.180  -0.248  -0.670  1.00  0.00     0.035 A 
HETATM   24  C13 UNL     1       5.234  -1.120  -0.521  1.00  0.00     0.029 A 
HETATM   25  C14 UNL     1       6.486  -0.733  -0.951  1.00  0.00     0.004 A 
HETATM   26  C15 UNL     1       6.696   0.508  -1.525  1.00  0.00     0.019 A 
HETATM   27  C16 UNL     1       5.643   1.418  -1.690  1.00  0.00     0.013 A 
HETATM   28 BR1  UNL     1       5.896   3.150  -2.476  1.00  0.00    -0.051 Br
HETATM   29  C17 UNL     1       4.380   1.008  -1.248  1.00  0.00     0.048 A 
ENDBRANCH  21  23
ENDBRANCH   4  21
TORSDOF 7
