REMARK  3 active torsions:
REMARK  status: ('A' for Active; 'I' for Inactive)
REMARK    1  A    between atoms: C5_6  and  N1_7 
REMARK    2  A    between atoms: N1_7  and  C6_8 
REMARK    3  A    between atoms: C11_15  and  N4_16 
ROOT
HETATM    1  C6  UNL     1      -2.895  -0.061  -1.687  1.00  0.00     0.142 A 
HETATM    2  N2  UNL     1      -3.870  -0.574  -2.486  1.00  0.00    -0.224 NA
HETATM    3  C7  UNL     1      -3.766  -1.868  -2.860  1.00  0.00     0.236 A 
HETATM    4  N3  UNL     1      -2.716  -2.646  -2.452  1.00  0.00    -0.241 NA
HETATM    5  C8  UNL     1      -1.758  -2.124  -1.662  1.00  0.00     0.072 A 
HETATM    6  C9  UNL     1      -0.660  -2.829  -1.198  1.00  0.00     0.035 A 
HETATM    7  C10 UNL     1       0.296  -2.226  -0.384  1.00  0.00     0.031 A 
HETATM    8  C11 UNL     1       0.181  -0.887  -0.006  1.00  0.00     0.031 A 
HETATM    9  C20 UNL     1      -0.909  -0.156  -0.454  1.00  0.00     0.047 A 
HETATM   10  C21 UNL     1      -1.823  -0.807  -1.257  1.00  0.00     0.041 A 
ENDROOT
BRANCH   8  11
HETATM   11  N4  UNL     1       1.214  -0.374   0.828  1.00  0.00    -0.379 N 
HETATM   12  C12 UNL     1       1.805  -1.323   1.729  1.00  0.00     0.125 C 
HETATM   13  C13 UNL     1       2.820  -0.701   2.676  1.00  0.00     0.050 C 
HETATM   14  C14 UNL     1       4.095  -0.500   1.846  1.00  0.00     0.275 C 
HETATM   15  N5  UNL     1       3.655  -0.257   0.505  1.00  0.00     0.099 N 
HETATM   16  C15 UNL     1       4.523  -0.685  -0.533  1.00  0.00     0.299 C 
HETATM   17  C18 UNL     1       3.157   1.077   0.401  1.00  0.00     0.264 C 
HETATM   18  C16 UNL     1       5.288   0.484  -1.077  1.00  0.00     0.198 C 
HETATM   19  O1  UNL     1       4.505   1.493  -1.572  1.00  0.00    -0.387 OA
HETATM   20  C17 UNL     1       3.289   1.684  -0.953  1.00  0.00     0.205 C 
HETATM   21  C19 UNL     1       1.659   1.029   0.754  1.00  0.00     0.161 C 
ENDBRANCH   8  11
BRANCH   1  22
HETATM   22  N1  UNL     1      -3.184   1.316  -1.351  1.00  0.00    -0.340 N 
HETATM   23  H4  UNL     1      -2.864   2.221  -1.712  1.00  0.00     0.167 HD
BRANCH  22  24
HETATM   24  C5  UNL     1      -4.141   1.391  -0.268  1.00  0.00     0.035 A 
HETATM   25  C4  UNL     1      -4.500   2.590   0.313  1.00  0.00     0.029 A 
HETATM   26  C3  UNL     1      -5.408   2.750   1.343  1.00  0.00     0.004 A 
HETATM   27  C2  UNL     1      -6.007   1.588   1.825  1.00  0.00     0.019 A 
HETATM   28  C1  UNL     1      -5.703   0.356   1.299  1.00  0.00     0.013 A 
HETATM   29 BR1  UNL     1      -6.487  -1.293   1.905  1.00  0.00    -0.051 Br
HETATM   30  C22 UNL     1      -4.785   0.267   0.270  1.00  0.00     0.048 A 
ENDBRANCH  22  24
ENDBRANCH   1  22
TORSDOF 3
