REMARK  7 active torsions:
REMARK  status: ('A' for Active; 'I' for Inactive)
REMARK    1  A    between atoms: C3_3  and  C4_4 
REMARK       I    between atoms: C4_4  and  N1_6 
REMARK    2  A    between atoms: N1_6  and  C5_7 
REMARK    3  A    between atoms: C5_7  and  C19_25 
REMARK    4  A    between atoms: C6_8  and  C7_9 
REMARK    5  A    between atoms: C10_12  and  N2_13 
REMARK    6  A    between atoms: N2_13  and  C11_14 
REMARK    7  A    between atoms: C15_18  and  C16_19 
ROOT
HETATM    1  C7  UNL     1      -1.045   0.119   0.240  1.00  0.00     0.029 C 
HETATM    2  C8  UNL     1       0.196  -0.185   0.611  1.00  0.00     0.043 A 
HETATM    3  C9  UNL     1       1.184  -0.576  -0.427  1.00  0.00     0.137 A 
HETATM    4  C10 UNL     1       2.488  -0.883   0.164  1.00  0.00     0.111 A 
HETATM    5  N3  UNL     1       2.750  -0.818   1.439  1.00  0.00    -0.228 NA
HETATM    6  C18 UNL     1       1.770  -0.434   2.391  1.00  0.00     0.235 A 
HETATM    7  N4  UNL     1       0.571  -0.141   1.960  1.00  0.00    -0.246 NA
ENDROOT
BRANCH   1   8
HETATM    8  C6  UNL     1      -2.031   0.508   1.254  1.00  0.00     0.027 C 
HETATM    9  C5  UNL     1      -3.264   0.809   0.878  1.00  0.00     0.012 C 
BRANCH   9  10
HETATM   10  N1  UNL     1      -3.614   0.751  -0.511  1.00  0.00    -0.327 N 
HETATM   11  C4  UNL     1      -4.616  -0.071  -1.051  1.00  0.00     0.245 C 
HETATM   12  O1  UNL     1      -5.194  -0.768  -0.183  1.00  0.00    -0.268 OA
HETATM   13  H6  UNL     1      -3.038   1.397  -1.112  1.00  0.00     0.169 HD
BRANCH  11  14
HETATM   14  C3  UNL     1      -4.924  -0.085  -2.474  1.00  0.00     0.070 C 
HETATM   15  C2  UNL     1      -5.869  -0.860  -2.977  1.00  0.00    -0.026 C 
HETATM   16  C1  UNL     1      -6.667  -1.761  -2.107  1.00  0.00     0.036 C 
ENDBRANCH  11  14
ENDBRANCH   9  10
BRANCH   9  17
HETATM   17  C19 UNL     1      -4.285   1.206   1.881  1.00  0.00     0.052 C 
HETATM   18  C20 UNL     1      -4.752   2.601   1.526  1.00  0.00     0.011 C 
ENDBRANCH   9  17
ENDBRANCH   1   8
BRANCH   4  19
HETATM   19  N2  UNL     1       3.585  -1.287  -0.632  1.00  0.00    -0.344 N 
HETATM   20  H11 UNL     1       3.377  -1.955  -1.437  1.00  0.00     0.167 HD
BRANCH  19  21
HETATM   21  C11 UNL     1       4.936  -0.881  -0.463  1.00  0.00     0.034 A 
HETATM   22  C12 UNL     1       5.914  -1.395  -1.297  1.00  0.00     0.029 A 
HETATM   23  C13 UNL     1       7.245  -1.081  -1.239  1.00  0.00     0.003 A 
HETATM   24  C14 UNL     1       7.696  -0.196  -0.303  1.00  0.00     0.013 A 
HETATM   25  C15 UNL     1       6.729   0.310   0.518  1.00  0.00    -0.010 A 
HETATM   26  C17 UNL     1       5.387   0.010   0.479  1.00  0.00     0.043 A 
BRANCH  25  27
HETATM   27  C16 UNL     1       7.076   1.260   1.555  1.00  0.00     0.389 C 
HETATM   28  O2  UNL     1       7.957   1.923   2.128  1.00  0.00    -0.405 OA
ENDBRANCH  25  27
ENDBRANCH  19  21
ENDBRANCH   4  19
TORSDOF 7
