REMARK  5 active torsions:
REMARK  status: ('A' for Active; 'I' for Inactive)
REMARK       I    between atoms: C3_3  and  N1_5 
REMARK    1  A    between atoms: N1_5  and  C4_6 
REMARK    2  A    between atoms: N1_5  and  C11_15 
REMARK    3  A    between atoms: C4_6  and  C5_7 
REMARK    4  A    between atoms: C5_7  and  C6_8 
REMARK    5  A    between atoms: C6_8  and  N2_9 
ROOT
HETATM    1  C1  UNL     1      -0.926  -3.994   1.068  1.00  0.00     0.017 C 
HETATM    2  C2  UNL     1      -1.290  -2.793   0.744  1.00  0.00     0.064 C 
HETATM    3  C3  UNL     1      -1.746  -1.511   0.328  1.00  0.00     0.247 C 
HETATM    4  O1  UNL     1      -2.607  -1.684  -0.573  1.00  0.00    -0.268 OA
HETATM    5  N1  UNL     1      -1.539  -0.149   0.606  1.00  0.00    -0.315 N 
ENDROOT
BRANCH   5   6
HETATM    6  C4  UNL     1      -0.670   0.508   1.532  1.00  0.00     0.134 C 
BRANCH   6   7
HETATM    7  C5  UNL     1       0.682   0.832   0.968  1.00  0.00     0.040 C 
BRANCH   7   8
HETATM    8  C6  UNL     1       1.419  -0.429   0.514  1.00  0.00     0.118 C 
BRANCH   8   9
HETATM    9  N2  UNL     1       2.672  -0.045   0.002  1.00  0.00    -0.408 N 
HETATM   10  C7  UNL     1       2.706   0.691  -1.215  1.00  0.00     0.143 C 
HETATM   11  C8  UNL     1       3.904   1.621  -1.159  1.00  0.00     0.187 C 
HETATM   12  O2  UNL     1       4.790   1.173  -0.191  1.00  0.00    -0.388 OA
HETATM   13  C9  UNL     1       5.008  -0.204  -0.217  1.00  0.00     0.187 C 
HETATM   14  C10 UNL     1       3.727  -0.997  -0.009  1.00  0.00     0.143 C 
ENDBRANCH   8   9
ENDBRANCH   7   8
ENDBRANCH   6   7
ENDBRANCH   5   6
BRANCH   5  15
HETATM   15  C11 UNL     1      -2.443   0.473  -0.296  1.00  0.00     0.038 A 
HETATM   16  C12 UNL     1      -2.169   0.879  -1.606  1.00  0.00     0.030 A 
HETATM   17  C13 UNL     1      -3.167   1.465  -2.337  1.00  0.00     0.004 A 
HETATM   18  C14 UNL     1      -4.442   1.687  -1.871  1.00  0.00     0.023 A 
HETATM   19  C15 UNL     1      -4.759   1.299  -0.573  1.00  0.00     0.046 A 
HETATM   20  C16 UNL     1      -6.054   1.490  -0.006  1.00  0.00     0.099 C 
HETATM   21  C17 UNL     1      -3.735   0.707   0.153  1.00  0.00     0.052 A 
HETATM   22  N3  UNL     1      -7.125   1.634   0.447  1.00  0.00    -0.191 NA
ENDBRANCH   5  15
TORSDOF 5
