REMARK  3 active torsions:
REMARK  status: ('A' for Active; 'I' for Inactive)
REMARK       I    between atoms: C2_3  and  N2_5 
REMARK    1  A    between atoms: N2_5  and  C3_6 
REMARK    2  A    between atoms: C8_13  and  N5_14 
REMARK    3  A    between atoms: N5_14  and  C9_15 
ROOT
HETATM    1  N1  UNL     1       6.419  -2.842   0.814  1.00  0.00    -0.186 NA
HETATM    2  C1  UNL     1       5.503  -2.215   0.548  1.00  0.00     0.162 C 
HETATM    3  C2  UNL     1       4.362  -1.429   0.192  1.00  0.00     0.326 C 
HETATM    4  O1  UNL     1       4.222  -0.330   0.835  1.00  0.00    -0.256 OA
HETATM    5  N2  UNL     1       3.344  -1.641  -0.763  1.00  0.00    -0.315 N 
HETATM    6  H1  UNL     1       3.487  -2.554  -1.273  1.00  0.00     0.170 HD
ENDROOT
BRANCH   5   7
HETATM    7  C3  UNL     1       2.464  -0.523  -0.700  1.00  0.00     0.036 A 
HETATM    8  C4  UNL     1       2.972   0.461  -1.558  1.00  0.00     0.032 A 
HETATM    9  C5  UNL     1       2.316   1.666  -1.701  1.00  0.00     0.035 A 
HETATM   10  C6  UNL     1       1.143   1.888  -0.977  1.00  0.00     0.072 A 
HETATM   11  N3  UNL     1       0.476   3.042  -1.077  1.00  0.00    -0.241 NA
HETATM   12  C15 UNL     1       0.717   0.881  -0.167  1.00  0.00     0.041 A 
HETATM   13  C7  UNL     1      -0.672   3.275  -0.374  1.00  0.00     0.236 A 
HETATM   14  N4  UNL     1      -1.104   2.271   0.438  1.00  0.00    -0.224 NA
HETATM   15  C8  UNL     1      -0.433   1.122   0.534  1.00  0.00     0.142 A 
HETATM   16  C16 UNL     1       1.318  -0.325   0.014  1.00  0.00     0.047 A 
BRANCH  15  17
HETATM   17  N5  UNL     1      -1.042   0.237   1.442  1.00  0.00    -0.340 N 
HETATM   18  H5  UNL     1      -0.496   0.135   2.321  1.00  0.00     0.167 HD
BRANCH  17  19
HETATM   19  C9  UNL     1      -2.276  -0.328   0.956  1.00  0.00     0.035 A 
HETATM   20  C10 UNL     1      -3.355   0.312   1.562  1.00  0.00     0.029 A 
HETATM   21  C11 UNL     1      -4.655  -0.092   1.228  1.00  0.00     0.004 A 
HETATM   22  C12 UNL     1      -4.824  -1.117   0.309  1.00  0.00     0.019 A 
HETATM   23  C13 UNL     1      -3.741  -1.731  -0.270  1.00  0.00     0.013 A 
HETATM   24 BR1  UNL     1      -3.892  -3.158  -1.548  1.00  0.00    -0.051 Br
HETATM   25  C14 UNL     1      -2.469  -1.343   0.046  1.00  0.00     0.048 A 
ENDBRANCH  17  19
ENDBRANCH  15  17
ENDBRANCH   5   7
TORSDOF 3
