REMARK  0 active torsions:
REMARK  status: ('A' for Active; 'I' for Inactive)
ROOT
HETATM    1  C1  UNL     1      -1.024  -2.505  -2.133  1.00  0.00     0.018 C 
HETATM    2  C2  UNL     1      -1.327  -1.645  -0.943  1.00  0.00     0.054 C 
HETATM    3  C3  UNL     1      -0.690  -2.181   0.311  1.00  0.00     0.160 C 
HETATM    4  N1  UNL     1       0.729  -2.027   0.202  1.00  0.00    -0.284 NA
HETATM    5  C4  UNL     1       1.524  -2.476  -0.669  1.00  0.00     0.198 C 
HETATM    6  N2  UNL     1       2.638  -1.838   0.012  1.00  0.00    -0.379 N 
HETATM    7  C5  UNL     1       3.606  -2.897  -0.068  1.00  0.00     0.150 C 
HETATM    8  C6  UNL     1       2.797  -0.498   0.566  1.00  0.00     0.142 C 
HETATM    9  C7  UNL     1       3.619   0.400  -0.287  1.00  0.00     0.142 C 
HETATM   10  N3  UNL     1       3.837   1.738   0.255  1.00  0.00    -0.356 N 
HETATM   11  C8  UNL     1       3.225   2.913   0.734  1.00  0.00     0.241 C 
HETATM   12  O1  UNL     1       2.325   2.058   0.417  1.00  0.00    -0.269 OA
HETATM   13  C9  UNL     1       2.098   3.722   1.088  1.00  0.00     0.079 C 
HETATM   14  C10 UNL     1       0.905   4.193   1.327  1.00  0.00     0.080 C 
HETATM   15  C11 UNL     1      -0.440   3.723   1.253  1.00  0.00     0.246 C 
HETATM   16  O2  UNL     1      -1.481   4.356   1.536  1.00  0.00    -0.268 OA
HETATM   17  N4  UNL     1      -1.384   2.736   0.982  1.00  0.00    -0.308 N 
HETATM   18  C12 UNL     1      -2.336   1.759   0.714  1.00  0.00     0.130 C 
HETATM   19  C13 UNL     1      -2.372   0.491   1.076  1.00  0.00     0.060 C 
HETATM   20  C14 UNL     1      -2.955  -0.366   0.079  1.00  0.00    -0.015 A 
HETATM   21  C15 UNL     1      -2.740  -1.281  -0.827  1.00  0.00     0.046 A 
HETATM   22  N5  UNL     1      -3.991  -1.594  -1.419  1.00  0.00    -0.268 NA
HETATM   23  C16 UNL     1      -4.949  -0.904  -0.917  1.00  0.00     0.104 A 
HETATM   24  C17 UNL     1      -4.373  -0.007   0.122  1.00  0.00     0.102 A 
HETATM   25  C18 UNL     1      -4.428   1.429  -0.365  1.00  0.00     0.107 C 
HETATM   26  N6  UNL     1      -3.431   2.235  -0.048  1.00  0.00    -0.246 NA
HETATM   27  H15 UNL     1       4.804   2.162   0.426  1.00  0.00     0.162 HD
HETATM   28  H18 UNL     1      -0.625   2.124   0.632  1.00  0.00     0.170 HD
ENDROOT
TORSDOF 0
