REMARK  8 active torsions:
REMARK  status: ('A' for Active; 'I' for Inactive)
REMARK    1  A    between atoms: C5_7  and  C6_8 
REMARK    2  A    between atoms: C7_9  and  N3_10 
REMARK       I    between atoms: N3_10  and  C8_11 
REMARK    3  A    between atoms: C8_11  and  C9_13 
REMARK    4  A    between atoms: C10_14  and  C11_15 
REMARK       I    between atoms: C11_15  and  N4_17 
REMARK    5  A    between atoms: N4_17  and  C12_18 
REMARK    6  A    between atoms: C12_18  and  C13_19 
REMARK    7  A    between atoms: C13_19  and  C14_20 
REMARK    8  A    between atoms: C14_20  and  N5_21 
ROOT
HETATM    1  N3  UNL     1      -2.560   1.727   1.141  1.00  0.00    -0.334 N 
HETATM    2  C8  UNL     1      -1.199   1.863   0.670  1.00  0.00     0.245 C 
HETATM    3  O1  UNL     1      -1.186   1.259  -0.440  1.00  0.00    -0.268 OA
HETATM    4  H8  UNL     1      -2.792   2.176   2.083  1.00  0.00     0.168 HD
ENDROOT
BRANCH   2   5
HETATM    5  C9  UNL     1      -0.132   2.571   1.398  1.00  0.00     0.080 C 
HETATM    6  C10 UNL     1       1.140   2.786   1.117  1.00  0.00     0.079 C 
BRANCH   6   7
HETATM    7  C11 UNL     1       1.818   2.324  -0.085  1.00  0.00     0.241 C 
HETATM    8  O2  UNL     1       1.312   1.663  -1.025  1.00  0.00    -0.269 OA
HETATM    9  N4  UNL     1       3.190   2.607  -0.294  1.00  0.00    -0.358 N 
HETATM   10  H11 UNL     1       3.688   3.168   0.462  1.00  0.00     0.162 HD
BRANCH   9  11
HETATM   11  C12 UNL     1       4.000   2.218  -1.427  1.00  0.00     0.124 C 
BRANCH  11  12
HETATM   12  C13 UNL     1       4.044   0.726  -1.536  1.00  0.00     0.050 C 
BRANCH  12  13
HETATM   13  C14 UNL     1       4.632   0.118  -0.290  1.00  0.00     0.273 C 
BRANCH  13  14
HETATM   14  N5  UNL     1       4.692  -1.311  -0.353  1.00  0.00     0.080 N 
HETATM   15  C15 UNL     1       5.270  -1.804   0.886  1.00  0.00     0.309 C 
HETATM   16  C16 UNL     1       3.421  -1.941  -0.538  1.00  0.00     0.309 C 
ENDBRANCH  13  14
ENDBRANCH  12  13
ENDBRANCH  11  12
ENDBRANCH   9  11
ENDBRANCH   6   7
ENDBRANCH   2   5
BRANCH   1  17
HETATM   17  C7  UNL     1      -3.408   1.000   0.261  1.00  0.00     0.092 C 
HETATM   18  C6  UNL     1      -4.018  -0.115   0.626  1.00  0.00     0.032 C 
BRANCH  18  19
HETATM   19  C5  UNL     1      -4.903  -0.930  -0.196  1.00  0.00     0.007 A 
HETATM   20  C2  UNL     1      -5.499  -2.084   0.268  1.00  0.00     0.043 A 
HETATM   21  C1  UNL     1      -5.210  -2.494   1.675  1.00  0.00     0.071 C 
HETATM   22  N1  UNL     1      -6.308  -2.812  -0.514  1.00  0.00    -0.246 NA
HETATM   23  C3  UNL     1      -6.575  -2.452  -1.782  1.00  0.00     0.232 A 
HETATM   24  N2  UNL     1      -6.003  -1.333  -2.248  1.00  0.00    -0.253 NA
HETATM   25  C4  UNL     1      -5.181  -0.569  -1.497  1.00  0.00     0.131 A 
ENDBRANCH  18  19
ENDBRANCH   1  17
TORSDOF 8
