REMARK  6 active torsions:
REMARK  status: ('A' for Active; 'I' for Inactive)
REMARK    1  A    between atoms: C8_11  and  N4_12 
REMARK    2  A    between atoms: C15_20  and  C16_21 
REMARK       I    between atoms: C16_21  and  N5_23 
REMARK    3  A    between atoms: N5_23  and  C17_24 
REMARK    4  A    between atoms: C17_24  and  C18_25 
REMARK    5  A    between atoms: C18_25  and  C19_26 
REMARK    6  A    between atoms: C19_26  and  N6_27 
ROOT
HETATM    1  C1  UNL     1       1.648   1.010  -1.186  1.00  0.00     0.059 C 
HETATM    2  C2  UNL     1       0.563   1.387  -0.575  1.00  0.00     0.004 C 
HETATM    3  N1  UNL     1      -0.023   2.561  -1.108  1.00  0.00    -0.385 N 
HETATM    4  C3  UNL     1      -1.058   3.484  -0.879  1.00  0.00     0.130 C 
HETATM    5  C4  UNL     1      -2.131   4.089  -0.410  1.00  0.00     0.002 C 
HETATM    6  C5  UNL     1      -3.334   4.230   0.467  1.00  0.00     0.017 C 
HETATM    7  C6  UNL     1      -3.743   3.348   1.365  1.00  0.00     0.117 C 
HETATM    8  N2  UNL     1      -3.023   2.180   1.536  1.00  0.00    -0.254 NA
HETATM    9  C7  UNL     1      -3.346   1.025   1.929  1.00  0.00     0.234 C 
HETATM   10  N3  UNL     1      -1.997   0.942   1.655  1.00  0.00    -0.228 NA
HETATM   11  C8  UNL     1      -1.416   0.465   0.570  1.00  0.00     0.122 C 
HETATM   12  C15 UNL     1       0.060   0.583   0.568  1.00  0.00     0.192 C 
HETATM   13  H3  UNL     1       0.334   3.025  -1.966  1.00  0.00     0.160 HD
ENDROOT
BRANCH  12  14
HETATM   14  C16 UNL     1       0.826  -0.590   0.925  1.00  0.00     0.234 C 
HETATM   15  O1  UNL     1       1.147  -0.792   2.159  1.00  0.00    -0.272 OA
HETATM   16  N5  UNL     1       1.351  -1.666   0.157  1.00  0.00    -0.360 N 
HETATM   17  H19 UNL     1       1.138  -1.564  -0.862  1.00  0.00     0.162 HD
BRANCH  16  18
HETATM   18  C17 UNL     1       2.104  -2.808   0.593  1.00  0.00     0.124 C 
BRANCH  18  19
HETATM   19  C18 UNL     1       3.370  -2.344   1.262  1.00  0.00     0.050 C 
BRANCH  19  20
HETATM   20  C19 UNL     1       4.236  -1.514   0.333  1.00  0.00     0.273 C 
BRANCH  20  21
HETATM   21  N6  UNL     1       5.444  -1.056   0.990  1.00  0.00     0.080 N 
HETATM   22  C20 UNL     1       6.328  -2.169   1.275  1.00  0.00     0.309 C 
HETATM   23  C21 UNL     1       5.112  -0.320   2.191  1.00  0.00     0.309 C 
ENDBRANCH  20  21
ENDBRANCH  19  20
ENDBRANCH  18  19
ENDBRANCH  16  18
ENDBRANCH  12  14
BRANCH  11  24
HETATM   24  N4  UNL     1      -2.201  -0.065  -0.525  1.00  0.00    -0.360 N 
HETATM   25  C9  UNL     1      -1.763  -1.297  -1.109  1.00  0.00     0.153 C 
HETATM   26  C10 UNL     1      -2.770  -1.988  -1.955  1.00  0.00     0.008 C 
HETATM   27  C11 UNL     1      -3.647  -1.367  -2.771  1.00  0.00    -0.012 C 
HETATM   28 BR1  UNL     1      -4.945  -2.240  -3.868  1.00  0.00    -0.056 Br
HETATM   29  C12 UNL     1      -3.407   0.105  -2.637  1.00  0.00     0.071 C 
HETATM   30  C13 UNL     1      -3.402   0.479  -1.148  1.00  0.00     0.086 C 
HETATM   31  C14 UNL     1      -4.598  -0.222  -0.557  1.00  0.00     0.033 C 
ENDBRANCH  11  24
TORSDOF 6
