REMARK  9 active torsions:
REMARK  status: ('A' for Active; 'I' for Inactive)
REMARK    1  A    between atoms: C2_2  and  C3_3 
REMARK    2  A    between atoms: C2_2  and  N2_12 
REMARK    3  A    between atoms: C4_4  and  C5_5 
REMARK    4  A    between atoms: C5_5  and  C6_7 
REMARK    5  A    between atoms: C6_7  and  C7_8 
REMARK    6  A    between atoms: C7_8  and  N1_9 
REMARK    7  A    between atoms: N2_12  and  C10_13 
REMARK    8  A    between atoms: C12_15  and  N3_16 
REMARK    9  A    between atoms: N3_16  and  C13_17 
ROOT
HETATM    1  C10 UNL     1       1.128  -0.033   0.355  1.00  0.00     0.370 A 
HETATM    2  C11 UNL     1       2.541   0.431   0.529  1.00  0.00     0.080 A 
HETATM    3  C12 UNL     1       3.641   0.347  -0.197  1.00  0.00     0.106 A 
HETATM    4  N4  UNL     1       3.428  -0.342  -1.419  1.00  0.00    -0.337 N 
HETATM    5  C19 UNL     1       2.105  -0.807  -1.641  1.00  0.00     0.205 A 
HETATM    6  N5  UNL     1       1.052  -0.710  -0.914  1.00  0.00    -0.245 NA
HETATM    7  H25 UNL     1       4.173  -0.500  -2.107  1.00  0.00     0.168 HD
ENDROOT
BRANCH   1   8
HETATM    8  N2  UNL     1       0.326   1.175   0.324  1.00  0.00     0.119 N 
HETATM    9  H17 UNL     1       0.617   1.785  -0.470  1.00  0.00     0.320 HD
BRANCH   8  10
HETATM   10  C2  UNL     1      -1.067   0.890   0.187  1.00  0.00     0.242 C 
HETATM   11  C1  UNL     1      -1.818   2.234   0.288  1.00  0.00     0.047 C 
BRANCH  10  12
HETATM   12  C3  UNL     1      -1.340   0.269  -1.131  1.00  0.00     0.011 C 
HETATM   13  C4  UNL     1      -2.474  -0.428  -1.328  1.00  0.00     0.048 C 
BRANCH  13  14
HETATM   14  C5  UNL     1      -3.669  -0.842  -0.632  1.00  0.00     0.150 C 
HETATM   15  O1  UNL     1      -4.731  -1.492  -0.812  1.00  0.00    -0.293 OA
BRANCH  14  16
HETATM   16  C6  UNL     1      -4.084  -0.577   0.760  1.00  0.00     0.113 C 
BRANCH  16  17
HETATM   17  C7  UNL     1      -5.466  -1.129   1.034  1.00  0.00     0.279 C 
BRANCH  17  18
HETATM   18  N1  UNL     1      -6.394  -0.493   0.154  1.00  0.00     0.080 N 
HETATM   19  C8  UNL     1      -7.756  -0.946   0.328  1.00  0.00     0.309 C 
HETATM   20  C9  UNL     1      -6.277   0.928   0.075  1.00  0.00     0.309 C 
ENDBRANCH  17  18
ENDBRANCH  16  17
ENDBRANCH  14  16
ENDBRANCH  13  14
ENDBRANCH  10  12
ENDBRANCH   8  10
ENDBRANCH   1   8
BRANCH   3  21
HETATM   21  N3  UNL     1       4.888   0.867   0.169  1.00  0.00    -0.343 N 
HETATM   22  H20 UNL     1       4.784   1.871   0.406  1.00  0.00     0.167 HD
BRANCH  21  23
HETATM   23  C13 UNL     1       6.117   0.168   0.219  1.00  0.00     0.034 A 
HETATM   24  C14 UNL     1       6.182  -1.165  -0.105  1.00  0.00     0.029 A 
HETATM   25  C15 UNL     1       7.443  -1.758  -0.025  1.00  0.00     0.004 A 
HETATM   26  C16 UNL     1       8.588  -1.062   0.360  1.00  0.00     0.019 A 
HETATM   27  C17 UNL     1       8.472   0.281   0.678  1.00  0.00     0.013 A 
HETATM   28 BR1  UNL     1      10.024   1.271   1.211  1.00  0.00    -0.051 Br
HETATM   29  C18 UNL     1       7.239   0.907   0.610  1.00  0.00     0.048 A 
ENDBRANCH  21  23
ENDBRANCH   3  21
TORSDOF 9
