REMARK  6 active torsions:
REMARK  status: ('A' for Active; 'I' for Inactive)
REMARK    1  A    between atoms: C3_4  and  C4_5 
REMARK    2  A    between atoms: C4_5  and  C5_6 
REMARK    3  A    between atoms: C5_6  and  C6_7 
REMARK    4  A    between atoms: C6_7  and  N1_8 
REMARK    5  A    between atoms: N1_8  and  C7_9 
REMARK    6  A    between atoms: C14_20  and  O2_21 
ROOT
HETATM    1  C7  UNL     1       1.113  -0.125   0.435  1.00  0.00     0.139 A 
HETATM    2  N2  UNL     1       2.080   0.723   0.062  1.00  0.00    -0.227 NA
HETATM    3  C8  UNL     1       1.788   1.930  -0.504  1.00  0.00     0.237 A 
HETATM    4  N3  UNL     1       0.580   2.458  -0.774  1.00  0.00    -0.216 NA
HETATM    5  C9  UNL     1      -0.517   1.673  -0.432  1.00  0.00     0.196 A 
HETATM    6  C10 UNL     1      -0.160   0.392   0.169  1.00  0.00     0.125 A 
HETATM    7  N4  UNL     1      -1.533  -0.049   0.360  1.00  0.00    -0.372 N 
HETATM    8  C11 UNL     1      -2.455  -0.715  -0.649  1.00  0.00     0.126 C 
HETATM    9  C12 UNL     1      -3.166   0.489  -1.299  1.00  0.00     0.055 C 
HETATM   10  C13 UNL     1      -3.011   1.737  -0.474  1.00  0.00     0.162 C 
HETATM   11  O1  UNL     1      -1.749   2.315  -0.755  1.00  0.00    -0.324 OA
HETATM   12  C14 UNL     1      -3.183   1.557   1.013  1.00  0.00     0.168 C 
HETATM   13  C16 UNL     1      -2.490   0.240   1.500  1.00  0.00     0.157 C 
ENDROOT
BRANCH   1  14
HETATM   14  N1  UNL     1       0.991  -1.444   1.034  1.00  0.00    -0.252 NA
HETATM   15  H7  UNL     1       0.946  -0.926   1.897  1.00  0.00     0.134 HD
BRANCH  14  16
HETATM   16  C6  UNL     1       1.092  -1.997  -0.329  1.00  0.00     0.063 C 
BRANCH  16  17
HETATM   17  C5  UNL     1       2.233  -2.215  -0.914  1.00  0.00     0.009 C 
BRANCH  17  18
HETATM   18  C4  UNL     1       3.411  -1.890  -0.169  1.00  0.00    -0.005 C 
BRANCH  18  19
HETATM   19  C3  UNL     1       4.586  -2.078  -0.708  1.00  0.00     0.113 A 
HETATM   20  C2  UNL     1       5.943  -2.200  -1.095  1.00  0.00    -0.013 A 
HETATM   21  C1  UNL     1       7.121  -2.368  -1.589  1.00  0.00     0.027 C 
HETATM   22 BR1  UNL     1       6.239  -1.572   0.712  1.00  0.00    -0.118 Br
ENDBRANCH  18  19
ENDBRANCH  17  18
ENDBRANCH  16  17
ENDBRANCH  14  16
ENDBRANCH   1  14
BRANCH  12  23
HETATM   23  O2  UNL     1      -4.456   1.632   1.482  1.00  0.00    -0.386 OA
HETATM   24  C15 UNL     1      -4.774   2.556   2.419  1.00  0.00     0.202 C 
ENDBRANCH  12  23
TORSDOF 6
