REMARK  6 active torsions:
REMARK  status: ('A' for Active; 'I' for Inactive)
REMARK    1  A    between atoms: C1_2  and  C2_3 
REMARK    2  A    between atoms: C2_3  and  C3_4 
REMARK    3  A    between atoms: C3_4  and  C4_5 
REMARK       I    between atoms: C4_5  and  N1_7 
REMARK    4  A    between atoms: N1_7  and  C5_8 
REMARK    5  A    between atoms: C10_15  and  N4_16 
REMARK    6  A    between atoms: N4_16  and  C11_17 
ROOT
HETATM    1  C5  UNL     1       1.652  -0.603   1.489  1.00  0.00     0.035 A 
HETATM    2  C6  UNL     1       1.843  -1.510   2.511  1.00  0.00     0.032 A 
HETATM    3  C7  UNL     1       0.739  -2.097   3.076  1.00  0.00     0.035 A 
HETATM    4  C8  UNL     1      -0.523  -1.779   2.621  1.00  0.00     0.072 A 
HETATM    5  N2  UNL     1      -1.527  -2.408   3.240  1.00  0.00    -0.241 NA
HETATM    6  C9  UNL     1      -2.771  -2.119   2.820  1.00  0.00     0.236 A 
HETATM    7  N3  UNL     1      -3.008  -1.249   1.834  1.00  0.00    -0.224 NA
HETATM    8  C10 UNL     1      -2.045  -0.596   1.185  1.00  0.00     0.142 A 
HETATM    9  C17 UNL     1      -0.778  -0.879   1.601  1.00  0.00     0.041 A 
HETATM   10  C18 UNL     1       0.364  -0.326   1.078  1.00  0.00     0.047 A 
ENDROOT
BRANCH   8  11
HETATM   11  N4  UNL     1      -2.239   0.332   0.137  1.00  0.00    -0.340 N 
HETATM   12  H10 UNL     1      -1.444   0.793  -0.343  1.00  0.00     0.167 HD
BRANCH  11  13
HETATM   13  C11 UNL     1      -3.463   0.777  -0.417  1.00  0.00     0.035 A 
HETATM   14  C12 UNL     1      -4.687   0.482   0.135  1.00  0.00     0.029 A 
HETATM   15  C13 UNL     1      -5.897   0.889  -0.382  1.00  0.00     0.004 A 
HETATM   16  C14 UNL     1      -5.931   1.647  -1.529  1.00  0.00     0.019 A 
HETATM   17  C15 UNL     1      -4.743   1.966  -2.115  1.00  0.00     0.013 A 
HETATM   18 BR1  UNL     1      -4.720   3.009  -3.700  1.00  0.00    -0.051 Br
HETATM   19  C16 UNL     1      -3.564   1.533  -1.557  1.00  0.00     0.048 A 
ENDBRANCH  11  13
ENDBRANCH   8  11
BRANCH   1  20
HETATM   20  N1  UNL     1       2.804  -0.002   0.913  1.00  0.00    -0.327 N 
HETATM   21  C4  UNL     1       3.604  -0.425  -0.187  1.00  0.00     0.222 C 
HETATM   22  O2  UNL     1       3.190  -1.503  -0.700  1.00  0.00    -0.273 OA
HETATM   23  H6  UNL     1       2.891   0.848   1.541  1.00  0.00     0.169 HD
BRANCH  21  24
HETATM   24  C3  UNL     1       4.698   0.566  -0.382  1.00  0.00     0.110 C 
BRANCH  24  25
HETATM   25  C2  UNL     1       5.543   0.115  -1.548  1.00  0.00     0.078 C 
BRANCH  25  26
HETATM   26  C1  UNL     1       6.675   1.036  -1.835  1.00  0.00     0.231 C 
HETATM   27  O1  UNL     1       6.359   1.771  -0.925  1.00  0.00    -0.307 OA
ENDBRANCH  25  26
ENDBRANCH  24  25
ENDBRANCH  21  24
ENDBRANCH   1  20
TORSDOF 6
