REMARK  6 active torsions:
REMARK  status: ('A' for Active; 'I' for Inactive)
REMARK    1  A    between atoms: C2_2  and  S1_3 
REMARK    2  A    between atoms: S1_3  and  N1_6 
REMARK    3  A    between atoms: N1_6  and  C3_7 
REMARK    4  A    between atoms: C8_13  and  N3_14 
REMARK    5  A    between atoms: N3_14  and  C9_15 
REMARK    6  A    between atoms: C13_19  and  N4_20 
ROOT
HETATM    1  C3  UNL     1      -2.796  -0.001  -0.333  1.00  0.00     0.100 C 
HETATM    2  C4  UNL     1      -1.533  -0.156  -0.585  1.00  0.00     0.039 C 
HETATM    3  C5  UNL     1      -0.522   0.905  -0.414  1.00  0.00     0.092 A 
HETATM    4  C6  UNL     1      -0.467   1.806  -1.625  1.00  0.00     0.115 A 
HETATM    5  N2  UNL     1       0.711   1.795  -2.157  1.00  0.00    -0.273 NA
HETATM    6  C7  UNL     1       1.574   0.930  -1.415  1.00  0.00     0.142 A 
HETATM    7  C8  UNL     1       0.862   0.409  -0.399  1.00  0.00     0.050 A 
HETATM    8  C15 UNL     1      -0.717   1.766   0.767  1.00  0.00     0.124 C 
HETATM    9  N5  UNL     1      -1.853   2.170   1.187  1.00  0.00    -0.224 NA
HETATM   10  S2  UNL     1      -3.267   1.640   0.262  1.00  0.00     0.029 SA
ENDROOT
BRANCH   7  11
HETATM   11  N3  UNL     1       1.431  -0.489   0.542  1.00  0.00    -0.357 N 
HETATM   12  H8  UNL     1       0.963  -0.899   1.356  1.00  0.00     0.166 HD
BRANCH  11  13
HETATM   13  C9  UNL     1       2.784  -0.934   0.436  1.00  0.00     0.034 A 
HETATM   14  C10 UNL     1       3.312  -2.183   0.233  1.00  0.00     0.029 A 
HETATM   15  C11 UNL     1       4.675  -2.361   0.148  1.00  0.00     0.004 A 
HETATM   16  C12 UNL     1       5.553  -1.297   0.264  1.00  0.00     0.029 A 
HETATM   17  C13 UNL     1       5.043  -0.015   0.470  1.00  0.00     0.027 A 
HETATM   18  C14 UNL     1       3.663   0.151   0.554  1.00  0.00     0.058 A 
BRANCH  17  19
HETATM   19  N4  UNL     1       5.937   1.087   0.584  1.00  0.00    -0.399 N 
HETATM   20  H12 UNL     1       6.954   0.937   0.440  1.00  0.00     0.156 HD
HETATM   21  H13 UNL     1       5.549   2.028   0.813  1.00  0.00     0.156 HD
ENDBRANCH  17  19
ENDBRANCH  11  13
ENDBRANCH   7  11
BRANCH   1  22
HETATM   22  N1  UNL     1      -3.850  -0.939  -0.458  1.00  0.00    -0.274 N 
HETATM   23  H4  UNL     1      -3.762  -1.254  -1.457  1.00  0.00     0.179 HD
BRANCH  22  24
HETATM   24  S1  UNL     1      -5.040  -1.507   0.660  1.00  0.00     0.252 S 
HETATM   25  O1  UNL     1      -4.475  -2.197   1.840  1.00  0.00    -0.201 OA
HETATM   26  O2  UNL     1      -5.952  -2.438  -0.127  1.00  0.00    -0.201 OA
BRANCH  24  27
HETATM   27  C2  UNL     1      -6.023  -0.117   1.154  1.00  0.00     0.121 C 
HETATM   28  C1  UNL     1      -6.379   0.644   0.144  1.00  0.00     0.025 C 
ENDBRANCH  24  27
ENDBRANCH  22  24
ENDBRANCH   1  22
TORSDOF 6
