REMARK  5 active torsions:
REMARK  status: ('A' for Active; 'I' for Inactive)
REMARK    1  A    between atoms: C2_2  and  S1_3 
REMARK    2  A    between atoms: S1_3  and  N1_6 
REMARK    3  A    between atoms: N1_6  and  C3_7 
REMARK    4  A    between atoms: C6_10  and  N2_11 
REMARK    5  A    between atoms: N2_11  and  C7_12 
ROOT
HETATM    1  C3  UNL     1       1.909  -0.791   0.533  1.00  0.00     0.138 C 
HETATM    2  C4  UNL     1       1.230  -1.271  -0.492  1.00  0.00     0.054 C 
HETATM    3  C5  UNL     1       0.022  -0.694  -1.052  1.00  0.00     0.045 C 
HETATM    4  C6  UNL     1      -0.805   0.310  -0.894  1.00  0.00     0.078 C 
HETATM    5  N3  UNL     1      -0.562   1.251   0.160  1.00  0.00    -0.253 NA
HETATM    6  C13 UNL     1      -0.299   0.813   1.368  1.00  0.00     0.338 C 
HETATM    7  N4  UNL     1      -0.241  -0.599   1.696  1.00  0.00    -0.243 NA
HETATM    8  C14 UNL     1       0.519  -0.801   2.700  1.00  0.00     0.120 C 
HETATM    9  C15 UNL     1       1.630  -0.132   2.684  1.00  0.00     0.121 C 
HETATM   10  N5  UNL     1       1.980   0.250   1.497  1.00  0.00    -0.226 NA
ENDROOT
BRANCH   4  11
HETATM   11  N2  UNL     1      -1.982   0.858  -1.452  1.00  0.00    -0.347 N 
HETATM   12  H7  UNL     1      -1.934   1.374  -2.378  1.00  0.00     0.167 HD
BRANCH  11  13
HETATM   13  C7  UNL     1      -3.228   0.727  -0.792  1.00  0.00     0.034 A 
HETATM   14  C8  UNL     1      -3.530   1.758   0.097  1.00  0.00     0.029 A 
HETATM   15  C9  UNL     1      -4.721   1.721   0.789  1.00  0.00     0.004 A 
HETATM   16  C10 UNL     1      -5.602   0.658   0.590  1.00  0.00     0.019 A 
HETATM   17  C11 UNL     1      -5.252  -0.336  -0.302  1.00  0.00     0.013 A 
HETATM   18 BR1  UNL     1      -6.489  -1.789  -0.556  1.00  0.00    -0.051 Br
HETATM   19  C12 UNL     1      -4.071  -0.335  -1.013  1.00  0.00     0.048 A 
ENDBRANCH  11  13
ENDBRANCH   4  11
BRANCH   1  20
HETATM   20  N1  UNL     1       3.063  -1.551   0.883  1.00  0.00    -0.265 N 
HETATM   21  H4  UNL     1       2.856  -2.533   1.210  1.00  0.00     0.180 HD
BRANCH  20  22
HETATM   22  S1  UNL     1       4.666  -0.894   0.771  1.00  0.00     0.253 S 
HETATM   23  O1  UNL     1       5.626  -1.901   1.299  1.00  0.00    -0.201 OA
HETATM   24  O2  UNL     1       4.671   0.341   1.655  1.00  0.00    -0.201 OA
BRANCH  22  25
HETATM   25  C2  UNL     1       5.021  -0.464  -0.886  1.00  0.00     0.121 C 
HETATM   26  C1  UNL     1       5.991   0.439  -0.963  1.00  0.00     0.025 C 
ENDBRANCH  22  25
ENDBRANCH  20  22
ENDBRANCH   1  20
TORSDOF 5
