REMARK  3 active torsions:
REMARK  status: ('A' for Active; 'I' for Inactive)
REMARK    1  A    between atoms: O1_1  and  C1_2 
REMARK    2  A    between atoms: C9_11  and  N2_12 
REMARK    3  A    between atoms: N2_12  and  C10_13 
ROOT
HETATM    1  C1  UNL     1      -3.825   1.936   1.115  1.00  0.00     0.067 C 
HETATM    2  C2  UNL     1      -4.702   0.904   1.218  1.00  0.00     0.039 C 
HETATM    3  C3  UNL     1      -4.458  -0.485   0.688  1.00  0.00     0.036 C 
HETATM    4  C4  UNL     1      -3.593  -0.738  -0.280  1.00  0.00     0.061 C 
HETATM    5  C5  UNL     1      -3.272   0.269  -1.433  1.00  0.00     0.122 C 
HETATM    6  C6  UNL     1      -2.256   0.998  -0.498  1.00  0.00     0.018 C 
HETATM    7  C7  UNL     1      -2.510   1.992   0.381  1.00  0.00     0.061 C 
HETATM    8  N1  UNL     1      -0.882   0.566  -0.330  1.00  0.00    -0.353 N 
HETATM    9  C8  UNL     1      -0.519  -0.863  -0.318  1.00  0.00     0.133 A 
HETATM   10  C9  UNL     1       0.835  -0.856  -0.306  1.00  0.00     0.160 A 
HETATM   11  N3  UNL     1       1.322  -2.100  -0.240  1.00  0.00    -0.222 NA
HETATM   12  C16 UNL     1       0.529  -3.185  -0.195  1.00  0.00     0.238 A 
HETATM   13  N4  UNL     1      -0.840  -3.138  -0.210  1.00  0.00    -0.215 NA
HETATM   14  C17 UNL     1      -1.441  -1.955  -0.274  1.00  0.00     0.202 A 
HETATM   15  O2  UNL     1      -2.899  -1.966  -0.285  1.00  0.00    -0.294 OA
HETATM   16  H7  UNL     1      -0.359   1.426  -0.201  1.00  0.00     0.166 HD
ENDROOT
BRANCH  10  17
HETATM   17  N2  UNL     1       1.589   0.322  -0.377  1.00  0.00    -0.339 N 
HETATM   18  H8  UNL     1       1.457   1.324  -0.505  1.00  0.00     0.167 HD
BRANCH  17  19
HETATM   19  C10 UNL     1       2.995   0.196  -0.249  1.00  0.00     0.035 A 
HETATM   20  C11 UNL     1       3.566  -0.759   0.562  1.00  0.00     0.029 A 
HETATM   21  C12 UNL     1       4.921  -0.951   0.714  1.00  0.00     0.004 A 
HETATM   22  C13 UNL     1       5.827  -0.166   0.036  1.00  0.00     0.019 A 
HETATM   23  C14 UNL     1       5.326   0.806  -0.791  1.00  0.00     0.013 A 
HETATM   24 BR1  UNL     1       6.450   1.969  -1.791  1.00  0.00    -0.051 Br
HETATM   25  C15 UNL     1       3.967   0.958  -0.909  1.00  0.00     0.048 A 
ENDBRANCH  17  19
ENDBRANCH  10  17
BRANCH   1  26
HETATM   26  O1  UNL     1      -4.014   3.146   1.699  1.00  0.00    -0.361 OA
HETATM   27  H1  UNL     1      -3.988   3.317   2.699  1.00  0.00     0.217 HD
ENDBRANCH   1  26
TORSDOF 3
