REMARK  4 active torsions:
REMARK  status: ('A' for Active; 'I' for Inactive)
REMARK    1  A    between atoms: C2_2  and  S1_3 
REMARK    2  A    between atoms: S1_3  and  N1_6 
REMARK    3  A    between atoms: N1_6  and  C3_7 
REMARK    4  A    between atoms: N4_14  and  C8_15 
ROOT
HETATM    1  C3  UNL     1      -1.292   0.089   1.299  1.00  0.00     0.041 C 
HETATM    2  C4  UNL     1      -0.926   1.323   0.932  1.00  0.00     0.022 C 
HETATM    3  C5  UNL     1      -0.166   2.355   0.208  1.00  0.00     0.139 C 
HETATM    4  N2  UNL     1       0.838   1.765  -0.679  1.00  0.00    -0.402 NA
HETATM    5  C6  UNL     1       0.508   0.901  -1.557  1.00  0.00     0.395 C 
HETATM    6  N3  UNL     1       0.228  -0.055  -2.548  1.00  0.00    -0.237 NA
HETATM    7  C7  UNL     1       0.487  -1.287  -2.310  1.00  0.00     0.215 C 
HETATM    8  N4  UNL     1       1.048  -1.424  -0.984  1.00  0.00    -0.317 N 
HETATM    9  C14 UNL     1       0.069  -1.700  -0.012  1.00  0.00     0.100 C 
HETATM   10  C15 UNL     1      -0.800  -1.189   0.835  1.00  0.00     0.047 C 
ENDROOT
BRANCH   1  11
HETATM   11  N1  UNL     1      -2.347  -0.050   2.277  1.00  0.00    -0.281 N 
HETATM   12  H4  UNL     1      -2.183  -0.209   3.293  1.00  0.00     0.179 HD
BRANCH  11  13
HETATM   13  S1  UNL     1      -3.916   0.082   1.557  1.00  0.00     0.252 S 
HETATM   14  O1  UNL     1      -4.101  -0.975   0.518  1.00  0.00    -0.201 OA
HETATM   15  O2  UNL     1      -4.928  -0.140   2.643  1.00  0.00    -0.201 OA
BRANCH  13  16
HETATM   16  C2  UNL     1      -4.157   1.657   0.806  1.00  0.00     0.121 C 
HETATM   17  C1  UNL     1      -5.414   2.069   0.812  1.00  0.00     0.025 C 
ENDBRANCH  13  16
ENDBRANCH  11  13
ENDBRANCH   1  11
BRANCH   8  18
HETATM   18  C8  UNL     1       2.420  -1.258  -0.978  1.00  0.00     0.041 A 
HETATM   19  C9  UNL     1       3.164  -0.924  -2.075  1.00  0.00     0.030 A 
HETATM   20  C10 UNL     1       4.537  -0.799  -1.918  1.00  0.00     0.004 A 
HETATM   21  C11 UNL     1       5.178  -0.994  -0.723  1.00  0.00     0.019 A 
HETATM   22  C12 UNL     1       4.409  -1.334   0.384  1.00  0.00     0.013 A 
HETATM   23 BR1  UNL     1       5.346  -1.598   2.031  1.00  0.00    -0.051 Br
HETATM   24  C13 UNL     1       3.026  -1.462   0.239  1.00  0.00     0.049 A 
ENDBRANCH   8  18
TORSDOF 4
