REMARK  4 active torsions:
REMARK  status: ('A' for Active; 'I' for Inactive)
REMARK    1  A    between atoms: C2_2  and  P1_3 
REMARK    2  A    between atoms: P1_3  and  C3_4 
REMARK    3  A    between atoms: C9_13  and  N3_14 
REMARK    4  A    between atoms: N3_14  and  C10_15 
ROOT
HETATM    1  P1  UNL     1      -2.919  -0.169  -0.133  1.00  0.00    -0.069 P 
HETATM    2  C4  UNL     1      -1.877   1.191  -0.598  1.00  0.00     0.007 A 
HETATM    3  C5  UNL     1      -0.586   1.083  -0.508  1.00  0.00     0.018 A 
HETATM    4  C6  UNL     1       0.011  -0.161  -0.022  1.00  0.00     0.035 A 
HETATM    5  C7  UNL     1      -0.639  -1.281   0.370  1.00  0.00     0.054 A 
HETATM    6  N1  UNL     1       0.074  -2.337   0.801  1.00  0.00    -0.245 NA
HETATM    7  C8  UNL     1       1.397  -2.398   0.886  1.00  0.00     0.235 A 
HETATM    8  N2  UNL     1       2.069  -1.298   0.502  1.00  0.00    -0.224 NA
HETATM    9  C9  UNL     1       1.388  -0.223   0.066  1.00  0.00     0.141 A 
HETATM   10  C15 UNL     1      -2.105  -1.573   0.408  1.00  0.00     0.097 A 
HETATM   11  H4  UNL     1      -2.809   0.392   0.996  1.00  0.00     0.064 HD
ENDROOT
BRANCH   9  12
HETATM   12  N3  UNL     1       2.206   0.875  -0.310  1.00  0.00    -0.339 N 
HETATM   13  H9  UNL     1       2.097   1.841  -0.680  1.00  0.00     0.167 HD
BRANCH  12  14
HETATM   14  C10 UNL     1       3.626   0.894  -0.252  1.00  0.00     0.046 C 
HETATM   15  C11 UNL     1       4.290   1.257   0.832  1.00  0.00     0.004 C 
HETATM   16  C12 UNL     1       5.550   0.853   0.818  1.00  0.00     0.033 C 
HETATM   17  C13 UNL     1       5.859   0.538  -0.594  1.00  0.00     0.014 C 
HETATM   18 BR1  UNL     1       7.522   0.149  -1.483  1.00  0.00    -0.051 Br
HETATM   19  C14 UNL     1       4.667   0.572  -1.213  1.00  0.00     0.049 C 
ENDBRANCH  12  14
ENDBRANCH   9  12
BRANCH   1  20
HETATM   20  C2  UNL     1      -4.584   0.112   0.150  1.00  0.00    -0.004 C 
HETATM   21  C1  UNL     1      -5.261   1.213   0.102  1.00  0.00     0.012 C 
ENDBRANCH   1  20
BRANCH   1  22
HETATM   22  C3  UNL     1      -3.176  -0.441  -1.720  1.00  0.00     0.258 C 
HETATM   23  O1  UNL     1      -3.721   0.194  -2.618  1.00  0.00    -0.302 OA
ENDBRANCH   1  22
TORSDOF 4
