REMARK  3 active torsions:
REMARK  status: ('A' for Active; 'I' for Inactive)
REMARK    1  A    between atoms: C2_2  and  C3_3 
REMARK    2  A    between atoms: C3_3  and  S1_4 
REMARK    3  A    between atoms: S1_4  and  C4_7 
ROOT
HETATM    1  C4  UNL     1       0.646   0.102  -0.024  1.00  0.00     0.133 C 
HETATM    2  C5  UNL     1      -0.054  -0.935   0.687  1.00  0.00     0.003 C 
HETATM    3  C6  UNL     1      -1.335  -1.324   0.801  1.00  0.00    -0.026 A 
HETATM    4  C7  UNL     1      -1.236  -2.477   1.724  1.00  0.00     0.189 A 
HETATM    5  N1  UNL     1      -2.509  -3.070   2.058  1.00  0.00    -0.278 NA
HETATM    6  C8  UNL     1      -3.617  -2.663   1.600  1.00  0.00     0.226 A 
HETATM    7  N2  UNL     1      -3.691  -1.575   0.712  1.00  0.00    -0.257 NA
HETATM    8  C9  UNL     1      -2.672  -0.919   0.306  1.00  0.00     0.017 A 
HETATM    9  B1  UNL     1      -3.335   0.176  -0.633  1.00  0.00     0.301 B 
HETATM   10  C10 UNL     1      -2.635   1.483  -1.060  1.00  0.00     0.026 A 
HETATM   11  C11 UNL     1      -2.103   2.524  -0.503  1.00  0.00    -0.017 A 
HETATM   12 BR1  UNL     1      -2.656   1.392  -2.045  1.00  0.00    -0.210 Br
HETATM   13  C12 UNL     1      -1.426   3.682   0.131  1.00  0.00    -0.011 C 
HETATM   14  C13 UNL     1      -0.291   3.031   0.042  1.00  0.00     0.019 C 
HETATM   15  C14 UNL     1       1.093   2.567   0.084  1.00  0.00     0.007 C 
HETATM   16  C15 UNL     1       1.192   1.226   0.826  1.00  0.00     0.024 C 
HETATM   17  H9  UNL     1      -3.833  -0.339  -1.607  1.00  0.00     0.002 HD
ENDROOT
BRANCH   1  18
HETATM   18  S1  UNL     1       1.835  -0.528  -1.185  1.00  0.00     0.168 S 
HETATM   19  O1  UNL     1       1.087  -1.444  -2.117  1.00  0.00    -0.226 OA
HETATM   20  O2  UNL     1       2.442   0.608  -1.925  1.00  0.00    -0.226 OA
BRANCH  18  21
HETATM   21  C3  UNL     1       3.096  -1.423  -0.403  1.00  0.00     0.204 C 
BRANCH  21  22
HETATM   22  C2  UNL     1       4.264  -1.539  -0.974  1.00  0.00    -0.160 C 
HETATM   23  C1  UNL     1       5.339  -1.506  -1.749  1.00  0.00     0.092 C 
ENDBRANCH  21  22
ENDBRANCH  18  21
ENDBRANCH   1  18
TORSDOF 3
