REMARK  4 active torsions:
REMARK  status: ('A' for Active; 'I' for Inactive)
REMARK    1  A    between atoms: S1_2  and  N1_4 
REMARK    2  A    between atoms: N1_4  and  C2_5 
REMARK    3  A    between atoms: C7_12  and  N4_13 
REMARK    4  A    between atoms: N4_13  and  C8_14 
ROOT
HETATM    1  C2  UNL     1       2.739  -0.898   0.509  1.00  0.00     0.181 C 
HETATM    2  C3  UNL     1       1.409  -0.778   0.594  1.00  0.00     0.076 C 
HETATM    3  C4  UNL     1       0.347  -1.703   0.215  1.00  0.00     0.044 A 
HETATM    4  C5  UNL     1       0.593  -3.057   0.065  1.00  0.00     0.091 A 
HETATM    5  N2  UNL     1      -0.411  -3.884  -0.246  1.00  0.00    -0.240 NA
HETATM    6  C6  UNL     1      -1.628  -3.337  -0.398  1.00  0.00     0.236 A 
HETATM    7  N3  UNL     1      -1.800  -2.031  -0.241  1.00  0.00    -0.224 NA
HETATM    8  C7  UNL     1      -0.894  -1.134   0.061  1.00  0.00     0.142 A 
HETATM    9  C14 UNL     1       1.823  -3.851   0.175  1.00  0.00     0.179 C 
HETATM   10  N5  UNL     1       3.024  -3.362   0.144  1.00  0.00    -0.136 NA
HETATM   11  O2  UNL     1       3.391  -2.022   0.002  1.00  0.00    -0.195 OA
ENDROOT
BRANCH   8  12
HETATM   12  N4  UNL     1      -1.085   0.243   0.187  1.00  0.00    -0.340 N 
HETATM   13  H7  UNL     1      -0.356   0.977   0.264  1.00  0.00     0.167 HD
BRANCH  12  14
HETATM   14  C8  UNL     1      -2.333   0.914   0.200  1.00  0.00     0.035 A 
HETATM   15  C9  UNL     1      -3.527   0.243   0.080  1.00  0.00     0.029 A 
HETATM   16  C10 UNL     1      -4.782   0.836   0.093  1.00  0.00     0.004 A 
HETATM   17  C11 UNL     1      -4.880   2.202   0.237  1.00  0.00     0.019 A 
HETATM   18  C12 UNL     1      -3.724   2.931   0.363  1.00  0.00     0.013 A 
HETATM   19 BR1  UNL     1      -3.794   4.823   0.569  1.00  0.00    -0.051 Br
HETATM   20  C13 UNL     1      -2.521   2.269   0.340  1.00  0.00     0.048 A 
ENDBRANCH  12  14
ENDBRANCH   8  12
BRANCH   1  21
HETATM   21  N1  UNL     1       3.467   0.249   0.994  1.00  0.00    -0.285 N 
HETATM   22  H4  UNL     1       3.933   0.231   1.926  1.00  0.00     0.178 HD
BRANCH  21  23
HETATM   23  S1  UNL     1       3.475   1.602  -0.111  1.00  0.00     0.112 S 
HETATM   24  C1  UNL     1       5.129   2.274  -0.161  1.00  0.00     0.152 C 
HETATM   25  O1  UNL     1       2.576   2.670   0.520  1.00  0.00    -0.236 OA
ENDBRANCH  21  23
ENDBRANCH   1  21
TORSDOF 4
