REMARK  7 active torsions:
REMARK  status: ('A' for Active; 'I' for Inactive)
REMARK    1  A    between atoms: C2_2  and  S1_3 
REMARK    2  A    between atoms: S1_3  and  N1_6 
REMARK    3  A    between atoms: N1_6  and  C3_7 
REMARK    4  A    between atoms: C3_7  and  C5_9 
REMARK    5  A    between atoms: C5_9  and  C6_10 
REMARK    6  A    between atoms: C7_11  and  N2_12 
REMARK    7  A    between atoms: N2_12  and  C8_13 
ROOT
HETATM    1  C6  UNL     1       0.084  -0.580  -0.255  1.00  0.00     0.008 A 
HETATM    2  C7  UNL     1      -1.246  -0.648  -0.843  1.00  0.00     0.135 A 
HETATM    3  N3  UNL     1      -1.784  -1.717  -1.278  1.00  0.00    -0.243 NA
HETATM    4  C14 UNL     1      -1.079  -2.946  -1.216  1.00  0.00     0.116 A 
HETATM    5  C15 UNL     1       0.142  -2.930  -0.704  1.00  0.00     0.013 A 
HETATM    6  C16 UNL     1       0.942  -1.816  -0.166  1.00  0.00     0.118 A 
HETATM    7 BR1  UNL     1       2.547  -1.549  -1.211  1.00  0.00    -0.082 Br
ENDROOT
BRANCH   1   8
HETATM    8  C5  UNL     1       0.744   0.384   0.253  1.00  0.00     0.041 C 
BRANCH   8   9
HETATM    9  C3  UNL     1       1.648   1.343   0.866  1.00  0.00     0.034 C 
HETATM   10  C4  UNL     1       1.590   2.635   1.144  1.00  0.00     0.043 C 
BRANCH   9  11
HETATM   11  N1  UNL     1       2.944   0.970   1.353  1.00  0.00    -0.282 N 
HETATM   12  H4  UNL     1       3.298   1.029   0.341  1.00  0.00     0.179 HD
BRANCH  11  13
HETATM   13  S1  UNL     1       4.494   0.524   1.933  1.00  0.00     0.252 S 
HETATM   14  O1  UNL     1       4.306   0.267   3.431  1.00  0.00    -0.201 OA
HETATM   15  O2  UNL     1       5.509   1.623   1.841  1.00  0.00    -0.201 OA
BRANCH  13  16
HETATM   16  C2  UNL     1       5.067  -0.962   1.260  1.00  0.00     0.121 C 
HETATM   17  C1  UNL     1       6.236  -0.908   0.604  1.00  0.00     0.025 C 
ENDBRANCH  13  16
ENDBRANCH  11  13
ENDBRANCH   9  11
ENDBRANCH   8   9
ENDBRANCH   1   8
BRANCH   2  18
HETATM   18  N2  UNL     1      -1.925   0.591  -0.906  1.00  0.00    -0.341 N 
HETATM   19  H8  UNL     1      -1.375   1.465  -1.047  1.00  0.00     0.167 HD
BRANCH  18  20
HETATM   20  C8  UNL     1      -3.340   0.679  -0.794  1.00  0.00     0.033 A 
HETATM   21  C9  UNL     1      -3.936   0.687   0.475  1.00  0.00     0.029 A 
HETATM   22  C10 UNL     1      -5.303   0.791   0.613  1.00  0.00     0.002 A 
HETATM   23  C11 UNL     1      -6.073   0.886  -0.533  1.00  0.00     0.000 A 
HETATM   24  C12 UNL     1      -5.476   0.877  -1.786  1.00  0.00     0.002 A 
HETATM   25  C13 UNL     1      -4.104   0.774  -1.943  1.00  0.00     0.029 A 
ENDBRANCH  18  20
ENDBRANCH   2  18
TORSDOF 7
