REMARK  9 active torsions:
REMARK  status: ('A' for Active; 'I' for Inactive)
REMARK    1  A    between atoms: C2_2  and  S1_3 
REMARK    2  A    between atoms: S1_3  and  N1_6 
REMARK    3  A    between atoms: N1_6  and  C3_7 
REMARK    4  A    between atoms: C3_7  and  C4_8 
REMARK    5  A    between atoms: C4_8  and  C5_9 
REMARK    6  A    between atoms: C10_16  and  C11_17 
REMARK    7  A    between atoms: C11_17  and  C12_18 
REMARK    8  A    between atoms: C12_18  and  C13_19 
REMARK    9  A    between atoms: C13_19  and  C14_20 
ROOT
HETATM    1  C5  UNL     1       0.159  -0.528  -0.058  1.00  0.00     0.032 A 
HETATM    2  C6  UNL     1       0.354  -1.898  -0.837  1.00  0.00     0.242 A 
HETATM    3  C7  UNL     1      -0.309  -2.751  -1.427  1.00  0.00     0.178 A 
HETATM    4  C8  UNL     1       0.597  -2.774  -0.184  1.00  0.00     0.318 A 
HETATM    5  N2  UNL     1       1.884  -1.962  -0.633  1.00  0.00     0.033 N 
HETATM    6  C9  UNL     1       2.220  -3.277  -1.368  1.00  0.00     0.305 A 
HETATM    7  N3  UNL     1       1.041  -3.059  -1.418  1.00  0.00    -0.322 N 
HETATM    8  C10 UNL     1       1.578  -0.794   0.019  1.00  0.00     0.156 A 
ENDROOT
BRANCH   1   9
HETATM    9  C4  UNL     1      -0.673   0.412   0.328  1.00  0.00     0.002 C 
BRANCH   9  10
HETATM   10  C3  UNL     1      -2.109   0.368   0.008  1.00  0.00     0.132 C 
BRANCH  10  11
HETATM   11  N1  UNL     1      -2.523   1.458  -0.893  1.00  0.00    -0.216 NA
HETATM   12  H4  UNL     1      -2.276   2.354  -0.395  1.00  0.00     0.139 HD
BRANCH  11  13
HETATM   13  S1  UNL     1      -4.221   1.356  -1.226  1.00  0.00     0.215 S 
HETATM   14  O1  UNL     1      -4.572   2.526  -2.104  1.00  0.00    -0.211 OA
HETATM   15  O2  UNL     1      -4.551   0.069  -1.871  1.00  0.00    -0.211 OA
BRANCH  13  16
HETATM   16  C2  UNL     1      -5.121   1.536   0.265  1.00  0.00     0.144 C 
HETATM   17  C1  UNL     1      -6.053   0.612   0.548  1.00  0.00     0.024 C 
ENDBRANCH  13  16
ENDBRANCH  11  13
ENDBRANCH  10  11
ENDBRANCH   9  10
ENDBRANCH   1   9
BRANCH   8  18
HETATM   18  C11 UNL     1       2.522   0.045   0.640  1.00  0.00     0.035 C 
BRANCH  18  19
HETATM   19  C12 UNL     1       3.961   0.009   0.870  1.00  0.00    -0.014 C 
BRANCH  19  20
HETATM   20  C13 UNL     1       4.287   1.097   1.508  1.00  0.00     0.060 C 
BRANCH  20  21
HETATM   21  C14 UNL     1       4.912   2.185   2.207  1.00  0.00    -0.012 C 
HETATM   22  C15 UNL     1       3.704   2.786   2.150  1.00  0.00     0.027 C 
HETATM   23 BR1  UNL     1       6.588   2.683   2.915  1.00  0.00    -0.056 Br
ENDBRANCH  20  21
ENDBRANCH  19  20
ENDBRANCH  18  19
ENDBRANCH   8  18
TORSDOF 9
