REMARK  5 active torsions:
REMARK  status: ('A' for Active; 'I' for Inactive)
REMARK    1  A    between atoms: S1_2  and  C1_4 
REMARK    2  A    between atoms: S1_2  and  C3_7 
REMARK    3  A    between atoms: C1_4  and  C2_5 
REMARK    4  A    between atoms: C2_5  and  O3_6 
REMARK    5  A    between atoms: N4_17  and  C10_18 
ROOT
HETATM    1  C3  UNL     1       1.284   0.464   0.018  1.00  0.00     0.153 C 
HETATM    2  C4  UNL     1       0.183   0.104   0.771  1.00  0.00     0.077 C 
HETATM    3  C5  UNL     1      -1.082   0.131   0.221  1.00  0.00     0.091 A 
HETATM    4  C6  UNL     1      -1.652   1.134  -0.492  1.00  0.00     0.164 A 
HETATM    5  N1  UNL     1      -0.954   2.241  -0.714  1.00  0.00    -0.222 NA
HETATM    6  C7  UNL     1      -1.186   3.347  -0.029  1.00  0.00     0.235 C 
HETATM    7  N2  UNL     1      -0.144   4.155  -0.087  1.00  0.00    -0.253 NA
HETATM    8  C8  UNL     1       1.152   3.803  -0.112  1.00  0.00     0.137 C 
HETATM    9  C9  UNL     1       1.829   2.653   0.315  1.00  0.00     0.137 C 
HETATM   10  N3  UNL     1       1.690   1.618  -0.565  1.00  0.00    -0.248 NA
HETATM   11  N4  UNL     1      -2.418  -0.076  -0.251  1.00  0.00    -0.289 N 
ENDROOT
BRANCH   1  12
HETATM   12  S1  UNL     1       2.434  -0.809  -0.276  1.00  0.00     0.195 S 
HETATM   13  O1  UNL     1       2.038  -2.130   0.263  1.00  0.00    -0.221 OA
HETATM   14  O2  UNL     1       2.573  -0.898  -1.789  1.00  0.00    -0.221 OA
BRANCH  12  15
HETATM   15  C1  UNL     1       4.051  -0.437   0.364  1.00  0.00     0.173 C 
BRANCH  15  16
HETATM   16  C2  UNL     1       5.023  -1.586   0.079  1.00  0.00     0.179 C 
BRANCH  16  17
HETATM   17  O3  UNL     1       6.286  -1.294   0.580  1.00  0.00    -0.400 OA
HETATM   18  H5  UNL     1       6.857  -2.067   0.338  1.00  0.00     0.209 HD
ENDBRANCH  16  17
ENDBRANCH  15  16
ENDBRANCH  12  15
ENDBRANCH   1  12
BRANCH  11  19
HETATM   19  C10 UNL     1      -3.568  -0.911  -0.348  1.00  0.00     0.055 A 
HETATM   20  C11 UNL     1      -4.162  -1.340   0.758  1.00  0.00     0.019 A 
HETATM   21 BR1  UNL     1      -3.925  -1.162   2.642  1.00  0.00    -0.053 Br
HETATM   22  C12 UNL     1      -5.345  -2.200   0.412  1.00  0.00     0.076 A 
HETATM   23  C13 UNL     1      -5.289  -2.164  -1.067  1.00  0.00    -0.019 A 
HETATM   24  C14 UNL     1      -4.274  -1.428  -1.508  1.00  0.00     0.027 A 
ENDBRANCH  11  19
TORSDOF 5
