REMARK  5 active torsions:
REMARK  status: ('A' for Active; 'I' for Inactive)
REMARK    1  A    between atoms: C2_2  and  S1_3 
REMARK    2  A    between atoms: S1_3  and  N1_6 
REMARK    3  A    between atoms: N1_6  and  C3_7 
REMARK    4  A    between atoms: C10_15  and  N3_16 
REMARK    5  A    between atoms: N3_16  and  C11_17 
ROOT
HETATM    1  C3  UNL     1       1.937  -0.535  -0.609  1.00  0.00     0.040 C 
HETATM    2  C4  UNL     1       1.870   0.843  -0.886  1.00  0.00     0.011 C 
HETATM    3  C5  UNL     1       0.803   1.885  -0.379  1.00  0.00     0.109 C 
HETATM    4  C6  UNL     1       0.028   1.077   0.638  1.00  0.00     0.127 C 
HETATM    5  N2  UNL     1       0.137   1.053   1.988  1.00  0.00    -0.270 NA
HETATM    6  C7  UNL     1       0.479  -0.386   2.387  1.00  0.00     0.193 C 
HETATM    7  C8  UNL     1       0.220  -1.084   0.996  1.00  0.00     0.010 C 
HETATM    8  C9  UNL     1       1.319  -1.655   0.261  1.00  0.00     0.042 C 
HETATM    9  C10 UNL     1      -1.227  -0.966   0.479  1.00  0.00     0.138 C 
HETATM   10  N4  UNL     1      -0.684   0.041  -0.099  1.00  0.00    -0.215 NA
ENDROOT
BRANCH   9  11
HETATM   11  N3  UNL     1      -2.553  -1.468   0.394  1.00  0.00    -0.340 N 
HETATM   12  H11 UNL     1      -2.481  -2.431   0.851  1.00  0.00     0.167 HD
BRANCH  11  13
HETATM   13  C11 UNL     1      -3.531  -0.668  -0.218  1.00  0.00     0.035 A 
HETATM   14  C12 UNL     1      -3.843  -0.706  -1.563  1.00  0.00     0.029 A 
HETATM   15  C13 UNL     1      -4.835   0.140  -2.050  1.00  0.00     0.004 A 
HETATM   16  C14 UNL     1      -5.480   0.992  -1.180  1.00  0.00     0.019 A 
HETATM   17  C15 UNL     1      -5.189   1.052   0.166  1.00  0.00     0.013 A 
HETATM   18 BR1  UNL     1      -6.092   2.240   1.358  1.00  0.00    -0.051 Br
HETATM   19  C16 UNL     1      -4.202   0.207   0.638  1.00  0.00     0.048 A 
ENDBRANCH  11  13
ENDBRANCH   9  11
BRANCH   1  20
HETATM   20  N1  UNL     1       2.968  -1.057  -1.471  1.00  0.00    -0.282 N 
HETATM   21  H4  UNL     1       2.839  -1.327  -2.489  1.00  0.00     0.179 HD
BRANCH  20  22
HETATM   22  S1  UNL     1       4.540  -1.256  -0.779  1.00  0.00     0.252 S 
HETATM   23  O1  UNL     1       5.476  -1.945  -1.697  1.00  0.00    -0.201 OA
HETATM   24  O2  UNL     1       4.391  -2.159   0.431  1.00  0.00    -0.201 OA
BRANCH  22  25
HETATM   25  C2  UNL     1       5.190   0.279  -0.246  1.00  0.00     0.121 C 
HETATM   26  C1  UNL     1       4.511   0.898   0.699  1.00  0.00     0.025 C 
ENDBRANCH  22  25
ENDBRANCH  20  22
ENDBRANCH   1  20
TORSDOF 5
