REMARK  6 active torsions:
REMARK  status: ('A' for Active; 'I' for Inactive)
REMARK    1  A    between atoms: C2_2  and  S1_3 
REMARK    2  A    between atoms: S1_3  and  N1_6 
REMARK    3  A    between atoms: N1_6  and  C3_7 
REMARK    4  A    between atoms: C5_9  and  C6_10 
REMARK    5  A    between atoms: C7_11  and  N2_12 
REMARK    6  A    between atoms: N2_12  and  C8_13 
ROOT
HETATM    1  C6  UNL     1      -0.558  -1.827   1.351  1.00  0.00     0.040 A 
HETATM    2  C7  UNL     1      -0.876  -1.763   0.023  1.00  0.00     0.142 A 
HETATM    3  N3  UNL     1      -1.823  -2.600  -0.481  1.00  0.00    -0.224 NA
HETATM    4  C14 UNL     1      -2.447  -3.493   0.338  1.00  0.00     0.235 A 
HETATM    5  N4  UNL     1      -2.126  -3.547   1.644  1.00  0.00    -0.242 NA
HETATM    6  C15 UNL     1      -1.197  -2.730   2.154  1.00  0.00     0.062 A 
HETATM    7  C16 UNL     1      -0.895  -2.796   3.425  1.00  0.00     0.046 C 
ENDROOT
BRANCH   1   8
HETATM    8  C5  UNL     1       0.358  -1.013   1.749  1.00  0.00     0.043 C 
HETATM    9  C3  UNL     1       1.295   0.024   1.452  1.00  0.00     0.021 C 
HETATM   10  C4  UNL     1       2.118   0.597   2.312  1.00  0.00     0.063 C 
BRANCH   9  11
HETATM   11  N1  UNL     1       1.606   0.686   0.252  1.00  0.00    -0.288 N 
HETATM   12  H4  UNL     1       0.684   1.218   0.273  1.00  0.00     0.178 HD
BRANCH  11  13
HETATM   13  S1  UNL     1       2.631   1.036  -1.076  1.00  0.00     0.231 S 
HETATM   14  O1  UNL     1       2.998  -0.250  -1.787  1.00  0.00    -0.206 OA
HETATM   15  O2  UNL     1       1.976   1.963  -2.056  1.00  0.00    -0.206 OA
BRANCH  13  16
HETATM   16  C2  UNL     1       4.155   1.757  -0.580  1.00  0.00     0.110 C 
HETATM   17  C1  UNL     1       4.142   2.556   0.472  1.00  0.00     0.070 C 
ENDBRANCH  13  16
ENDBRANCH  11  13
ENDBRANCH   9  11
ENDBRANCH   1   8
BRANCH   2  18
HETATM   18  N2  UNL     1      -0.438  -0.956  -1.048  1.00  0.00    -0.340 N 
HETATM   19  H8  UNL     1       0.407  -1.040  -1.603  1.00  0.00     0.167 HD
BRANCH  18  20
HETATM   20  C8  UNL     1      -1.369   0.108  -1.338  1.00  0.00     0.035 A 
HETATM   21  C9  UNL     1      -2.491   0.351  -0.578  1.00  0.00     0.029 A 
HETATM   22  C10 UNL     1      -3.369   1.389  -0.897  1.00  0.00     0.004 A 
HETATM   23  C11 UNL     1      -3.121   2.201  -1.999  1.00  0.00     0.019 A 
HETATM   24  C12 UNL     1      -1.997   1.970  -2.773  1.00  0.00     0.013 A 
HETATM   25 BR1  UNL     1      -1.625   3.052  -4.281  1.00  0.00    -0.051 Br
HETATM   26  C13 UNL     1      -1.160   0.933  -2.417  1.00  0.00     0.048 A 
ENDBRANCH  18  20
ENDBRANCH   2  18
TORSDOF 6
