REMARK  6 active torsions:
REMARK  status: ('A' for Active; 'I' for Inactive)
REMARK    1  A    between atoms: C2_2  and  S1_3 
REMARK    2  A    between atoms: S1_3  and  C3_6 
REMARK    3  A    between atoms: C3_6  and  C4_7 
REMARK    4  A    between atoms: C4_7  and  N1_8 
REMARK    5  A    between atoms: C4_7  and  O3_21 
REMARK    6  A    between atoms: C5_9  and  C6_10 
ROOT
HETATM    1  C6  UNL     1       1.218  -1.528   0.412  1.00  0.00     0.106 C 
HETATM    2  N2  UNL     1       1.672  -0.665  -0.300  1.00  0.00    -0.402 NA
HETATM    3  C7  UNL     1       1.876   0.332  -1.148  1.00  0.00     0.295 C 
HETATM    4  N3  UNL     1       3.026   0.705  -1.017  1.00  0.00    -0.242 NA
HETATM    5  C8  UNL     1       4.150   1.430  -1.223  1.00  0.00     0.420 C 
HETATM    6  N4  UNL     1       5.265   1.161  -0.246  1.00  0.00     0.107 NA
HETATM    7  C9  UNL     1       4.558   1.088   1.073  1.00  0.00     0.318 C 
HETATM    8  C10 UNL     1       3.834  -0.222   0.975  1.00  0.00     0.013 C 
HETATM    9 BR1  UNL     1       2.745   0.197   2.480  1.00  0.00    -0.054 Br
HETATM   10  C11 UNL     1       3.642  -1.444   0.389  1.00  0.00    -0.003 C 
HETATM   11  C12 UNL     1       2.457  -2.116   1.104  1.00  0.00     0.102 C 
HETATM   12  H13 UNL     1       5.762   0.305  -0.441  1.00  0.00     0.318 HD
ENDROOT
BRANCH   1  13
HETATM   13  C5  UNL     1      -0.249  -1.772   0.511  1.00  0.00     0.154 C 
HETATM   14  N1  UNL     1      -0.238  -0.785  -0.311  1.00  0.00    -0.266 NA
BRANCH  14  15
HETATM   15  C4  UNL     1      -1.544  -0.306  -0.798  1.00  0.00     0.256 C 
BRANCH  15  16
HETATM   16  C3  UNL     1      -2.569  -0.590   0.250  1.00  0.00     0.195 C 
BRANCH  16  17
HETATM   17  S1  UNL     1      -4.154  -0.017  -0.278  1.00  0.00     0.148 S 
HETATM   18  O1  UNL     1      -4.132   1.433  -0.640  1.00  0.00    -0.228 OA
HETATM   19  O2  UNL     1      -4.560  -0.783  -1.502  1.00  0.00    -0.228 OA
BRANCH  17  20
HETATM   20  C2  UNL     1      -5.403  -0.330   0.947  1.00  0.00     0.136 C 
HETATM   21  C1  UNL     1      -5.081   0.352   2.253  1.00  0.00     0.021 C 
ENDBRANCH  17  20
ENDBRANCH  16  17
ENDBRANCH  15  16
BRANCH  15  22
HETATM   22  O3  UNL     1      -1.350   1.044  -1.051  1.00  0.00    -0.369 OA
HETATM   23  C13 UNL     1      -1.418   1.396  -2.376  1.00  0.00     0.204 C 
ENDBRANCH  15  22
ENDBRANCH  14  15
ENDBRANCH   1  13
TORSDOF 6
