REMARK  1 active torsions:
REMARK  status: ('A' for Active; 'I' for Inactive)
REMARK    1  A    between atoms: N1_2  and  C2_3 
ROOT
HETATM    1  C2  UNL     1      -0.445   0.328  -0.351  1.00  0.00     0.367 C 
HETATM    2  N2  UNL     1       0.740   1.071  -0.313  1.00  0.00    -0.219 NA
HETATM    3  C3  UNL     1       1.297   2.048  -0.839  1.00  0.00     0.233 C 
HETATM    4  N3  UNL     1       2.524   2.744  -0.737  1.00  0.00    -0.231 NA
HETATM    5  C4  UNL     1       3.704   2.308  -0.476  1.00  0.00     0.254 C 
HETATM    6  O1  UNL     1       4.347   0.999  -0.175  1.00  0.00    -0.325 OA
HETATM    7  C5  UNL     1       3.257   0.078   0.076  1.00  0.00     0.111 A 
HETATM    8  C6  UNL     1       3.358   0.488   1.356  1.00  0.00     0.001 A 
HETATM    9  C7  UNL     1       2.299  -0.375   1.230  1.00  0.00     0.092 A 
HETATM   10  C8  UNL     1       2.036  -0.893   0.005  1.00  0.00     0.127 A 
HETATM   11  C9  UNL     1       2.335  -1.002  -1.315  1.00  0.00     0.015 A 
HETATM   12  C10 UNL     1       3.406  -0.145  -1.254  1.00  0.00     0.015 A 
HETATM   13  O2  UNL     1       0.878  -1.667   0.262  1.00  0.00    -0.344 OA
HETATM   14  C11 UNL     1      -0.338  -0.944   0.426  1.00  0.00     0.292 C 
HETATM   15  N4  UNL     1      -1.444  -1.827   0.273  1.00  0.00    -0.216 NA
HETATM   16 BR1  UNL     1      -0.768  -3.574  -0.088  1.00  0.00     0.015 Br
HETATM   17  C12 UNL     1      -2.193  -1.960   1.519  1.00  0.00     0.109 C 
HETATM   18  C13 UNL     1      -3.452  -1.178   1.395  1.00  0.00     0.044 C 
HETATM   19  C14 UNL     1      -3.252   0.261   1.686  1.00  0.00    -0.009 C 
HETATM   20  C15 UNL     1      -2.485   1.216   1.250  1.00  0.00     0.083 C 
HETATM   21  N5  UNL     1      -1.482   1.201   0.247  1.00  0.00    -0.344 N 
HETATM   22  H18 UNL     1      -1.384   2.105  -0.313  1.00  0.00     0.163 HD
ENDROOT
BRANCH   1  23
HETATM   23  N1  UNL     1      -0.766   0.127  -1.762  1.00  0.00     0.135 N 
HETATM   24  C1  UNL     1      -2.043  -0.448  -2.010  1.00  0.00     0.312 C 
HETATM   25  H4  UNL     1      -0.713   1.045  -2.258  1.00  0.00     0.321 HD
ENDBRANCH   1  23
TORSDOF 1
