REMARK  8 active torsions:
REMARK  status: ('A' for Active; 'I' for Inactive)
REMARK    1  A    between atoms: C1_2  and  N2_3 
REMARK    2  A    between atoms: N2_3  and  C2_4 
REMARK    3  A    between atoms: C2_4  and  C3_5 
REMARK    4  A    between atoms: C5_7  and  S1_8 
REMARK    5  A    between atoms: S1_8  and  C6_11 
REMARK    6  A    between atoms: C6_11  and  N3_12 
REMARK    7  A    between atoms: C9_15  and  N4_16 
REMARK    8  A    between atoms: N4_16  and  C10_17 
ROOT
HETATM    1  C3  UNL     1      -0.586   0.759   1.046  1.00  0.00     0.038 A 
HETATM    2  C4  UNL     1      -2.064   0.654   1.016  1.00  0.00     0.102 A 
HETATM    3  C5  UNL     1      -2.469   0.755  -0.410  1.00  0.00     0.043 A 
HETATM    4  C7  UNL     1      -1.722   0.909  -1.492  1.00  0.00     0.022 A 
HETATM    5  C8  UNL     1      -0.276   0.999  -1.312  1.00  0.00     0.032 A 
HETATM    6  C9  UNL     1       0.281   0.930  -0.111  1.00  0.00     0.048 A 
ENDROOT
BRANCH   6   7
HETATM    7  N4  UNL     1       1.667   1.007   0.159  1.00  0.00    -0.355 N 
HETATM    8  H11 UNL     1       2.016   1.638   0.937  1.00  0.00     0.166 HD
BRANCH   7   9
HETATM    9  C10 UNL     1       2.896   0.472  -0.299  1.00  0.00     0.033 A 
HETATM   10  C11 UNL     1       3.344  -0.715   0.275  1.00  0.00     0.029 A 
HETATM   11  C12 UNL     1       4.544  -1.272  -0.143  1.00  0.00     0.004 A 
HETATM   12  C13 UNL     1       5.252  -0.608  -1.129  1.00  0.00     0.019 A 
HETATM   13  C14 UNL     1       4.803   0.568  -1.695  1.00  0.00     0.013 A 
HETATM   14 BR1  UNL     1       5.827   1.450  -3.061  1.00  0.00    -0.051 Br
HETATM   15  C15 UNL     1       3.606   1.127  -1.280  1.00  0.00     0.048 A 
ENDBRANCH   7   9
ENDBRANCH   6   7
BRANCH   1  16
HETATM   16  C2  UNL     1      -0.086   0.677   2.266  1.00  0.00    -0.005 C 
BRANCH  16  17
HETATM   17  N2  UNL     1       0.459   0.215   3.340  1.00  0.00    -0.200 NA
BRANCH  17  18
HETATM   18  C1  UNL     1       0.788  -1.187   3.401  1.00  0.00     0.233 C 
HETATM   19  N1  UNL     1      -0.049  -1.584   4.301  1.00  0.00    -0.293 NA
HETATM   20  H1  UNL     1      -0.718  -0.919   4.759  1.00  0.00     0.187 HD
ENDBRANCH  17  18
ENDBRANCH  16  17
ENDBRANCH   1  16
BRANCH   3  21
HETATM   21  S1  UNL     1      -4.205   0.649  -0.632  1.00  0.00     0.198 S 
HETATM   22  O1  UNL     1      -4.652   1.378  -1.865  1.00  0.00    -0.221 OA
HETATM   23  O2  UNL     1      -4.949   1.272   0.515  1.00  0.00    -0.221 OA
BRANCH  21  24
HETATM   24  C6  UNL     1      -4.628  -1.062  -0.845  1.00  0.00     0.410 C 
BRANCH  24  25
HETATM   25  N3  UNL     1      -3.922  -1.545  -2.013  1.00  0.00     0.092 N 
HETATM   26  H7  UNL     1      -2.949  -1.867  -1.792  1.00  0.00     0.314 HD
HETATM   27  H8  UNL     1      -3.831  -0.832  -2.766  1.00  0.00     0.314 HD
ENDBRANCH  24  25
ENDBRANCH  21  24
ENDBRANCH   3  21
TORSDOF 8
