REMARK  8 active torsions:
REMARK  status: ('A' for Active; 'I' for Inactive)
REMARK    1  A    between atoms: S1_2  and  C1_4 
REMARK    2  A    between atoms: S1_2  and  C3_7 
REMARK    3  A    between atoms: C1_4  and  C2_5 
REMARK    4  A    between atoms: C2_5  and  O3_6 
REMARK    5  A    between atoms: C6_10  and  N1_11 
REMARK    6  A    between atoms: N1_11  and  C7_12 
REMARK    7  A    between atoms: C8_13  and  C9_14 
REMARK    8  A    between atoms: C10_15  and  C11_16 
ROOT
HETATM    1  C3  UNL     1      -2.453   0.339  -0.991  1.00  0.00     0.151 A 
HETATM    2  C4  UNL     1      -1.258   0.476  -0.299  1.00  0.00     0.061 A 
HETATM    3  C5  UNL     1      -0.462  -0.564   0.124  1.00  0.00     0.043 A 
HETATM    4  C6  UNL     1       0.726  -0.499   0.822  1.00  0.00     0.141 A 
HETATM    5  N2  UNL     1       1.365  -1.621   1.167  1.00  0.00    -0.224 NA
HETATM    6  C12 UNL     1       0.935  -2.855   0.881  1.00  0.00     0.236 A 
HETATM    7  N3  UNL     1      -0.207  -2.915   0.210  1.00  0.00    -0.240 NA
HETATM    8  C13 UNL     1      -0.881  -1.847  -0.157  1.00  0.00     0.089 A 
HETATM    9  C14 UNL     1      -2.066  -1.987  -0.844  1.00  0.00     0.150 A 
HETATM   10  N4  UNL     1      -2.790  -0.939  -1.226  1.00  0.00    -0.247 NA
ENDROOT
BRANCH   4  11
HETATM   11  N1  UNL     1       1.216   0.796   1.137  1.00  0.00    -0.350 N 
HETATM   12  H7  UNL     1       1.645   1.711   1.284  1.00  0.00     0.166 HD
BRANCH  11  13
HETATM   13  C7  UNL     1       2.244   0.783   0.101  1.00  0.00     0.090 C 
HETATM   14  C8  UNL     1       3.552   0.482   0.258  1.00  0.00     0.017 C 
BRANCH  14  15
HETATM   15  C9  UNL     1       4.434   0.091   1.327  1.00  0.00    -0.000 C 
HETATM   16  C10 UNL     1       5.691  -0.213   1.571  1.00  0.00     0.004 C 
BRANCH  16  17
HETATM   17  C11 UNL     1       6.936  -0.308   0.793  1.00  0.00     0.249 C 
HETATM   18  F1  UNL     1       6.719   0.000  -0.545  1.00  0.00    -0.251 F 
ENDBRANCH  16  17
ENDBRANCH  14  15
ENDBRANCH  11  13
ENDBRANCH   4  11
BRANCH   1  19
HETATM   19  S1  UNL     1      -3.384   1.737  -1.459  1.00  0.00     0.194 S 
HETATM   20  O1  UNL     1      -3.543   1.798  -2.955  1.00  0.00    -0.221 OA
HETATM   21  O2  UNL     1      -2.671   2.974  -0.948  1.00  0.00    -0.221 OA
BRANCH  19  22
HETATM   22  C1  UNL     1      -4.966   1.648  -0.697  1.00  0.00     0.173 C 
BRANCH  22  23
HETATM   23  C2  UNL     1      -5.805   0.476  -1.047  1.00  0.00     0.179 C 
BRANCH  23  24
HETATM   24  O3  UNL     1      -5.318  -0.765  -0.734  1.00  0.00    -0.400 OA
HETATM   25  H5  UNL     1      -5.553  -1.070   0.186  1.00  0.00     0.209 HD
ENDBRANCH  23  24
ENDBRANCH  22  23
ENDBRANCH  19  22
ENDBRANCH   1  19
TORSDOF 8
