REMARK  8 active torsions:
REMARK  status: ('A' for Active; 'I' for Inactive)
REMARK    1  A    between atoms: S1_2  and  C1_4 
REMARK    2  A    between atoms: S1_2  and  O4_7 
REMARK    3  A    between atoms: C1_4  and  C2_5 
REMARK    4  A    between atoms: C2_5  and  O3_6 
REMARK    5  A    between atoms: O4_7  and  N1_8 
REMARK    6  A    between atoms: C3_9  and  C4_10 
REMARK    7  A    between atoms: C6_13  and  N3_14 
REMARK    8  A    between atoms: N3_14  and  C7_15 
ROOT
HETATM    1  C4  UNL     1       0.117   0.503   0.874  1.00  0.00     0.095 A 
HETATM    2  C5  UNL     1       0.218  -0.634   1.872  1.00  0.00     0.106 A 
HETATM    3  N2  UNL     1       1.239  -1.399   1.620  1.00  0.00    -0.247 NA
HETATM    4  C6  UNL     1       1.878  -0.854   0.474  1.00  0.00     0.124 A 
HETATM    5  C13 UNL     1       1.263   0.246   0.008  1.00  0.00     0.039 A 
ENDROOT
BRANCH   1   6
HETATM    6  C3  UNL     1      -1.208   0.347   0.214  1.00  0.00     0.134 C 
HETATM    7  N1  UNL     1      -2.176   1.234   0.297  1.00  0.00    -0.131 NA
BRANCH   7   8
HETATM    8  O4  UNL     1      -3.377   0.936  -0.386  1.00  0.00    -0.127 OA
BRANCH   8   9
HETATM    9  S1  UNL     1      -4.164  -0.474   0.186  1.00  0.00     0.289 S 
HETATM   10  O1  UNL     1      -3.375  -1.664  -0.265  1.00  0.00    -0.197 OA
HETATM   11  O2  UNL     1      -4.197  -0.357   1.696  1.00  0.00    -0.197 OA
BRANCH   9  12
HETATM   12  C1  UNL     1      -5.816  -0.619  -0.370  1.00  0.00     0.198 C 
BRANCH  12  13
HETATM   13  C2  UNL     1      -6.655   0.565   0.095  1.00  0.00     0.181 C 
BRANCH  13  14
HETATM   14  O3  UNL     1      -7.949   0.355  -0.389  1.00  0.00    -0.400 OA
HETATM   15  H5  UNL     1      -7.915   0.553  -1.365  1.00  0.00     0.209 HD
ENDBRANCH  13  14
ENDBRANCH  12  13
ENDBRANCH   9  12
ENDBRANCH   8   9
ENDBRANCH   7   8
ENDBRANCH   1   6
BRANCH   4  16
HETATM   16  N3  UNL     1       3.049  -1.373  -0.164  1.00  0.00    -0.341 N 
HETATM   17  H9  UNL     1       3.005  -2.324  -0.586  1.00  0.00     0.167 HD
BRANCH  16  18
HETATM   18  C7  UNL     1       4.248  -0.595  -0.214  1.00  0.00     0.034 A 
HETATM   19  C8  UNL     1       5.282  -0.765   0.683  1.00  0.00     0.029 A 
HETATM   20  C9  UNL     1       6.434  -0.010   0.629  1.00  0.00     0.004 A 
HETATM   21  C10 UNL     1       6.541   0.958  -0.377  1.00  0.00     0.019 A 
HETATM   22  C11 UNL     1       5.481   1.107  -1.266  1.00  0.00     0.013 A 
HETATM   23 BR1  UNL     1       5.606   2.430  -2.623  1.00  0.00    -0.051 Br
HETATM   24  C12 UNL     1       4.337   0.355  -1.211  1.00  0.00     0.048 A 
ENDBRANCH  16  18
ENDBRANCH   4  16
TORSDOF 8
