REMARK  2 active torsions:
REMARK  status: ('A' for Active; 'I' for Inactive)
REMARK    1  A    between atoms: C9_12  and  N4_13 
REMARK    2  A    between atoms: N4_13  and  C10_14 
ROOT
HETATM    1  C1  UNL     1      -0.483   2.038   1.983  1.00  0.00     0.037 C 
HETATM    2  C2  UNL     1      -1.074   1.012   1.455  1.00  0.00     0.070 C 
HETATM    3  C3  UNL     1      -0.856   0.446   0.127  1.00  0.00     0.034 C 
HETATM    4  C4  UNL     1      -1.910  -0.300  -0.409  1.00  0.00     0.061 C 
HETATM    5  C5  UNL     1      -3.012  -0.365   0.433  1.00  0.00     0.156 C 
HETATM    6  N1  UNL     1      -4.146  -0.580  -0.317  1.00  0.00    -0.247 NA
HETATM    7  C6  UNL     1      -4.330   0.222  -1.421  1.00  0.00     0.137 C 
HETATM    8  C7  UNL     1      -3.319   1.100  -1.796  1.00  0.00     0.137 C 
HETATM    9  N2  UNL     1      -2.277   1.846  -2.213  1.00  0.00    -0.253 NA
HETATM   10  C8  UNL     1      -1.034   1.300  -2.388  1.00  0.00     0.234 C 
HETATM   11  N3  UNL     1       0.099   0.640  -1.992  1.00  0.00    -0.224 NA
HETATM   12  C9  UNL     1       0.303   0.640  -0.639  1.00  0.00     0.141 C 
HETATM   13  S1  UNL     1      -2.334  -0.103   2.060  1.00  0.00     0.224 S 
HETATM   14  O1  UNL     1      -1.737  -1.341   2.612  1.00  0.00    -0.216 OA
HETATM   15  O2  UNL     1      -3.290   0.593   2.951  1.00  0.00    -0.216 OA
ENDROOT
BRANCH  12  16
HETATM   16  N4  UNL     1       1.592   0.835  -0.107  1.00  0.00    -0.340 N 
HETATM   17  H7  UNL     1       2.038   1.775   0.085  1.00  0.00     0.167 HD
BRANCH  16  18
HETATM   18  C10 UNL     1       2.508  -0.214   0.254  1.00  0.00     0.035 A 
HETATM   19  C11 UNL     1       3.793  -0.066   0.761  1.00  0.00     0.029 A 
HETATM   20  C12 UNL     1       4.557  -1.172   1.063  1.00  0.00     0.004 A 
HETATM   21  C13 UNL     1       4.094  -2.458   0.882  1.00  0.00     0.019 A 
HETATM   22  C14 UNL     1       2.808  -2.612   0.375  1.00  0.00     0.013 A 
HETATM   23 BR1  UNL     1       2.234  -4.416   0.151  1.00  0.00    -0.051 Br
HETATM   24  C15 UNL     1       2.049  -1.501   0.074  1.00  0.00     0.048 A 
ENDBRANCH  16  18
ENDBRANCH  12  16
TORSDOF 2
