REMARK  5 active torsions:
REMARK  status: ('A' for Active; 'I' for Inactive)
REMARK    1  A    between atoms: C2_2  and  S1_3 
REMARK    2  A    between atoms: S1_3  and  C3_6 
REMARK    3  A    between atoms: C9_15  and  N4_16 
REMARK    4  A    between atoms: N4_16  and  C10_17 
REMARK    5  A    between atoms: C11_18  and  C12_19 
ROOT
HETATM    1  C3  UNL     1      -2.582  -0.249   0.397  1.00  0.00     0.178 A 
HETATM    2  N1  UNL     1      -3.560  -1.127   0.812  1.00  0.00    -0.245 NA
HETATM    3  C4  UNL     1      -3.296  -2.442   0.879  1.00  0.00     0.150 A 
HETATM    4  C5  UNL     1      -2.111  -3.069   0.576  1.00  0.00     0.083 A 
HETATM    5  N2  UNL     1      -1.702  -4.340   0.598  1.00  0.00    -0.246 NA
HETATM    6  C6  UNL     1      -0.399  -4.384   0.191  1.00  0.00     0.227 A 
HETATM    7  N3  UNL     1       0.854  -4.073  -0.237  1.00  0.00    -0.265 NA
HETATM    8  C7  UNL     1      -0.047  -2.970  -0.089  1.00  0.00     0.170 A 
HETATM    9  C8  UNL     1      -1.130  -2.186   0.160  1.00  0.00     0.039 A 
HETATM   10  C9  UNL     1      -1.363  -0.837   0.076  1.00  0.00     0.084 A 
ENDROOT
BRANCH  10  11
HETATM   11  N4  UNL     1      -0.285  -0.092  -0.372  1.00  0.00    -0.363 N 
HETATM   12  H5  UNL     1       0.001   0.193   0.615  1.00  0.00     0.165 HD
BRANCH  11  13
HETATM   13  C10 UNL     1       0.785   0.644  -0.837  1.00  0.00     0.088 C 
HETATM   14  C11 UNL     1       2.078   0.349  -0.632  1.00  0.00     0.017 C 
BRANCH  14  15
HETATM   15  C12 UNL     1       3.092   1.225  -1.182  1.00  0.00    -0.003 C 
HETATM   16  C13 UNL     1       4.343   0.932  -0.977  1.00  0.00    -0.031 C 
HETATM   17  C14 UNL     1       4.767  -0.269  -0.200  1.00  0.00     0.036 C 
ENDBRANCH  14  15
ENDBRANCH  11  13
ENDBRANCH  10  11
BRANCH   1  18
HETATM   18  S1  UNL     1      -2.775   1.467   0.283  1.00  0.00     0.200 S 
HETATM   19  O1  UNL     1      -4.284   1.735   0.167  1.00  0.00    -0.221 OA
HETATM   20  O2  UNL     1      -2.158   2.078  -0.931  1.00  0.00    -0.221 OA
BRANCH  18  21
HETATM   21  C2  UNL     1      -2.265   2.294   1.757  1.00  0.00     0.134 C 
HETATM   22  C1  UNL     1      -2.262   3.613   1.549  1.00  0.00     0.023 C 
ENDBRANCH  18  21
ENDBRANCH   1  18
TORSDOF 5
