REMARK  6 active torsions:
REMARK  status: ('A' for Active; 'I' for Inactive)
REMARK    1  A    between atoms: S1_2  and  C2_4 
REMARK    2  A    between atoms: C2_4  and  N2_7 
REMARK    3  A    between atoms: C3_5  and  N1_6 
REMARK    4  A    between atoms: C4_8  and  P1_9 
REMARK    5  A    between atoms: P1_9  and  C5_10 
REMARK    6  A    between atoms: C7_12  and  C8_13 
ROOT
HETATM    1  C5  UNL     1      -0.219  -0.815  -0.005  1.00  0.00     0.066 A 
HETATM    2  C6  UNL     1      -1.367  -0.071  -0.186  1.00  0.00     0.065 A 
HETATM    3  C7  UNL     1      -2.627  -0.537   0.126  1.00  0.00     0.070 A 
HETATM    4  N3  UNL     1      -2.715  -1.782   0.630  1.00  0.00    -0.241 NA
HETATM    5  C14 UNL     1      -1.583  -2.525   0.812  1.00  0.00     0.234 A 
HETATM    6  N4  UNL     1      -0.353  -2.047   0.498  1.00  0.00    -0.241 NA
ENDROOT
BRANCH   1   7
HETATM    7  P1  UNL     1       1.436  -0.172  -0.427  1.00  0.00    -0.032 P 
HETATM    8  H8  UNL     1       1.373   1.022  -1.218  1.00  0.00     0.069 HD
BRANCH   7   9
HETATM    9  C4  UNL     1       2.293   0.108   1.180  1.00  0.00     0.127 C 
HETATM   10  N2  UNL     1       3.570  -0.092   1.393  1.00  0.00    -0.249 NA
BRANCH  10  11
HETATM   11  C2  UNL     1       4.299  -0.567   0.243  1.00  0.00     0.137 C 
HETATM   12  C3  UNL     1       4.647  -1.846   0.257  1.00  0.00     0.122 C 
BRANCH  11  13
HETATM   13  S1  UNL     1       4.498   0.797  -0.868  1.00  0.00     0.066 S 
HETATM   14  C1  UNL     1       5.453   2.064  -0.021  1.00  0.00     0.134 C 
HETATM   15  O1  UNL     1       5.352   0.335  -2.061  1.00  0.00    -0.252 OA
ENDBRANCH  11  13
BRANCH  12  16
HETATM   16  N1  UNL     1       4.327  -2.731   1.346  1.00  0.00    -0.406 N 
HETATM   17  H5  UNL     1       4.387  -2.356   2.313  1.00  0.00     0.155 HD
HETATM   18  H6  UNL     1       4.058  -3.693   1.032  1.00  0.00     0.155 HD
ENDBRANCH  12  16
ENDBRANCH  10  11
ENDBRANCH   7   9
ENDBRANCH   1   7
BRANCH   3  19
HETATM   19  C8  UNL     1      -3.856   0.227  -0.055  1.00  0.00    -0.006 A 
HETATM   20  C9  UNL     1      -5.042  -0.380   0.305  1.00  0.00     0.014 A 
HETATM   21  C10 UNL     1      -6.204   0.342   0.135  1.00  0.00     0.002 A 
HETATM   22  C11 UNL     1      -6.249   1.639  -0.377  1.00  0.00     0.019 A 
HETATM   23  C12 UNL     1      -5.055   2.222  -0.728  1.00  0.00     0.011 A 
HETATM   24 BR1  UNL     1      -5.001   3.996  -1.439  1.00  0.00    -0.051 Br
HETATM   25  C13 UNL     1      -3.878   1.508  -0.562  1.00  0.00     0.032 A 
ENDBRANCH   3  19
TORSDOF 6
