REMARK  6 active torsions:
REMARK  status: ('A' for Active; 'I' for Inactive)
REMARK    1  A    between atoms: C2_2  and  S1_3 
REMARK    2  A    between atoms: S1_3  and  C3_6 
REMARK    3  A    between atoms: C3_6  and  N4_22 
REMARK    4  A    between atoms: C4_7  and  C5_8 
REMARK    5  A    between atoms: C6_9  and  N1_10 
REMARK    6  A    between atoms: N1_10  and  C7_11 
ROOT
HETATM    1  C5  UNL     1      -0.076   1.670   0.687  1.00  0.00     0.026 C 
HETATM    2  C6  UNL     1       1.224   1.952   0.412  1.00  0.00     0.120 C 
HETATM    3  N2  UNL     1       1.986   2.909   0.954  1.00  0.00    -0.314 NA
HETATM    4  B1  UNL     1       0.987   4.286   1.673  1.00  0.00     0.465 B 
HETATM    5  N3  UNL     1      -0.471   3.402   2.384  1.00  0.00    -0.340 NA
HETATM    6  C13 UNL     1      -0.849   2.349   1.601  1.00  0.00     0.106 C 
ENDROOT
BRANCH   1   7
HETATM    7  C4  UNL     1      -0.770   0.575   0.025  1.00  0.00     0.061 C 
HETATM    8  C3  UNL     1      -1.979   0.476  -0.499  1.00  0.00     0.154 C 
BRANCH   8   9
HETATM    9  S1  UNL     1      -2.513  -1.025  -1.234  1.00  0.00     0.213 S 
HETATM   10  O1  UNL     1      -1.319  -1.834  -1.692  1.00  0.00    -0.217 OA
HETATM   11  O2  UNL     1      -3.460  -0.776  -2.347  1.00  0.00    -0.217 OA
BRANCH   9  12
HETATM   12  C2  UNL     1      -3.369  -1.901   0.046  1.00  0.00     0.105 C 
HETATM   13  C1  UNL     1      -4.508  -2.618  -0.068  1.00  0.00     0.024 C 
ENDBRANCH   9  12
ENDBRANCH   8   9
BRANCH   8  14
HETATM   14  N4  UNL     1      -2.935   1.522  -0.550  1.00  0.00    -0.260 NA
HETATM   15  C14 UNL     1      -4.054   1.459   0.134  1.00  0.00     0.150 C 
ENDBRANCH   8  14
ENDBRANCH   1   7
BRANCH   2  16
HETATM   16  N1  UNL     1       1.991   1.237  -0.543  1.00  0.00    -0.342 N 
HETATM   17  H5  UNL     1       1.854   1.628  -1.489  1.00  0.00     0.167 HD
BRANCH  16  18
HETATM   18  C7  UNL     1       2.843   0.126  -0.322  1.00  0.00     0.034 A 
HETATM   19  C8  UNL     1       2.978  -0.599   0.837  1.00  0.00     0.029 A 
HETATM   20  C9  UNL     1       3.857  -1.650   0.941  1.00  0.00     0.004 A 
HETATM   21  C10 UNL     1       4.644  -2.018  -0.127  1.00  0.00     0.019 A 
HETATM   22  C11 UNL     1       4.549  -1.326  -1.315  1.00  0.00     0.013 A 
HETATM   23 BR1  UNL     1       5.619  -1.779  -2.845  1.00  0.00    -0.051 Br
HETATM   24  C12 UNL     1       3.652  -0.268  -1.394  1.00  0.00     0.048 A 
ENDBRANCH  16  18
ENDBRANCH   2  16
TORSDOF 6
