REMARK  8 active torsions:
REMARK  status: ('A' for Active; 'I' for Inactive)
REMARK    1  A    between atoms: C2_2  and  S1_3 
REMARK    2  A    between atoms: S1_3  and  C3_6 
REMARK    3  A    between atoms: C6_9  and  N1_10 
REMARK    4  A    between atoms: N1_10  and  C7_11 
REMARK    5  A    between atoms: C7_11  and  C8_12 
REMARK    6  A    between atoms: C8_12  and  C9_13 
REMARK    7  A    between atoms: C9_13  and  C10_14 
REMARK    8  A    between atoms: C10_14  and  C11_15 
ROOT
HETATM    1  C3  UNL     1      -1.416  -1.467  -1.837  1.00  0.00     0.152 A 
HETATM    2  C4  UNL     1      -0.780  -1.289  -0.596  1.00  0.00     0.061 A 
HETATM    3  C5  UNL     1      -0.992  -0.177   0.095  1.00  0.00     0.043 A 
HETATM    4  C6  UNL     1      -0.505   0.240   1.342  1.00  0.00     0.138 A 
HETATM    5  N2  UNL     1      -0.833   1.358   1.867  1.00  0.00    -0.224 NA
HETATM    6  C13 UNL     1      -1.641   2.321   1.419  1.00  0.00     0.236 A 
HETATM    7  N3  UNL     1      -2.082   1.902   0.253  1.00  0.00    -0.240 NA
HETATM    8  C14 UNL     1      -1.844   0.809  -0.406  1.00  0.00     0.089 A 
HETATM    9  C15 UNL     1      -2.481   0.683  -1.599  1.00  0.00     0.150 A 
HETATM   10  N4  UNL     1      -2.218  -0.467  -2.241  1.00  0.00    -0.247 NA
ENDROOT
BRANCH   4  11
HETATM   11  N1  UNL     1       0.466  -0.703   2.041  1.00  0.00    -0.367 N 
HETATM   12  H5  UNL     1       0.972  -1.268   1.208  1.00  0.00     0.161 HD
BRANCH  11  13
HETATM   13  C7  UNL     1       0.299  -0.494   3.476  1.00  0.00     0.111 C 
BRANCH  13  14
HETATM   14  C8  UNL     1       1.021   0.568   3.601  1.00  0.00     0.022 C 
BRANCH  14  15
HETATM   15  C9  UNL     1       1.768   1.723   3.879  1.00  0.00     0.035 C 
BRANCH  15  16
HETATM   16  C10 UNL     1       2.327   1.829   2.534  1.00  0.00     0.013 C 
BRANCH  16  17
HETATM   17  C11 UNL     1       3.005   2.105   1.195  1.00  0.00    -0.032 C 
HETATM   18  C12 UNL     1       2.901   1.293   0.061  1.00  0.00     0.046 C 
HETATM   19 BR1  UNL     1       3.755   3.645   2.082  1.00  0.00    -0.060 Br
ENDBRANCH  16  17
ENDBRANCH  15  16
ENDBRANCH  14  15
ENDBRANCH  13  14
ENDBRANCH  11  13
ENDBRANCH   4  11
BRANCH   1  20
HETATM   20  S1  UNL     1      -1.144  -2.964  -2.677  1.00  0.00     0.198 S 
HETATM   21  O1  UNL     1      -0.126  -3.789  -1.906  1.00  0.00    -0.221 OA
HETATM   22  O2  UNL     1      -2.471  -3.695  -2.709  1.00  0.00    -0.221 OA
BRANCH  20  23
HETATM   23  C2  UNL     1      -0.511  -2.665  -4.285  1.00  0.00     0.134 C 
HETATM   24  C1  UNL     1      -1.067  -1.586  -4.868  1.00  0.00     0.023 C 
ENDBRANCH  20  23
ENDBRANCH   1  20
TORSDOF 8
