REMARK  2 active torsions:
REMARK  status: ('A' for Active; 'I' for Inactive)
REMARK    1  A    between atoms: C2_2  and  S1_3 
REMARK    2  A    between atoms: S1_3  and  C3_5 
ROOT
HETATM    1  C3  UNL     1      -1.847   0.324   0.424  1.00  0.00     0.124 C 
HETATM    2  C4  UNL     1      -0.790  -0.062   1.161  1.00  0.00     0.031 C 
HETATM    3  C5  UNL     1       0.481   0.597   0.969  1.00  0.00     0.101 C 
HETATM    4  C6  UNL     1       0.395   1.826   0.124  1.00  0.00     0.065 C 
HETATM    5  N1  UNL     1       1.350   2.728   0.005  1.00  0.00    -0.244 NA
HETATM    6  C7  UNL     1       2.646   2.687   0.670  1.00  0.00     0.234 C 
HETATM    7  N2  UNL     1       3.384   1.621   0.927  1.00  0.00    -0.242 NA
HETATM    8  C8  UNL     1       2.927   0.300   0.534  1.00  0.00     0.067 A 
HETATM    9  C9  UNL     1       3.989  -0.512   0.109  1.00  0.00     0.032 A 
HETATM   10  C10 UNL     1       3.825  -1.801  -0.347  1.00  0.00     0.004 A 
HETATM   11  C11 UNL     1       2.531  -2.268  -0.365  1.00  0.00     0.020 A 
HETATM   12  C12 UNL     1       1.507  -1.484   0.046  1.00  0.00     0.020 A 
HETATM   13 BR1  UNL     1      -0.242  -2.222  -0.066  1.00  0.00    -0.050 Br
HETATM   14  C13 UNL     1       1.613  -0.197   0.510  1.00  0.00     0.002 A 
HETATM   15  C14 UNL     1      -0.784   2.174  -0.656  1.00  0.00     0.146 C 
HETATM   16  N3  UNL     1      -1.834   1.435  -0.481  1.00  0.00    -0.249 NA
ENDROOT
BRANCH   1  17
HETATM   17  S1  UNL     1      -3.474  -0.374   0.514  1.00  0.00     0.092 S 
HETATM   18  O1  UNL     1      -3.552  -1.471   1.560  1.00  0.00    -0.247 OA
BRANCH  17  19
HETATM   19  C2  UNL     1      -3.979  -0.986  -1.092  1.00  0.00     0.075 C 
HETATM   20  C1  UNL     1      -5.272  -0.799  -0.755  1.00  0.00     0.021 C 
ENDBRANCH  17  19
ENDBRANCH   1  17
TORSDOF 2
