REMARK  5 active torsions:
REMARK  status: ('A' for Active; 'I' for Inactive)
REMARK    1  A    between atoms: C2_2  and  C3_3 
REMARK    2  A    between atoms: C4_4  and  C5_5 
REMARK    3  A    between atoms: N1_6  and  S1_7 
REMARK    4  A    between atoms: C8_13  and  N4_14 
REMARK    5  A    between atoms: N4_14  and  C9_15 
ROOT
HETATM    1  C3  UNL     1       0.614  -0.223   0.408  1.00  0.00     0.018 A 
HETATM    2  C4  UNL     1       1.671   0.294   1.132  1.00  0.00     0.086 A 
HETATM    3  N2  UNL     1       1.482   1.400   1.915  1.00  0.00    -0.240 NA
HETATM    4  C7  UNL     1       0.243   1.974   1.963  1.00  0.00     0.236 A 
HETATM    5  N3  UNL     1      -0.761   1.451   1.251  1.00  0.00    -0.224 NA
HETATM    6  C8  UNL     1      -0.647   0.374   0.468  1.00  0.00     0.138 A 
ENDROOT
BRANCH   6   7
HETATM    7  N4  UNL     1      -1.684  -0.217  -0.291  1.00  0.00    -0.340 N 
HETATM    8  H11 UNL     1      -1.493  -1.078  -0.842  1.00  0.00     0.167 HD
BRANCH   7   9
HETATM    9  C9  UNL     1      -3.009   0.206  -0.416  1.00  0.00     0.035 A 
HETATM   10  C10 UNL     1      -3.538   1.328   0.179  1.00  0.00     0.029 A 
HETATM   11  C11 UNL     1      -4.845   1.739   0.052  1.00  0.00     0.004 A 
HETATM   12  C12 UNL     1      -5.720   1.024  -0.702  1.00  0.00     0.019 A 
HETATM   13  C13 UNL     1      -5.258  -0.105  -1.322  1.00  0.00     0.013 A 
HETATM   14 BR1  UNL     1      -6.449  -1.133  -2.385  1.00  0.00    -0.051 Br
HETATM   15  C14 UNL     1      -3.960  -0.461  -1.162  1.00  0.00     0.048 A 
ENDBRANCH   7   9
ENDBRANCH   6   7
BRANCH   1  16
HETATM   16  C2  UNL     1       1.015  -1.400  -0.363  1.00  0.00     0.040 C 
HETATM   17  C1  UNL     1       1.144  -2.650   0.462  1.00  0.00     0.010 C 
ENDBRANCH   1  16
BRANCH   2  18
HETATM   18  C5  UNL     1       3.028  -0.236   1.154  1.00  0.00     0.160 C 
HETATM   19  N1  UNL     1       3.609   0.510   0.272  1.00  0.00    -0.198 NA
BRANCH  19  20
HETATM   20  S1  UNL     1       5.298   0.221  -0.040  1.00  0.00     0.132 S 
HETATM   21  C6  UNL     1       5.750   0.852  -1.666  1.00  0.00     0.154 C 
HETATM   22  O1  UNL     1       5.513  -1.290  -0.002  1.00  0.00    -0.234 OA
ENDBRANCH  19  20
ENDBRANCH   2  18
TORSDOF 5
