REMARK  3 active torsions:
REMARK  status: ('A' for Active; 'I' for Inactive)
REMARK    1  A    between atoms: C2_2  and  S1_3 
REMARK    2  A    between atoms: S1_3  and  C3_5 
REMARK    3  A    between atoms: N3_12  and  C8_13 
ROOT
HETATM    1  C3  UNL     1       2.035  -0.151   0.853  1.00  0.00     0.126 A 
HETATM    2  C4  UNL     1       0.893   0.293   0.360  1.00  0.00     0.057 A 
HETATM    3  C5  UNL     1      -0.122  -0.563  -0.288  1.00  0.00     0.306 A 
HETATM    4  C6  UNL     1       0.351  -1.959  -0.228  1.00  0.00     0.109 A 
HETATM    5  N1  UNL     1      -0.535  -2.782  -0.734  1.00  0.00    -0.178 NA
HETATM    6  N2  UNL     1      -1.748  -2.241  -1.235  1.00  0.00    -0.285 N 
HETATM    7  C7  UNL     1      -2.370  -1.419  -0.206  1.00  0.00     0.416 C 
HETATM    8  N3  UNL     1      -1.454  -0.379   0.181  1.00  0.00     0.133 N 
HETATM    9  C13 UNL     1       1.632  -2.385   0.329  1.00  0.00     0.149 A 
HETATM   10  N4  UNL     1       2.425  -1.509   0.843  1.00  0.00    -0.249 NA
HETATM   11  H6  UNL     1      -2.196  -2.361  -2.175  1.00  0.00     0.184 HD
ENDROOT
BRANCH   8  12
HETATM   12  C8  UNL     1      -1.966   0.937   0.022  1.00  0.00     0.273 A 
HETATM   13  C9  UNL     1      -3.173   1.227   0.792  1.00  0.00     0.014 A 
HETATM   14  C10 UNL     1      -4.163   1.680   0.008  1.00  0.00     0.017 A 
HETATM   15  C11 UNL     1      -3.640   1.711  -1.362  1.00  0.00     0.009 A 
HETATM   16 BR1  UNL     1      -4.826   2.318  -2.727  1.00  0.00    -0.051 Br
HETATM   17  C12 UNL     1      -2.378   1.285  -1.361  1.00  0.00     0.032 A 
ENDBRANCH   8  12
BRANCH   1  18
HETATM   18  S1  UNL     1       3.262   0.898   1.636  1.00  0.00     0.092 S 
HETATM   19  O1  UNL     1       2.777   2.352   1.513  1.00  0.00    -0.247 OA
BRANCH  18  20
HETATM   20  C2  UNL     1       4.788   0.802   0.724  1.00  0.00     0.075 C 
HETATM   21  C1  UNL     1       6.036   0.434   0.958  1.00  0.00     0.021 C 
ENDBRANCH  18  20
ENDBRANCH   1  18
TORSDOF 3
