REMARK  4 active torsions:
REMARK  status: ('A' for Active; 'I' for Inactive)
REMARK    1  A    between atoms: C2_2  and  S1_3 
REMARK    2  A    between atoms: S1_3  and  C3_5 
REMARK    3  A    between atoms: C6_8  and  N1_9 
REMARK    4  A    between atoms: N1_9  and  C7_10 
ROOT
HETATM    1  C3  UNL     1       2.006   0.576  -1.012  1.00  0.00     0.128 A 
HETATM    2  C4  UNL     1       0.964   0.065  -0.244  1.00  0.00     0.059 A 
HETATM    3  C5  UNL     1       0.266  -1.000  -0.772  1.00  0.00     0.043 A 
HETATM    4  C6  UNL     1      -0.779  -1.535  -0.034  1.00  0.00     0.142 A 
HETATM    5  N2  UNL     1      -1.489  -2.570  -0.501  1.00  0.00    -0.224 NA
HETATM    6  C12 UNL     1      -1.152  -3.067  -1.708  1.00  0.00     0.236 A 
HETATM    7  N3  UNL     1      -0.147  -2.570  -2.442  1.00  0.00    -0.240 NA
HETATM    8  C13 UNL     1       0.594  -1.530  -2.013  1.00  0.00     0.089 A 
HETATM    9  C14 UNL     1       1.635  -0.989  -2.736  1.00  0.00     0.150 A 
HETATM   10  N4  UNL     1       2.325   0.064  -2.213  1.00  0.00    -0.249 NA
ENDROOT
BRANCH   4  11
HETATM   11  N1  UNL     1      -1.178  -1.052   1.240  1.00  0.00    -0.342 N 
HETATM   12  H5  UNL     1      -0.962  -1.218   2.262  1.00  0.00     0.167 HD
BRANCH  11  13
HETATM   13  C7  UNL     1      -2.172  -0.041   1.003  1.00  0.00     0.029 A 
HETATM   14  C8  UNL     1      -2.159   1.297   0.990  1.00  0.00     0.026 A 
HETATM   15  C9  UNL     1      -3.510   1.768   0.678  1.00  0.00    -0.001 A 
HETATM   16  C10 UNL     1      -4.296   0.715   0.512  1.00  0.00    -0.005 A 
HETATM   17  C11 UNL     1      -3.536  -0.555   0.699  1.00  0.00     0.130 A 
HETATM   18 BR1  UNL     1      -4.259  -1.666   2.081  1.00  0.00    -0.080 Br
ENDBRANCH  11  13
ENDBRANCH   4  11
BRANCH   1  19
HETATM   19  S1  UNL     1       2.925   1.944  -0.366  1.00  0.00     0.092 S 
HETATM   20  O1  UNL     1       2.057   2.899   0.424  1.00  0.00    -0.247 OA
BRANCH  19  21
HETATM   21  C2  UNL     1       4.309   1.396   0.594  1.00  0.00     0.075 C 
HETATM   22  C1  UNL     1       5.382   2.157   0.789  1.00  0.00     0.021 C 
ENDBRANCH  19  21
ENDBRANCH   1  19
TORSDOF 4
