REMARK  6 active torsions:
REMARK  status: ('A' for Active; 'I' for Inactive)
REMARK    1  A    between atoms: C2_2  and  S1_3 
REMARK    2  A    between atoms: S1_3  and  C3_4 
REMARK    3  A    between atoms: C3_4  and  N1_5 
REMARK    4  A    between atoms: C4_6  and  C5_7 
REMARK    5  A    between atoms: C7_11  and  N4_12 
REMARK    6  A    between atoms: N4_12  and  C8_13 
ROOT
HETATM    1  C5  UNL     1       0.983   1.071  -0.603  1.00  0.00     0.085 A 
HETATM    2  N2  UNL     1       0.800   2.329  -1.043  1.00  0.00    -0.240 NA
HETATM    3  C6  UNL     1      -0.402   2.939  -1.121  1.00  0.00     0.236 A 
HETATM    4  N3  UNL     1      -1.445   2.194  -0.719  1.00  0.00    -0.224 NA
HETATM    5  C7  UNL     1      -1.330   0.948  -0.272  1.00  0.00     0.137 A 
HETATM    6  C14 UNL     1      -0.100   0.332  -0.198  1.00  0.00     0.014 A 
HETATM    7  C15 UNL     1       0.085  -1.064   0.267  1.00  0.00     0.055 C 
ENDROOT
BRANCH   5   8
HETATM    8  N4  UNL     1      -2.495   0.291   0.146  1.00  0.00    -0.340 N 
HETATM    9  H8  UNL     1      -2.251   0.006   1.150  1.00  0.00     0.167 HD
BRANCH   8  10
HETATM   10  C8  UNL     1      -3.791  -0.195   0.115  1.00  0.00     0.035 A 
HETATM   11  C9  UNL     1      -4.279  -1.430   0.578  1.00  0.00     0.029 A 
HETATM   12  C10 UNL     1      -5.615  -1.657   0.489  1.00  0.00     0.004 A 
HETATM   13  C11 UNL     1      -6.477  -0.707  -0.042  1.00  0.00     0.019 A 
HETATM   14  C12 UNL     1      -6.037   0.514  -0.509  1.00  0.00     0.013 A 
HETATM   15 BR1  UNL     1      -7.336   1.719  -1.209  1.00  0.00    -0.051 Br
HETATM   16  C13 UNL     1      -4.676   0.741  -0.415  1.00  0.00     0.048 A 
ENDBRANCH   8  10
ENDBRANCH   5   8
BRANCH   1  17
HETATM   17  C4  UNL     1       2.353   0.655  -0.564  1.00  0.00     0.143 C 
HETATM   18  N1  UNL     1       3.447   0.351  -1.181  1.00  0.00    -0.289 NA
BRANCH  18  19
HETATM   19  C3  UNL     1       4.602  -0.023  -0.416  1.00  0.00     0.226 C 
BRANCH  19  20
HETATM   20  S1  UNL     1       5.530  -1.416  -1.061  1.00  0.00    -0.120 SA
BRANCH  20  21
HETATM   21  C2  UNL     1       6.880  -1.708   0.131  1.00  0.00     0.036 C 
HETATM   22  C1  UNL     1       7.500  -0.576   0.453  1.00  0.00     0.018 C 
ENDBRANCH  20  21
ENDBRANCH  19  20
ENDBRANCH  18  19
ENDBRANCH   1  17
TORSDOF 6
