REMARK  5 active torsions:
REMARK  status: ('A' for Active; 'I' for Inactive)
REMARK    1  A    between atoms: S1_2  and  C1_4 
REMARK    2  A    between atoms: C1_4  and  P1_5 
REMARK    3  A    between atoms: C6_12  and  C7_13 
REMARK    4  A    between atoms: C7_13  and  N3_14 
REMARK    5  A    between atoms: N3_14  and  C8_15 
ROOT
HETATM    1  P1  UNL     1       3.749   0.079  -0.027  1.00  0.00    -0.007 P 
HETATM    2  C2  UNL     1       2.188   0.142   0.401  1.00  0.00     0.038 A 
HETATM    3  C3  UNL     1       1.179   1.077  -0.082  1.00  0.00     0.022 A 
HETATM    4  C4  UNL     1       1.633   1.997  -1.003  1.00  0.00     0.087 A 
HETATM    5  N1  UNL     1       0.738   2.882  -1.479  1.00  0.00    -0.240 NA
HETATM    6  C5  UNL     1      -0.556   2.873  -1.072  1.00  0.00     0.234 A 
HETATM    7  N2  UNL     1      -0.969   1.963  -0.172  1.00  0.00    -0.244 NA
HETATM    8  C6  UNL     1      -0.131   1.048   0.347  1.00  0.00     0.066 A 
HETATM    9  C14 UNL     1       2.996   2.098  -1.509  1.00  0.00     0.147 A 
HETATM   10  N4  UNL     1       4.001   1.357  -1.190  1.00  0.00    -0.275 NA
HETATM   11  H3  UNL     1       4.517   0.377   1.122  1.00  0.00     0.081 HD
ENDROOT
BRANCH   8  12
HETATM   12  C7  UNL     1      -0.426  -0.007   1.339  1.00  0.00     0.180 C 
BRANCH  12  13
HETATM   13  N3  UNL     1      -1.804  -0.026   1.732  1.00  0.00    -0.384 N 
HETATM   14  H8  UNL     1      -2.063   0.161   2.738  1.00  0.00     0.160 HD
BRANCH  13  15
HETATM   15  C8  UNL     1      -2.903  -0.278   0.895  1.00  0.00     0.028 A 
HETATM   16  C9  UNL     1      -4.228  -0.282   1.301  1.00  0.00     0.029 A 
HETATM   17  C10 UNL     1      -5.277  -0.536   0.461  1.00  0.00     0.002 A 
HETATM   18  C11 UNL     1      -5.077  -0.807  -0.855  1.00  0.00     0.000 A 
HETATM   19  C12 UNL     1      -3.793  -0.821  -1.328  1.00  0.00     0.002 A 
HETATM   20  C13 UNL     1      -2.740  -0.559  -0.454  1.00  0.00     0.029 A 
ENDBRANCH  13  15
ENDBRANCH  12  13
ENDBRANCH   8  12
BRANCH   1  21
HETATM   21  C1  UNL     1       4.157  -1.551  -0.689  1.00  0.00     0.174 C 
BRANCH  21  22
HETATM   22  S1  UNL     1       4.306  -2.679   0.719  1.00  0.00     0.092 S 
HETATM   23  O1  UNL     1       5.378  -2.199   1.685  1.00  0.00    -0.246 OA
HETATM   24 BR1  UNL     1       4.813  -4.747   0.029  1.00  0.00     0.025 Br
ENDBRANCH  21  22
ENDBRANCH   1  21
TORSDOF 5
