REMARK  5 active torsions:
REMARK  status: ('A' for Active; 'I' for Inactive)
REMARK    1  A    between atoms: O1_2  and  C2_3 
REMARK    2  A    between atoms: C5_6  and  O2_7 
REMARK    3  A    between atoms: O2_7  and  C6_8 
REMARK    4  A    between atoms: C8_10  and  N1_11 
REMARK    5  A    between atoms: N1_11  and  C9_12 
ROOT
HETATM    1  C6  UNL     1       0.384  -0.235   0.455  1.00  0.00     0.174 A 
HETATM    2  C7  UNL     1      -0.884  -0.617   0.822  1.00  0.00     0.108 A 
HETATM    3  C8  UNL     1      -2.050  -0.119   0.282  1.00  0.00     0.133 A 
HETATM    4  N2  UNL     1      -1.825   0.801  -0.664  1.00  0.00    -0.224 NA
HETATM    5  C15 UNL     1      -0.613   1.208  -1.059  1.00  0.00     0.238 A 
HETATM    6  N3  UNL     1       0.502   0.697  -0.507  1.00  0.00    -0.217 NA
ENDROOT
BRANCH   1   7
HETATM    7  O2  UNL     1       1.485  -0.788   1.050  1.00  0.00    -0.292 OA
BRANCH   7   8
HETATM    8  C5  UNL     1       2.786  -0.485   0.766  1.00  0.00     0.078 A 
HETATM    9  C4  UNL     1       3.490  -1.185  -0.215  1.00  0.00     0.040 A 
HETATM   10  C3  UNL     1       4.807  -0.872  -0.496  1.00  0.00     0.039 A 
HETATM   11  C2  UNL     1       5.446   0.134   0.185  1.00  0.00     0.068 A 
HETATM   12  C17 UNL     1       4.766   0.835   1.156  1.00  0.00     0.039 A 
HETATM   13  C16 UNL     1       3.456   0.535   1.447  1.00  0.00     0.040 A 
BRANCH  11  14
HETATM   14  O1  UNL     1       6.757   0.556   0.011  1.00  0.00    -0.356 OA
HETATM   15  C1  UNL     1       7.639  -0.021  -0.932  1.00  0.00     0.210 C 
ENDBRANCH  11  14
ENDBRANCH   7   8
ENDBRANCH   1   7
BRANCH   3  16
HETATM   16  N1  UNL     1      -3.293  -0.587   0.739  1.00  0.00    -0.341 N 
HETATM   17  H7  UNL     1      -3.279  -1.318   1.495  1.00  0.00     0.167 HD
BRANCH  16  18
HETATM   18  C9  UNL     1      -4.582  -0.193   0.304  1.00  0.00     0.034 A 
HETATM   19  C10 UNL     1      -4.852   0.742  -0.669  1.00  0.00     0.029 A 
HETATM   20  C11 UNL     1      -6.109   1.121  -1.087  1.00  0.00     0.004 A 
HETATM   21  C12 UNL     1      -7.204   0.527  -0.497  1.00  0.00     0.019 A 
HETATM   22  C13 UNL     1      -6.988  -0.417   0.484  1.00  0.00     0.013 A 
HETATM   23 BR1  UNL     1      -8.494  -1.246   1.308  1.00  0.00    -0.051 Br
HETATM   24  C14 UNL     1      -5.717  -0.750   0.856  1.00  0.00     0.048 A 
ENDBRANCH  16  18
ENDBRANCH   3  16
TORSDOF 5
