REMARK  5 active torsions:
REMARK  status: ('A' for Active; 'I' for Inactive)
REMARK    1  A    between atoms: S1_2  and  C2_4 
REMARK    2  A    between atoms: C5_7  and  N1_8 
REMARK    3  A    between atoms: N1_8  and  C6_9 
REMARK    4  A    between atoms: C11_14  and  C12_15 
REMARK    5  A    between atoms: C12_15  and  C13_16 
ROOT
HETATM    1  C2  UNL     1       3.451   0.105  -0.677  1.00  0.00     0.123 A 
HETATM    2  C3  UNL     1       2.090  -0.004  -0.423  1.00  0.00     0.059 A 
HETATM    3  C4  UNL     1       1.379   1.172  -0.340  1.00  0.00     0.043 A 
HETATM    4  C5  UNL     1       0.033   1.038  -0.088  1.00  0.00     0.142 A 
HETATM    5  N2  UNL     1      -0.700   2.164   0.000  1.00  0.00    -0.224 NA
HETATM    6  C14 UNL     1      -0.183   3.386  -0.144  1.00  0.00     0.236 A 
HETATM    7  N3  UNL     1       1.129   3.519  -0.390  1.00  0.00    -0.240 NA
HETATM    8  C15 UNL     1       1.932   2.437  -0.493  1.00  0.00     0.089 A 
HETATM    9  C16 UNL     1       3.293   2.473  -0.744  1.00  0.00     0.150 A 
HETATM   10  N4  UNL     1       3.999   1.333  -0.827  1.00  0.00    -0.249 NA
ENDROOT
BRANCH   4  11
HETATM   11  N1  UNL     1      -0.699  -0.163   0.095  1.00  0.00    -0.339 N 
HETATM   12  H5  UNL     1      -0.371  -1.154   0.075  1.00  0.00     0.167 HD
BRANCH  11  13
HETATM   13  C6  UNL     1      -2.077  -0.257   0.351  1.00  0.00     0.048 A 
HETATM   14  C7  UNL     1      -2.663   0.425   1.357  1.00  0.00     0.008 A 
HETATM   15  C8  UNL     1      -4.093   0.397   1.709  1.00  0.00     0.056 A 
HETATM   16  C9  UNL     1      -4.913  -0.484   0.838  1.00  0.00    -0.021 A 
HETATM   17  C10 UNL     1      -4.437  -1.211  -0.194  1.00  0.00     0.018 A 
HETATM   18  C11 UNL     1      -3.028  -1.052  -0.378  1.00  0.00     0.036 A 
BRANCH  18  19
HETATM   19  C12 UNL     1      -2.514  -1.759  -1.384  1.00  0.00    -0.107 C 
BRANCH  19  20
HETATM   20  C13 UNL     1      -1.952  -2.720  -2.111  1.00  0.00     0.112 C 
HETATM   21 BR1  UNL     1      -1.483  -4.335  -1.306  1.00  0.00    -0.055 Br
ENDBRANCH  19  20
ENDBRANCH  18  19
ENDBRANCH  11  13
ENDBRANCH   4  11
BRANCH   1  22
HETATM   22  S1  UNL     1       4.448  -1.362  -0.799  1.00  0.00     0.064 S 
HETATM   23  C1  UNL     1       5.115  -1.831   0.812  1.00  0.00     0.134 C 
HETATM   24  O1  UNL     1       5.662  -0.980  -1.669  1.00  0.00    -0.252 OA
ENDBRANCH   1  22
TORSDOF 5
