REMARK  5 active torsions:
REMARK  status: ('A' for Active; 'I' for Inactive)
REMARK    1  A    between atoms: C2_2  and  C3_3 
REMARK    2  A    between atoms: C3_3  and  C4_4 
REMARK    3  A    between atoms: C15_17  and  C16_18 
REMARK    4  A    between atoms: C16_18  and  C17_19 
REMARK    5  A    between atoms: C17_19  and  O3_21 
ROOT
HETATM    1  C4  UNL     1      -0.742  -1.188  -0.665  1.00  0.00    -0.008 C 
HETATM    2  C5  UNL     1      -1.950  -0.656  -0.760  1.00  0.00     0.041 A 
HETATM    3  C6  UNL     1      -2.825  -0.596  -1.947  1.00  0.00     0.256 A 
HETATM    4  O1  UNL     1      -2.562  -1.042  -3.082  1.00  0.00    -0.267 OA
HETATM    5  N1  UNL     1      -3.972   0.069  -1.463  1.00  0.00    -0.322 N 
HETATM    6  C7  UNL     1      -3.908   0.432  -0.094  1.00  0.00     0.046 A 
HETATM    7  C8  UNL     1      -4.855   1.083   0.667  1.00  0.00     0.030 A 
HETATM    8  C9  UNL     1      -4.534   1.316   2.001  1.00  0.00     0.002 A 
HETATM    9  C10 UNL     1      -3.311   0.905   2.524  1.00  0.00     0.001 A 
HETATM   10  C11 UNL     1      -2.442   0.263   1.669  1.00  0.00     0.014 A 
HETATM   11  C12 UNL     1      -2.664  -0.013   0.342  1.00  0.00     0.006 A 
HETATM   12  H7  UNL     1      -4.753   0.237  -2.122  1.00  0.00     0.169 HD
ENDROOT
BRANCH   1  13
HETATM   13  C3  UNL     1       0.438  -1.508   0.114  1.00  0.00     0.037 C 
BRANCH  13  14
HETATM   14  C2  UNL     1       1.728  -0.920  -0.376  1.00  0.00    -0.037 C 
HETATM   15  C1  UNL     1       2.883  -1.314   0.512  1.00  0.00     0.016 C 
HETATM   16  C13 UNL     1       2.107  -1.130  -1.814  1.00  0.00     0.010 C 
HETATM   17  C14 UNL     1       2.666   0.304  -1.751  1.00  0.00     0.007 C 
HETATM   18  C15 UNL     1       1.627   0.552  -0.710  1.00  0.00     0.004 C 
BRANCH  18  19
HETATM   19  C16 UNL     1       1.939   1.486   0.414  1.00  0.00     0.115 C 
BRANCH  19  20
HETATM   20  C17 UNL     1       3.287   1.348   0.955  1.00  0.00     0.139 C 
HETATM   21  O2  UNL     1       4.192   1.887   0.228  1.00  0.00    -0.650 OA
BRANCH  20  22
HETATM   22  O3  UNL     1       4.538   1.182   1.525  1.00  0.00    -0.776 OA
HETATM   23  H19 UNL     1       4.777   0.332   2.053  1.00  0.00     0.167 HD
ENDBRANCH  20  22
ENDBRANCH  19  20
ENDBRANCH  18  19
ENDBRANCH  13  14
ENDBRANCH   1  13
TORSDOF 5
