REMARK  5 active torsions:
REMARK  status: ('A' for Active; 'I' for Inactive)
REMARK    1  A    between atoms: C3_4  and  C4_5 
REMARK    2  A    between atoms: C15_18  and  C16_19 
REMARK    3  A    between atoms: C16_19  and  C17_20 
REMARK    4  A    between atoms: C17_20  and  C18_21 
REMARK    5  A    between atoms: C18_21  and  O3_23 
ROOT
HETATM    1  C1  UNL     1       0.973  -2.702   1.921  1.00  0.00     0.037 C 
HETATM    2  C2  UNL     1       1.657  -1.379   1.858  1.00  0.00     0.110 C 
HETATM    3  N1  UNL     1       0.611  -0.344   1.770  1.00  0.00    -0.382 N 
HETATM    4  C3  UNL     1       0.144  -0.453   0.411  1.00  0.00     0.030 C 
HETATM    5  C13 UNL     1       1.190  -0.924  -0.309  1.00  0.00     0.038 C 
HETATM    6  C14 UNL     1       2.328  -1.131   0.529  1.00  0.00    -0.037 C 
HETATM    7  C15 UNL     1       3.591  -1.093   0.146  1.00  0.00    -0.017 C 
HETATM    8  H5  UNL     1       0.363   0.269   2.556  1.00  0.00     0.160 HD
ENDROOT
BRANCH   4   9
HETATM    9  C4  UNL     1      -1.159  -0.119  -0.102  1.00  0.00     0.047 C 
HETATM   10  C5  UNL     1      -2.295   0.330   0.367  1.00  0.00     0.046 A 
HETATM   11  C6  UNL     1      -2.745   0.703   1.697  1.00  0.00     0.257 A 
HETATM   12  C12 UNL     1      -3.470   0.581  -0.480  1.00  0.00     0.006 A 
HETATM   13  O1  UNL     1      -2.137   0.679   2.773  1.00  0.00    -0.267 OA
HETATM   14  N2  UNL     1      -4.089   1.155   1.708  1.00  0.00    -0.322 N 
HETATM   15  C7  UNL     1      -4.461   1.050   0.343  1.00  0.00     0.046 A 
HETATM   16  H7  UNL     1      -4.695   1.488   2.486  1.00  0.00     0.169 HD
HETATM   17  C8  UNL     1      -5.675   1.352  -0.278  1.00  0.00     0.030 A 
HETATM   18  C9  UNL     1      -5.947   1.218  -1.622  1.00  0.00     0.002 A 
HETATM   19  C10 UNL     1      -4.945   0.745  -2.439  1.00  0.00     0.001 A 
HETATM   20  C11 UNL     1      -3.742   0.443  -1.845  1.00  0.00     0.015 A 
ENDBRANCH   4   9
BRANCH   7  21
HETATM   21  C16 UNL     1       4.405  -0.870  -1.080  1.00  0.00     0.038 C 
BRANCH  21  22
HETATM   22  C17 UNL     1       5.302   0.322  -0.842  1.00  0.00     0.113 C 
BRANCH  22  23
HETATM   23  C18 UNL     1       4.519   1.550  -0.553  1.00  0.00     0.139 C 
HETATM   24  O2  UNL     1       5.329   2.512  -0.363  1.00  0.00    -0.650 OA
BRANCH  23  25
HETATM   25  O3  UNL     1       3.774   2.679  -0.286  1.00  0.00    -0.776 OA
HETATM   26  H18 UNL     1       2.923   2.847  -0.843  1.00  0.00     0.167 HD
ENDBRANCH  23  25
ENDBRANCH  22  23
ENDBRANCH  21  22
ENDBRANCH   7  21
TORSDOF 5
