REMARK  6 active torsions:
REMARK  status: ('A' for Active; 'I' for Inactive)
REMARK    1  A    between atoms: N1_3  and  C3_4 
REMARK    2  A    between atoms: C3_4  and  C9_12 
REMARK    3  A    between atoms: C4_5  and  C6_7 
REMARK    4  A    between atoms: C6_7  and  C7_8 
REMARK    5  A    between atoms: C7_8  and  C8_9 
REMARK    6  A    between atoms: C8_9  and  O2_11 
ROOT
HETATM    1  C3  UNL     1       0.186  -0.056   0.323  1.00  0.00     0.053 C 
HETATM    2  C4  UNL     1       1.245  -0.568  -0.341  1.00  0.00    -0.057 C 
HETATM    3  C5  UNL     1       1.234  -1.988  -0.739  1.00  0.00     0.045 C 
ENDROOT
BRANCH   1   4
HETATM    4  N1  UNL     1       0.363   1.353   0.635  1.00  0.00    -0.269 NA
HETATM    5  C2  UNL     1       0.211   1.773   1.863  1.00  0.00     0.085 C 
HETATM    6  C1  UNL     1       0.446   3.239   1.905  1.00  0.00     0.057 C 
ENDBRANCH   1   4
BRANCH   1   7
HETATM    7  C9  UNL     1      -1.123  -0.455   0.838  1.00  0.00     0.165 A 
HETATM    8  C10 UNL     1      -1.436  -1.903   0.732  1.00  0.00     0.236 A 
HETATM    9  O3  UNL     1      -0.909  -2.931   1.249  1.00  0.00    -0.272 OA
HETATM   10  N2  UNL     1      -2.552  -2.154  -0.125  1.00  0.00    -0.326 N 
HETATM   11  C11 UNL     1      -3.030  -0.869  -0.558  1.00  0.00     0.042 A 
HETATM   12  H14 UNL     1      -3.000  -3.063  -0.430  1.00  0.00     0.169 HD
HETATM   13  C12 UNL     1      -4.103  -0.570  -1.378  1.00  0.00     0.030 A 
HETATM   14  C16 UNL     1      -2.239   0.108   0.008  1.00  0.00    -0.012 A 
HETATM   15  C13 UNL     1      -4.371   0.761  -1.623  1.00  0.00     0.002 A 
HETATM   16  C14 UNL     1      -3.622   1.779  -1.090  1.00  0.00     0.001 A 
HETATM   17  C15 UNL     1      -2.545   1.430  -0.266  1.00  0.00     0.011 A 
ENDBRANCH   1   7
BRANCH   2  18
HETATM   18  C6  UNL     1       2.400   0.267  -0.695  1.00  0.00     0.046 C 
BRANCH  18  19
HETATM   19  C7  UNL     1       3.712  -0.140  -0.148  1.00  0.00     0.114 C 
BRANCH  19  20
HETATM   20  C8  UNL     1       4.209  -1.475  -0.552  1.00  0.00     0.139 C 
HETATM   21  O1  UNL     1       4.176  -2.609   0.036  1.00  0.00    -0.650 OA
BRANCH  20  22
HETATM   22  O2  UNL     1       4.823  -1.456  -1.817  1.00  0.00    -0.776 OA
HETATM   23  H12 UNL     1       5.123  -2.344  -2.193  1.00  0.00     0.167 HD
ENDBRANCH  20  22
ENDBRANCH  19  20
ENDBRANCH  18  19
ENDBRANCH   2  18
TORSDOF 6
