REMARK  5 active torsions:
REMARK  status: ('A' for Active; 'I' for Inactive)
REMARK    1  A    between atoms: C3_3  and  C4_4 
REMARK    2  A    between atoms: C13_16  and  C14_17 
REMARK    3  A    between atoms: C14_17  and  O2_18 
REMARK    4  A    between atoms: C15_19  and  C16_20 
REMARK    5  A    between atoms: C16_20  and  C17_21 
ROOT
HETATM    1  C1  UNL     1      -1.385   1.710  -1.202  1.00  0.00     0.046 C 
HETATM    2  C2  UNL     1      -1.545   0.581  -0.291  1.00  0.00    -0.051 C 
HETATM    3  C3  UNL     1      -0.537  -0.129   0.281  1.00  0.00     0.031 C 
HETATM    4  N2  UNL     1      -1.200  -1.194   1.052  1.00  0.00    -0.382 N 
HETATM    5  C13 UNL     1      -2.465  -1.443   0.290  1.00  0.00     0.114 C 
HETATM    6  C15 UNL     1      -2.825   0.046   0.182  1.00  0.00     0.047 C 
HETATM    7  H10 UNL     1      -0.977  -1.726   1.913  1.00  0.00     0.160 HD
ENDROOT
BRANCH   3   8
HETATM    8  C4  UNL     1       0.891  -0.064   0.237  1.00  0.00     0.047 C 
HETATM    9  C5  UNL     1       1.997   0.455  -0.170  1.00  0.00     0.046 A 
HETATM   10  C6  UNL     1       2.230   1.578  -1.058  1.00  0.00     0.257 A 
HETATM   11  C12 UNL     1       3.366   0.033   0.139  1.00  0.00     0.006 A 
HETATM   12  O1  UNL     1       1.566   2.412  -1.702  1.00  0.00    -0.267 OA
HETATM   13  N1  UNL     1       3.608   1.823  -1.277  1.00  0.00    -0.322 N 
HETATM   14  C7  UNL     1       4.270   0.833  -0.508  1.00  0.00     0.046 A 
HETATM   15  H5  UNL     1       4.181   2.514  -1.832  1.00  0.00     0.169 HD
HETATM   16  C8  UNL     1       5.592   0.517  -0.284  1.00  0.00     0.030 A 
HETATM   17  C9  UNL     1       6.092  -0.494   0.503  1.00  0.00     0.002 A 
HETATM   18  C10 UNL     1       5.191  -1.299   1.153  1.00  0.00     0.001 A 
HETATM   19  C11 UNL     1       3.869  -1.004   0.946  1.00  0.00     0.015 A 
ENDBRANCH   3   8
BRANCH   6  20
HETATM   20  C16 UNL     1      -4.046   0.292  -0.588  1.00  0.00     0.080 C 
BRANCH  20  21
HETATM   21  C17 UNL     1      -4.359   1.722  -0.686  1.00  0.00     0.231 C 
HETATM   22  O3  UNL     1      -4.901   2.329   0.223  1.00  0.00    -0.307 OA
ENDBRANCH  20  21
ENDBRANCH   6  20
BRANCH   5  23
HETATM   23  C14 UNL     1      -3.427  -2.210   1.117  1.00  0.00     0.189 C 
BRANCH  23  24
HETATM   24  O2  UNL     1      -4.588  -2.443   0.383  1.00  0.00    -0.399 OA
HETATM   25  H14 UNL     1      -4.357  -3.052  -0.377  1.00  0.00     0.209 HD
ENDBRANCH  23  24
ENDBRANCH   5  23
TORSDOF 5
