REMARK  9 active torsions:
REMARK  status: ('A' for Active; 'I' for Inactive)
REMARK    1  A    between atoms: C2_2  and  C3_3 
REMARK    2  A    between atoms: C2_2  and  N2_15 
REMARK    3  A    between atoms: C3_3  and  C4_4 
REMARK    4  A    between atoms: C12_13  and  P1_14 
REMARK    5  A    between atoms: N2_15  and  C13_16 
REMARK    6  A    between atoms: C13_16  and  C18_23 
REMARK    7  A    between atoms: C14_17  and  C15_18 
REMARK    8  A    between atoms: C15_18  and  C16_19 
REMARK    9  A    between atoms: C16_19  and  C17_20 
ROOT
HETATM    1  C3  UNL     1       0.899  -0.854  -1.592  1.00  0.00     0.084 C 
ENDROOT
BRANCH   1   2
HETATM    2  C2  UNL     1      -0.041  -1.833  -0.943  1.00  0.00     0.003 C 
HETATM    3  C1  UNL     1      -0.002  -3.156  -0.842  1.00  0.00     0.038 C 
BRANCH   2   4
HETATM    4  N2  UNL     1      -1.204  -1.278  -0.307  1.00  0.00    -0.364 N 
HETATM    5  H14 UNL     1      -1.014  -1.295   0.717  1.00  0.00     0.165 HD
BRANCH   4   6
HETATM    6  C13 UNL     1      -2.328  -0.829  -1.054  1.00  0.00     0.005 C 
HETATM    7  C14 UNL     1      -3.090   0.191  -0.694  1.00  0.00    -0.002 C 
BRANCH   7   8
HETATM    8  C15 UNL     1      -2.774   0.923   0.553  1.00  0.00     0.036 C 
BRANCH   8   9
HETATM    9  C16 UNL     1      -3.911   0.874   1.546  1.00  0.00     0.074 C 
BRANCH   9  10
HETATM   10  C17 UNL     1      -5.119   1.484   0.969  1.00  0.00     0.117 A 
HETATM   11  O1  UNL     1      -5.216   1.995  -0.196  1.00  0.00    -0.194 OA
HETATM   12  O2  UNL     1      -6.372   1.993   0.671  1.00  0.00     0.000 OA
HETATM   13  H20 UNL     1      -7.127   1.935   1.358  1.00  0.00     0.000 HD
ENDBRANCH   9  10
ENDBRANCH   8   9
ENDBRANCH   7   8
BRANCH   6  14
HETATM   14  C18 UNL     1      -2.579  -1.614  -2.291  1.00  0.00     0.052 C 
HETATM   15  C19 UNL     1      -3.780  -1.099  -3.046  1.00  0.00     0.011 C 
ENDBRANCH   6  14
ENDBRANCH   4   6
ENDBRANCH   2   4
ENDBRANCH   1   2
BRANCH   1  16
HETATM   16  C4  UNL     1       1.363   0.050  -0.522  1.00  0.00    -0.010 C 
HETATM   17  C5  UNL     1       2.603   0.220  -0.147  1.00  0.00    -0.023 C 
HETATM   18  C6  UNL     1       3.062   1.123   0.921  1.00  0.00    -0.001 A 
HETATM   19  C12 UNL     1       3.783  -0.484  -0.748  1.00  0.00     0.138 C 
HETATM   20  C7  UNL     1       2.419   1.794   1.951  1.00  0.00     0.014 A 
HETATM   21  C11 UNL     1       4.430   1.229   0.730  1.00  0.00     0.039 A 
HETATM   22  C8  UNL     1       3.177   2.581   2.794  1.00  0.00     0.001 A 
HETATM   23  C9  UNL     1       4.546   2.683   2.598  1.00  0.00     0.002 A 
HETATM   24  C10 UNL     1       5.199   2.019   1.575  1.00  0.00     0.030 A 
HETATM   25  N1  UNL     1       4.844   0.448  -0.389  1.00  0.00    -0.377 N 
HETATM   26  H10 UNL     1       5.736   0.462  -0.934  1.00  0.00     0.160 HD
BRANCH  19  27
HETATM   27  P1  UNL     1       4.030  -2.129   0.055  1.00  0.00    -0.112 P 
HETATM   28  H12 UNL     1       3.515  -2.099   1.399  1.00  0.00     0.057 HD
HETATM   29  H13 UNL     1       5.424  -2.526   0.125  1.00  0.00     0.057 HD
ENDBRANCH  19  27
ENDBRANCH   1  16
TORSDOF 9
