REMARK  9 active torsions:
REMARK  status: ('A' for Active; 'I' for Inactive)
REMARK    1  A    between atoms: C1_2  and  N1_3 
REMARK    2  A    between atoms: N1_3  and  C2_4 
REMARK    3  A    between atoms: C7_9  and  C8_10 
REMARK    4  A    between atoms: C8_10  and  C9_11 
REMARK    5  A    between atoms: C9_11  and  C10_12 
REMARK    6  A    between atoms: C14_16  and  C15_17 
REMARK    7  A    between atoms: C15_17  and  C16_18 
REMARK    8  A    between atoms: C16_18  and  C17_19 
REMARK    9  A    between atoms: C17_19  and  O3_21 
ROOT
HETATM    1  C9  UNL     1      -0.229  -0.272  -1.147  1.00  0.00     0.044 C 
ENDROOT
BRANCH   1   2
HETATM    2  C8  UNL     1      -0.913  -0.132   0.177  1.00  0.00     0.045 C 
BRANCH   2   3
HETATM    3  C7  UNL     1      -2.280   0.471   0.076  1.00  0.00    -0.031 A 
HETATM    4  C2  UNL     1      -3.420  -0.176  -0.305  1.00  0.00     0.040 A 
HETATM    5  C3  UNL     1      -4.566   0.578  -0.355  1.00  0.00     0.030 A 
HETATM    6  C4  UNL     1      -4.654   1.907  -0.056  1.00  0.00     0.002 A 
HETATM    7  C5  UNL     1      -3.495   2.580   0.335  1.00  0.00     0.001 A 
HETATM    8  C6  UNL     1      -2.338   1.834   0.389  1.00  0.00     0.009 A 
BRANCH   4   9
HETATM    9  N1  UNL     1      -3.326  -1.555  -0.604  1.00  0.00    -0.334 N 
HETATM   10  H2  UNL     1      -2.439  -2.076  -0.509  1.00  0.00     0.168 HD
BRANCH   9  11
HETATM   11  C1  UNL     1      -4.332  -2.444  -1.044  1.00  0.00     0.353 C 
HETATM   12  O1  UNL     1      -5.506  -2.041  -1.224  1.00  0.00    -0.283 OA
ENDBRANCH   9  11
ENDBRANCH   4   9
ENDBRANCH   2   3
ENDBRANCH   1   2
BRANCH   1  13
HETATM   13  C10 UNL     1       1.130  -0.875  -1.059  1.00  0.00    -0.040 C 
HETATM   14  C11 UNL     1       1.518  -2.025  -1.599  1.00  0.00    -0.018 C 
HETATM   15  C12 UNL     1       2.378  -2.687  -0.835  1.00  0.00     0.013 C 
HETATM   16  C13 UNL     1       3.094  -1.525  -0.264  1.00  0.00     0.008 C 
HETATM   17  C14 UNL     1       2.353  -0.413  -0.391  1.00  0.00    -0.051 C 
BRANCH  17  18
HETATM   18  C15 UNL     1       2.605   0.979  -0.010  1.00  0.00     0.049 C 
BRANCH  18  19
HETATM   19  C16 UNL     1       3.978   1.124   0.625  1.00  0.00     0.114 C 
BRANCH  19  20
HETATM   20  C17 UNL     1       5.079   0.733  -0.297  1.00  0.00     0.139 C 
HETATM   21  O2  UNL     1       5.119   0.323  -1.506  1.00  0.00    -0.650 OA
BRANCH  20  22
HETATM   22  O3  UNL     1       6.351   0.823   0.251  1.00  0.00    -0.776 OA
HETATM   23  H17 UNL     1       7.118   0.231  -0.069  1.00  0.00     0.167 HD
ENDBRANCH  20  22
ENDBRANCH  19  20
ENDBRANCH  18  19
ENDBRANCH  17  18
ENDBRANCH   1  13
TORSDOF 9
