REMARK  3 active torsions:
REMARK  status: ('A' for Active; 'I' for Inactive)
REMARK    1  A    between atoms: C2_2  and  C3_3 
REMARK    2  A    between atoms: C4_4  and  C5_5 
REMARK    3  A    between atoms: C5_5  and  C6_6 
ROOT
HETATM    1  C5  UNL     1       0.450  -0.300   0.217  1.00  0.00     0.032 C 
ENDROOT
BRANCH   1   2
HETATM    2  C4  UNL     1      -0.929  -0.293   0.405  1.00  0.00    -0.006 C 
HETATM    3  C3  UNL     1      -1.621   0.865   0.539  1.00  0.00     0.066 C 
HETATM    4  O3  UNL     1      -2.982   1.233   0.728  1.00  0.00    -0.282 OA
HETATM    5  C18 UNL     1      -4.128   0.484   0.333  1.00  0.00     0.264 C 
HETATM    6  C17 UNL     1      -4.623  -0.874   0.573  1.00  0.00     0.115 C 
HETATM    7  O2  UNL     1      -5.026   1.015  -0.420  1.00  0.00    -0.265 OA
HETATM    8  C16 UNL     1      -3.927  -1.816  -0.395  1.00  0.00     0.037 C 
HETATM    9  C15 UNL     1      -2.663  -2.338   0.259  1.00  0.00    -0.025 C 
HETATM   10  C14 UNL     1      -1.581  -1.619   0.502  1.00  0.00     0.010 C 
BRANCH   3  11
HETATM   11  C2  UNL     1      -0.943   2.173   0.498  1.00  0.00     0.061 C 
HETATM   12  C1  UNL     1      -1.565   2.949  -0.687  1.00  0.00     0.012 C 
ENDBRANCH   3  11
ENDBRANCH   1   2
BRANCH   1  13
HETATM   13  C6  UNL     1       1.667  -0.631   0.036  1.00  0.00     0.045 A 
HETATM   14  C7  UNL     1       1.860  -2.065  -0.065  1.00  0.00     0.257 A 
HETATM   15  O1  UNL     1       1.203  -3.124  -0.042  1.00  0.00    -0.267 OA
HETATM   16  N1  UNL     1       3.245  -2.338  -0.253  1.00  0.00    -0.322 N 
HETATM   17  C8  UNL     1       3.890  -1.073  -0.266  1.00  0.00     0.046 A 
HETATM   18  H7  UNL     1       3.860  -3.165  -0.374  1.00  0.00     0.169 HD
HETATM   19  C9  UNL     1       5.173  -0.584  -0.400  1.00  0.00     0.030 A 
HETATM   20  C13 UNL     1       2.992  -0.046  -0.099  1.00  0.00     0.006 A 
HETATM   21  C10 UNL     1       5.569   0.731  -0.379  1.00  0.00     0.002 A 
HETATM   22  C11 UNL     1       4.591   1.685  -0.205  1.00  0.00     0.001 A 
HETATM   23  C12 UNL     1       3.290   1.301  -0.064  1.00  0.00     0.015 A 
ENDBRANCH   1  13
TORSDOF 3
