REMARK  2 active torsions:
REMARK  status: ('A' for Active; 'I' for Inactive)
REMARK    1  A    between atoms: C2_2  and  C3_3 
REMARK    2  A    between atoms: C10_12  and  C11_13 
ROOT
HETATM    1  C3  UNL     1      -1.836   0.705  -0.104  1.00  0.00     0.053 C 
HETATM    2  C4  UNL     1      -2.166   0.470   1.363  1.00  0.00     0.041 C 
HETATM    3  N1  UNL     1      -2.807   0.156  -0.970  1.00  0.00    -0.401 N 
HETATM    4  C5  UNL     1      -2.664  -1.208  -1.430  1.00  0.00     0.132 C 
HETATM    5  C6  UNL     1      -3.671  -2.022  -0.682  1.00  0.00     0.039 C 
HETATM    6  C7  UNL     1      -1.232  -1.617  -1.290  1.00  0.00     0.090 C 
HETATM    7  C8  UNL     1      -0.500  -2.389  -0.510  1.00  0.00     0.033 C 
HETATM    8  C9  UNL     1       0.138  -3.600   0.040  1.00  0.00     0.070 C 
HETATM    9  N2  UNL     1      -0.222  -1.104   0.176  1.00  0.00    -0.374 N 
HETATM   10  C10 UNL     1      -0.405   0.324  -0.278  1.00  0.00     0.096 C 
HETATM   11  C20 UNL     1      -0.055   0.349  -1.756  1.00  0.00     0.213 C 
HETATM   12  O2  UNL     1      -0.404  -0.964  -2.301  1.00  0.00    -0.348 OA
HETATM   13  H9  UNL     1      -3.247   0.777  -1.653  1.00  0.00     0.154 HD
HETATM   14  H17 UNL     1       0.198  -1.191   1.196  1.00  0.00     0.160 HD
ENDROOT
BRANCH  10  15
HETATM   15  C11 UNL     1       0.478   1.098   0.574  1.00  0.00     0.026 C 
HETATM   16  C12 UNL     1       1.736   1.236   0.903  1.00  0.00     0.043 A 
HETATM   17  C13 UNL     1       2.366   2.181   1.863  1.00  0.00     0.256 A 
HETATM   18  C19 UNL     1       2.884   0.465   0.429  1.00  0.00     0.006 A 
HETATM   19  O1  UNL     1       1.748   3.071   2.543  1.00  0.00    -0.267 OA
HETATM   20  N3  UNL     1       3.750   1.906   1.873  1.00  0.00    -0.322 N 
HETATM   21  C14 UNL     1       4.079   0.854   0.996  1.00  0.00     0.046 A 
HETATM   22  H19 UNL     1       4.373   2.465   2.487  1.00  0.00     0.169 HD
HETATM   23  C15 UNL     1       5.323   0.321   0.761  1.00  0.00     0.030 A 
HETATM   24  C16 UNL     1       5.420  -0.719  -0.136  1.00  0.00     0.002 A 
HETATM   25  C17 UNL     1       4.273  -1.174  -0.751  1.00  0.00     0.001 A 
HETATM   26  C18 UNL     1       3.068  -0.578  -0.453  1.00  0.00     0.014 A 
ENDBRANCH  10  15
BRANCH   1  27
HETATM   27  C2  UNL     1      -1.960   2.217  -0.321  1.00  0.00     0.029 C 
HETATM   28  C1  UNL     1      -3.376   2.671   0.020  1.00  0.00     0.007 C 
ENDBRANCH   1  27
TORSDOF 2
