REMARK  4 active torsions:
REMARK  status: ('A' for Active; 'I' for Inactive)
REMARK    1  A    between atoms: C2_2  and  N1_3 
REMARK    2  A    between atoms: N3_13  and  C10_14 
REMARK    3  A    between atoms: C10_14  and  C11_15 
REMARK    4  A    between atoms: C20_25  and  C21_26 
ROOT
HETATM    1  N1  UNL     1       4.127  -0.363   1.225  1.00  0.00     0.089 NA
HETATM    2  C3  UNL     1       4.313   0.146  -0.069  1.00  0.00     0.292 C 
HETATM    3  C4  UNL     1       3.669   1.325  -0.662  1.00  0.00     0.153 C 
HETATM    4  N2  UNL     1       2.277   1.558  -0.693  1.00  0.00    -0.356 N 
HETATM    5  C5  UNL     1       0.936   1.822  -0.304  1.00  0.00     0.242 C 
HETATM    6  O1  UNL     1       1.087   1.960   0.928  1.00  0.00    -0.269 OA
HETATM    7  C6  UNL     1      -0.407   1.978  -0.765  1.00  0.00     0.088 C 
HETATM    8  C7  UNL     1      -0.298   0.996  -1.641  1.00  0.00     0.004 C 
HETATM    9  C8  UNL     1      -0.482  -0.158  -1.093  1.00  0.00     0.015 C 
HETATM   10  C9  UNL     1      -1.162  -1.079  -1.986  1.00  0.00     0.069 C 
HETATM   11  N3  UNL     1      -0.231  -0.781   0.128  1.00  0.00    -0.373 N 
HETATM   12  C20 UNL     1       0.691  -1.753   0.732  1.00  0.00     0.120 C 
HETATM   13  C22 UNL     1       1.975  -1.107   0.834  1.00  0.00     0.058 C 
HETATM   14  C23 UNL     1       3.240  -1.602   1.306  1.00  0.00     0.274 C 
HETATM   15  H10 UNL     1       1.860   1.527  -1.650  1.00  0.00     0.162 HD
ENDROOT
BRANCH  11  16
HETATM   16  C10 UNL     1      -1.308  -0.292   0.964  1.00  0.00     0.151 C 
BRANCH  16  17
HETATM   17  C11 UNL     1      -2.646  -0.782   0.567  1.00  0.00     0.002 C 
HETATM   18  C12 UNL     1      -3.888  -0.508   0.162  1.00  0.00    -0.030 C 
HETATM   19  C13 UNL     1      -5.091  -1.356  -0.175  1.00  0.00     0.159 C 
HETATM   20  C19 UNL     1      -4.406   0.853  -0.064  1.00  0.00    -0.002 A 
HETATM   21  N4  UNL     1      -5.560  -0.610  -1.349  1.00  0.00    -0.385 N 
HETATM   22  C14 UNL     1      -5.438   0.771  -0.999  1.00  0.00     0.039 A 
HETATM   23  H20 UNL     1      -5.926  -0.899  -2.289  1.00  0.00     0.160 HD
HETATM   24  C15 UNL     1      -6.079   1.944  -1.366  1.00  0.00     0.030 A 
HETATM   25  C16 UNL     1      -5.748   3.181  -0.855  1.00  0.00     0.002 A 
HETATM   26  C17 UNL     1      -4.724   3.268   0.075  1.00  0.00     0.001 A 
HETATM   27  C18 UNL     1      -4.082   2.109   0.445  1.00  0.00     0.014 A 
ENDBRANCH  16  17
ENDBRANCH  11  16
BRANCH  12  28
HETATM   28  C21 UNL     1       0.809  -2.985  -0.053  1.00  0.00     0.416 C 
HETATM   29  O2  UNL     1       1.131  -4.073  -0.459  1.00  0.00    -0.428 OA
ENDBRANCH  12  28
BRANCH   1  30
HETATM   30  C2  UNL     1       5.400  -1.049   1.679  1.00  0.00     0.268 C 
HETATM   31  C1  UNL     1       6.399   0.071   1.838  1.00  0.00     0.037 C 
ENDBRANCH   1  30
TORSDOF 4
