REMARK  1 active torsions:
REMARK  status: ('A' for Active; 'I' for Inactive)
REMARK    1  A    between atoms: C2_2  and  N1_3 
ROOT
HETATM    1  N1  UNL     1       2.114  -1.221   0.235  1.00  0.00     0.089 N 
HETATM    2  C3  UNL     1       2.524  -0.148   1.082  1.00  0.00     0.272 C 
HETATM    3  C4  UNL     1       2.028   1.208   0.814  1.00  0.00     0.035 C 
HETATM    4  C5  UNL     1       0.571   1.466   0.791  1.00  0.00     0.042 C 
HETATM    5  C6  UNL     1       0.278   2.896   0.505  1.00  0.00    -0.031 A 
HETATM    6  C7  UNL     1       1.235   3.838   0.792  1.00  0.00     0.009 A 
HETATM    7  C8  UNL     1       1.102   5.197   0.590  1.00  0.00     0.001 A 
HETATM    8  C9  UNL     1      -0.058   5.727   0.059  1.00  0.00     0.002 A 
HETATM    9  C10 UNL     1      -1.036   4.752  -0.233  1.00  0.00     0.030 A 
HETATM   10  C11 UNL     1      -0.905   3.361  -0.028  1.00  0.00     0.041 A 
HETATM   11  N2  UNL     1      -2.144   2.820  -0.467  1.00  0.00    -0.323 N 
HETATM   12  C12 UNL     1      -3.227   2.055   0.124  1.00  0.00     0.248 C 
HETATM   13  O1  UNL     1      -2.321   2.268   0.981  1.00  0.00    -0.268 OA
HETATM   14  C13 UNL     1      -4.435   1.659  -0.667  1.00  0.00     0.108 C 
HETATM   15  C14 UNL     1      -3.972   1.142  -1.798  1.00  0.00     0.086 C 
HETATM   16  N3  UNL     1      -3.101   0.218  -1.547  1.00  0.00    -0.266 NA
HETATM   17  C15 UNL     1      -3.345  -0.505  -0.347  1.00  0.00     0.300 C 
HETATM   18  N4  UNL     1      -2.380  -1.518  -0.020  1.00  0.00    -0.256 NA
HETATM   19  C16 UNL     1      -2.721  -2.624   0.574  1.00  0.00     0.100 C 
HETATM   20  C17 UNL     1      -3.998  -3.201   1.068  1.00  0.00     0.091 C 
HETATM   21  N5  UNL     1      -1.742  -3.578   0.864  1.00  0.00    -0.297 N 
HETATM   22  C18 UNL     1      -0.389  -3.516   0.588  1.00  0.00     0.321 C 
HETATM   23  O2  UNL     1      -0.228  -2.425   0.008  1.00  0.00    -0.247 OA
HETATM   24  N6  UNL     1       0.945  -3.862   0.523  1.00  0.00    -0.341 N 
HETATM   25  C19 UNL     1       2.301  -3.624   0.158  1.00  0.00     0.154 C 
HETATM   26  C20 UNL     1       2.827  -2.394   0.791  1.00  0.00     0.292 C 
HETATM   27  H16 UNL     1      -2.359   3.000  -1.501  1.00  0.00     0.169 HD
HETATM   28  H23 UNL     1      -1.525  -4.487   1.269  1.00  0.00     0.172 HD
HETATM   29  H24 UNL     1       0.643  -4.731   1.016  1.00  0.00     0.164 HD
ENDROOT
BRANCH   1  30
HETATM   30  C2  UNL     1       2.585  -1.112  -1.133  1.00  0.00     0.268 C 
HETATM   31  C1  UNL     1       4.056  -1.276  -1.303  1.00  0.00     0.037 C 
ENDBRANCH   1  30
TORSDOF 1
