REMARK  0 active torsions:
REMARK  status: ('A' for Active; 'I' for Inactive)
ROOT
HETATM    1  C1  UNL     1      -3.614  -4.091  -1.020  1.00  0.00     0.044 C 
HETATM    2  C2  UNL     1      -2.421  -3.610  -0.288  1.00  0.00    -0.077 C 
HETATM    3  C3  UNL     1      -1.400  -4.054  -1.052  1.00  0.00     0.151 C 
HETATM    4  S1  UNL     1       0.279  -4.372  -1.639  1.00  0.00    -0.193 SA
HETATM    5  C4  UNL     1       1.337  -3.159  -0.909  1.00  0.00     0.027 C 
HETATM    6  C5  UNL     1       2.596  -3.128  -0.518  1.00  0.00    -0.015 C 
HETATM    7  C6  UNL     1       3.861  -2.683   0.015  1.00  0.00     0.045 C 
HETATM    8  C7  UNL     1       4.229  -1.462   0.545  1.00  0.00    -0.026 A 
HETATM    9  B1  UNL     1       5.728  -1.891   0.845  1.00  0.00     0.193 B 
HETATM   10  C8  UNL     1       6.658  -0.791   1.521  1.00  0.00    -0.082 A 
HETATM   11  C9  UNL     1       6.157   0.394   1.795  1.00  0.00    -0.014 A 
HETATM   12  C10 UNL     1       4.778   0.714   1.493  1.00  0.00     0.023 A 
HETATM   13  C11 UNL     1       3.894  -0.046   0.951  1.00  0.00     0.002 A 
HETATM   14  N1  UNL     1       2.510   0.196   0.600  1.00  0.00    -0.378 N 
HETATM   15  C12 UNL     1       2.294   0.642  -0.798  1.00  0.00     0.238 C 
HETATM   16  N2  UNL     1       2.813   1.939  -1.009  1.00  0.00    -0.406 N 
HETATM   17  C13 UNL     1       2.310   3.031  -0.289  1.00  0.00     0.115 C 
HETATM   18  C14 UNL     1       0.983   3.605  -0.576  1.00  0.00     0.021 C 
HETATM   19  C15 UNL     1      -0.190   2.664  -0.535  1.00  0.00     0.032 C 
HETATM   20  C16 UNL     1      -1.463   3.519  -0.667  1.00  0.00     0.274 C 
HETATM   21  N3  UNL     1      -2.635   2.733  -0.746  1.00  0.00     0.101 N 
HETATM   22  C17 UNL     1      -3.804   3.586  -0.830  1.00  0.00     0.312 C 
HETATM   23  C18 UNL     1      -2.780   1.686   0.251  1.00  0.00     0.390 C 
HETATM   24  N4  UNL     1      -4.039   1.076   0.046  1.00  0.00    -0.398 N 
HETATM   25  C19 UNL     1      -4.507   0.037   0.848  1.00  0.00     0.115 C 
HETATM   26  C20 UNL     1      -3.946  -1.321   0.678  1.00  0.00     0.019 C 
HETATM   27  C21 UNL     1      -2.472  -1.431   0.818  1.00  0.00     0.006 C 
HETATM   28  C22 UNL     1      -2.024  -2.890   0.913  1.00  0.00     0.034 C 
HETATM   29  H8  UNL     1       6.242  -2.581  -0.013  1.00  0.00    -0.021 HD
HETATM   30  H12 UNL     1       2.239  -0.063   1.570  1.00  0.00     0.161 HD
HETATM   31  H15 UNL     1       3.119   2.149  -1.961  1.00  0.00     0.154 HD
HETATM   32  H29 UNL     1      -4.779   1.772  -0.159  1.00  0.00     0.154 HD
ENDROOT
TORSDOF 0
