REMARK  7 active torsions:
REMARK  status: ('A' for Active; 'I' for Inactive)
REMARK    1  A    between atoms: C2_2  and  C3_3 
REMARK    2  A    between atoms: C4_4  and  C5_5 
REMARK    3  A    between atoms: C15_18  and  C16_19 
REMARK       I    between atoms: C16_19  and  N3_21 
REMARK    4  A    between atoms: N3_21  and  C17_22 
REMARK    5  A    between atoms: C17_22  and  C18_23 
REMARK    6  A    between atoms: C18_23  and  N4_24 
REMARK    7  A    between atoms: N4_24  and  C20_26 
ROOT
HETATM    1  C3  UNL     1      -1.043  -0.664   0.111  1.00  0.00    -0.004 A 
HETATM    2  C4  UNL     1      -2.172  -0.098   0.425  1.00  0.00     0.114 A 
HETATM    3  O1  UNL     1      -2.036   0.884   1.389  1.00  0.00    -0.237 OA
HETATM    4  N2  UNL     1      -0.913   1.287   1.997  1.00  0.00    -0.264 N 
HETATM    5  C13 UNL     1       0.280   0.652   1.627  1.00  0.00     0.045 A 
HETATM    6  C14 UNL     1       1.437   1.181   2.369  1.00  0.00     0.071 C 
HETATM    7  C15 UNL     1       0.239  -0.288   0.721  1.00  0.00     0.065 A 
HETATM    8  H16 UNL     1      -1.049   2.042   2.691  1.00  0.00     0.194 HD
ENDROOT
BRANCH   2   9
HETATM    9  C5  UNL     1      -3.493  -0.405  -0.138  1.00  0.00    -0.001 C 
HETATM   10  C6  UNL     1      -4.344   0.388   0.490  1.00  0.00    -0.060 C 
HETATM   11  C7  UNL     1      -4.898   1.684   1.056  1.00  0.00     0.071 C 
HETATM   12  C11 UNL     1      -5.752  -0.289   0.752  1.00  0.00     0.092 C 
HETATM   13  C8  UNL     1      -6.018   1.797  -0.113  1.00  0.00    -0.057 C 
HETATM   14  C9  UNL     1      -7.051   2.550  -0.922  1.00  0.00     0.046 C 
HETATM   15  C10 UNL     1      -5.803   0.531  -0.576  1.00  0.00     0.011 C 
HETATM   16  N1  UNL     1      -5.414  -0.338  -1.628  1.00  0.00    -0.388 N 
HETATM   17  C12 UNL     1      -4.223  -1.194  -1.153  1.00  0.00     0.161 C 
HETATM   18  H13 UNL     1      -6.098  -0.065  -2.423  1.00  0.00     0.159 HD
ENDBRANCH   2   9
BRANCH   1  19
HETATM   19  C2  UNL     1      -0.985  -1.727  -0.890  1.00  0.00     0.038 C 
HETATM   20  C1  UNL     1      -0.700  -3.032  -0.163  1.00  0.00     0.010 C 
ENDBRANCH   1  19
BRANCH   7  21
HETATM   21  C16 UNL     1       1.455  -0.922   0.293  1.00  0.00     0.254 C 
HETATM   22  O2  UNL     1       1.788  -1.835  -0.539  1.00  0.00    -0.268 OA
HETATM   23  N3  UNL     1       2.809  -0.886   0.531  1.00  0.00    -0.355 N 
HETATM   24  H20 UNL     1       3.076  -0.182   1.245  1.00  0.00     0.162 HD
BRANCH  23  25
HETATM   25  C17 UNL     1       3.793  -1.705  -0.108  1.00  0.00     0.153 C 
BRANCH  25  26
HETATM   26  C18 UNL     1       5.143  -1.311   0.465  1.00  0.00     0.291 C 
BRANCH  26  27
HETATM   27  N4  UNL     1       5.455   0.067   0.232  1.00  0.00     0.085 N 
HETATM   28  C19 UNL     1       6.766   0.316   0.826  1.00  0.00     0.309 C 
BRANCH  27  29
HETATM   29  C20 UNL     1       5.533   0.447  -1.147  1.00  0.00     0.267 C 
HETATM   30  C21 UNL     1       5.872   1.942  -1.183  1.00  0.00     0.037 C 
ENDBRANCH  27  29
ENDBRANCH  26  27
ENDBRANCH  25  26
ENDBRANCH  23  25
ENDBRANCH   7  21
TORSDOF 7
