REMARK  7 active torsions:
REMARK  status: ('A' for Active; 'I' for Inactive)
REMARK    1  A    between atoms: C2_2  and  N1_3 
REMARK    2  A    between atoms: N1_3  and  C3_4 
REMARK    3  A    between atoms: N1_3  and  C5_6 
REMARK    4  A    between atoms: C5_6  and  C6_7 
REMARK    5  A    between atoms: C6_7  and  N2_8 
REMARK    6  A    between atoms: C8_10  and  N3_11 
REMARK    7  A    between atoms: C9_12  and  C10_13 
ROOT
HETATM    1  N2  UNL     1       0.546  -0.271   0.431  1.00  0.00    -0.380 N 
HETATM    2  C7  UNL     1       0.179  -1.271   1.410  1.00  0.00     0.162 C 
HETATM    3  C8  UNL     1      -1.312  -1.029   1.541  1.00  0.00     0.267 C 
HETATM    4  C9  UNL     1      -1.682  -0.585   0.169  1.00  0.00    -0.006 C 
HETATM    5  C18 UNL     1      -0.580  -0.144  -0.465  1.00  0.00     0.009 C 
HETATM    6  C19 UNL     1      -0.431   0.399  -1.814  1.00  0.00     0.068 C 
ENDROOT
BRANCH   4   7
HETATM    7  C10 UNL     1      -3.042  -0.625  -0.348  1.00  0.00     0.146 C 
HETATM    8  C11 UNL     1      -3.339  -0.283  -1.707  1.00  0.00     0.235 C 
HETATM    9  O1  UNL     1      -3.055  -0.811  -2.825  1.00  0.00    -0.272 OA
HETATM   10  N4  UNL     1      -4.138   0.927  -1.813  1.00  0.00    -0.326 N 
HETATM   11  C12 UNL     1      -4.467   1.253  -0.446  1.00  0.00     0.042 A 
HETATM   12  H21 UNL     1      -4.454   1.503  -2.636  1.00  0.00     0.169 HD
HETATM   13  C13 UNL     1      -5.271   2.267   0.031  1.00  0.00     0.032 A 
HETATM   14  C17 UNL     1      -3.899   0.308   0.429  1.00  0.00    -0.012 A 
HETATM   15  C14 UNL     1      -5.577   2.433   1.362  1.00  0.00     0.026 A 
HETATM   16  C15 UNL     1      -5.033   1.509   2.267  1.00  0.00     0.034 A 
HETATM   17 CL1  UNL     1      -5.393   1.674   3.968  1.00  0.00    -0.084 Cl
HETATM   18  C16 UNL     1      -4.234   0.512   1.750  1.00  0.00     0.034 A 
ENDBRANCH   4   7
BRANCH   3  19
HETATM   19  N3  UNL     1      -1.967  -2.292   1.809  1.00  0.00     0.088 N 
HETATM   20  H18 UNL     1      -2.983  -2.198   1.726  1.00  0.00     0.313 HD
HETATM   21  H19 UNL     1      -1.650  -3.055   1.200  1.00  0.00     0.313 HD
ENDBRANCH   3  19
BRANCH   1  22
HETATM   22  C6  UNL     1       1.858   0.425   0.441  1.00  0.00     0.153 C 
BRANCH  22  23
HETATM   23  C5  UNL     1       2.862  -0.603   0.104  1.00  0.00     0.292 C 
BRANCH  23  24
HETATM   24  N1  UNL     1       4.235  -0.264   0.051  1.00  0.00     0.089 N 
BRANCH  24  25
HETATM   25  C2  UNL     1       4.949  -1.509  -0.296  1.00  0.00     0.268 C 
HETATM   26  C1  UNL     1       4.557  -2.050  -1.631  1.00  0.00     0.037 C 
ENDBRANCH  24  25
BRANCH  24  27
HETATM   27  C3  UNL     1       4.644   0.808  -0.783  1.00  0.00     0.268 C 
HETATM   28  C4  UNL     1       4.080   2.161  -0.442  1.00  0.00     0.037 C 
ENDBRANCH  24  27
ENDBRANCH  23  24
ENDBRANCH  22  23
ENDBRANCH   1  22
TORSDOF 7
