REMARK  9 active torsions:
REMARK  status: ('A' for Active; 'I' for Inactive)
REMARK    1  A    between atoms: N1_2  and  C2_3 
REMARK    2  A    between atoms: C2_3  and  C12_16 
REMARK    3  A    between atoms: C3_4  and  C5_6 
REMARK    4  A    between atoms: C5_6  and  C6_7 
REMARK       I    between atoms: C6_7  and  N2_9 
REMARK    5  A    between atoms: N2_9  and  C7_10 
REMARK    6  A    between atoms: C7_10  and  C8_11 
REMARK    7  A    between atoms: C8_11  and  C9_12 
REMARK    8  A    between atoms: C9_12  and  C11_14 
REMARK    9  A    between atoms: C11_14  and  O2_15 
ROOT
HETATM    1  C2  UNL     1      -1.576  -1.500  -0.532  1.00  0.00     0.025 C 
HETATM    2  C3  UNL     1      -0.455  -2.200  -0.507  1.00  0.00    -0.052 C 
HETATM    3  C4  UNL     1      -0.440  -3.215   0.584  1.00  0.00     0.046 C 
ENDROOT
BRANCH   1   4
HETATM    4  N1  UNL     1      -2.582  -1.780   0.431  1.00  0.00    -0.396 N 
HETATM    5  C1  UNL     1      -2.818  -1.263   1.754  1.00  0.00     0.146 C 
HETATM    6  H4  UNL     1      -3.225  -2.492   0.046  1.00  0.00     0.158 HD
ENDBRANCH   1   4
BRANCH   1   7
HETATM    7  C12 UNL     1      -1.995  -0.405  -1.436  1.00  0.00     0.163 A 
HETATM    8  C13 UNL     1      -3.259  -0.778  -2.121  1.00  0.00     0.236 A 
HETATM    9  O3  UNL     1      -3.272  -1.808  -2.843  1.00  0.00    -0.272 OA
HETATM   10  N3  UNL     1      -4.247   0.186  -1.781  1.00  0.00    -0.325 N 
HETATM   11  C14 UNL     1      -3.706   1.181  -0.905  1.00  0.00     0.048 A 
HETATM   12  H23 UNL     1      -5.229   0.131  -2.151  1.00  0.00     0.169 HD
HETATM   13  C15 UNL     1      -4.233   2.301  -0.302  1.00  0.00    -0.032 A 
HETATM   14  C20 UNL     1      -2.380   0.834  -0.700  1.00  0.00    -0.009 A 
HETATM   15  C16 UNL     1      -5.651   2.669  -0.522  1.00  0.00     0.050 C 
HETATM   16  C17 UNL     1      -3.426   3.072   0.508  1.00  0.00     0.051 A 
HETATM   17  C18 UNL     1      -2.089   2.769   0.747  1.00  0.00     0.117 A 
HETATM   18  F1  UNL     1      -1.314   3.546   1.549  1.00  0.00    -0.206 F 
HETATM   19  C19 UNL     1      -1.603   1.629   0.115  1.00  0.00     0.052 A 
ENDBRANCH   1   7
BRANCH   2  20
HETATM   20  C5  UNL     1       0.687  -2.041  -1.441  1.00  0.00     0.138 C 
BRANCH  20  21
HETATM   21  C6  UNL     1       1.919  -1.640  -0.721  1.00  0.00     0.221 C 
HETATM   22  O1  UNL     1       1.644  -1.504   0.491  1.00  0.00    -0.273 OA
HETATM   23  N2  UNL     1       3.209  -1.425  -1.223  1.00  0.00    -0.361 N 
HETATM   24  H10 UNL     1       3.141  -1.621  -2.258  1.00  0.00     0.162 HD
BRANCH  23  25
HETATM   25  C7  UNL     1       4.457  -1.033  -0.658  1.00  0.00     0.123 C 
BRANCH  25  26
HETATM   26  C8  UNL     1       4.578   0.301  -0.053  1.00  0.00     0.026 C 
BRANCH  26  27
HETATM   27  C9  UNL     1       3.745   0.699   1.092  1.00  0.00     0.007 C 
HETATM   28  C10 UNL     1       3.891  -0.138   2.319  1.00  0.00     0.012 C 
BRANCH  27  29
HETATM   29  C11 UNL     1       4.297   2.093   1.517  1.00  0.00     0.168 C 
BRANCH  29  30
HETATM   30  O2  UNL     1       5.633   1.860   1.846  1.00  0.00    -0.400 OA
HETATM   31  H21 UNL     1       6.169   2.690   1.830  1.00  0.00     0.209 HD
ENDBRANCH  29  30
ENDBRANCH  27  29
ENDBRANCH  26  27
ENDBRANCH  25  26
ENDBRANCH  23  25
ENDBRANCH  20  21
ENDBRANCH   2  20
TORSDOF 9
