REMARK  5 active torsions:
REMARK  status: ('A' for Active; 'I' for Inactive)
REMARK    1  A    between atoms: C4_4  and  C5_5 
REMARK    2  A    between atoms: C5_5  and  N1_6 
REMARK    3  A    between atoms: N1_6  and  C6_7 
REMARK    4  A    between atoms: C9_12  and  N4_13 
REMARK    5  A    between atoms: N4_13  and  C10_14 
ROOT
HETATM    1  C1  UNL     1       4.971   1.928   1.307  1.00  0.00     0.017 C 
HETATM    2  C2  UNL     1       4.733   1.198   0.354  1.00  0.00    -0.090 C 
HETATM    3  C3  UNL     1       4.446   0.346  -0.759  1.00  0.00     0.061 C 
HETATM    4  C4  UNL     1       3.262   0.287  -1.344  1.00  0.00     0.001 C 
ENDROOT
BRANCH   4   5
HETATM    5  C5  UNL     1       1.977   0.985  -1.096  1.00  0.00     0.148 C 
BRANCH   5   6
HETATM    6  N1  UNL     1       0.877   0.104  -0.804  1.00  0.00    -0.382 N 
HETATM    7  H6  UNL     1       0.045   0.109  -1.471  1.00  0.00     0.160 HD
BRANCH   6   8
HETATM    8  C6  UNL     1       0.630  -0.816   0.216  1.00  0.00     0.092 A 
HETATM    9  C7  UNL     1       1.605  -0.951   1.182  1.00  0.00     0.151 A 
HETATM   10  N2  UNL     1       1.485  -1.810   2.230  1.00  0.00    -0.252 NA
HETATM   11  C8  UNL     1       0.383  -2.582   2.371  1.00  0.00     0.235 A 
HETATM   12  N3  UNL     1      -0.573  -2.460   1.439  1.00  0.00    -0.222 NA
HETATM   13  C9  UNL     1      -0.472  -1.623   0.404  1.00  0.00     0.157 A 
BRANCH  13  14
HETATM   14  N4  UNL     1      -1.498  -1.487  -0.604  1.00  0.00    -0.339 N 
HETATM   15  H9  UNL     1      -1.577  -2.034  -1.498  1.00  0.00     0.167 HD
BRANCH  14  16
HETATM   16  C10 UNL     1      -2.521  -0.508  -0.378  1.00  0.00     0.035 A 
HETATM   17  C11 UNL     1      -3.558  -0.288  -1.279  1.00  0.00     0.029 A 
HETATM   18  C12 UNL     1      -4.534   0.669  -1.028  1.00  0.00     0.004 A 
HETATM   19  C13 UNL     1      -4.475   1.415   0.132  1.00  0.00     0.019 A 
HETATM   20  C14 UNL     1      -3.468   1.237   1.058  1.00  0.00     0.013 A 
HETATM   21 BR1  UNL     1      -3.321   2.225   2.676  1.00  0.00    -0.051 Br
HETATM   22  C15 UNL     1      -2.536   0.273   0.746  1.00  0.00     0.048 A 
ENDBRANCH  14  16
ENDBRANCH  13  14
ENDBRANCH   6   8
ENDBRANCH   5   6
ENDBRANCH   4   5
TORSDOF 5
