REMARK  8 active torsions:
REMARK  status: ('A' for Active; 'I' for Inactive)
REMARK    1  A    between atoms: C3_3  and  C13_16 
REMARK    2  A    between atoms: C4_4  and  C5_5 
REMARK    3  A    between atoms: C15_18  and  C16_19 
REMARK       I    between atoms: C16_19  and  N2_21 
REMARK    4  A    between atoms: N2_21  and  C17_22 
REMARK    5  A    between atoms: C17_22  and  C18_23 
REMARK    6  A    between atoms: C18_23  and  N3_24 
REMARK    7  A    between atoms: N3_24  and  C19_25 
REMARK    8  A    between atoms: N3_24  and  C21_27 
ROOT
HETATM    1  C1  UNL     1       3.191   3.951  -3.309  1.00  0.00     0.016 C 
HETATM    2  C2  UNL     1       2.443   2.988  -2.575  1.00  0.00     0.024 A 
HETATM    3  C3  UNL     1       1.710   2.224  -1.875  1.00  0.00    -0.060 A 
HETATM    4  C4  UNL     1       2.720   1.392  -2.633  1.00  0.00     0.063 A 
ENDROOT
BRANCH   3   5
HETATM    5  C13 UNL     1       0.916   1.295  -1.141  1.00  0.00    -0.053 C 
HETATM    6  C14 UNL     1       0.660  -0.151  -1.440  1.00  0.00     0.048 C 
HETATM    7  C15 UNL     1       0.224   1.769  -0.078  1.00  0.00     0.081 C 
BRANCH   7   8
HETATM    8  C16 UNL     1      -0.685   1.505   1.022  1.00  0.00     0.241 C 
HETATM    9  O2  UNL     1      -1.106   2.385   1.876  1.00  0.00    -0.269 OA
HETATM   10  N2  UNL     1      -1.224   0.257   1.291  1.00  0.00    -0.356 N 
HETATM   11  H14 UNL     1      -0.872  -0.455   0.567  1.00  0.00     0.162 HD
BRANCH  10  12
HETATM   12  C17 UNL     1      -2.095  -0.498   2.168  1.00  0.00     0.142 C 
BRANCH  12  13
HETATM   13  C18 UNL     1      -3.517   0.069   2.110  1.00  0.00     0.136 C 
BRANCH  13  14
HETATM   14  N3  UNL     1      -4.393  -0.691   2.923  1.00  0.00    -0.412 N 
BRANCH  14  15
HETATM   15  C19 UNL     1      -4.666  -2.004   2.476  1.00  0.00     0.112 C 
HETATM   16  C20 UNL     1      -5.597  -2.821   3.310  1.00  0.00     0.026 C 
ENDBRANCH  14  15
BRANCH  14  17
HETATM   17  C21 UNL     1      -5.384  -0.004   3.660  1.00  0.00     0.112 C 
HETATM   18  C22 UNL     1      -6.429   0.611   2.750  1.00  0.00     0.026 C 
ENDBRANCH  14  17
ENDBRANCH  13  14
ENDBRANCH  12  13
ENDBRANCH  10  12
ENDBRANCH   7   8
ENDBRANCH   3   5
BRANCH   4  19
HETATM   19  C5  UNL     1       3.493   0.464  -2.044  1.00  0.00     0.031 A 
HETATM   20  C6  UNL     1       3.532   0.107  -0.642  1.00  0.00     0.253 A 
HETATM   21  O1  UNL     1       3.001   0.493   0.439  1.00  0.00    -0.268 OA
HETATM   22  N1  UNL     1       4.411  -0.978  -0.334  1.00  0.00    -0.322 N 
HETATM   23  C7  UNL     1       4.968  -1.347  -1.576  1.00  0.00     0.046 A 
HETATM   24  H6  UNL     1       4.730  -1.530   0.482  1.00  0.00     0.169 HD
HETATM   25  C8  UNL     1       5.852  -2.264  -2.088  1.00  0.00     0.032 A 
HETATM   26  C12 UNL     1       4.453  -0.528  -2.572  1.00  0.00     0.005 A 
HETATM   27  C9  UNL     1       6.266  -2.466  -3.366  1.00  0.00     0.026 A 
HETATM   28  C10 UNL     1       5.732  -1.631  -4.339  1.00  0.00     0.035 A 
HETATM   29 CL1  UNL     1       6.232  -1.848  -5.993  1.00  0.00    -0.084 Cl
HETATM   30  C11 UNL     1       4.833  -0.673  -3.928  1.00  0.00     0.038 A 
ENDBRANCH   4  19
TORSDOF 8
