REMARK  4 active torsions:
REMARK  status: ('A' for Active; 'I' for Inactive)
REMARK    1  A    between atoms: N1_1  and  O1_2 
REMARK    2  A    between atoms: O1_2  and  C1_3 
REMARK    3  A    between atoms: C9_12  and  N3_13 
REMARK    4  A    between atoms: N3_13  and  C10_14 
ROOT
HETATM    1  C1  UNL     1      -4.366   0.632  -0.454  1.00  0.00     0.098 A 
HETATM    2  C2  UNL     1      -4.741  -0.528   0.224  1.00  0.00     0.042 A 
HETATM    3  C3  UNL     1      -3.829  -1.553   0.495  1.00  0.00     0.041 A 
HETATM    4  C4  UNL     1      -2.545  -1.305   0.030  1.00  0.00     0.086 A 
HETATM    5  C5  UNL     1      -2.091  -0.213  -0.635  1.00  0.00    -0.004 A 
HETATM    6  C6  UNL     1      -3.055   0.774  -0.873  1.00  0.00     0.051 A 
HETATM    7  C7  UNL     1      -0.849   0.281  -1.211  1.00  0.00     0.161 C 
HETATM    8  N2  UNL     1       0.330  -0.473  -0.955  1.00  0.00    -0.379 N 
HETATM    9  C8  UNL     1       0.531  -1.624  -0.119  1.00  0.00     0.129 A 
HETATM   10  C9  UNL     1       1.877  -1.788   0.048  1.00  0.00     0.160 A 
HETATM   11  N4  UNL     1       2.273  -2.822   0.822  1.00  0.00    -0.222 NA
HETATM   12  C16 UNL     1       1.377  -3.659   1.404  1.00  0.00     0.238 A 
HETATM   13  N5  UNL     1       0.067  -3.479   1.225  1.00  0.00    -0.215 NA
HETATM   14  C17 UNL     1      -0.379  -2.469   0.468  1.00  0.00     0.202 A 
HETATM   15  O2  UNL     1      -1.760  -2.400   0.369  1.00  0.00    -0.289 OA
HETATM   16  H8  UNL     1       1.180  -0.128  -1.459  1.00  0.00     0.160 HD
ENDROOT
BRANCH  10  17
HETATM   17  N3  UNL     1       2.922  -1.005  -0.508  1.00  0.00    -0.339 N 
HETATM   18  H9  UNL     1       3.245  -1.568  -1.338  1.00  0.00     0.167 HD
BRANCH  17  19
HETATM   19  C10 UNL     1       3.546   0.240  -0.201  1.00  0.00     0.035 A 
HETATM   20  C11 UNL     1       4.692   0.619  -0.862  1.00  0.00     0.029 A 
HETATM   21  C12 UNL     1       5.230   1.840  -0.526  1.00  0.00     0.004 A 
HETATM   22  C13 UNL     1       4.652   2.656   0.433  1.00  0.00     0.019 A 
HETATM   23  C14 UNL     1       3.486   2.252   1.097  1.00  0.00     0.013 A 
HETATM   24 BR1  UNL     1       2.707   3.409   2.418  1.00  0.00    -0.051 Br
HETATM   25  C15 UNL     1       2.940   1.033   0.767  1.00  0.00     0.048 A 
ENDBRANCH  17  19
ENDBRANCH  10  17
BRANCH   1  26
HETATM   26  O1  UNL     1      -5.378   1.526  -0.632  1.00  0.00    -0.245 OA
BRANCH  26  27
HETATM   27  N1  UNL     1      -5.992   2.319   0.259  1.00  0.00    -0.305 N 
HETATM   28  H1  UNL     1      -6.233   1.941   1.172  1.00  0.00     0.184 HD
HETATM   29  H2  UNL     1      -5.693   3.294   0.325  1.00  0.00     0.184 HD
ENDBRANCH  26  27
ENDBRANCH   1  26
TORSDOF 4
