REMARK  6 active torsions:
REMARK  status: ('A' for Active; 'I' for Inactive)
REMARK    1  A    between atoms: C3_3  and  C4_4 
REMARK       I    between atoms: C4_4  and  N1_6 
REMARK    2  A    between atoms: N1_6  and  C5_7 
REMARK    3  A    between atoms: C5_7  and  C6_8 
REMARK    4  A    between atoms: C6_8  and  N2_9 
REMARK    5  A    between atoms: C9_12  and  C10_13 
REMARK    6  A    between atoms: C10_13  and  C11_14 
ROOT
HETATM    1  C1  UNL     1       1.635  -3.818   0.228  1.00  0.00     0.068 C 
HETATM    2  C2  UNL     1       0.572  -2.807   0.399  1.00  0.00     0.015 A 
HETATM    3  C3  UNL     1       0.574  -1.486   0.340  1.00  0.00     0.054 A 
HETATM    4  C9  UNL     1      -0.867  -1.281   0.629  1.00  0.00     0.126 A 
HETATM    5  N4  UNL     1      -0.822  -2.729   0.674  1.00  0.00    -0.384 N 
HETATM    6  H23 UNL     1      -1.462  -3.555   0.832  1.00  0.00     0.160 HD
ENDROOT
BRANCH   4   7
HETATM    7  C10 UNL     1      -1.679  -0.820  -0.562  1.00  0.00     0.058 C 
BRANCH   7   8
HETATM    8  C11 UNL     1      -3.074  -0.674  -0.075  1.00  0.00    -0.006 C 
HETATM    9  C12 UNL     1      -3.815   0.399  -0.063  1.00  0.00     0.041 A 
HETATM   10  C13 UNL     1      -3.458   1.732  -0.527  1.00  0.00     0.256 A 
HETATM   11  C19 UNL     1      -5.177   0.445   0.435  1.00  0.00     0.009 A 
HETATM   12  O2  UNL     1      -2.379   2.134  -1.031  1.00  0.00    -0.267 OA
HETATM   13  N3  UNL     1      -4.604   2.566  -0.305  1.00  0.00    -0.322 N 
HETATM   14  C14 UNL     1      -5.619   1.749   0.278  1.00  0.00     0.046 A 
HETATM   15  H19 UNL     1      -4.643   3.573  -0.539  1.00  0.00     0.169 HD
HETATM   16  C15 UNL     1      -6.899   2.176   0.651  1.00  0.00     0.033 A 
HETATM   17  C16 UNL     1      -7.718   1.192   1.200  1.00  0.00     0.044 A 
HETATM   18  C17 UNL     1      -7.349  -0.121   1.387  1.00  0.00     0.117 A 
HETATM   19  F1  UNL     1      -8.210  -1.015   1.930  1.00  0.00    -0.206 F 
HETATM   20  C18 UNL     1      -6.083  -0.430   0.991  1.00  0.00     0.057 A 
ENDBRANCH   7   8
ENDBRANCH   4   7
BRANCH   3  21
HETATM   21  C4  UNL     1       1.510  -0.375   0.102  1.00  0.00     0.251 C 
HETATM   22  O1  UNL     1       1.385   0.880   0.071  1.00  0.00    -0.268 OA
HETATM   23  N1  UNL     1       2.875  -0.695  -0.159  1.00  0.00    -0.355 N 
HETATM   24  H4  UNL     1       3.271  -1.681  -0.194  1.00  0.00     0.162 HD
BRANCH  23  25
HETATM   25  C5  UNL     1       3.663   0.530  -0.373  1.00  0.00     0.153 C 
BRANCH  25  26
HETATM   26  C6  UNL     1       5.115   0.219  -0.651  1.00  0.00     0.291 C 
BRANCH  26  27
HETATM   27  N2  UNL     1       5.837   1.461  -0.855  1.00  0.00     0.081 N 
HETATM   28  C7  UNL     1       5.918   2.215   0.358  1.00  0.00     0.309 C 
HETATM   29  C8  UNL     1       7.134   1.186  -1.401  1.00  0.00     0.309 C 
ENDBRANCH  26  27
ENDBRANCH  25  26
ENDBRANCH  23  25
ENDBRANCH   3  21
TORSDOF 6
