REMARK  2 active torsions:
REMARK  status: ('A' for Active; 'I' for Inactive)
REMARK    1  A    between atoms: C13_17  and  C14_18 
REMARK    2  A    between atoms: C14_18  and  C15_19 
ROOT
HETATM    1  C1  UNL     1      -1.467   2.112  -0.619  1.00  0.00     0.055 C 
HETATM    2  C2  UNL     1      -0.727   0.865  -0.720  1.00  0.00     0.193 C 
HETATM    3  N1  UNL     1      -0.884   0.119  -1.961  1.00  0.00     0.102 N 
HETATM    4  C3  UNL     1      -1.017  -1.362  -1.597  1.00  0.00     0.306 C 
HETATM    5  C4  UNL     1      -0.256  -1.170  -0.367  1.00  0.00    -0.028 C 
HETATM    6  C5  UNL     1       0.922  -1.512   0.057  1.00  0.00     0.050 A 
HETATM    7  C6  UNL     1       1.932  -2.429   0.461  1.00  0.00     0.257 A 
HETATM    8  O1  UNL     1       1.392  -3.540   0.319  1.00  0.00    -0.267 OA
HETATM    9  N2  UNL     1       3.045  -1.587   0.819  1.00  0.00    -0.322 N 
HETATM   10  C7  UNL     1       2.820  -0.187   0.667  1.00  0.00     0.047 A 
HETATM   11  C8  UNL     1       3.517   0.982   0.815  1.00  0.00     0.033 A 
HETATM   12  C9  UNL     1       2.767   2.108   0.445  1.00  0.00     0.045 A 
HETATM   13  C10 UNL     1       1.472   2.124  -0.024  1.00  0.00     0.126 A 
HETATM   14  F1  UNL     1       0.869   3.272  -0.347  1.00  0.00    -0.205 F 
HETATM   15  C11 UNL     1       0.690   0.971  -0.202  1.00  0.00     0.033 A 
HETATM   16  C12 UNL     1       1.536  -0.112   0.201  1.00  0.00     0.019 A 
HETATM   17  C13 UNL     1      -1.241  -0.221   0.292  1.00  0.00     0.068 C 
HETATM   18  H4  UNL     1      -0.051   0.222  -2.543  1.00  0.00     0.317 HD
HETATM   19  H7  UNL     1       3.882  -2.092   1.144  1.00  0.00     0.169 HD
ENDROOT
BRANCH  17  20
HETATM   20  C14 UNL     1      -2.642  -0.475   0.285  1.00  0.00     0.108 C 
BRANCH  20  21
HETATM   21  C15 UNL     1      -2.957  -1.550   1.292  1.00  0.00     0.219 C 
HETATM   22  O2  UNL     1      -2.734  -2.737   1.115  1.00  0.00    -0.280 OA
HETATM   23 CL1  UNL     1      -3.695  -1.292   2.885  1.00  0.00    -0.044 Cl
ENDBRANCH  20  21
ENDBRANCH  17  20
TORSDOF 2
