REMARK  8 active torsions:
REMARK  status: ('A' for Active; 'I' for Inactive)
REMARK    1  A    between atoms: C2_2  and  C3_3 
REMARK    2  A    between atoms: C3_3  and  N1_4 
REMARK    3  A    between atoms: C3_3  and  C11_15 
REMARK    4  A    between atoms: N1_4  and  C4_5 
REMARK    5  A    between atoms: C5_6  and  C6_7 
REMARK       I    between atoms: C6_7  and  N2_9 
REMARK    6  A    between atoms: N2_9  and  C7_10 
REMARK    7  A    between atoms: C7_10  and  C8_11 
REMARK    8  A    between atoms: C8_11  and  N3_12 
ROOT
HETATM    1  C3  UNL     1      -1.636  -1.240  -0.761  1.00  0.00     0.114 C 
ENDROOT
BRANCH   1   2
HETATM    2  C2  UNL     1      -2.396  -2.406  -1.312  1.00  0.00     0.025 C 
HETATM    3  C1  UNL     1      -2.897  -3.399  -0.301  1.00  0.00     0.007 C 
ENDBRANCH   1   2
BRANCH   1   4
HETATM    4  N1  UNL     1      -1.205  -0.362  -1.838  1.00  0.00    -0.390 N 
HETATM    5  H7  UNL     1      -1.106   0.489  -2.394  1.00  0.00     0.159 HD
BRANCH   4   6
HETATM    6  C4  UNL     1      -0.391  -1.086  -2.750  1.00  0.00     0.089 C 
HETATM    7  C5  UNL     1       0.927  -1.064  -2.850  1.00  0.00     0.090 C 
BRANCH   7   8
HETATM    8  C6  UNL     1       1.754  -0.242  -1.978  1.00  0.00     0.242 C 
HETATM    9  O1  UNL     1       1.214   0.476  -1.095  1.00  0.00    -0.269 OA
HETATM   10  N2  UNL     1       3.159  -0.230  -2.097  1.00  0.00    -0.356 N 
HETATM   11  H10 UNL     1       3.546  -0.860  -2.861  1.00  0.00     0.162 HD
BRANCH  10  12
HETATM   12  C7  UNL     1       4.080   0.543  -1.290  1.00  0.00     0.142 C 
BRANCH  12  13
HETATM   13  C8  UNL     1       3.960   0.180   0.171  1.00  0.00     0.135 C 
BRANCH  13  14
HETATM   14  N3  UNL     1       4.838   0.895   1.035  1.00  0.00    -0.419 N 
HETATM   15  C9  UNL     1       6.226   0.600   0.895  1.00  0.00     0.142 C 
HETATM   16  C10 UNL     1       4.516   2.268   1.268  1.00  0.00     0.142 C 
ENDBRANCH  13  14
ENDBRANCH  12  13
ENDBRANCH  10  12
ENDBRANCH   7   8
ENDBRANCH   4   6
ENDBRANCH   1   4
BRANCH   1  17
HETATM   17  C11 UNL     1      -2.426  -0.456   0.204  1.00  0.00    -0.030 A 
HETATM   18  C12 UNL     1      -2.856   0.760  -0.168  1.00  0.00     0.085 A 
HETATM   19  C13 UNL     1      -3.439   2.072  -0.290  1.00  0.00     0.267 A 
HETATM   20  O2  UNL     1      -3.773   3.206  -0.775  1.00  0.00    -0.266 OA
HETATM   21  N4  UNL     1      -3.904   1.797   1.045  1.00  0.00    -0.223 NA
HETATM   22  C14 UNL     1      -4.620   2.646   1.694  1.00  0.00     0.123 A 
HETATM   23  C15 UNL     1      -4.733   1.809   2.865  1.00  0.00     0.061 A 
HETATM   24  C16 UNL     1      -4.269   0.624   3.130  1.00  0.00     0.117 A 
HETATM   25  F1  UNL     1      -4.766   0.481   4.393  1.00  0.00    -0.206 F 
HETATM   26  C17 UNL     1      -3.487  -0.466   2.586  1.00  0.00     0.043 A 
HETATM   27  C18 UNL     1      -2.818  -0.870   1.537  1.00  0.00     0.012 A 
ENDBRANCH   1  17
TORSDOF 8
