REMARK  1 active torsions:
REMARK  status: ('A' for Active; 'I' for Inactive)
REMARK    1  A    between atoms: C14_17  and  C15_18 
ROOT
HETATM    1  C1  UNL     1      -4.084  -2.057  -0.397  1.00  0.00     0.143 C 
HETATM    2  N1  UNL     1      -3.022  -1.308   0.242  1.00  0.00    -0.411 N 
HETATM    3  C2  UNL     1      -1.941  -2.124   0.667  1.00  0.00     0.152 C 
HETATM    4  C3  UNL     1      -0.753  -2.003  -0.210  1.00  0.00     0.244 C 
HETATM    5  C4  UNL     1       0.492  -2.694   0.386  1.00  0.00     0.076 C 
HETATM    6  C5  UNL     1       1.573  -1.635   0.421  1.00  0.00    -0.053 A 
HETATM    7  C6  UNL     1       2.016  -1.454  -0.862  1.00  0.00     0.008 A 
HETATM    8  C7  UNL     1       2.918  -0.443  -1.103  1.00  0.00     0.019 A 
HETATM    9  C8  UNL     1       3.213   0.224   0.061  1.00  0.00     0.052 A 
HETATM   10  C9  UNL     1       2.762   0.024   1.342  1.00  0.00     0.131 A 
HETATM   11  F1  UNL     1       3.122   0.733   2.405  1.00  0.00    -0.205 F 
HETATM   12  C10 UNL     1       1.864  -0.983   1.581  1.00  0.00     0.050 A 
HETATM   13  C11 UNL     1       4.084   1.411  -0.086  1.00  0.00     0.184 C 
HETATM   14  O1  UNL     1       5.039   2.208  -0.162  1.00  0.00    -0.287 OA
HETATM   15  C12 UNL     1       2.911   2.296  -0.305  1.00  0.00     0.053 C 
HETATM   16  C13 UNL     1       1.568   2.384  -0.404  1.00  0.00    -0.001 C 
HETATM   17  C14 UNL     1       0.188   2.897  -0.574  1.00  0.00     0.134 C 
HETATM   18  S1  UNL     1      -0.958   1.749  -1.339  1.00  0.00    -0.111 SA
HETATM   19  C16 UNL     1      -1.280   0.378  -0.202  1.00  0.00     0.218 C 
HETATM   20  C17 UNL     1      -1.119   0.916   1.195  1.00  0.00     0.063 C 
HETATM   21  C18 UNL     1      -2.720  -0.083  -0.403  1.00  0.00     0.169 C 
HETATM   22  N2  UNL     1      -0.354  -0.665  -0.557  1.00  0.00     0.111 N 
HETATM   23  H21 UNL     1      -0.134  -0.590  -1.599  1.00  0.00     0.318 HD
ENDROOT
BRANCH  17  24
HETATM   24  C15 UNL     1       0.198   4.227  -1.254  1.00  0.00     0.250 C 
HETATM   25  O2  UNL     1      -0.180   5.372  -0.980  1.00  0.00    -0.305 OA
ENDBRANCH  17  24
TORSDOF 1
