REMARK  5 active torsions:
REMARK  status: ('A' for Active; 'I' for Inactive)
REMARK    1  A    between atoms: C2_2  and  N1_3 
REMARK    2  A    between atoms: N1_3  and  C3_4 
REMARK    3  A    between atoms: C6_7  and  N2_8 
REMARK    4  A    between atoms: N2_8  and  C7_9 
REMARK    5  A    between atoms: C7_9  and  C8_10 
ROOT
HETATM    1  C3  UNL     1      -0.915  -0.470  -0.403  1.00  0.00     0.045 C 
HETATM    2  C4  UNL     1      -0.120  -0.951   0.524  1.00  0.00    -0.031 C 
HETATM    3  C5  UNL     1      -0.193  -2.435   0.251  1.00  0.00     0.048 C 
HETATM    4  C6  UNL     1       0.740  -0.551   1.699  1.00  0.00     0.131 C 
HETATM    5  C12 UNL     1      -0.082  -0.922   2.892  1.00  0.00     0.003 C 
HETATM    6  C13 UNL     1      -1.306  -0.797   3.453  1.00  0.00     0.170 C 
HETATM    7  C14 UNL     1      -2.382   0.013   2.707  1.00  0.00     0.286 A 
HETATM    8  O2  UNL     1      -3.466   0.621   2.283  1.00  0.00    -0.153 OA
HETATM    9  N4  UNL     1      -2.247   0.754   1.522  1.00  0.00     0.112 N 
HETATM   10  C15 UNL     1      -2.110   1.519   0.299  1.00  0.00     0.182 A 
HETATM   11  C16 UNL     1      -2.642   2.759   0.230  1.00  0.00     0.044 A 
HETATM   12  C17 UNL     1      -2.546   3.468  -0.935  1.00  0.00     0.044 A 
HETATM   13  C18 UNL     1      -1.897   2.820  -1.941  1.00  0.00     0.117 A 
HETATM   14  F1  UNL     1      -1.756   3.452  -3.130  1.00  0.00    -0.206 F 
HETATM   15  C19 UNL     1      -1.340   1.571  -1.926  1.00  0.00     0.058 A 
HETATM   16  C20 UNL     1      -1.430   0.868  -0.781  1.00  0.00     0.031 A 
HETATM   17  H22 UNL     1      -1.244   0.832   1.489  1.00  0.00     0.329 HD
ENDROOT
BRANCH   4  18
HETATM   18  N2  UNL     1       1.271   0.715   1.715  1.00  0.00    -0.408 N 
HETATM   19  H11 UNL     1       0.881   1.368   2.379  1.00  0.00     0.154 HD
BRANCH  18  20
HETATM   20  C7  UNL     1       2.047   1.262   0.710  1.00  0.00     0.158 C 
BRANCH  20  21
HETATM   21  C8  UNL     1       3.423   0.693   0.477  1.00  0.00     0.306 C 
HETATM   22  N3  UNL     1       3.407  -0.702   0.134  1.00  0.00     0.097 N 
HETATM   23  C9  UNL     1       4.238  -0.873  -1.056  1.00  0.00     0.278 C 
HETATM   24  H15 UNL     1       3.874  -1.293   0.881  1.00  0.00     0.317 HD
HETATM   25  C10 UNL     1       5.081   0.404  -0.983  1.00  0.00     0.110 C 
HETATM   26  C11 UNL     1       3.995   1.399  -0.731  1.00  0.00     0.163 C 
HETATM   27  O1  UNL     1       3.846   2.395  -1.446  1.00  0.00    -0.296 OA
ENDBRANCH  20  21
ENDBRANCH  18  20
ENDBRANCH   4  18
BRANCH   1  28
HETATM   28  N1  UNL     1      -1.606  -1.236  -1.364  1.00  0.00    -0.389 N 
HETATM   29  H6  UNL     1      -0.968  -1.576  -2.145  1.00  0.00     0.159 HD
BRANCH  28  30
HETATM   30  C2  UNL     1      -3.045  -1.552  -1.327  1.00  0.00     0.115 C 
HETATM   31  C1  UNL     1      -3.461  -2.374  -2.506  1.00  0.00     0.026 C 
ENDBRANCH  28  30
ENDBRANCH   1  28
TORSDOF 5
