REMARK  5 active torsions:
REMARK  status: ('A' for Active; 'I' for Inactive)
REMARK    1  A    between atoms: C6_6  and  N1_7 
REMARK    2  A    between atoms: N1_7  and  C7_8 
REMARK    3  A    between atoms: C7_8  and  C8_9 
REMARK    4  A    between atoms: C8_9  and  N2_10 
REMARK    5  A    between atoms: C13_15  and  C14_16 
ROOT
HETATM    1  C1  UNL     1      -3.706   1.524   1.948  1.00  0.00     0.030 C 
HETATM    2  C2  UNL     1      -2.788   0.910   0.875  1.00  0.00     0.019 A 
HETATM    3  C3  UNL     1      -2.119   1.951   0.314  1.00  0.00     0.012 C 
HETATM    4  C4  UNL     1      -1.094   2.367  -0.712  1.00  0.00     0.009 C 
HETATM    5  C5  UNL     1      -0.546   1.052  -1.261  1.00  0.00     0.036 C 
HETATM    6  C6  UNL     1       0.166   0.289  -0.187  1.00  0.00     0.224 C 
HETATM    7  C11 UNL     1       0.056  -1.191  -0.335  1.00  0.00     0.064 C 
HETATM    8  C12 UNL     1      -1.334  -1.612  -0.254  1.00  0.00    -0.004 C 
HETATM    9  C13 UNL     1      -2.669  -1.571  -0.108  1.00  0.00     0.007 C 
HETATM   10  N3  UNL     1      -2.235  -0.163   0.106  1.00  0.00    -0.284 NA
HETATM   11  H25 UNL     1      -3.101  -0.310   0.654  1.00  0.00     0.155 HD
ENDROOT
BRANCH   6  12
HETATM   12  N1  UNL     1       1.486   0.739   0.006  1.00  0.00     0.090 N 
HETATM   13  H10 UNL     1       1.524   1.746   0.278  1.00  0.00     0.316 HD
BRANCH  12  14
HETATM   14  C7  UNL     1       2.379   0.528  -1.086  1.00  0.00     0.300 C 
BRANCH  14  15
HETATM   15  C8  UNL     1       3.788   1.040  -0.737  1.00  0.00     0.301 C 
BRANCH  15  16
HETATM   16  N2  UNL     1       4.297   0.336   0.424  1.00  0.00     0.081 N 
HETATM   17  C9  UNL     1       5.622   0.822   0.750  1.00  0.00     0.309 C 
HETATM   18  C10 UNL     1       4.375  -1.073   0.101  1.00  0.00     0.309 C 
ENDBRANCH  15  16
ENDBRANCH  14  15
ENDBRANCH  12  14
ENDBRANCH   6  12
BRANCH   9  19
HETATM   19  C14 UNL     1      -3.963  -2.606  -0.134  1.00  0.00     0.100 A 
HETATM   20  C15 UNL     1      -3.590  -4.131  -0.401  1.00  0.00     0.056 A 
HETATM   21  C16 UNL     1      -4.318  -3.331  -0.209  1.00  0.00    -0.036 A 
HETATM   22  C17 UNL     1      -4.874  -2.695  -0.058  1.00  0.00     0.019 A 
HETATM   23  C18 UNL     1      -5.538  -1.902   0.126  1.00  0.00     0.179 A 
HETATM   24  O1  UNL     1      -5.330  -0.723   0.282  1.00  0.00    -0.291 OA
ENDBRANCH   9  19
TORSDOF 5
