REMARK  1 active torsions:
REMARK  status: ('A' for Active; 'I' for Inactive)
REMARK    1  A    between atoms: C14_19  and  C15_20 
ROOT
HETATM    1  C1  UNL     1      -4.161   0.969  -2.114  1.00  0.00     0.068 C 
HETATM    2  C2  UNL     1      -2.991   1.090  -1.173  1.00  0.00     0.003 C 
HETATM    3  C3  UNL     1      -2.590   2.239  -0.700  1.00  0.00     0.032 C 
HETATM    4  C4  UNL     1      -1.442   2.144   0.196  1.00  0.00     0.241 C 
HETATM    5  C5  UNL     1      -1.409   3.401   1.042  1.00  0.00     0.047 C 
HETATM    6  N1  UNL     1      -0.171   1.912  -0.463  1.00  0.00     0.092 N 
HETATM    7  C6  UNL     1       0.814   1.802   0.561  1.00  0.00     0.300 C 
HETATM    8  C7  UNL     1       2.212   1.614   0.110  1.00  0.00     0.302 C 
HETATM    9  N2  UNL     1       2.509   0.465  -0.672  1.00  0.00     0.098 N 
HETATM   10  C8  UNL     1       3.951   0.174  -0.527  1.00  0.00     0.299 C 
HETATM   11  C9  UNL     1       4.395  -0.629  -1.751  1.00  0.00     0.205 C 
HETATM   12  O1  UNL     1       3.599  -1.830  -1.816  1.00  0.00    -0.352 OA
HETATM   13  C10 UNL     1       2.559  -1.899  -0.882  1.00  0.00     0.077 C 
HETATM   14  C11 UNL     1       2.182  -3.123  -0.446  1.00  0.00     0.077 C 
HETATM   15  C12 UNL     1       1.180  -3.628   0.484  1.00  0.00     0.134 C 
HETATM   16  F1  UNL     1       1.136  -4.993   0.654  1.00  0.00    -0.205 F 
HETATM   17  C13 UNL     1       0.270  -3.017   1.227  1.00  0.00     0.130 C 
HETATM   18  N3  UNL     1      -0.431  -1.862   1.733  1.00  0.00    -0.360 N 
HETATM   19  C14 UNL     1      -1.699  -1.540   1.149  1.00  0.00     0.071 C 
HETATM   20  C16 UNL     1      -2.408  -0.981   0.199  1.00  0.00     0.119 C 
HETATM   21  N4  UNL     1      -2.549  -0.253  -1.006  1.00  0.00    -0.367 N 
HETATM   22  C17 UNL     1       1.809  -0.738  -0.302  1.00  0.00     0.336 C 
HETATM   23  H9  UNL     1       0.094   2.675  -1.105  1.00  0.00     0.316 HD
HETATM   24  H20 UNL     1      -0.018  -1.284   2.498  1.00  0.00     0.165 HD
HETATM   25  H23 UNL     1      -2.268  -0.866  -1.818  1.00  0.00     0.165 HD
ENDROOT
BRANCH  19  26
HETATM   26  C15 UNL     1      -2.450  -2.219   2.223  1.00  0.00     0.409 C 
HETATM   27  O2  UNL     1      -3.330  -2.712   2.987  1.00  0.00    -0.404 OA
ENDBRANCH  19  26
TORSDOF 1
