REMARK  6 active torsions:
REMARK  status: ('A' for Active; 'I' for Inactive)
REMARK    1  A    between atoms: C5_5  and  N1_6 
REMARK    2  A    between atoms: C14_17  and  C15_18 
REMARK    3  A    between atoms: C15_18  and  C16_20 
REMARK    4  A    between atoms: C16_20  and  C17_21 
REMARK    5  A    between atoms: C17_21  and  C18_22 
REMARK    6  A    between atoms: C18_22  and  N3_23 
ROOT
HETATM    1  C1  UNL     1      -0.278   0.874  -1.465  1.00  0.00     0.050 C 
HETATM    2  C2  UNL     1      -1.058  -0.207  -0.759  1.00  0.00    -0.035 C 
HETATM    3  C3  UNL     1      -2.015  -0.747  -1.502  1.00  0.00    -0.020 C 
HETATM    4  C4  UNL     1      -3.252  -0.457  -1.167  1.00  0.00     0.012 C 
HETATM    5  C5  UNL     1      -3.980  -0.114   0.093  1.00  0.00     0.125 C 
HETATM    6  C11 UNL     1      -3.805  -1.170   1.163  1.00  0.00     0.148 C 
HETATM    7  N2  UNL     1      -2.714  -0.869   2.072  1.00  0.00    -0.390 N 
HETATM    8  C12 UNL     1      -1.358  -0.692   1.684  1.00  0.00     0.015 C 
HETATM    9  C13 UNL     1      -0.436  -0.839   2.857  1.00  0.00     0.069 C 
HETATM   10  C14 UNL     1      -0.591  -0.431   0.613  1.00  0.00     0.038 C 
HETATM   11  H13 UNL     1      -2.835  -0.757   3.099  1.00  0.00     0.159 HD
ENDROOT
BRANCH  10  12
HETATM   12  C15 UNL     1       0.835  -0.342   0.723  1.00  0.00     0.162 C 
HETATM   13  O1  UNL     1       1.541  -0.105  -0.279  1.00  0.00    -0.292 OA
BRANCH  12  14
HETATM   14  C16 UNL     1       2.127  -0.364   1.386  1.00  0.00     0.085 C 
BRANCH  14  15
HETATM   15  C17 UNL     1       3.228  -0.083   0.361  1.00  0.00     0.027 C 
BRANCH  15  16
HETATM   16  C18 UNL     1       4.586  -0.113   1.078  1.00  0.00     0.117 C 
BRANCH  16  17
HETATM   17  N3  UNL     1       5.636   0.149   0.141  1.00  0.00    -0.408 N 
HETATM   18  C19 UNL     1       5.680   1.465  -0.397  1.00  0.00     0.143 C 
HETATM   19  C20 UNL     1       7.063   1.753  -0.971  1.00  0.00     0.187 C 
HETATM   20  O2  UNL     1       7.778   0.581  -1.165  1.00  0.00    -0.388 OA
HETATM   21  C21 UNL     1       7.007  -0.432  -1.735  1.00  0.00     0.187 C 
HETATM   22  C22 UNL     1       5.915  -0.893  -0.794  1.00  0.00     0.143 C 
ENDBRANCH  16  17
ENDBRANCH  15  16
ENDBRANCH  14  15
ENDBRANCH  12  14
ENDBRANCH  10  12
BRANCH   5  23
HETATM   23  N1  UNL     1      -5.371   0.045  -0.239  1.00  0.00    -0.377 N 
HETATM   24  C6  UNL     1      -5.999  -1.103  -0.798  1.00  0.00     0.090 A 
HETATM   25  C7  UNL     1      -7.289  -1.044  -1.135  1.00  0.00     0.059 A 
HETATM   26  C8  UNL     1      -8.020   0.187  -0.924  1.00  0.00     0.115 A 
HETATM   27  F1  UNL     1      -9.345   0.334  -1.240  1.00  0.00    -0.206 F 
HETATM   28  C9  UNL     1      -7.454   1.262  -0.407  1.00  0.00     0.035 A 
HETATM   29  C10 UNL     1      -6.045   1.307  -0.002  1.00  0.00     0.153 A 
ENDBRANCH   5  23
TORSDOF 6
