REMARK  7 active torsions:
REMARK  status: ('A' for Active; 'I' for Inactive)
REMARK    1  A    between atoms: C2_2  and  C3_3 
REMARK    2  A    between atoms: C3_3  and  N1_4 
REMARK    3  A    between atoms: C3_3  and  C13_17 
REMARK    4  A    between atoms: N1_4  and  C4_5 
REMARK    5  A    between atoms: C5_6  and  C6_7 
REMARK       I    between atoms: C6_7  and  N2_9 
REMARK    6  A    between atoms: N2_9  and  C7_10 
REMARK    7  A    between atoms: C7_10  and  C8_11 
ROOT
HETATM    1  C3  UNL     1      -2.162   1.044  -0.075  1.00  0.00     0.098 C 
ENDROOT
BRANCH   1   2
HETATM    2  C2  UNL     1      -3.316   1.541  -0.917  1.00  0.00     0.022 C 
HETATM    3  C1  UNL     1      -3.362   3.048  -0.778  1.00  0.00     0.007 C 
ENDBRANCH   1   2
BRANCH   1   4
HETATM    4  N1  UNL     1      -0.969   1.668  -0.601  1.00  0.00    -0.393 N 
HETATM    5  H7  UNL     1      -0.834   2.351  -1.405  1.00  0.00     0.159 HD
BRANCH   4   6
HETATM    6  C4  UNL     1       0.294   1.406  -0.036  1.00  0.00     0.088 C 
HETATM    7  C5  UNL     1       1.376   2.115   0.184  1.00  0.00     0.090 C 
BRANCH   7   8
HETATM    8  C6  UNL     1       2.644   1.735   0.785  1.00  0.00     0.242 C 
HETATM    9  O1  UNL     1       3.512   2.644   0.864  1.00  0.00    -0.269 OA
HETATM   10  N2  UNL     1       2.837   0.404   1.239  1.00  0.00    -0.353 N 
HETATM   11  H10 UNL     1       2.116  -0.339   1.170  1.00  0.00     0.163 HD
BRANCH  10  12
HETATM   12  C7  UNL     1       4.051  -0.057   1.842  1.00  0.00     0.161 C 
BRANCH  12  13
HETATM   13  C8  UNL     1       5.145  -0.300   0.890  1.00  0.00    -0.038 A 
HETATM   14  C9  UNL     1       5.243  -1.578   0.333  1.00  0.00     0.028 A 
HETATM   15  C10 UNL     1       6.183  -1.991  -0.561  1.00  0.00     0.116 A 
HETATM   16  N3  UNL     1       7.113  -1.072  -0.947  1.00  0.00    -0.273 NA
HETATM   17  C11 UNL     1       7.075   0.172  -0.450  1.00  0.00     0.116 A 
HETATM   18  C12 UNL     1       6.121   0.586   0.455  1.00  0.00     0.028 A 
ENDBRANCH  12  13
ENDBRANCH  10  12
ENDBRANCH   7   8
ENDBRANCH   4   6
ENDBRANCH   1   4
BRANCH   1  19
HETATM   19  C13 UNL     1      -1.987  -0.445  -0.166  1.00  0.00     0.136 A 
HETATM   20  C14 UNL     1      -1.719  -0.907  -1.543  1.00  0.00     0.232 A 
HETATM   21  O2  UNL     1      -0.721  -0.447  -2.159  1.00  0.00    -0.272 OA
HETATM   22  N4  UNL     1      -2.709  -1.863  -1.965  1.00  0.00    -0.326 N 
HETATM   23  C15 UNL     1      -3.613  -2.018  -0.877  1.00  0.00     0.042 A 
HETATM   24  H18 UNL     1      -2.676  -2.296  -2.904  1.00  0.00     0.169 HD
HETATM   25  C16 UNL     1      -4.738  -2.809  -0.753  1.00  0.00     0.033 A 
HETATM   26  C20 UNL     1      -3.217  -1.209   0.168  1.00  0.00    -0.013 A 
HETATM   27  C17 UNL     1      -5.426  -2.740   0.456  1.00  0.00     0.044 A 
HETATM   28  C18 UNL     1      -5.044  -1.937   1.509  1.00  0.00     0.117 A 
HETATM   29  F1  UNL     1      -5.799  -1.957   2.638  1.00  0.00    -0.206 F 
HETATM   30  C19 UNL     1      -3.902  -1.138   1.376  1.00  0.00     0.052 A 
ENDBRANCH   1  19
TORSDOF 7
