REMARK  6 active torsions:
REMARK  status: ('A' for Active; 'I' for Inactive)
REMARK    1  A    between atoms: C3_3  and  C4_4 
REMARK    2  A    between atoms: C4_4  and  C5_5 
REMARK    3  A    between atoms: C13_17  and  C14_18 
REMARK       I    between atoms: C14_18  and  N3_20 
REMARK    4  A    between atoms: N3_20  and  C15_21 
REMARK    5  A    between atoms: C15_21  and  C16_22 
REMARK    6  A    between atoms: C16_22  and  N4_23 
ROOT
HETATM    1  C1  UNL     1      -1.067  -3.175  -0.407  1.00  0.00     0.050 C 
HETATM    2  C2  UNL     1      -0.311  -1.977  -0.764  1.00  0.00    -0.036 A 
HETATM    3  C3  UNL     1      -0.827  -0.764  -0.836  1.00  0.00     0.035 A 
HETATM    4  N2  UNL     1       0.165   0.227  -1.196  1.00  0.00    -0.373 N 
HETATM    5  C13 UNL     1       1.549   0.017  -1.548  1.00  0.00     0.197 A 
HETATM    6  C19 UNL     1       1.927  -1.392  -1.407  1.00  0.00     0.008 A 
HETATM    7  C20 UNL     1       1.068  -2.312  -1.046  1.00  0.00     0.007 A 
HETATM    8  H9  UNL     1      -0.037   1.235  -1.238  1.00  0.00     0.161 HD
ENDROOT
BRANCH   3   9
HETATM    9  C4  UNL     1      -2.184  -0.474  -0.575  1.00  0.00     0.047 C 
BRANCH   9  10
HETATM   10  C5  UNL     1      -3.427  -0.416  -0.304  1.00  0.00     0.047 A 
HETATM   11  C6  UNL     1      -4.140  -1.636   0.046  1.00  0.00     0.257 A 
HETATM   12  O1  UNL     1      -4.059  -2.862   0.219  1.00  0.00    -0.267 OA
HETATM   13  N1  UNL     1      -5.493  -1.283   0.293  1.00  0.00    -0.322 N 
HETATM   14  C7  UNL     1      -5.627   0.117   0.105  1.00  0.00     0.046 A 
HETATM   15  H5  UNL     1      -6.382  -1.768   0.568  1.00  0.00     0.169 HD
HETATM   16  C8  UNL     1      -6.626   1.072   0.179  1.00  0.00     0.033 A 
HETATM   17  C12 UNL     1      -4.427   0.667  -0.250  1.00  0.00     0.009 A 
HETATM   18  C9  UNL     1      -6.555   2.424  -0.049  1.00  0.00     0.044 A 
HETATM   19  C10 UNL     1      -5.318   2.915  -0.402  1.00  0.00     0.117 A 
HETATM   20  F1  UNL     1      -5.144   4.226  -0.646  1.00  0.00    -0.206 F 
HETATM   21  C11 UNL     1      -4.267   2.035  -0.500  1.00  0.00     0.057 A 
ENDBRANCH   9  10
ENDBRANCH   3   9
BRANCH   5  22
HETATM   22  C14 UNL     1       2.371   0.915  -0.667  1.00  0.00     0.244 C 
HETATM   23  O2  UNL     1       1.753   1.622   0.144  1.00  0.00    -0.271 OA
HETATM   24  N3  UNL     1       3.796   0.946  -0.766  1.00  0.00    -0.357 N 
HETATM   25  H11 UNL     1       4.190   0.288  -1.503  1.00  0.00     0.162 HD
BRANCH  24  26
HETATM   26  C15 UNL     1       4.642   1.788   0.053  1.00  0.00     0.144 C 
BRANCH  26  27
HETATM   27  C16 UNL     1       4.454   1.459   1.517  1.00  0.00     0.172 C 
BRANCH  27  28
HETATM   28  N4  UNL     1       4.799   0.071   1.768  1.00  0.00    -0.260 N 
HETATM   29  C17 UNL     1       6.031  -0.348   2.101  1.00  0.00     0.135 A 
HETATM   30  C18 UNL     1       5.999  -1.726   2.265  1.00  0.00     0.161 A 
HETATM   31  N5  UNL     1       4.712  -2.083   2.016  1.00  0.00    -0.143 NA
HETATM   32  N6  UNL     1       4.018  -0.989   1.722  1.00  0.00    -0.067 NA
ENDBRANCH  27  28
ENDBRANCH  26  27
ENDBRANCH  24  26
ENDBRANCH   5  22
TORSDOF 6
