REMARK  6 active torsions:
REMARK  status: ('A' for Active; 'I' for Inactive)
REMARK    1  A    between atoms: C2_2  and  N1_3 
REMARK    2  A    between atoms: N1_3  and  C3_4 
REMARK    3  A    between atoms: C11_13  and  C12_14 
REMARK       I    between atoms: C12_14  and  N2_16 
REMARK    4  A    between atoms: N2_16  and  C13_17 
REMARK    5  A    between atoms: C13_17  and  C14_18 
REMARK    6  A    between atoms: C14_18  and  N3_19 
ROOT
HETATM    1  C3  UNL     1      -4.953  -0.713   0.487  1.00  0.00     0.147 A 
HETATM    2  C4  UNL     1      -4.672  -0.330  -0.915  1.00  0.00     0.046 A 
HETATM    3  C5  UNL     1      -3.586   0.046  -1.566  1.00  0.00     0.141 A 
HETATM    4  F1  UNL     1      -3.440   0.377  -2.860  1.00  0.00    -0.204 F 
HETATM    5  C6  UNL     1      -2.410   0.082  -0.675  1.00  0.00     0.077 A 
HETATM    6  C7  UNL     1      -2.569  -0.252   0.616  1.00  0.00    -0.026 A 
HETATM    7  C8  UNL     1      -1.498  -0.270   1.648  1.00  0.00     0.006 C 
HETATM    8  C9  UNL     1      -0.393   0.486   1.808  1.00  0.00    -0.021 C 
HETATM    9  C10 UNL     1       0.255   1.615   1.103  1.00  0.00     0.073 C 
HETATM   10  C11 UNL     1       0.804   1.218  -0.243  1.00  0.00     0.035 C 
HETATM   11  C17 UNL     1      -0.005   0.781  -1.202  1.00  0.00     0.018 C 
HETATM   12  C18 UNL     1       0.919   0.502  -2.352  1.00  0.00     0.069 C 
HETATM   13  N6  UNL     1      -1.347   0.491  -1.526  1.00  0.00    -0.356 N 
HETATM   14  C19 UNL     1      -3.750  -0.681   1.365  1.00  0.00     0.073 A 
HETATM   15  H19 UNL     1      -1.589   0.583  -2.518  1.00  0.00     0.166 HD
ENDROOT
BRANCH  10  16
HETATM   16  C12 UNL     1       2.212   1.372  -0.296  1.00  0.00     0.249 C 
HETATM   17  O1  UNL     1       2.706   1.820   0.799  1.00  0.00    -0.268 OA
HETATM   18  N2  UNL     1       3.472   1.318  -0.887  1.00  0.00    -0.355 N 
HETATM   19  H9  UNL     1       3.369   0.966  -1.855  1.00  0.00     0.162 HD
BRANCH  18  20
HETATM   20  C13 UNL     1       4.713   1.676  -0.295  1.00  0.00     0.144 C 
BRANCH  20  21
HETATM   21  C14 UNL     1       5.137   0.920   0.910  1.00  0.00     0.172 C 
BRANCH  21  22
HETATM   22  N3  UNL     1       5.258  -0.511   0.593  1.00  0.00    -0.260 N 
HETATM   23  C15 UNL     1       6.312  -1.192   0.153  1.00  0.00     0.135 A 
HETATM   24  C16 UNL     1       5.815  -2.467   0.047  1.00  0.00     0.161 A 
HETATM   25  N4  UNL     1       4.525  -2.488   0.418  1.00  0.00    -0.143 NA
HETATM   26  N5  UNL     1       4.184  -1.261   0.758  1.00  0.00    -0.067 NA
ENDBRANCH  21  22
ENDBRANCH  20  21
ENDBRANCH  18  20
ENDBRANCH  10  16
BRANCH   1  27
HETATM   27  N1  UNL     1      -5.652  -1.989   0.547  1.00  0.00    -0.243 NA
BRANCH  27  28
HETATM   28  C2  UNL     1      -6.898  -2.052   0.222  1.00  0.00    -0.049 C 
HETATM   29  C1  UNL     1      -8.138  -1.828  -0.177  1.00  0.00     0.119 C 
ENDBRANCH  27  28
ENDBRANCH   1  27
TORSDOF 6
