REMARK  1 active torsions:
REMARK  status: ('A' for Active; 'I' for Inactive)
REMARK       I    between atoms: C7_8  and  N2_9 
REMARK    1  A    between atoms: C10_13  and  C11_14 
ROOT
HETATM    1  C1  UNL     1      -4.127  -1.241   0.292  1.00  0.00     0.044 C 
HETATM    2  C2  UNL     1      -3.525  -1.637  -1.045  1.00  0.00     0.143 C 
HETATM    3  C3  UNL     1      -4.259  -0.813  -2.076  1.00  0.00     0.004 C 
HETATM    4  C4  UNL     1      -4.105   0.430  -2.486  1.00  0.00     0.001 C 
HETATM    5  C5  UNL     1      -3.080   1.336  -1.960  1.00  0.00     0.029 C 
HETATM    6  C6  UNL     1      -2.102   0.993  -1.144  1.00  0.00     0.061 C 
HETATM    7  N1  UNL     1      -1.283   2.140  -0.836  1.00  0.00    -0.316 N 
HETATM    8  C7  UNL     1      -0.147   3.024  -0.720  1.00  0.00     0.252 C 
HETATM    9  N2  UNL     1      -0.156   4.162  -1.571  1.00  0.00    -0.359 N 
HETATM   10  N3  UNL     1       0.695   2.706   0.078  1.00  0.00    -0.384 NA
HETATM   11  C8  UNL     1       1.649   2.444   0.911  1.00  0.00     0.183 C 
HETATM   12  C9  UNL     1       2.493   1.462   1.312  1.00  0.00     0.024 C 
HETATM   13  C10 UNL     1       2.283   0.184   0.535  1.00  0.00     0.139 C 
HETATM   14  C17 UNL     1       0.895   0.046   0.277  1.00  0.00     0.234 C 
HETATM   15  O1  UNL     1       0.088   0.472   1.124  1.00  0.00    -0.272 OA
HETATM   16  N4  UNL     1      -0.213  -0.339  -0.472  1.00  0.00    -0.324 N 
HETATM   17  C18 UNL     1       0.409  -1.023  -1.573  1.00  0.00     0.155 C 
HETATM   18  C19 UNL     1      -1.696  -0.296  -0.512  1.00  0.00     0.277 C 
HETATM   19  O2  UNL     1      -2.192  -1.422  -1.052  1.00  0.00    -0.352 OA
HETATM   20  H8  UNL     1      -1.996   2.760  -0.374  1.00  0.00     0.170 HD
HETATM   21  H9  UNL     1      -0.325   5.176  -1.434  1.00  0.00     0.160 HD
HETATM   22  H10 UNL     1      -0.160   4.983  -2.193  1.00  0.00     0.160 HD
ENDROOT
BRANCH  13  23
HETATM   23  C11 UNL     1       3.081  -0.929   1.006  1.00  0.00     0.002 A 
HETATM   24  C12 UNL     1       3.060  -1.049   2.398  1.00  0.00     0.043 A 
HETATM   25 CL1  UNL     1       2.235  -0.079   3.597  1.00  0.00    -0.084 Cl
HETATM   26  C13 UNL     1       3.786  -2.081   3.008  1.00  0.00     0.024 A 
HETATM   27  C14 UNL     1       4.531  -2.995   2.297  1.00  0.00     0.003 A 
HETATM   28  C15 UNL     1       4.543  -2.860   0.906  1.00  0.00     0.024 A 
HETATM   29  C16 UNL     1       3.844  -1.868   0.318  1.00  0.00     0.043 A 
HETATM   30 CL2  UNL     1       3.837  -1.646  -1.424  1.00  0.00    -0.084 Cl
ENDBRANCH  13  23
TORSDOF 1
