REMARK  3 active torsions:
REMARK  status: ('A' for Active; 'I' for Inactive)
REMARK    1  A    between atoms: C6_10  and  N3_11 
REMARK    2  A    between atoms: N3_11  and  C7_12 
REMARK    3  A    between atoms: C7_12  and  C8_13 
ROOT
HETATM    1  F1  UNL     1       4.449  -4.387  -3.374  1.00  0.00    -0.205 F 
HETATM    2  C1  UNL     1       3.602  -3.321  -3.354  1.00  0.00     0.131 C 
HETATM    3  C2  UNL     1       3.672  -2.054  -3.727  1.00  0.00     0.053 C 
HETATM    4  C3  UNL     1       2.908  -1.265  -2.987  1.00  0.00     0.100 C 
HETATM    5  O1  UNL     1       3.119   0.078  -2.665  1.00  0.00    -0.288 OA
HETATM    6  C4  UNL     1       2.301   0.818  -1.786  1.00  0.00     0.202 A 
HETATM    7  N1  UNL     1       2.987   1.891  -1.412  1.00  0.00    -0.215 NA
HETATM    8  C5  UNL     1       2.502   2.806  -0.579  1.00  0.00     0.238 A 
HETATM    9  N2  UNL     1       1.271   2.614  -0.112  1.00  0.00    -0.222 NA
HETATM   10  C6  UNL     1       0.492   1.573  -0.419  1.00  0.00     0.156 A 
HETATM   11  C14 UNL     1       1.002   0.606  -1.299  1.00  0.00     0.128 A 
HETATM   12  N4  UNL     1       0.244  -0.507  -1.673  1.00  0.00    -0.379 N 
HETATM   13  C15 UNL     1       0.476  -1.854  -2.075  1.00  0.00     0.161 C 
HETATM   14  C16 UNL     1       1.798  -2.165  -2.601  1.00  0.00    -0.003 C 
HETATM   15  C17 UNL     1       2.226  -3.396  -2.825  1.00  0.00     0.055 C 
HETATM   16  H10 UNL     1      -0.787  -0.234  -1.635  1.00  0.00     0.160 HD
ENDROOT
BRANCH  10  17
HETATM   17  N3  UNL     1      -0.804   1.223  -0.008  1.00  0.00    -0.369 N 
HETATM   18  H2  UNL     1      -0.962   2.081   0.596  1.00  0.00     0.161 HD
BRANCH  17  19
HETATM   19  C7  UNL     1      -2.110   0.926   0.441  1.00  0.00     0.160 C 
BRANCH  19  20
HETATM   20  C8  UNL     1      -2.288   0.764   1.915  1.00  0.00    -0.041 A 
HETATM   21  C9  UNL     1      -2.592   1.933   2.557  1.00  0.00     0.009 A 
HETATM   22  C10 UNL     1      -2.793   1.956   3.921  1.00  0.00     0.001 A 
HETATM   23  C11 UNL     1      -2.667   0.749   4.560  1.00  0.00     0.000 A 
HETATM   24  C12 UNL     1      -2.363  -0.443   3.951  1.00  0.00     0.001 A 
HETATM   25  C13 UNL     1      -2.164  -0.444   2.570  1.00  0.00     0.009 A 
ENDBRANCH  19  20
ENDBRANCH  17  19
ENDBRANCH  10  17
TORSDOF 3
