REMARK  10 active torsions:
REMARK  status: ('A' for Active; 'I' for Inactive)
REMARK    1  A    between atoms: C3_4  and  C4_5 
REMARK    2  A    between atoms: C7_8  and  C8_9 
REMARK    3  A    between atoms: C8_9  and  C9_10 
REMARK    4  A    between atoms: C9_10  and  C10_11 
REMARK    5  A    between atoms: C11_13  and  C13_15 
REMARK    6  A    between atoms: C13_15  and  C14_16 
REMARK    7  A    between atoms: C14_16  and  N1_17 
REMARK    8  A    between atoms: N1_17  and  C15_18 
REMARK    9  A    between atoms: C15_18  and  C16_19 
REMARK   10  A    between atoms: C16_19  and  N2_20 
ROOT
HETATM    1  C8  UNL     1      -0.440  -0.986   0.733  1.00  0.00    -0.040 C 
HETATM    2  C11 UNL     1       0.225  -2.120   0.597  1.00  0.00    -0.075 C 
HETATM    3  C12 UNL     1      -0.208  -3.298  -0.187  1.00  0.00     0.044 C 
ENDROOT
BRANCH   1   4
HETATM    4  C7  UNL     1      -1.729  -0.694   0.129  1.00  0.00     0.013 A 
HETATM    5  C6  UNL     1      -2.530  -1.385  -0.656  1.00  0.00    -0.010 A 
HETATM    6  C5  UNL     1      -3.799  -0.792  -1.108  1.00  0.00     0.044 A 
HETATM    7  C4  UNL     1      -3.825   0.528  -0.400  1.00  0.00     0.089 A 
HETATM    8  C19 UNL     1      -2.525   0.537   0.302  1.00  0.00     0.167 A 
HETATM    9  O2  UNL     1      -2.311   1.578   0.928  1.00  0.00    -0.292 OA
BRANCH   7  10
HETATM   10  C3  UNL     1      -4.972   0.684   0.518  1.00  0.00     0.023 C 
HETATM   11  C2  UNL     1      -5.951   1.552   0.658  1.00  0.00     0.087 C 
HETATM   12  C1  UNL     1      -6.061   2.716  -0.261  1.00  0.00     0.082 C 
HETATM   13  F1  UNL     1      -6.824   1.323   1.662  1.00  0.00    -0.212 F 
ENDBRANCH   7  10
ENDBRANCH   1   4
BRANCH   1  14
HETATM   14  C9  UNL     1       0.090   0.134   1.549  1.00  0.00     0.076 C 
BRANCH  14  15
HETATM   15  C10 UNL     1       0.388   1.299   0.649  1.00  0.00     0.395 C 
HETATM   16  O1  UNL     1       0.383   1.680  -0.505  1.00  0.00    -0.429 OA
ENDBRANCH  14  15
ENDBRANCH   1  14
BRANCH   2  17
HETATM   17  C13 UNL     1       1.536  -2.380   1.231  1.00  0.00     0.064 C 
BRANCH  17  18
HETATM   18  C14 UNL     1       2.641  -2.648   0.229  1.00  0.00     0.273 C 
BRANCH  18  19
HETATM   19  N1  UNL     1       2.896  -1.584  -0.682  1.00  0.00     0.085 N 
HETATM   20  H19 UNL     1       2.101  -1.367  -1.320  1.00  0.00     0.315 HD
BRANCH  19  21
HETATM   21  C15 UNL     1       3.471  -0.411  -0.057  1.00  0.00     0.291 C 
BRANCH  21  22
HETATM   22  C16 UNL     1       3.744   0.669  -1.069  1.00  0.00     0.182 C 
BRANCH  22  23
HETATM   23  N2  UNL     1       4.316   1.840  -0.432  1.00  0.00    -0.260 N 
HETATM   24  C17 UNL     1       5.654   1.992  -0.284  1.00  0.00     0.135 A 
HETATM   25  C18 UNL     1       5.886   3.188   0.349  1.00  0.00     0.161 A 
HETATM   26  N3  UNL     1       4.679   3.738   0.572  1.00  0.00    -0.143 NA
HETATM   27  N4  UNL     1       3.765   2.921   0.100  1.00  0.00    -0.067 NA
ENDBRANCH  22  23
ENDBRANCH  21  22
ENDBRANCH  19  21
ENDBRANCH  18  19
ENDBRANCH  17  18
ENDBRANCH   2  17
TORSDOF 10
