REMARK  7 active torsions:
REMARK  status: ('A' for Active; 'I' for Inactive)
REMARK    1  A    between atoms: C2_2  and  N1_3 
REMARK    2  A    between atoms: N1_3  and  C3_4 
REMARK    3  A    between atoms: C3_4  and  C13_17 
REMARK    4  A    between atoms: C4_5  and  C5_6 
REMARK    5  A    between atoms: C13_17  and  C15_19 
REMARK       I    between atoms: C15_19  and  N3_21 
REMARK    6  A    between atoms: N3_21  and  C16_22 
REMARK    7  A    between atoms: C16_22  and  C17_23 
ROOT
HETATM    1  C3  UNL     1      -0.665  -1.145   0.548  1.00  0.00     0.040 C 
HETATM    2  C4  UNL     1      -1.509  -0.106   0.005  1.00  0.00     0.048 C 
ENDROOT
BRANCH   1   3
HETATM    3  N1  UNL     1      -1.116  -2.519   0.587  1.00  0.00    -0.390 N 
HETATM    4  H6  UNL     1      -1.626  -2.916   1.413  1.00  0.00     0.159 HD
BRANCH   3   5
HETATM    5  C2  UNL     1      -0.709  -3.119  -0.695  1.00  0.00     0.115 C 
HETATM    6  C1  UNL     1      -1.164  -4.562  -0.640  1.00  0.00     0.026 C 
ENDBRANCH   3   5
ENDBRANCH   1   3
BRANCH   1   7
HETATM    7  C13 UNL     1       0.552  -1.134   1.054  1.00  0.00     0.032 C 
HETATM    8  C14 UNL     1       1.177  -2.383   1.524  1.00  0.00     0.056 C 
BRANCH   7   9
HETATM    9  C15 UNL     1       1.375   0.064   1.205  1.00  0.00     0.249 C 
HETATM   10  O2  UNL     1       1.138   1.272   0.915  1.00  0.00    -0.268 OA
HETATM   11  N3  UNL     1       2.669   0.034   1.745  1.00  0.00    -0.353 N 
HETATM   12  H15 UNL     1       3.056  -0.916   2.054  1.00  0.00     0.163 HD
BRANCH  11  13
HETATM   13  C16 UNL     1       3.580   1.141   1.946  1.00  0.00     0.161 C 
BRANCH  13  14
HETATM   14  C17 UNL     1       4.248   1.596   0.703  1.00  0.00    -0.038 A 
HETATM   15  C18 UNL     1       3.845   2.583  -0.159  1.00  0.00     0.028 A 
HETATM   16  C19 UNL     1       4.542   2.922  -1.294  1.00  0.00     0.116 A 
HETATM   17  N4  UNL     1       5.682   2.281  -1.617  1.00  0.00    -0.273 NA
HETATM   18  C20 UNL     1       6.135   1.301  -0.812  1.00  0.00     0.116 A 
HETATM   19  C21 UNL     1       5.430   0.960   0.332  1.00  0.00     0.028 A 
ENDBRANCH  13  14
ENDBRANCH  11  13
ENDBRANCH   7   9
ENDBRANCH   1   7
BRANCH   2  20
HETATM   20  C5  UNL     1      -2.735  -0.028  -0.440  1.00  0.00     0.047 A 
HETATM   21  C6  UNL     1      -3.781  -1.033  -0.560  1.00  0.00     0.257 A 
HETATM   22  O1  UNL     1      -3.725  -2.243  -0.234  1.00  0.00    -0.267 OA
HETATM   23  N2  UNL     1      -4.949  -0.474  -1.118  1.00  0.00    -0.322 N 
HETATM   24  C7  UNL     1      -4.589   0.883  -1.331  1.00  0.00     0.046 A 
HETATM   25  H8  UNL     1      -5.866  -0.906  -1.336  1.00  0.00     0.169 HD
HETATM   26  C8  UNL     1      -5.341   1.937  -1.865  1.00  0.00     0.033 A 
HETATM   27  C12 UNL     1      -3.309   1.208  -0.956  1.00  0.00     0.009 A 
HETATM   28  C9  UNL     1      -4.892   3.236  -2.032  1.00  0.00     0.044 A 
HETATM   29  C10 UNL     1      -3.599   3.510  -1.639  1.00  0.00     0.117 A 
HETATM   30  F1  UNL     1      -3.100   4.761  -1.776  1.00  0.00    -0.206 F 
HETATM   31  C11 UNL     1      -2.832   2.491  -1.109  1.00  0.00     0.057 A 
ENDBRANCH   2  20
TORSDOF 7
