REMARK  6 active torsions:
REMARK  status: ('A' for Active; 'I' for Inactive)
REMARK    1  A    between atoms: C3_3  and  C4_4 
REMARK    2  A    between atoms: C4_4  and  C5_5 
REMARK    3  A    between atoms: C15_19  and  N3_20 
REMARK    4  A    between atoms: N3_20  and  C16_21 
REMARK    5  A    between atoms: C16_21  and  C17_22 
REMARK    6  A    between atoms: C17_22  and  N4_23 
ROOT
HETATM    1  C1  UNL     1       0.075   2.422   1.400  1.00  0.00     0.046 C 
HETATM    2  C2  UNL     1      -0.260   1.581   0.220  1.00  0.00    -0.055 C 
HETATM    3  C3  UNL     1      -1.082   0.518   0.365  1.00  0.00     0.031 C 
HETATM    4  N2  UNL     1      -1.313  -0.161  -0.894  1.00  0.00    -0.383 N 
HETATM    5  C13 UNL     1      -0.201  -0.638  -1.739  1.00  0.00     0.100 C 
HETATM    6  C14 UNL     1       0.163  -2.022  -1.320  1.00  0.00     0.034 C 
HETATM    7  C15 UNL     1       0.861   0.390  -1.608  1.00  0.00     0.102 C 
HETATM    8  C20 UNL     1       0.211   1.704  -1.217  1.00  0.00     0.062 C 
HETATM    9  H9  UNL     1      -2.331  -0.291  -1.185  1.00  0.00     0.160 HD
ENDROOT
BRANCH   3  10
HETATM   10  C4  UNL     1      -1.689   0.101   1.597  1.00  0.00     0.047 C 
BRANCH  10  11
HETATM   11  C5  UNL     1      -2.458  -0.747   2.208  1.00  0.00     0.047 A 
HETATM   12  C6  UNL     1      -3.003  -1.792   1.329  1.00  0.00     0.257 A 
HETATM   13  O1  UNL     1      -3.119  -2.326   0.223  1.00  0.00    -0.267 OA
HETATM   14  N1  UNL     1      -3.798  -2.571   2.250  1.00  0.00    -0.322 N 
HETATM   15  C7  UNL     1      -3.712  -2.009   3.568  1.00  0.00     0.046 A 
HETATM   16  H5  UNL     1      -4.412  -3.426   2.215  1.00  0.00     0.169 HD
HETATM   17  C8  UNL     1      -4.214  -2.276   4.831  1.00  0.00     0.033 A 
HETATM   18  C12 UNL     1      -2.907  -0.904   3.567  1.00  0.00     0.009 A 
HETATM   19  C9  UNL     1      -3.951  -1.539   5.955  1.00  0.00     0.044 A 
HETATM   20  C10 UNL     1      -3.141  -0.450   5.886  1.00  0.00     0.117 A 
HETATM   21  F1  UNL     1      -2.837   0.321   6.955  1.00  0.00    -0.206 F 
HETATM   22  C11 UNL     1      -2.613  -0.132   4.667  1.00  0.00     0.057 A 
ENDBRANCH  10  11
ENDBRANCH   3  10
BRANCH   7  23
HETATM   23  N3  UNL     1       1.791   0.549  -2.652  1.00  0.00    -0.413 N 
HETATM   24  H15 UNL     1       1.592   1.203  -3.405  1.00  0.00     0.153 HD
BRANCH  23  25
HETATM   25  C16 UNL     1       2.616  -0.568  -2.944  1.00  0.00     0.135 C 
BRANCH  25  26
HETATM   26  C17 UNL     1       3.560  -0.227  -4.072  1.00  0.00     0.165 C 
BRANCH  26  27
HETATM   27  N4  UNL     1       4.407   0.919  -3.708  1.00  0.00    -0.282 N 
HETATM   28  C18 UNL     1       4.167   2.244  -3.932  1.00  0.00     0.128 A 
HETATM   29  C19 UNL     1       5.281   2.874  -3.362  1.00  0.00     0.154 A 
HETATM   30  N5  UNL     1       6.110   1.953  -2.844  1.00  0.00    -0.171 NA
HETATM   31  N6  UNL     1       5.566   0.770  -3.062  1.00  0.00     0.004 NA
ENDBRANCH  26  27
ENDBRANCH  25  26
ENDBRANCH  23  25
ENDBRANCH   7  23
TORSDOF 6
