REMARK  3 active torsions:
REMARK  status: ('A' for Active; 'I' for Inactive)
REMARK    1  A    between atoms: C7_7  and  N1_8 
REMARK    2  A    between atoms: N1_8  and  C8_9 
REMARK    3  A    between atoms: C12_14  and  C13_15 
ROOT
HETATM    1  C8  UNL     1       1.768   0.492  -0.597  1.00  0.00     0.380 C 
HETATM    2  N2  UNL     1       0.624  -0.361  -0.698  1.00  0.00    -0.218 NA
HETATM    3  C9  UNL     1      -0.643  -0.245  -0.500  1.00  0.00     0.143 A 
HETATM    4  C10 UNL     1      -1.258   0.939  -0.074  1.00  0.00     0.028 A 
HETATM    5  C11 UNL     1      -2.632   1.012   0.124  1.00  0.00     0.034 A 
HETATM    6  C12 UNL     1      -3.337  -0.162  -0.129  1.00  0.00     0.045 A 
HETATM    7  C19 UNL     1      -2.696  -1.309  -0.547  1.00  0.00     0.260 A 
HETATM    8  O1  UNL     1      -3.420  -2.307  -0.746  1.00  0.00    -0.267 OA
HETATM    9  N3  UNL     1      -1.366  -1.351  -0.731  1.00  0.00    -0.302 N 
HETATM   10  C20 UNL     1      -0.708  -2.547  -1.166  1.00  0.00     0.161 C 
HETATM   11  C21 UNL     1      -0.681   2.123   0.199  1.00  0.00     0.129 C 
HETATM   12  N4  UNL     1       0.729   2.416   0.105  1.00  0.00    -0.273 N 
HETATM   13  O2  UNL     1       1.691   1.495   0.335  1.00  0.00    -0.231 OA
HETATM   14  H19 UNL     1       0.935   3.425  -0.163  1.00  0.00     0.193 HD
ENDROOT
BRANCH   1  15
HETATM   15  N1  UNL     1       2.926  -0.320  -0.207  1.00  0.00    -0.344 N 
HETATM   16  H8  UNL     1       2.829  -1.345  -0.052  1.00  0.00     0.164 HD
BRANCH  15  17
HETATM   17  C7  UNL     1       4.244   0.181  -0.008  1.00  0.00     0.037 A 
HETATM   18  C2  UNL     1       5.333  -0.586   0.360  1.00  0.00    -0.035 A 
HETATM   19  C1  UNL     1       5.076  -2.042   0.555  1.00  0.00     0.050 C 
HETATM   20  C3  UNL     1       6.565  -0.040   0.532  1.00  0.00     0.009 A 
HETATM   21  C4  UNL     1       6.816   1.297   0.357  1.00  0.00     0.001 A 
HETATM   22  C5  UNL     1       5.751   2.068  -0.007  1.00  0.00     0.002 A 
HETATM   23  C6  UNL     1       4.512   1.530  -0.182  1.00  0.00     0.030 A 
ENDBRANCH  15  17
ENDBRANCH   1  15
BRANCH   6  24
HETATM   24  C13 UNL     1      -4.787  -0.068   0.085  1.00  0.00     0.001 A 
HETATM   25  C14 UNL     1      -5.714   0.293  -0.860  1.00  0.00     0.014 A 
HETATM   26  C15 UNL     1      -7.028   0.318  -0.452  1.00  0.00     0.001 A 
HETATM   27  C16 UNL     1      -7.418   0.002   0.830  1.00  0.00     0.002 A 
HETATM   28  C17 UNL     1      -6.459  -0.364   1.778  1.00  0.00     0.024 A 
HETATM   29  C18 UNL     1      -5.132  -0.391   1.369  1.00  0.00     0.045 A 
HETATM   30 CL1  UNL     1      -4.021  -0.862   2.637  1.00  0.00    -0.083 Cl
ENDBRANCH   6  24
TORSDOF 3
