REMARK  3 active torsions:
REMARK  status: ('A' for Active; 'I' for Inactive)
REMARK    1  A    between atoms: N3_7  and  C4_8 
REMARK    2  A    between atoms: C8_12  and  C9_13 
REMARK    3  A    between atoms: C9_13  and  O2_14 
ROOT
HETATM    1  O1  UNL     1      -5.262  -2.139   0.759  1.00  0.00    -0.268 OA
HETATM    2  C1  UNL     1      -4.129  -1.871   0.378  1.00  0.00     0.254 C 
HETATM    3  N1  UNL     1      -2.942  -2.654   0.246  1.00  0.00    -0.309 N 
HETATM    4  C2  UNL     1      -1.714  -2.039  -0.221  1.00  0.00     0.132 C 
HETATM    5  N2  UNL     1      -0.793  -2.552  -0.911  1.00  0.00    -0.253 NA
HETATM    6  C3  UNL     1       0.396  -1.744  -1.288  1.00  0.00     0.300 C 
HETATM    7  N3  UNL     1       0.564  -0.668  -0.290  1.00  0.00    -0.268 N 
HETATM    8  N4  UNL     1      -0.490   0.112   0.088  1.00  0.00    -0.261 N 
HETATM    9  C11 UNL     1      -0.411   1.517   0.299  1.00  0.00     0.117 C 
HETATM   10 CL1  UNL     1       1.239   2.171   0.374  1.00  0.00    -0.063 Cl
HETATM   11  C12 UNL     1      -1.243   2.536   0.424  1.00  0.00     0.018 C 
HETATM   12  C13 UNL     1      -2.717   2.521   0.369  1.00  0.00     0.004 C 
HETATM   13  C14 UNL     1      -3.970   2.027   0.248  1.00  0.00     0.050 C 
HETATM   14  C15 UNL     1      -4.835   0.786   0.027  1.00  0.00     0.125 C 
HETATM   15 CL2  UNL     1      -6.132   0.766   1.234  1.00  0.00    -0.119 Cl
HETATM   16  C16 UNL     1      -4.056  -0.470   0.004  1.00  0.00     0.027 C 
HETATM   17  C17 UNL     1      -2.848  -0.074  -0.467  1.00  0.00     0.022 C 
HETATM   18  C18 UNL     1      -1.679  -0.613   0.261  1.00  0.00     0.202 C 
HETATM   19  H1  UNL     1      -2.965  -3.659   0.454  1.00  0.00     0.170 HD
ENDROOT
BRANCH   7  20
HETATM   20  C4  UNL     1       1.841  -0.383   0.333  1.00  0.00     0.053 A 
HETATM   21  C5  UNL     1       2.230  -0.120   1.657  1.00  0.00     0.031 A 
HETATM   22  C6  UNL     1       3.557   0.110   1.929  1.00  0.00     0.003 A 
HETATM   23  C7  UNL     1       4.515   0.091   0.953  1.00  0.00     0.009 A 
HETATM   24  C8  UNL     1       4.162  -0.162  -0.344  1.00  0.00    -0.033 A 
HETATM   25  C10 UNL     1       2.825  -0.401  -0.667  1.00  0.00     0.040 A 
BRANCH  24  26
HETATM   26  C9  UNL     1       5.262  -0.164  -1.342  1.00  0.00     0.203 C 
BRANCH  26  27
HETATM   27  O2  UNL     1       5.463   1.103  -1.886  1.00  0.00    -0.396 OA
HETATM   28  H9  UNL     1       5.070   1.828  -1.315  1.00  0.00     0.209 HD
ENDBRANCH  26  27
ENDBRANCH  24  26
ENDBRANCH   7  20
TORSDOF 3
