REMARK  5 active torsions:
REMARK  status: ('A' for Active; 'I' for Inactive)
REMARK    1  A    between atoms: C3_5  and  C4_6 
REMARK    2  A    between atoms: C13_18  and  N3_19 
REMARK    3  A    between atoms: N3_19  and  C14_20 
REMARK    4  A    between atoms: C18_24  and  C19_25 
REMARK    5  A    between atoms: C19_25  and  O2_26 
ROOT
HETATM    1  C1  UNL     1      -2.136  -2.793   1.146  1.00  0.00     0.161 C 
HETATM    2  N1  UNL     1      -2.036  -1.526   0.433  1.00  0.00    -0.301 N 
HETATM    3  C2  UNL     1      -3.199  -0.874   0.475  1.00  0.00     0.260 A 
HETATM    4  O1  UNL     1      -4.320  -1.074   0.964  1.00  0.00    -0.267 OA
HETATM    5  C3  UNL     1      -3.245   0.368  -0.181  1.00  0.00     0.047 A 
HETATM    6  C10 UNL     1      -2.125   0.896  -0.848  1.00  0.00     0.034 A 
HETATM    7  C11 UNL     1      -0.968   0.128  -0.826  1.00  0.00     0.030 A 
HETATM    8  C12 UNL     1       0.163   0.611  -1.469  1.00  0.00     0.151 A 
HETATM    9  N2  UNL     1       1.275  -0.139  -1.437  1.00  0.00    -0.074 NA
HETATM   10  C13 UNL     1       1.263  -1.335  -0.784  1.00  0.00     0.728 A 
HETATM   11  N4  UNL     1       0.152  -1.814  -0.151  1.00  0.00    -0.044 NA
HETATM   12  C21 UNL     1      -0.957  -1.063  -0.185  1.00  0.00     0.163 A 
ENDROOT
BRANCH  10  13
HETATM   13  N3  UNL     1       2.527  -1.977  -0.870  1.00  0.00    -0.188 N 
HETATM   14  H9  UNL     1       2.390  -2.847  -1.426  1.00  0.00     0.184 HD
BRANCH  13  15
HETATM   15  C14 UNL     1       3.810  -1.627  -0.355  1.00  0.00     0.050 A 
HETATM   16  C15 UNL     1       4.846  -2.512  -0.507  1.00  0.00     0.030 A 
HETATM   17  C16 UNL     1       6.054  -2.085  -0.001  1.00  0.00     0.003 A 
HETATM   18  C17 UNL     1       6.350  -0.902   0.627  1.00  0.00     0.009 A 
HETATM   19  C18 UNL     1       5.260  -0.040   0.753  1.00  0.00    -0.033 A 
HETATM   20  C20 UNL     1       3.999  -0.387   0.272  1.00  0.00     0.039 A 
BRANCH  19  21
HETATM   21  C19 UNL     1       5.495   1.269   1.418  1.00  0.00     0.203 C 
BRANCH  21  22
HETATM   22  O2  UNL     1       5.859   2.192   0.420  1.00  0.00    -0.396 OA
HETATM   23  H15 UNL     1       5.295   1.975  -0.355  1.00  0.00     0.209 HD
ENDBRANCH  21  22
ENDBRANCH  19  21
ENDBRANCH  13  15
ENDBRANCH  10  13
BRANCH   5  24
HETATM   24  C4  UNL     1      -4.386   1.311  -0.289  1.00  0.00     0.023 A 
HETATM   25  C5  UNL     1      -5.279   1.208  -1.356  1.00  0.00     0.046 A 
HETATM   26 CL1  UNL     1      -5.115  -0.010  -2.593  1.00  0.00    -0.083 Cl
HETATM   27  C6  UNL     1      -6.264   2.178  -1.279  1.00  0.00     0.025 A 
HETATM   28  C7  UNL     1      -6.438   3.161  -0.328  1.00  0.00     0.003 A 
HETATM   29  C8  UNL     1      -5.470   3.108   0.639  1.00  0.00     0.025 A 
HETATM   30  C9  UNL     1      -4.419   2.229   0.738  1.00  0.00     0.046 A 
HETATM   31 CL2  UNL     1      -3.281   2.304   2.036  1.00  0.00    -0.083 Cl
ENDBRANCH   5  24
TORSDOF 5
