REMARK  7 active torsions:
REMARK  status: ('A' for Active; 'I' for Inactive)
REMARK    1  A    between atoms: N1_1  and  C1_2 
REMARK    2  A    between atoms: C1_2  and  C2_3 
REMARK    3  A    between atoms: C7_9  and  O1_10 
REMARK    4  A    between atoms: O1_10  and  C8_11 
REMARK    5  A    between atoms: C10_13  and  N2_14 
REMARK    6  A    between atoms: N2_14  and  C11_15 
REMARK    7  A    between atoms: C11_15  and  C12_16 
ROOT
HETATM    1  C8  UNL     1      -0.914  -0.964  -1.332  1.00  0.00     0.174 A 
HETATM    2  C9  UNL     1      -0.283   0.003  -0.612  1.00  0.00     0.108 A 
HETATM    3  C10 UNL     1       0.943   0.518  -0.954  1.00  0.00     0.129 A 
HETATM    4  N3  UNL     1       1.485   0.001  -2.056  1.00  0.00    -0.225 NA
HETATM    5  C18 UNL     1       0.910  -0.953  -2.805  1.00  0.00     0.238 A 
HETATM    6  N4  UNL     1      -0.277  -1.425  -2.440  1.00  0.00    -0.217 NA
ENDROOT
BRANCH   1   7
HETATM    7  O1  UNL     1      -2.114  -1.595  -1.151  1.00  0.00    -0.291 OA
BRANCH   7   8
HETATM    8  C7  UNL     1      -2.992  -1.324  -0.156  1.00  0.00     0.086 A 
HETATM    9  C2  UNL     1      -3.733  -0.196   0.092  1.00  0.00     0.006 A 
HETATM   10  C3  UNL     1      -4.581  -0.125   1.178  1.00  0.00     0.054 A 
HETATM   11  C4  UNL     1      -4.730  -1.188   2.072  1.00  0.00     0.117 A 
HETATM   12  F1  UNL     1      -5.551  -1.146   3.147  1.00  0.00    -0.206 F 
HETATM   13  C5  UNL     1      -3.986  -2.312   1.813  1.00  0.00     0.045 A 
HETATM   14  C6  UNL     1      -3.133  -2.377   0.718  1.00  0.00     0.041 A 
BRANCH   9  15
HETATM   15  C1  UNL     1      -3.648   0.944  -0.848  1.00  0.00     0.308 C 
BRANCH  15  16
HETATM   16  N1  UNL     1      -4.676   1.939  -0.501  1.00  0.00     0.082 N 
HETATM   17  H1  UNL     1      -4.682   2.661  -1.277  1.00  0.00     0.313 HD
HETATM   18  H2  UNL     1      -4.401   2.413   0.411  1.00  0.00     0.313 HD
ENDBRANCH  15  16
ENDBRANCH   9  15
ENDBRANCH   7   8
ENDBRANCH   1   7
BRANCH   3  19
HETATM   19  N2  UNL     1       1.476   1.530  -0.129  1.00  0.00    -0.370 N 
HETATM   20  H9  UNL     1       0.935   1.947   0.644  1.00  0.00     0.161 HD
BRANCH  19  21
HETATM   21  C11 UNL     1       2.822   2.087  -0.282  1.00  0.00     0.160 C 
BRANCH  21  22
HETATM   22  C12 UNL     1       3.801   1.007  -0.001  1.00  0.00    -0.041 A 
HETATM   23  C13 UNL     1       4.468   0.125  -0.827  1.00  0.00     0.009 A 
HETATM   24  C14 UNL     1       5.312  -0.804  -0.277  1.00  0.00     0.001 A 
HETATM   25  C15 UNL     1       5.537  -0.911   1.077  1.00  0.00     0.000 A 
HETATM   26  C16 UNL     1       4.883  -0.039   1.933  1.00  0.00     0.001 A 
HETATM   27  C17 UNL     1       4.035   0.894   1.374  1.00  0.00     0.009 A 
ENDBRANCH  21  22
ENDBRANCH  19  21
ENDBRANCH   3  19
TORSDOF 7
