REMARK  7 active torsions:
REMARK  status: ('A' for Active; 'I' for Inactive)
REMARK    1  A    between atoms: C3_5  and  C4_6 
REMARK    2  A    between atoms: C5_7  and  C6_8 
REMARK    3  A    between atoms: C7_9  and  C8_10 
REMARK    4  A    between atoms: C13_17  and  N3_18 
REMARK    5  A    between atoms: N3_18  and  C14_19 
REMARK    6  A    between atoms: C18_23  and  C19_24 
REMARK    7  A    between atoms: C19_24  and  O2_25 
ROOT
HETATM    1  C1  UNL     1      -0.583   1.474  -0.343  1.00  0.00     0.161 C 
HETATM    2  N1  UNL     1       0.258   0.374   0.106  1.00  0.00    -0.301 N 
HETATM    3  C2  UNL     1       1.476   0.574   0.622  1.00  0.00     0.259 A 
HETATM    4  O1  UNL     1       1.822   1.780   0.685  1.00  0.00    -0.267 OA
HETATM    5  C3  UNL     1       2.366  -0.368   1.079  1.00  0.00     0.033 A 
HETATM    6  C10 UNL     1       1.873  -1.668   0.958  1.00  0.00     0.033 A 
HETATM    7  C11 UNL     1       0.641  -1.923   0.440  1.00  0.00     0.030 A 
HETATM    8  C12 UNL     1       0.199  -3.223   0.341  1.00  0.00     0.151 A 
HETATM    9  N2  UNL     1      -1.018  -3.434  -0.175  1.00  0.00    -0.074 NA
HETATM   10  C13 UNL     1      -1.850  -2.472  -0.607  1.00  0.00     0.728 A 
HETATM   11  N4  UNL     1      -1.359  -1.239  -0.482  1.00  0.00    -0.044 NA
HETATM   12  C21 UNL     1      -0.170  -0.898   0.012  1.00  0.00     0.163 A 
ENDROOT
BRANCH  10  13
HETATM   13  N3  UNL     1      -3.105  -2.843  -1.133  1.00  0.00    -0.188 N 
HETATM   14  H12 UNL     1      -3.316  -3.885  -1.190  1.00  0.00     0.184 HD
BRANCH  13  15
HETATM   15  C14 UNL     1      -4.149  -2.014  -1.608  1.00  0.00     0.050 A 
HETATM   16  C15 UNL     1      -5.298  -2.537  -2.162  1.00  0.00     0.030 A 
HETATM   17  C16 UNL     1      -6.332  -1.760  -2.627  1.00  0.00     0.003 A 
HETATM   18  C17 UNL     1      -6.267  -0.384  -2.559  1.00  0.00     0.009 A 
HETATM   19  C18 UNL     1      -5.143   0.198  -2.015  1.00  0.00    -0.033 A 
HETATM   20  C20 UNL     1      -4.146  -0.638  -1.569  1.00  0.00     0.039 A 
BRANCH  19  21
HETATM   21  C19 UNL     1      -5.040   1.680  -1.922  1.00  0.00     0.203 C 
BRANCH  21  22
HETATM   22  O2  UNL     1      -5.570   2.096  -0.700  1.00  0.00    -0.396 OA
HETATM   23  H18 UNL     1      -6.553   2.117  -0.816  1.00  0.00     0.209 HD
ENDBRANCH  21  22
ENDBRANCH  19  21
ENDBRANCH  13  15
ENDBRANCH  10  13
BRANCH   5  24
HETATM   24  C4  UNL     1       3.666  -0.149   1.631  1.00  0.00     0.017 C 
HETATM   25  C5  UNL     1       4.301   0.991   1.821  1.00  0.00     0.001 C 
BRANCH  25  26
HETATM   26  C6  UNL     1       5.658   1.064   2.409  1.00  0.00     0.000 C 
HETATM   27  C7  UNL     1       6.310   2.192   2.608  1.00  0.00     0.001 C 
BRANCH  27  28
HETATM   28  C8  UNL     1       7.633   2.095   3.191  1.00  0.00     0.012 C 
HETATM   29  C9  UNL     1       8.392   3.140   3.450  1.00  0.00     0.084 C 
HETATM   30 CL1  UNL     1       9.989   3.096   4.150  1.00  0.00    -0.097 Cl
ENDBRANCH  27  28
ENDBRANCH  25  26
ENDBRANCH   5  24
TORSDOF 7
