REMARK  5 active torsions:
REMARK  status: ('A' for Active; 'I' for Inactive)
REMARK    1  A    between atoms: C4_4  and  N1_5 
REMARK    2  A    between atoms: N1_5  and  C5_6 
REMARK    3  A    between atoms: C9_11  and  C10_12 
REMARK    4  A    between atoms: C19_26  and  C20_27 
REMARK    5  A    between atoms: C20_27  and  O2_28 
ROOT
HETATM    1  C5  UNL     1      -1.332   0.824   0.183  1.00  0.00     0.728 A 
HETATM    2  N2  UNL     1      -1.321  -0.519   0.228  1.00  0.00    -0.074 NA
HETATM    3  C6  UNL     1      -0.143  -1.206   0.267  1.00  0.00     0.151 A 
HETATM    4  C7  UNL     1       1.009  -0.465   0.257  1.00  0.00     0.030 A 
HETATM    5  C8  UNL     1       2.250  -1.070   0.294  1.00  0.00     0.034 A 
HETATM    6  C9  UNL     1       3.433  -0.350   0.285  1.00  0.00     0.047 A 
HETATM    7  C16 UNL     1       3.355   1.041   0.237  1.00  0.00     0.260 A 
HETATM    8  O1  UNL     1       4.380   1.793   0.226  1.00  0.00    -0.267 OA
HETATM    9  N3  UNL     1       2.156   1.654   0.201  1.00  0.00    -0.301 N 
HETATM   10  C17 UNL     1       1.987   3.107   0.150  1.00  0.00     0.161 C 
HETATM   11  C18 UNL     1       1.031   0.914   0.211  1.00  0.00     0.163 A 
HETATM   12  N4  UNL     1      -0.187   1.529   0.174  1.00  0.00    -0.044 NA
ENDROOT
BRANCH   1  13
HETATM   13  N1  UNL     1      -2.575   1.514   0.143  1.00  0.00    -0.188 N 
HETATM   14  H5  UNL     1      -2.606   2.557   0.108  1.00  0.00     0.184 HD
BRANCH  13  15
HETATM   15  C4  UNL     1      -3.803   0.795   0.151  1.00  0.00     0.054 A 
HETATM   16  C3  UNL     1      -4.731   0.752   1.298  1.00  0.00     0.033 A 
HETATM   17  C2  UNL     1      -5.773  -0.016   0.945  1.00  0.00    -0.077 A 
HETATM   18  C1  UNL     1      -6.912  -0.270   1.895  1.00  0.00     0.044 C 
HETATM   19  C21 UNL     1      -5.615  -0.531  -0.440  1.00  0.00     0.072 A 
HETATM   20  C19 UNL     1      -4.308   0.066  -0.833  1.00  0.00    -0.025 A 
BRANCH  20  21
HETATM   21  C20 UNL     1      -3.683  -0.149  -2.162  1.00  0.00     0.201 C 
BRANCH  21  22
HETATM   22  O2  UNL     1      -4.566   0.338  -3.151  1.00  0.00    -0.397 OA
HETATM   23  H16 UNL     1      -4.455  -0.184  -3.980  1.00  0.00     0.209 HD
ENDBRANCH  21  22
ENDBRANCH  20  21
ENDBRANCH  13  15
ENDBRANCH   1  13
BRANCH   6  24
HETATM   24  C10 UNL     1       4.771  -0.863   0.320  1.00  0.00     0.023 A 
HETATM   25  C11 UNL     1       5.473  -1.165  -0.837  1.00  0.00     0.046 A 
HETATM   26 CL1  UNL     1       4.619  -0.881  -2.363  1.00  0.00    -0.083 Cl
HETATM   27  C12 UNL     1       6.765  -1.663  -0.916  1.00  0.00     0.025 A 
HETATM   28  C13 UNL     1       7.411  -1.876   0.276  1.00  0.00     0.003 A 
HETATM   29  C14 UNL     1       6.780  -1.600   1.481  1.00  0.00     0.025 A 
HETATM   30  C15 UNL     1       5.488  -1.105   1.476  1.00  0.00     0.046 A 
HETATM   31 CL2  UNL     1       4.711  -0.763   3.023  1.00  0.00    -0.083 Cl
ENDBRANCH   6  24
TORSDOF 5
