REMARK  3 active torsions:
REMARK  status: ('A' for Active; 'I' for Inactive)
REMARK       I    between atoms: C2_3  and  N2_4 
REMARK       I    between atoms: C2_3  and  N4_22 
REMARK    1  A    between atoms: C6_8  and  C7_9 
REMARK    2  A    between atoms: C7_9  and  C8_10 
REMARK    3  A    between atoms: N4_22  and  C16_23 
ROOT
HETATM    1  C1  UNL     1       1.775   1.720  -2.456  1.00  0.00     0.198 C 
HETATM    2  N1  UNL     1       2.477   1.318  -1.274  1.00  0.00    -0.110 NA
HETATM    3  C2  UNL     1       2.303   0.189  -0.652  1.00  0.00     0.723 C 
HETATM    4  N2  UNL     1       1.414  -0.872  -0.977  1.00  0.00    -0.049 NA
HETATM    5  C3  UNL     1       0.164  -0.906  -0.673  1.00  0.00     0.131 A 
HETATM    6  C4  UNL     1      -0.446   0.207   0.066  1.00  0.00     0.107 A 
HETATM    7  C5  UNL     1      -1.888  -0.013   0.336  1.00  0.00    -0.006 A 
HETATM    8  C6  UNL     1      -2.634  -1.051  -0.011  1.00  0.00     0.011 A 
HETATM    9  C14 UNL     1      -1.959  -2.136  -0.758  1.00  0.00     0.255 A 
HETATM   10  O1  UNL     1      -2.556  -3.194  -1.156  1.00  0.00    -0.267 OA
HETATM   11  N3  UNL     1      -0.577  -2.047  -1.076  1.00  0.00    -0.305 N 
HETATM   12  C15 UNL     1       0.081  -3.112  -1.809  1.00  0.00     0.161 C 
HETATM   13  N4  UNL     1       3.103   0.004   0.498  1.00  0.00    -0.188 N 
HETATM   14  H15 UNL     1       2.654  -0.494   1.319  1.00  0.00     0.184 HD
ENDROOT
BRANCH  13  15
HETATM   15  C16 UNL     1       4.446   0.418   0.649  1.00  0.00     0.049 A 
HETATM   16  C17 UNL     1       5.224   1.013  -0.303  1.00  0.00     0.033 A 
HETATM   17  C18 UNL     1       6.525   1.411  -0.136  1.00  0.00     0.044 A 
HETATM   18  C19 UNL     1       7.139   1.211   1.087  1.00  0.00     0.116 A 
HETATM   19  F1  UNL     1       8.409   1.556   1.380  1.00  0.00    -0.206 F 
HETATM   20  C20 UNL     1       6.405   0.619   2.073  1.00  0.00     0.044 A 
HETATM   21  C21 UNL     1       5.100   0.236   1.857  1.00  0.00     0.033 A 
ENDBRANCH  13  15
BRANCH   8  22
HETATM   22  C7  UNL     1      -4.058  -1.317   0.230  1.00  0.00     0.086 C 
BRANCH  22  23
HETATM   23  C8  UNL     1      -4.791  -0.296   0.969  1.00  0.00    -0.010 A 
HETATM   24  C9  UNL     1      -4.572  -0.249   2.347  1.00  0.00     0.042 A 
HETATM   25 CL1  UNL     1      -3.459  -1.382   3.115  1.00  0.00    -0.084 Cl
HETATM   26  C10 UNL     1      -5.197   0.665   3.185  1.00  0.00     0.024 A 
HETATM   27  C11 UNL     1      -6.068   1.558   2.611  1.00  0.00     0.003 A 
HETATM   28  C12 UNL     1      -6.317   1.552   1.257  1.00  0.00     0.024 A 
HETATM   29  C13 UNL     1      -5.677   0.627   0.452  1.00  0.00     0.042 A 
HETATM   30 CL2  UNL     1      -5.909   0.515  -1.299  1.00  0.00    -0.084 Cl
ENDBRANCH  22  23
ENDBRANCH   8  22
TORSDOF 3
