REMARK  5 active torsions:
REMARK  status: ('A' for Active; 'I' for Inactive)
REMARK    1  A    between atoms: C3_5  and  C4_6 
REMARK    2  A    between atoms: C13_18  and  N3_19 
REMARK    3  A    between atoms: N3_19  and  C14_20 
REMARK    4  A    between atoms: C15_21  and  C16_22 
REMARK    5  A    between atoms: C16_22  and  C17_23 
ROOT
HETATM    1  C1  UNL     1       0.003   0.529   2.484  1.00  0.00     0.161 C 
HETATM    2  N1  UNL     1      -0.575   0.313   1.174  1.00  0.00    -0.301 N 
HETATM    3  C2  UNL     1      -1.912   0.348   0.904  1.00  0.00     0.260 A 
HETATM    4  O1  UNL     1      -2.581   0.594   1.961  1.00  0.00    -0.267 OA
HETATM    5  C3  UNL     1      -2.403   0.133  -0.384  1.00  0.00     0.047 A 
HETATM    6  C10 UNL     1      -1.515  -0.121  -1.403  1.00  0.00     0.034 A 
HETATM    7  C11 UNL     1      -0.172  -0.151  -1.100  1.00  0.00     0.030 A 
HETATM    8  C12 UNL     1       0.695  -0.417  -2.130  1.00  0.00     0.151 A 
HETATM    9  N2  UNL     1       2.026  -0.477  -1.918  1.00  0.00    -0.074 NA
HETATM   10  C13 UNL     1       2.517  -0.270  -0.672  1.00  0.00     0.728 A 
HETATM   11  N4  UNL     1       1.655  -0.011   0.314  1.00  0.00    -0.044 NA
HETATM   12  C18 UNL     1       0.309   0.062   0.173  1.00  0.00     0.163 A 
ENDROOT
BRANCH   5  13
HETATM   13  C4  UNL     1      -3.857   0.220  -0.370  1.00  0.00     0.023 A 
HETATM   14  C5  UNL     1      -4.431  -1.033  -0.155  1.00  0.00     0.046 A 
HETATM   15 CL1  UNL     1      -3.550  -2.532   0.046  1.00  0.00    -0.083 Cl
HETATM   16  C6  UNL     1      -5.805  -1.188  -0.090  1.00  0.00     0.025 A 
HETATM   17  C7  UNL     1      -6.612  -0.065  -0.245  1.00  0.00     0.003 A 
HETATM   18  C8  UNL     1      -6.045   1.176  -0.458  1.00  0.00     0.025 A 
HETATM   19  C9  UNL     1      -4.675   1.322  -0.521  1.00  0.00     0.046 A 
HETATM   20 CL2  UNL     1      -3.818   2.817  -0.787  1.00  0.00    -0.083 Cl
ENDBRANCH   5  13
BRANCH  10  21
HETATM   21  N3  UNL     1       3.801  -0.272  -0.069  1.00  0.00    -0.198 N 
HETATM   22  H9  UNL     1       4.104   0.682  -0.374  1.00  0.00     0.183 HD
BRANCH  21  23
HETATM   23  C14 UNL     1       4.575  -1.153   0.711  1.00  0.00     0.102 C 
HETATM   24  C15 UNL     1       5.900  -1.069   0.761  1.00  0.00    -0.001 C 
BRANCH  24  25
HETATM   25  C16 UNL     1       6.031   0.060  -0.143  1.00  0.00     0.123 C 
BRANCH  25  26
HETATM   26  C17 UNL     1       7.042   0.762  -0.619  1.00  0.00     0.155 C 
HETATM   27  F1  UNL     1       6.361   1.661  -1.410  1.00  0.00    -0.254 F 
ENDBRANCH  25  26
ENDBRANCH  24  25
ENDBRANCH  21  23
ENDBRANCH  10  21
TORSDOF 5
