REMARK  2 active torsions:
REMARK  status: ('A' for Active; 'I' for Inactive)
REMARK    1  A    between atoms: C14_17  and  C15_18 
REMARK    2  A    between atoms: N3_24  and  N4_25 
ROOT
HETATM    1  C1  UNL     1       2.261  -2.298   0.047  1.00  0.00     0.039 C 
HETATM    2  C2  UNL     1       1.473  -1.044  -0.405  1.00  0.00     0.132 A 
HETATM    3  C3  UNL     1       1.299  -0.170   0.755  1.00  0.00    -0.021 A 
HETATM    4  C4  UNL     1       2.380   0.487   1.454  1.00  0.00    -0.006 A 
HETATM    5  C5  UNL     1       2.200   1.120   2.665  1.00  0.00     0.014 A 
HETATM    6  C6  UNL     1       3.160   1.790   3.365  1.00  0.00     0.001 A 
HETATM    7  C7  UNL     1       4.454   1.861   2.837  1.00  0.00     0.002 A 
HETATM    8  C8  UNL     1       4.702   1.251   1.630  1.00  0.00     0.024 A 
HETATM    9  C9  UNL     1       3.669   0.597   0.994  1.00  0.00     0.044 A 
HETATM   10 CL1  UNL     1       4.147  -0.072  -0.530  1.00  0.00    -0.083 Cl
HETATM   11  C10 UNL     1       0.077   0.005   1.211  1.00  0.00     0.025 A 
HETATM   12  C11 UNL     1      -1.147  -0.579   0.680  1.00  0.00     0.011 A 
HETATM   13  C12 UNL     1      -2.253  -0.297   1.312  1.00  0.00     0.131 C 
HETATM   14  N1  UNL     1      -3.640  -0.389   1.490  1.00  0.00    -0.256 NA
HETATM   15  C13 UNL     1      -4.417   0.489   0.861  1.00  0.00     0.202 C 
HETATM   16  N2  UNL     1      -3.134   0.981   0.377  1.00  0.00    -0.376 N 
HETATM   17  C14 UNL     1      -2.746   0.415  -0.901  1.00  0.00     0.113 C 
HETATM   18  C17 UNL     1      -3.127  -1.029  -0.995  1.00  0.00     0.013 C 
HETATM   19  C18 UNL     1      -2.168  -1.945  -0.927  1.00  0.00     0.003 C 
HETATM   20  C19 UNL     1      -1.058  -1.447  -0.474  1.00  0.00     0.069 A 
HETATM   21  N3  UNL     1       0.249  -1.605  -0.935  1.00  0.00    -0.305 N 
HETATM   22  H12 UNL     1      -2.401   1.668   0.718  1.00  0.00     0.161 HD
ENDROOT
BRANCH  21  23
HETATM   23  N4  UNL     1       0.406  -2.429  -2.080  1.00  0.00    -0.246 NA
HETATM   24  H17 UNL     1      -0.284  -3.235  -2.048  1.00  0.00     0.143 HD
HETATM   25  H18 UNL     1       1.332  -2.862  -2.140  1.00  0.00     0.143 HD
ENDBRANCH  21  23
BRANCH  17  26
HETATM   26  C15 UNL     1      -3.743   1.067  -1.831  1.00  0.00     0.057 C 
HETATM   27  C16 UNL     1      -3.428   1.995  -2.712  1.00  0.00     0.421 C 
HETATM   28  F1  UNL     1      -2.090   2.133  -2.512  1.00  0.00    -0.455 F 
ENDBRANCH  17  26
TORSDOF 2
