REMARK  4 active torsions:
REMARK  status: ('A' for Active; 'I' for Inactive)
REMARK       I    between atoms: N1_2  and  C2_3 
REMARK    1  A    between atoms: N1_2  and  C10_14 
REMARK    2  A    between atoms: C2_3  and  C3_5 
REMARK    3  A    between atoms: C13_18  and  N3_19 
REMARK    4  A    between atoms: N3_19  and  C14_20 
ROOT
HETATM    1  C10 UNL     1       0.002   0.879  -0.665  1.00  0.00     0.152 A 
HETATM    2  C11 UNL     1       0.284   2.094  -0.081  1.00  0.00     0.071 A 
HETATM    3  C12 UNL     1       1.530   2.251   0.462  1.00  0.00     0.140 A 
HETATM    4  N2  UNL     1       2.402   1.238   0.403  1.00  0.00    -0.075 NA
HETATM    5  C13 UNL     1       2.173   0.043  -0.153  1.00  0.00     0.728 A 
HETATM    6  N4  UNL     1       0.949  -0.066  -0.668  1.00  0.00    -0.045 NA
ENDROOT
BRANCH   1   7
HETATM    7  N1  UNL     1      -1.277   0.654  -1.247  1.00  0.00    -0.305 N 
HETATM    8  C1  UNL     1      -1.365   1.011  -2.642  1.00  0.00     0.161 C 
HETATM    9  C2  UNL     1      -1.963   0.136  -0.115  1.00  0.00     0.238 C 
HETATM   10  O1  UNL     1      -0.979   0.222   0.651  1.00  0.00    -0.272 OA
BRANCH   9  11
HETATM   11  C3  UNL     1      -3.369  -0.253  -0.235  1.00  0.00     0.147 C 
HETATM   12  C4  UNL     1      -4.204   0.907  -0.641  1.00  0.00     0.017 C 
HETATM   13  C5  UNL     1      -5.492   1.209  -0.576  1.00  0.00     0.031 C 
HETATM   14 CL1  UNL     1      -6.019   2.764  -1.215  1.00  0.00    -0.085 Cl
HETATM   15  C6  UNL     1      -6.523   0.320   0.001  1.00  0.00     0.023 C 
HETATM   16  C7  UNL     1      -6.378  -0.684   0.870  1.00  0.00     0.003 C 
HETATM   17  C8  UNL     1      -5.102  -1.110   1.438  1.00  0.00     0.021 C 
HETATM   18  C9  UNL     1      -3.879  -0.924   0.971  1.00  0.00     0.028 C 
HETATM   19 CL2  UNL     1      -2.598  -1.598   1.960  1.00  0.00    -0.088 Cl
ENDBRANCH   9  11
ENDBRANCH   1   7
BRANCH   5  20
HETATM   20  N3  UNL     1       3.060  -1.037  -0.232  1.00  0.00    -0.188 N 
HETATM   21  H11 UNL     1       2.718  -1.909  -0.705  1.00  0.00     0.184 HD
BRANCH  20  22
HETATM   22  C14 UNL     1       4.389  -1.101   0.257  1.00  0.00     0.049 A 
HETATM   23  C15 UNL     1       5.072  -0.101   0.911  1.00  0.00     0.033 A 
HETATM   24  C16 UNL     1       6.351  -0.176   1.375  1.00  0.00     0.044 A 
HETATM   25  C17 UNL     1       7.058  -1.345   1.192  1.00  0.00     0.116 A 
HETATM   26  F1  UNL     1       8.331  -1.550   1.604  1.00  0.00    -0.206 F 
HETATM   27  C18 UNL     1       6.435  -2.385   0.546  1.00  0.00     0.044 A 
HETATM   28  C19 UNL     1       5.141  -2.245   0.100  1.00  0.00     0.033 A 
ENDBRANCH  20  22
ENDBRANCH   5  20
TORSDOF 4
