REMARK  4 active torsions:
REMARK  status: ('A' for Active; 'I' for Inactive)
REMARK       I    between atoms: N1_2  and  C2_3 
REMARK    1  A    between atoms: N1_2  and  C10_14 
REMARK    2  A    between atoms: C2_3  and  C3_5 
REMARK    3  A    between atoms: C13_18  and  N3_19 
REMARK    4  A    between atoms: N3_19  and  C14_20 
ROOT
HETATM    1  C10 UNL     1       0.249  -0.282  -0.326  1.00  0.00     0.152 A 
HETATM    2  C11 UNL     1       0.500  -1.365  -1.107  1.00  0.00     0.071 A 
HETATM    3  C12 UNL     1       1.718  -1.961  -1.335  1.00  0.00     0.140 A 
HETATM    4  N2  UNL     1       2.766  -1.399  -0.707  1.00  0.00    -0.075 NA
HETATM    5  C13 UNL     1       2.601  -0.334   0.077  1.00  0.00     0.728 A 
HETATM    6  N4  UNL     1       1.389   0.190   0.251  1.00  0.00    -0.045 NA
ENDROOT
BRANCH   1   7
HETATM    7  N1  UNL     1      -0.973   0.378  -0.050  1.00  0.00    -0.305 N 
HETATM    8  C1  UNL     1      -0.903   1.529   0.851  1.00  0.00     0.161 C 
HETATM    9  C2  UNL     1      -2.238   0.042  -0.545  1.00  0.00     0.240 C 
HETATM   10  O1  UNL     1      -2.297  -0.950  -1.310  1.00  0.00    -0.272 OA
BRANCH   9  11
HETATM   11  C3  UNL     1      -3.554   0.667  -0.319  1.00  0.00     0.095 A 
HETATM   12  C4  UNL     1      -3.615   2.124  -0.793  1.00  0.00     0.033 C 
HETATM   13  C5  UNL     1      -4.607  -0.052  -1.126  1.00  0.00     0.031 A 
HETATM   14 CL1  UNL     1      -4.178   0.110  -2.830  1.00  0.00    -0.088 Cl
HETATM   15  C6  UNL     1      -5.699  -0.725  -0.817  1.00  0.00     0.020 A 
HETATM   16  C7  UNL     1      -5.979  -0.811   0.604  1.00  0.00    -0.001 A 
HETATM   17  C8  UNL     1      -5.128  -0.223   1.404  1.00  0.00    -0.005 A 
HETATM   18  C9  UNL     1      -3.875   0.553   1.161  1.00  0.00     0.128 A 
HETATM   19 CL2  UNL     1      -3.991   2.124   1.968  1.00  0.00    -0.119 Cl
ENDBRANCH   9  11
ENDBRANCH   1   7
BRANCH   5  20
HETATM   20  N3  UNL     1       3.734   0.232   0.724  1.00  0.00    -0.189 N 
HETATM   21  H13 UNL     1       3.620   1.069   1.343  1.00  0.00     0.184 HD
BRANCH  20  22
HETATM   22  C14 UNL     1       5.029  -0.283   0.573  1.00  0.00     0.064 A 
HETATM   23  C15 UNL     1       5.341  -1.551   0.360  1.00  0.00     0.029 A 
HETATM   24  C16 UNL     1       6.783  -1.738   0.251  1.00  0.00     0.001 A 
HETATM   25  C17 UNL     1       7.314  -0.540   0.406  1.00  0.00     0.016 A 
HETATM   26  C18 UNL     1       6.305   0.517   0.625  1.00  0.00     0.243 A 
HETATM   27  F1  UNL     1       6.472   1.055   1.901  1.00  0.00    -0.239 F 
ENDBRANCH  20  22
ENDBRANCH   5  20
TORSDOF 4
