REMARK  4 active torsions:
REMARK  status: ('A' for Active; 'I' for Inactive)
REMARK    1  A    between atoms: C6_7  and  C7_8 
REMARK    2  A    between atoms: C11_12  and  C12_13 
REMARK    3  A    between atoms: N1_22  and  O1_23 
REMARK    4  A    between atoms: C20_26  and  N3_27 
ROOT
HETATM    1  C7  UNL     1       1.645  -1.424  -0.338  1.00  0.00     0.167 A 
HETATM    2  C8  UNL     1       0.622  -2.029   0.554  1.00  0.00     0.002 A 
HETATM    3  C9  UNL     1      -0.654  -1.605   0.439  1.00  0.00    -0.018 A 
HETATM    4  C10 UNL     1      -0.937  -0.556  -0.585  1.00  0.00     0.051 A 
HETATM    5  C11 UNL     1      -2.078  -0.012  -0.837  1.00  0.00    -0.037 A 
HETATM    6  C18 UNL     1      -1.402   0.758  -1.909  1.00  0.00     0.192 A 
HETATM    7  N1  UNL     1      -0.007   0.475  -2.014  1.00  0.00    -0.251 N 
HETATM    8  C19 UNL     1       1.365   0.217  -2.140  1.00  0.00     0.228 A 
HETATM    9  N2  UNL     1       1.032  -0.493  -1.217  1.00  0.00    -0.269 NA
ENDROOT
BRANCH   1  10
HETATM   10  C6  UNL     1       2.816  -0.876   0.392  1.00  0.00    -0.003 A 
HETATM   11  C5  UNL     1       4.102  -1.143  -0.059  1.00  0.00     0.015 A 
HETATM   12  C4  UNL     1       5.148  -0.606   0.684  1.00  0.00     0.043 A 
HETATM   13  C3  UNL     1       4.934   0.168   1.831  1.00  0.00     0.124 A 
HETATM   14  C2  UNL     1       3.641   0.402   2.232  1.00  0.00     0.003 A 
HETATM   15  F1  UNL     1       6.005   0.657   2.503  1.00  0.00    -0.205 F 
HETATM   16  C1  UNL     1       3.403   1.234   3.471  1.00  0.00     0.054 C 
HETATM   17  C20 UNL     1       2.569  -0.118   1.515  1.00  0.00     0.043 A 
BRANCH  17  18
HETATM   18  N3  UNL     1       1.292   0.206   2.044  1.00  0.00    -0.398 N 
HETATM   19  H17 UNL     1       0.547  -0.223   2.654  1.00  0.00     0.156 HD
HETATM   20  H18 UNL     1       0.607   1.011   2.025  1.00  0.00     0.156 HD
ENDBRANCH  17  18
ENDBRANCH   1  10
BRANCH   7  21
HETATM   21  O1  UNL     1       0.390   1.312  -3.050  1.00  0.00    -0.286 OA
HETATM   22  H15 UNL     1       0.306   2.243  -2.661  1.00  0.00     0.244 HD
ENDBRANCH   7  21
BRANCH   5  23
HETATM   23  C12 UNL     1      -3.529   0.180  -0.627  1.00  0.00     0.012 A 
HETATM   24  C13 UNL     1      -4.244   1.005  -1.437  1.00  0.00     0.046 A 
HETATM   25 CL1  UNL     1      -3.625   1.870  -2.800  1.00  0.00    -0.083 Cl
HETATM   26  C14 UNL     1      -5.576   1.196  -1.178  1.00  0.00     0.025 A 
HETATM   27  C15 UNL     1      -6.162   0.561  -0.117  1.00  0.00     0.003 A 
HETATM   28  C16 UNL     1      -5.449  -0.292   0.733  1.00  0.00     0.025 A 
HETATM   29  C17 UNL     1      -4.123  -0.452   0.434  1.00  0.00     0.046 A 
HETATM   30 CL2  UNL     1      -3.424  -1.524   1.608  1.00  0.00    -0.083 Cl
ENDBRANCH   5  23
TORSDOF 4
