REMARK  1 active torsions:
REMARK  status: ('A' for Active; 'I' for Inactive)
REMARK    1  A    between atoms: C4_4  and  N1_5 
ROOT
HETATM    1  N1  UNL     1       0.119  -1.002  -0.856  1.00  0.00    -0.259 N 
HETATM    2  N2  UNL     1      -0.367  -2.138  -1.509  1.00  0.00    -0.228 NA
HETATM    3  C5  UNL     1      -1.098  -2.992  -0.593  1.00  0.00     0.139 C 
HETATM    4  C6  UNL     1      -2.262  -2.179  -0.101  1.00  0.00     0.010 C 
HETATM    5  C7  UNL     1      -2.210  -0.857  -0.006  1.00  0.00     0.076 A 
HETATM    6  C8  UNL     1      -3.289   0.011   0.459  1.00  0.00     0.258 A 
HETATM    7  O1  UNL     1      -4.365  -0.557   0.798  1.00  0.00    -0.267 OA
HETATM    8  N3  UNL     1      -3.073   1.416   0.505  1.00  0.00    -0.334 N 
HETATM    9  C9  UNL     1      -4.163   2.212   0.978  1.00  0.00     0.154 C 
HETATM   10  C10 UNL     1      -1.837   2.046   0.105  1.00  0.00     0.278 A 
HETATM   11  N4  UNL     1      -0.841   1.119  -0.332  1.00  0.00    -0.251 NA
HETATM   12  C11 UNL     1      -0.963  -0.163  -0.395  1.00  0.00     0.157 A 
HETATM   13  H5  UNL     1       0.281  -2.614  -2.131  1.00  0.00     0.147 HD
ENDROOT
BRANCH   1  14
HETATM   14  C4  UNL     1       1.453  -0.634  -0.634  1.00  0.00     0.054 A 
HETATM   15  C3  UNL     1       1.987   0.387   0.118  1.00  0.00     0.041 A 
HETATM   16  C2  UNL     1       3.316   0.640   0.245  1.00  0.00    -0.021 A 
HETATM   17  C1  UNL     1       3.732   1.772   1.087  1.00  0.00     0.051 C 
HETATM   18  C14 UNL     1       4.248  -0.146  -0.400  1.00  0.00     0.122 A 
HETATM   19  C13 UNL     1       3.750  -1.190  -1.172  1.00  0.00     0.045 A 
HETATM   20  F1  UNL     1       5.542   0.172  -0.223  1.00  0.00    -0.206 F 
HETATM   21  C12 UNL     1       2.399  -1.433  -1.290  1.00  0.00     0.034 A 
ENDBRANCH   1  14
TORSDOF 1
