REMARK  8 active torsions:
REMARK  status: ('A' for Active; 'I' for Inactive)
REMARK    1  A    between atoms: C2_2  and  N1_3 
REMARK    2  A    between atoms: C2_2  and  C14_19 
REMARK    3  A    between atoms: N1_3  and  C3_4 
REMARK    4  A    between atoms: C5_7  and  C6_8 
REMARK    5  A    between atoms: C7_9  and  C9_11 
REMARK    6  A    between atoms: C9_11  and  C10_13 
REMARK    7  A    between atoms: C10_13  and  C11_14 
REMARK    8  A    between atoms: C11_14  and  C12_15 
ROOT
HETATM    1  C3  UNL     1      -2.018   0.496   0.302  1.00  0.00     0.726 A 
HETATM    2  N2  UNL     1      -1.143   1.444  -0.144  1.00  0.00    -0.074 NA
HETATM    3  C4  UNL     1       0.184   1.131   0.037  1.00  0.00     0.145 A 
HETATM    4  C5  UNL     1       0.524  -0.086   0.640  1.00  0.00    -0.016 A 
HETATM    5  C13 UNL     1      -0.398  -1.006   1.071  1.00  0.00     0.145 A 
HETATM    6  N3  UNL     1      -1.717  -0.689   0.888  1.00  0.00    -0.074 NA
ENDROOT
BRANCH   4   7
HETATM    7  C6  UNL     1       1.971   0.002   0.654  1.00  0.00     0.081 C 
HETATM    8  C7  UNL     1       3.186  -0.117   1.090  1.00  0.00    -0.008 C 
HETATM    9  C8  UNL     1       4.341  -0.454   2.005  1.00  0.00     0.017 C 
BRANCH   8  10
HETATM   10  C9  UNL     1       3.893   0.430  -0.091  1.00  0.00     0.013 C 
HETATM   11 CL1  UNL     1       3.432   1.081  -1.673  1.00  0.00    -0.089 Cl
BRANCH  10  12
HETATM   12  C10 UNL     1       5.157   0.669  -0.484  1.00  0.00    -0.006 C 
BRANCH  12  13
HETATM   13  C11 UNL     1       6.325   1.084  -1.299  1.00  0.00     0.043 C 
BRANCH  13  14
HETATM   14  C12 UNL     1       7.234  -0.107  -1.534  1.00  0.00     0.118 C 
HETATM   15 CL2  UNL     1       6.349  -1.392  -2.393  1.00  0.00    -0.130 Cl
ENDBRANCH  13  14
ENDBRANCH  12  13
ENDBRANCH  10  12
ENDBRANCH   8  10
ENDBRANCH   4   7
BRANCH   1  16
HETATM   16  N1  UNL     1      -3.421   0.656   0.206  1.00  0.00    -0.192 N 
HETATM   17  H3  UNL     1      -3.776   1.534  -0.248  1.00  0.00     0.184 HD
BRANCH  16  18
HETATM   18  C2  UNL     1      -4.483  -0.188   0.627  1.00  0.00     0.021 C 
HETATM   19  C1  UNL     1      -4.400  -0.634   1.871  1.00  0.00     0.039 C 
BRANCH  18  20
HETATM   20  C14 UNL     1      -5.589  -0.510  -0.312  1.00  0.00     0.027 C 
HETATM   21  C15 UNL     1      -6.175   0.796  -0.787  1.00  0.00     0.016 C 
HETATM   22  C16 UNL     1      -6.617  -1.405   0.313  1.00  0.00     0.016 C 
ENDBRANCH  18  20
ENDBRANCH  16  18
ENDBRANCH   1  16
TORSDOF 8
