REMARK  5 active torsions:
REMARK  status: ('A' for Active; 'I' for Inactive)
REMARK    1  A    between atoms: C3_3  and  C4_4 
REMARK    2  A    between atoms: C6_7  and  N2_8 
REMARK    3  A    between atoms: N2_8  and  C7_9 
REMARK    4  A    between atoms: C14_18  and  N4_19 
REMARK    5  A    between atoms: N4_19  and  C16_21 
ROOT
HETATM    1  C4  UNL     1      -0.900  -0.115   0.136  1.00  0.00     0.038 C 
HETATM    2  C5  UNL     1       0.018  -0.187   1.079  1.00  0.00     0.135 C 
HETATM    3  N1  UNL     1       1.388  -0.704   1.037  1.00  0.00    -0.245 NA
HETATM    4  C6  UNL     1       1.713  -1.735   0.246  1.00  0.00     0.124 C 
HETATM    5  C13 UNL     1       0.808  -2.514  -0.702  1.00  0.00     0.229 C 
HETATM    6  N3  UNL     1       0.206  -1.511  -1.618  1.00  0.00    -0.264 NA
HETATM    7  C14 UNL     1      -0.518  -0.492  -1.227  1.00  0.00     0.139 C 
ENDROOT
BRANCH   4   8
HETATM    8  N2  UNL     1       3.073  -2.093   0.338  1.00  0.00    -0.343 N 
HETATM    9  H5  UNL     1       3.273  -3.115   0.367  1.00  0.00     0.167 HD
BRANCH   8  10
HETATM   10  C7  UNL     1       4.087  -1.111   0.374  1.00  0.00     0.033 A 
HETATM   11  C8  UNL     1       5.394  -1.583   0.557  1.00  0.00     0.032 A 
HETATM   12  C9  UNL     1       6.484  -0.712   0.596  1.00  0.00     0.044 A 
HETATM   13  C10 UNL     1       6.298   0.646   0.454  1.00  0.00     0.116 A 
HETATM   14  F1  UNL     1       7.327   1.528   0.484  1.00  0.00    -0.206 F 
HETATM   15  C11 UNL     1       5.007   1.156   0.270  1.00  0.00     0.044 A 
HETATM   16  C12 UNL     1       3.977   0.244   0.241  1.00  0.00     0.032 A 
ENDBRANCH   8  10
ENDBRANCH   4   8
BRANCH   1  17
HETATM   17  C3  UNL     1      -2.237   0.408   0.278  1.00  0.00    -0.018 A 
HETATM   18  C2  UNL     1      -2.879   0.963   1.288  1.00  0.00    -0.065 A 
HETATM   19  C1  UNL     1      -2.420   1.253   2.665  1.00  0.00     0.045 C 
HETATM   20  C19 UNL     1      -4.322   1.287   0.975  1.00  0.00     0.033 A 
HETATM   21  C18 UNL     1      -4.405   0.779  -0.393  1.00  0.00    -0.017 A 
HETATM   22  C20 UNL     1      -5.239   0.578   1.948  1.00  0.00     0.019 C 
HETATM   23  C17 UNL     1      -3.240   0.311  -0.732  1.00  0.00     0.009 A 
ENDBRANCH   1  17
BRANCH   7  24
HETATM   24  N4  UNL     1      -0.912   0.390  -2.310  1.00  0.00    -0.314 N 
HETATM   25  C15 UNL     1      -1.475   1.673  -2.626  1.00  0.00     0.160 C 
BRANCH  24  26
HETATM   26  C16 UNL     1      -0.531  -0.190  -3.550  1.00  0.00     0.356 C 
HETATM   27  O1  UNL     1      -0.668   0.195  -4.730  1.00  0.00    -0.283 OA
ENDBRANCH  24  26
ENDBRANCH   7  24
TORSDOF 5
