REMARK  7 active torsions:
REMARK  status: ('A' for Active; 'I' for Inactive)
REMARK    1  A    between atoms: C1_2  and  C2_3 
REMARK    2  A    between atoms: C3_4  and  C4_5 
REMARK    3  A    between atoms: C4_5  and  O1_6 
REMARK    4  A    between atoms: O1_6  and  C5_7 
REMARK    5  A    between atoms: C7_9  and  N1_10 
REMARK    6  A    between atoms: N1_10  and  C8_11 
REMARK    7  A    between atoms: C8_11  and  C9_12 
ROOT
HETATM    1  C5  UNL     1       1.850  -0.740  -0.700  1.00  0.00     0.169 A 
HETATM    2  C6  UNL     1       0.482  -0.669  -0.415  1.00  0.00     0.108 A 
HETATM    3  C7  UNL     1      -0.250   0.461  -0.719  1.00  0.00     0.129 A 
HETATM    4  N2  UNL     1       0.388   1.497  -1.300  1.00  0.00    -0.225 NA
HETATM    5  C15 UNL     1       1.702   1.452  -1.584  1.00  0.00     0.238 A 
HETATM    6  N3  UNL     1       2.386   0.336  -1.274  1.00  0.00    -0.218 NA
ENDROOT
BRANCH   3   7
HETATM    7  N1  UNL     1      -1.646   0.526  -0.426  1.00  0.00    -0.370 N 
HETATM    8  H8  UNL     1      -2.163   1.399  -0.672  1.00  0.00     0.161 HD
BRANCH   7   9
HETATM    9  C8  UNL     1      -2.265  -0.626   0.199  1.00  0.00     0.160 C 
BRANCH   9  10
HETATM   10  C9  UNL     1      -3.712  -0.281   0.387  1.00  0.00    -0.041 A 
HETATM   11  C10 UNL     1      -4.516  -0.629  -0.684  1.00  0.00     0.009 A 
HETATM   12  C11 UNL     1      -5.863  -0.346  -0.592  1.00  0.00     0.001 A 
HETATM   13  C12 UNL     1      -6.392   0.258   0.516  1.00  0.00     0.000 A 
HETATM   14  C13 UNL     1      -5.583   0.610   1.596  1.00  0.00     0.001 A 
HETATM   15  C14 UNL     1      -4.235   0.328   1.508  1.00  0.00     0.009 A 
ENDBRANCH   9  10
ENDBRANCH   7   9
ENDBRANCH   3   7
BRANCH   1  16
HETATM   16  O1  UNL     1       2.602  -1.889  -0.392  1.00  0.00    -0.331 OA
BRANCH  16  17
HETATM   17  C4  UNL     1       3.985  -1.857  -0.724  1.00  0.00     0.204 C 
BRANCH  17  18
HETATM   18  C3  UNL     1       4.634  -0.746  -0.002  1.00  0.00    -0.002 C 
HETATM   19  C2  UNL     1       5.305   0.357  -0.388  1.00  0.00     0.002 C 
BRANCH  19  20
HETATM   20  C1  UNL     1       5.928   1.428   0.441  1.00  0.00     0.249 C 
HETATM   21  F1  UNL     1       5.717   1.130   1.788  1.00  0.00    -0.251 F 
ENDBRANCH  19  20
ENDBRANCH  17  18
ENDBRANCH  16  17
ENDBRANCH   1  16
TORSDOF 7
