REMARK  2 active torsions:
REMARK  status: ('A' for Active; 'I' for Inactive)
REMARK       I    between atoms: C1_2  and  N1_3 
REMARK       I    between atoms: C1_2  and  N3_10 
REMARK    1  A    between atoms: N1_3  and  C2_4 
REMARK    2  A    between atoms: N3_10  and  C7_11 
ROOT
HETATM    1  C7  UNL     1      -0.598  -0.362   0.685  1.00  0.00    -0.025 C 
HETATM    2  B1  UNL     1      -0.094  -1.824   1.645  1.00  0.00     0.235 B 
HETATM    3  C8  UNL     1      -1.325  -1.717   3.232  1.00  0.00    -0.078 C 
HETATM    4  C9  UNL     1      -2.534  -1.250   2.813  1.00  0.00     0.002 C 
HETATM    5  C10 UNL     1      -2.821  -0.543   1.695  1.00  0.00     0.040 A 
HETATM    6  C11 UNL     1      -1.936  -0.138   0.725  1.00  0.00    -0.009 A 
HETATM    7  C12 UNL     1      -2.709   0.638  -0.275  1.00  0.00     0.122 A 
HETATM    8  C13 UNL     1      -2.625   0.123  -1.675  1.00  0.00     0.032 C 
HETATM    9  C14 UNL     1      -4.069   0.321  -2.164  1.00  0.00     0.022 C 
HETATM   10  C15 UNL     1      -4.610   1.219  -1.052  1.00  0.00     0.127 C 
HETATM   11  N4  UNL     1      -4.096   0.537   0.121  1.00  0.00    -0.339 N 
HETATM   12  C16 UNL     1      -4.180  -0.140   1.358  1.00  0.00     0.255 A 
HETATM   13  O2  UNL     1      -5.288  -0.284   1.932  1.00  0.00    -0.267 OA
ENDROOT
BRANCH   1  14
HETATM   14  N3  UNL     1       0.357   0.391   0.020  1.00  0.00    -0.323 N 
HETATM   15  C1  UNL     1       1.730  -0.006   0.108  1.00  0.00     0.325 C 
HETATM   16  O1  UNL     1       2.032  -1.012   0.775  1.00  0.00    -0.247 OA
HETATM   17  N1  UNL     1       2.686   0.800  -0.595  1.00  0.00    -0.293 N 
HETATM   18  H1  UNL     1       2.374   1.636  -1.141  1.00  0.00     0.172 HD
HETATM   19  H6  UNL     1      -0.017   1.209  -0.505  1.00  0.00     0.169 HD
BRANCH  17  20
HETATM   20  C2  UNL     1       4.048   0.373  -0.485  1.00  0.00     0.131 A 
HETATM   21  C3  UNL     1       4.866   0.825   0.516  1.00  0.00     0.050 A 
HETATM   22  C4  UNL     1       6.147   0.327   0.492  1.00  0.00     0.005 A 
HETATM   23  C5  UNL     1       6.581  -0.563  -0.468  1.00  0.00     0.019 A 
HETATM   24  C6  UNL     1       5.691  -0.966  -1.440  1.00  0.00     0.119 A 
HETATM   25  N2  UNL     1       4.423  -0.498  -1.450  1.00  0.00    -0.243 NA
ENDBRANCH  17  20
ENDBRANCH   1  14
TORSDOF 2
