REMARK  3 active torsions:
REMARK  status: ('A' for Active; 'I' for Inactive)
REMARK    1  A    between atoms: C2_2  and  N1_3 
REMARK    2  A    between atoms: C2_2  and  C7_9 
REMARK    3  A    between atoms: N1_3  and  C3_4 
ROOT
HETATM    1  C7  UNL     1       0.200   1.408  -0.408  1.00  0.00    -0.001 A 
HETATM    2  C8  UNL     1       0.589   2.724  -0.497  1.00  0.00     0.014 A 
HETATM    3  C9  UNL     1      -0.126   3.646   0.250  1.00  0.00     0.002 A 
HETATM    4  C10 UNL     1      -1.181   3.254   1.045  1.00  0.00     0.018 A 
HETATM    5  C11 UNL     1      -1.516   1.907   1.083  1.00  0.00     0.041 A 
HETATM    6  C12 UNL     1      -0.839   0.947   0.362  1.00  0.00    -0.007 A 
HETATM    7  C13 UNL     1      -1.451  -0.325   0.673  1.00  0.00     0.131 A 
HETATM    8  C14 UNL     1      -2.211  -1.010  -0.434  1.00  0.00     0.040 C 
HETATM    9  C15 UNL     1      -2.890  -2.116   0.396  1.00  0.00     0.106 C 
HETATM   10  C16 UNL     1      -3.168  -1.349   1.666  1.00  0.00     0.227 C 
HETATM   11  O1  UNL     1      -3.787  -1.711   2.724  1.00  0.00    -0.273 OA
HETATM   12  N3  UNL     1      -2.604  -0.024   1.551  1.00  0.00    -0.275 N 
HETATM   13  C17 UNL     1      -2.630   1.364   1.852  1.00  0.00     0.261 A 
HETATM   14  O2  UNL     1      -3.483   1.841   2.620  1.00  0.00    -0.267 OA
ENDROOT
BRANCH   1  15
HETATM   15  C2  UNL     1       0.985   0.491  -1.210  1.00  0.00     0.031 C 
HETATM   16  C1  UNL     1       1.967   0.948  -1.966  1.00  0.00     0.043 C 
BRANCH  15  17
HETATM   17  N1  UNL     1       1.100  -0.880  -1.514  1.00  0.00    -0.364 N 
HETATM   18  H3  UNL     1       0.479  -1.148  -2.337  1.00  0.00     0.162 HD
BRANCH  17  19
HETATM   19  C3  UNL     1       1.906  -1.954  -0.910  1.00  0.00     0.229 A 
HETATM   20  C4  UNL     1       3.327  -1.574  -1.080  1.00  0.00     0.022 A 
HETATM   21  C5  UNL     1       3.909  -1.430   0.102  1.00  0.00     0.019 A 
HETATM   22  C6  UNL     1       2.846  -1.724   1.059  1.00  0.00     0.113 A 
HETATM   23  N2  UNL     1       1.726  -2.018   0.501  1.00  0.00    -0.272 NA
ENDBRANCH  17  19
ENDBRANCH  15  17
ENDBRANCH   1  15
TORSDOF 3
