REMARK  2 active torsions:
REMARK  status: ('A' for Active; 'I' for Inactive)
REMARK       I    between atoms: C1_2  and  N1_3 
REMARK       I    between atoms: C1_2  and  N3_18 
REMARK    1  A    between atoms: N1_3  and  C2_4 
REMARK    2  A    between atoms: N3_18  and  C13_19 
ROOT
HETATM    1  C2  UNL     1      -0.477   0.710   0.311  1.00  0.00     0.014 C 
HETATM    2  C3  UNL     1      -1.019   1.661   1.082  1.00  0.00     0.027 C 
HETATM    3  C4  UNL     1      -2.152   2.538   1.291  1.00  0.00     0.026 C 
HETATM    4  C5  UNL     1      -3.334   2.809   0.751  1.00  0.00     0.135 C 
HETATM    5  O2  UNL     1      -4.361   2.594  -0.242  1.00  0.00    -0.354 OA
HETATM    6  C6  UNL     1      -5.103   1.333   0.067  1.00  0.00     0.277 C 
HETATM    7  C7  UNL     1      -4.259   0.251  -0.430  1.00  0.00     0.243 C 
HETATM    8  O3  UNL     1      -3.876   1.055  -1.281  1.00  0.00    -0.271 OA
HETATM    9  N2  UNL     1      -3.474  -0.824  -0.857  1.00  0.00    -0.350 N 
HETATM   10  C8  UNL     1      -3.376  -2.060  -0.135  1.00  0.00     0.126 C 
HETATM   11  C9  UNL     1      -1.846  -1.907   0.211  1.00  0.00     0.026 C 
HETATM   12  C10 UNL     1      -1.285  -1.298  -1.049  1.00  0.00     0.011 C 
HETATM   13  C11 UNL     1      -0.793   0.096  -0.985  1.00  0.00     0.063 C 
HETATM   14  C12 UNL     1      -2.573  -1.202  -1.915  1.00  0.00     0.130 C 
ENDROOT
BRANCH   1  15
HETATM   15  N1  UNL     1       0.812   0.211   0.735  1.00  0.00    -0.312 N 
HETATM   16  C1  UNL     1       2.091   0.233   0.128  1.00  0.00     0.326 C 
HETATM   17  O1  UNL     1       2.287   0.770  -1.010  1.00  0.00    -0.247 OA
HETATM   18  N3  UNL     1       3.169  -0.354   0.804  1.00  0.00    -0.293 N 
HETATM   19  H16 UNL     1       3.041  -0.799   1.737  1.00  0.00     0.172 HD
HETATM   20  H1  UNL     1       0.690  -0.230   1.661  1.00  0.00     0.170 HD
BRANCH  18  21
HETATM   21  C13 UNL     1       4.442  -0.322   0.180  1.00  0.00     0.131 A 
HETATM   22  C14 UNL     1       5.522  -0.870   0.834  1.00  0.00     0.050 A 
HETATM   23  C15 UNL     1       6.796  -0.908   0.348  1.00  0.00     0.005 A 
HETATM   24  C16 UNL     1       6.917  -0.326  -0.914  1.00  0.00     0.019 A 
HETATM   25  C17 UNL     1       5.856   0.238  -1.611  1.00  0.00     0.119 A 
HETATM   26  N4  UNL     1       4.640   0.218  -1.027  1.00  0.00    -0.243 NA
ENDBRANCH  18  21
ENDBRANCH   1  15
TORSDOF 2
