REMARK  1 active torsions:
REMARK  status: ('A' for Active; 'I' for Inactive)
REMARK    1  A    between atoms: C2_2  and  N1_4 
ROOT
HETATM    1  N1  UNL     1      -1.517  -0.576   0.426  1.00  0.00    -0.275 N 
HETATM    2  C3  UNL     1      -1.280   0.693   1.035  1.00  0.00     0.135 C 
HETATM    3  N2  UNL     1      -1.885   1.542   1.859  1.00  0.00    -0.226 NA
HETATM    4  C4  UNL     1      -1.995   2.946   1.339  1.00  0.00     0.237 C 
HETATM    5  N3  UNL     1      -1.470   3.194   0.100  1.00  0.00    -0.226 NA
HETATM    6  C5  UNL     1      -0.848   2.080  -0.549  1.00  0.00     0.139 C 
HETATM    7  N4  UNL     1      -0.744   1.361  -1.611  1.00  0.00    -0.258 NA
HETATM    8  C6  UNL     1      -1.182  -0.005  -1.901  1.00  0.00     0.264 C 
HETATM    9  N5  UNL     1      -1.132  -0.977  -0.882  1.00  0.00    -0.202 NA
HETATM   10  C7  UNL     1       0.153  -1.571  -0.793  1.00  0.00     0.155 C 
HETATM   11  C8  UNL     1       1.257  -0.642  -0.442  1.00  0.00    -0.034 A 
HETATM   12  C9  UNL     1       2.463  -1.224  -0.780  1.00  0.00     0.032 A 
HETATM   13  C10 UNL     1       3.576  -0.456  -0.503  1.00  0.00     0.034 A 
HETATM   14 CL2  UNL     1       5.176  -1.104  -0.895  1.00  0.00    -0.084 Cl
HETATM   15  C11 UNL     1       3.510   0.793   0.065  1.00  0.00     0.024 A 
HETATM   16  C12 UNL     1       2.259   1.290   0.366  1.00  0.00     0.011 A 
HETATM   17  C13 UNL     1       1.065   0.594   0.127  1.00  0.00    -0.032 A 
HETATM   18  C14 UNL     1      -0.004   1.434   0.573  1.00  0.00     0.161 C 
ENDROOT
BRANCH   1  19
HETATM   19  C2  UNL     1      -2.236  -1.618   1.142  1.00  0.00     0.105 C 
HETATM   20  C1  UNL     1      -2.026  -2.863   0.820  1.00  0.00     0.140 C 
HETATM   21 CL1  UNL     1      -3.358  -1.188   2.408  1.00  0.00    -0.100 Cl
ENDBRANCH   1  19
TORSDOF 1
