REMARK  5 active torsions:
REMARK  status: ('A' for Active; 'I' for Inactive)
REMARK    1  A    between atoms: C2_2  and  C3_3 
REMARK    2  A    between atoms: C3_3  and  C4_4 
REMARK    3  A    between atoms: C5_6  and  C6_7 
REMARK    4  A    between atoms: N1_10  and  C8_11 
REMARK    5  A    between atoms: C9_12  and  C10_13 
ROOT
HETATM    1  C8  UNL     1      -0.251  -0.189  -0.764  1.00  0.00     0.153 C 
HETATM    2  C9  UNL     1       0.826  -0.058   0.137  1.00  0.00     0.011 C 
ENDROOT
BRANCH   2   3
HETATM    3  C10 UNL     1       2.077  -0.133  -0.234  1.00  0.00     0.042 A 
HETATM    4  C11 UNL     1       2.582  -0.398  -1.562  1.00  0.00     0.256 A 
HETATM    5  O3  UNL     1       2.154  -0.800  -2.696  1.00  0.00    -0.267 OA
HETATM    6  N2  UNL     1       3.983  -0.177  -1.706  1.00  0.00    -0.322 N 
HETATM    7  C12 UNL     1       4.462   0.265  -0.379  1.00  0.00     0.046 A 
HETATM    8  H14 UNL     1       4.772  -0.182  -2.414  1.00  0.00     0.169 HD
HETATM    9  C13 UNL     1       5.635   0.712   0.191  1.00  0.00     0.030 A 
HETATM   10  C17 UNL     1       3.340   0.255   0.399  1.00  0.00     0.006 A 
HETATM   11  C14 UNL     1       5.778   1.131   1.427  1.00  0.00     0.002 A 
HETATM   12  C15 UNL     1       4.637   1.127   2.251  1.00  0.00     0.001 A 
HETATM   13  C16 UNL     1       3.399   0.682   1.736  1.00  0.00     0.014 A 
ENDBRANCH   2   3
BRANCH   1  14
HETATM   14  N1  UNL     1      -1.390  -1.012  -0.625  1.00  0.00    -0.357 N 
HETATM   15  C4  UNL     1      -2.708  -0.571  -0.738  1.00  0.00     0.229 C 
HETATM   16  O1  UNL     1      -3.528  -1.601  -0.231  1.00  0.00    -0.321 OA
HETATM   17  C5  UNL     1      -2.700  -2.758  -0.354  1.00  0.00     0.124 C 
HETATM   18  C7  UNL     1      -1.495  -2.410  -0.581  1.00  0.00     0.128 C 
BRANCH  15  19
HETATM   19  C3  UNL     1      -3.197   0.804  -0.753  1.00  0.00     0.054 C 
BRANCH  19  20
HETATM   20  C2  UNL     1      -3.617   1.281   0.642  1.00  0.00    -0.000 C 
HETATM   21  C1  UNL     1      -4.110   2.685   0.471  1.00  0.00     0.005 C 
ENDBRANCH  19  20
ENDBRANCH  15  19
BRANCH  17  22
HETATM   22  C6  UNL     1      -3.766  -3.674  -0.135  1.00  0.00     0.296 C 
HETATM   23  O2  UNL     1      -3.137  -4.743  -0.296  1.00  0.00    -0.299 OA
ENDBRANCH  17  22
ENDBRANCH   1  14
TORSDOF 5
