REMARK  8 active torsions:
REMARK  status: ('A' for Active; 'I' for Inactive)
REMARK    1  A    between atoms: O1_1  and  C1_2 
REMARK    2  A    between atoms: C1_2  and  C2_4 
REMARK    3  A    between atoms: C3_5  and  C4_6 
REMARK    4  A    between atoms: C4_6  and  N1_7 
REMARK    5  A    between atoms: N1_7  and  C5_8 
REMARK    6  A    between atoms: C8_13  and  N4_14 
REMARK    7  A    between atoms: N4_14  and  C9_15 
REMARK    8  A    between atoms: C9_15  and  C10_16 
ROOT
HETATM    1  C5  UNL     1       1.122   1.144   1.161  1.00  0.00     0.092 A 
HETATM    2  C6  UNL     1       2.051   1.673   2.023  1.00  0.00     0.151 A 
HETATM    3  N2  UNL     1       1.790   1.963   3.329  1.00  0.00    -0.252 NA
HETATM    4  C7  UNL     1       0.553   1.724   3.827  1.00  0.00     0.235 A 
HETATM    5  N3  UNL     1      -0.356   1.215   3.014  1.00  0.00    -0.222 NA
HETATM    6  C8  UNL     1      -0.114   0.926   1.730  1.00  0.00     0.153 A 
ENDROOT
BRANCH   1   7
HETATM    7  N1  UNL     1       1.448   0.875  -0.192  1.00  0.00    -0.382 N 
HETATM    8  H7  UNL     1       0.697   0.492  -0.806  1.00  0.00     0.160 HD
BRANCH   7   9
HETATM    9  C4  UNL     1       2.729   1.075  -0.835  1.00  0.00     0.147 C 
BRANCH   9  10
HETATM   10  C3  UNL     1       3.715   0.141  -0.238  1.00  0.00    -0.006 C 
HETATM   11  C2  UNL     1       4.313  -0.754  -1.056  1.00  0.00     0.035 C 
BRANCH  11  12
HETATM   12  C1  UNL     1       4.291  -1.127  -2.491  1.00  0.00     0.328 C 
HETATM   13  F1  UNL     1       3.833  -2.417  -2.691  1.00  0.00    -0.215 F 
BRANCH  12  14
HETATM   14  O1  UNL     1       5.528  -0.952  -3.119  1.00  0.00    -0.364 OA
HETATM   15  H1  UNL     1       6.113  -1.661  -2.746  1.00  0.00     0.213 HD
ENDBRANCH  12  14
ENDBRANCH  11  12
ENDBRANCH   9  10
ENDBRANCH   7   9
ENDBRANCH   1   7
BRANCH   6  16
HETATM   16  N4  UNL     1      -1.173   0.373   0.925  1.00  0.00    -0.369 N 
HETATM   17  H10 UNL     1      -1.102   0.114  -0.066  1.00  0.00     0.161 HD
BRANCH  16  18
HETATM   18  C9  UNL     1      -2.464   0.152   1.544  1.00  0.00     0.160 C 
BRANCH  18  19
HETATM   19  C10 UNL     1      -3.426  -0.419   0.573  1.00  0.00    -0.041 A 
HETATM   20  C11 UNL     1      -3.594  -1.775   0.376  1.00  0.00     0.009 A 
HETATM   21  C12 UNL     1      -4.523  -2.215  -0.558  1.00  0.00     0.001 A 
HETATM   22  C13 UNL     1      -5.307  -1.364  -1.319  1.00  0.00     0.000 A 
HETATM   23  C14 UNL     1      -5.089  -0.017  -1.073  1.00  0.00     0.001 A 
HETATM   24  C15 UNL     1      -4.178   0.476  -0.155  1.00  0.00     0.009 A 
ENDBRANCH  18  19
ENDBRANCH  16  18
ENDBRANCH   6  16
TORSDOF 8
