REMARK  2 active torsions:
REMARK  status: ('A' for Active; 'I' for Inactive)
REMARK       I    between atoms: N1_1  and  C1_2 
REMARK       I    between atoms: C1_2  and  N2_3 
REMARK       I    between atoms: C1_2  and  N4_10 
REMARK    1  A    between atoms: N2_3  and  C2_4 
REMARK    2  A    between atoms: N4_10  and  C7_11 
ROOT
HETATM    1  C7  UNL     1      -0.545  -0.510  -1.346  1.00  0.00     0.042 A 
HETATM    2  C8  UNL     1      -0.531  -0.870  -2.691  1.00  0.00     0.030 A 
HETATM    3  C9  UNL     1      -1.596  -0.539  -3.530  1.00  0.00     0.003 A 
HETATM    4  C10 UNL     1      -2.703   0.160  -3.049  1.00  0.00     0.018 A 
HETATM    5  C11 UNL     1      -2.732   0.524  -1.718  1.00  0.00     0.044 A 
HETATM    6  C12 UNL     1      -1.654   0.180  -0.905  1.00  0.00     0.036 A 
HETATM    7  C13 UNL     1      -1.938   0.685   0.437  1.00  0.00     0.361 A 
HETATM    8  N5  UNL     1      -2.204  -0.341   1.427  1.00  0.00     0.112 N 
HETATM    9  C14 UNL     1      -2.792   0.488   2.492  1.00  0.00     0.292 C 
HETATM   10  C15 UNL     1      -3.333   1.727   1.779  1.00  0.00     0.158 C 
HETATM   11  N6  UNL     1      -3.238   1.328   0.387  1.00  0.00    -0.312 N 
HETATM   12  C16 UNL     1      -3.736   1.241  -0.942  1.00  0.00     0.256 A 
HETATM   13  O1  UNL     1      -4.832   1.720  -1.272  1.00  0.00    -0.267 OA
HETATM   14  H14 UNL     1      -3.004  -0.924   1.063  1.00  0.00     0.319 HD
ENDROOT
BRANCH   1  15
HETATM   15  N4  UNL     1       0.523  -0.831  -0.466  1.00  0.00    -0.344 N 
HETATM   16  C1  UNL     1       1.662  -1.547  -0.938  1.00  0.00     0.423 C 
HETATM   17  N1  UNL     1       1.215  -2.844  -1.441  1.00  0.00     0.120 N 
HETATM   18  N2  UNL     1       2.680  -1.760   0.034  1.00  0.00    -0.330 N 
HETATM   19  H1  UNL     1       0.179  -2.977  -1.265  1.00  0.00     0.317 HD
HETATM   20  H2  UNL     1       1.763  -3.618  -1.019  1.00  0.00     0.317 HD
HETATM   21  H4  UNL     1       3.007  -2.737   0.299  1.00  0.00     0.165 HD
HETATM   22  H9  UNL     1       0.464  -0.541   0.512  1.00  0.00     0.163 HD
BRANCH  18  23
HETATM   23  C2  UNL     1       3.303  -0.682   0.694  1.00  0.00     0.126 A 
HETATM   24  C3  UNL     1       2.967   0.626   0.437  1.00  0.00     0.050 A 
HETATM   25  C4  UNL     1       3.556   1.696   1.063  1.00  0.00     0.005 A 
HETATM   26  C5  UNL     1       4.551   1.469   2.013  1.00  0.00     0.019 A 
HETATM   27  C6  UNL     1       4.882   0.163   2.265  1.00  0.00     0.119 A 
HETATM   28  N3  UNL     1       4.268  -0.844   1.618  1.00  0.00    -0.244 NA
ENDBRANCH  18  23
ENDBRANCH   1  15
TORSDOF 2
