REMARK  6 active torsions:
REMARK  status: ('A' for Active; 'I' for Inactive)
REMARK    1  A    between atoms: C4_4  and  C5_5 
REMARK    2  A    between atoms: C5_5  and  C6_6 
REMARK    3  A    between atoms: C6_6  and  O2_8 
REMARK    4  A    between atoms: C7_9  and  C8_10 
REMARK    5  A    between atoms: C9_11  and  O3_12 
REMARK    6  A    between atoms: C9_11  and  N1_13 
ROOT
HETATM    1  C1  UNL     1      -3.729   2.297  -1.387  1.00  0.00     0.032 C 
HETATM    2  C2  UNL     1      -2.827   1.838  -0.273  1.00  0.00     0.081 C 
HETATM    3  C3  UNL     1      -3.192   0.451   0.216  1.00  0.00     0.061 C 
HETATM    4  C4  UNL     1      -1.846  -0.078   0.613  1.00  0.00    -0.042 C 
HETATM    5  C7  UNL     1      -0.867   0.606   0.055  1.00  0.00     0.035 C 
HETATM    6  N2  UNL     1      -1.479   1.607  -0.734  1.00  0.00    -0.385 N 
HETATM    7  H16 UNL     1      -1.013   2.083  -1.515  1.00  0.00     0.160 HD
ENDROOT
BRANCH   5   8
HETATM    8  C8  UNL     1       0.563   0.436   0.166  1.00  0.00     0.085 C 
HETATM    9  C9  UNL     1       1.377  -0.375   0.794  1.00  0.00     0.148 C 
BRANCH   9  10
HETATM   10  O3  UNL     1       1.742  -1.426   1.618  1.00  0.00    -0.346 OA
HETATM   11  H11 UNL     1       1.443  -1.476   2.584  1.00  0.00     0.219 HD
ENDBRANCH   9  10
BRANCH   9  12
HETATM   12  N1  UNL     1       2.815  -0.263   0.684  1.00  0.00    -0.313 N 
HETATM   13  C10 UNL     1       3.530   0.581   1.618  1.00  0.00     0.111 C 
HETATM   14  C11 UNL     1       4.693   1.162   1.539  1.00  0.00     0.004 C 
HETATM   15  C12 UNL     1       5.370   1.261   0.471  1.00  0.00    -0.012 C 
HETATM   16  C13 UNL     1       5.599   0.311  -0.388  1.00  0.00     0.014 C 
HETATM   17  C14 UNL     1       4.731  -0.771  -0.871  1.00  0.00     0.019 C 
HETATM   18  C15 UNL     1       3.505  -0.986  -0.365  1.00  0.00     0.098 C 
ENDBRANCH   9  12
ENDBRANCH   5   8
BRANCH   4  19
HETATM   19  C5  UNL     1      -1.826  -1.232   1.526  1.00  0.00     0.146 C 
BRANCH  19  20
HETATM   20  C6  UNL     1      -2.550  -2.361   0.846  1.00  0.00     0.143 C 
HETATM   21  O1  UNL     1      -1.897  -2.977  -0.060  1.00  0.00    -0.650 OA
BRANCH  20  22
HETATM   22  O2  UNL     1      -3.312  -3.375   0.291  1.00  0.00    -0.776 OA
HETATM   23  H9  UNL     1      -3.999  -3.868   0.881  1.00  0.00     0.167 HD
ENDBRANCH  20  22
ENDBRANCH  19  20
ENDBRANCH   4  19
TORSDOF 6
