REMARK  7 active torsions:
REMARK  status: ('A' for Active; 'I' for Inactive)
REMARK    1  A    between atoms: C2_2  and  C3_3 
REMARK    2  A    between atoms: C3_3  and  C4_4 
REMARK    3  A    between atoms: C4_4  and  C5_5 
REMARK    4  A    between atoms: C5_5  and  C6_6 
REMARK    5  A    between atoms: C6_6  and  O1_7 
REMARK    6  A    between atoms: C6_6  and  C7_8 
REMARK    7  A    between atoms: C10_13  and  C11_14 
ROOT
HETATM    1  C1  UNL     1       0.779  -0.938  -3.167  1.00  0.00     0.022 C 
HETATM    2  C2  UNL     1       0.956  -1.161  -1.701  1.00  0.00    -0.001 C 
HETATM    3  C8  UNL     1       1.598  -2.477  -1.404  1.00  0.00     0.002 C 
HETATM    4  C9  UNL     1       1.017  -3.117  -0.387  1.00  0.00     0.080 C 
HETATM    5  N1  UNL     1      -0.040  -2.262   0.045  1.00  0.00    -0.390 N 
HETATM    6  C10 UNL     1      -0.385  -1.344  -1.048  1.00  0.00     0.116 C 
HETATM    7  H15 UNL     1      -0.428  -2.372   1.019  1.00  0.00     0.159 HD
ENDROOT
BRANCH   6   8
HETATM    8  C11 UNL     1      -1.010  -0.111  -0.563  1.00  0.00     0.017 C 
HETATM    9  C12 UNL     1      -2.250  -0.222  -0.111  1.00  0.00     0.043 A 
HETATM   10  C13 UNL     1      -3.082  -1.422  -0.033  1.00  0.00     0.256 A 
HETATM   11  C19 UNL     1      -3.134   0.817   0.435  1.00  0.00     0.006 A 
HETATM   12  O3  UNL     1      -2.784  -2.580  -0.379  1.00  0.00    -0.267 OA
HETATM   13  N2  UNL     1      -4.347  -1.115   0.512  1.00  0.00    -0.322 N 
HETATM   14  C14 UNL     1      -4.347   0.276   0.790  1.00  0.00     0.046 A 
HETATM   15  H18 UNL     1      -5.160  -1.745   0.696  1.00  0.00     0.169 HD
HETATM   16  C15 UNL     1      -5.285   1.131   1.320  1.00  0.00     0.030 A 
HETATM   17  C16 UNL     1      -5.076   2.483   1.511  1.00  0.00     0.002 A 
HETATM   18  C17 UNL     1      -3.837   3.006   1.142  1.00  0.00     0.001 A 
HETATM   19  C18 UNL     1      -2.869   2.175   0.605  1.00  0.00     0.014 A 
ENDBRANCH   6   8
BRANCH   2  20
HETATM   20  C3  UNL     1       1.801  -0.073  -1.054  1.00  0.00     0.015 C 
BRANCH  20  21
HETATM   21  C4  UNL     1       1.984  -0.279   0.402  1.00  0.00     0.004 C 
BRANCH  21  22
HETATM   22  C5  UNL     1       2.775   0.755   1.142  1.00  0.00     0.039 C 
BRANCH  22  23
HETATM   23  C6  UNL     1       4.167   0.856   0.610  1.00  0.00     0.179 C 
BRANCH  23  24
HETATM   24  O1  UNL     1       4.301   1.216  -0.701  1.00  0.00    -0.389 OA
HETATM   25  H11 UNL     1       5.167   0.933  -1.046  1.00  0.00     0.210 HD
ENDBRANCH  23  24
BRANCH  23  26
HETATM   26  C7  UNL     1       4.948   1.807   1.461  1.00  0.00     0.262 C 
HETATM   27  O2  UNL     1       5.021   1.742   2.675  1.00  0.00    -0.304 OA
ENDBRANCH  23  26
ENDBRANCH  22  23
ENDBRANCH  21  22
ENDBRANCH  20  21
ENDBRANCH   2  20
TORSDOF 7
