REMARK  5 active torsions:
REMARK  status: ('A' for Active; 'I' for Inactive)
REMARK    1  A    between atoms: C3_3  and  C5_5 
REMARK    2  A    between atoms: C5_5  and  C17_19 
REMARK    3  A    between atoms: C6_6  and  C7_7 
REMARK    4  A    between atoms: C17_19  and  C18_20 
REMARK    5  A    between atoms: C18_20  and  O3_22 
ROOT
HETATM    1  C7  UNL     1       0.725   0.073   0.411  1.00  0.00    -0.002 C 
HETATM    2  C8  UNL     1       1.698  -0.081  -0.501  1.00  0.00     0.042 A 
HETATM    3  C9  UNL     1       1.536  -0.164  -1.968  1.00  0.00     0.256 A 
HETATM    4  O1  UNL     1       0.512  -0.117  -2.667  1.00  0.00    -0.267 OA
HETATM    5  N1  UNL     1       2.804  -0.323  -2.592  1.00  0.00    -0.322 N 
HETATM    6  C10 UNL     1       3.758  -0.341  -1.558  1.00  0.00     0.046 A 
HETATM    7  C11 UNL     1       5.121  -0.475  -1.688  1.00  0.00     0.030 A 
HETATM    8  C12 UNL     1       5.894  -0.471  -0.551  1.00  0.00     0.003 A 
HETATM    9  C13 UNL     1       5.252  -0.331   0.654  1.00  0.00     0.007 A 
HETATM   10  C14 UNL     1       3.868  -0.192   0.831  1.00  0.00    -0.049 A 
HETATM   11  C15 UNL     1       3.355  -0.053   2.212  1.00  0.00     0.049 C 
HETATM   12  C16 UNL     1       3.141  -0.203  -0.340  1.00  0.00     0.012 A 
HETATM   13  H10 UNL     1       3.002  -0.410  -3.634  1.00  0.00     0.169 HD
ENDROOT
BRANCH   1  14
HETATM   14  C6  UNL     1      -0.619   0.161  -0.197  1.00  0.00     0.067 C 
HETATM   15  C5  UNL     1      -1.813   0.315   0.476  1.00  0.00    -0.011 C 
BRANCH  15  16
HETATM   16  C3  UNL     1      -2.862   0.348  -0.573  1.00  0.00    -0.082 C 
HETATM   17  C2  UNL     1      -4.145   0.506  -0.297  1.00  0.00    -0.028 C 
HETATM   18  C1  UNL     1      -5.401   0.562  -1.044  1.00  0.00     0.036 C 
HETATM   19  C4  UNL     1      -2.601   0.185  -2.049  1.00  0.00     0.043 C 
ENDBRANCH  15  16
BRANCH  15  20
HETATM   20  C17 UNL     1      -2.476   0.495   1.864  1.00  0.00     0.120 C 
BRANCH  20  21
HETATM   21  C18 UNL     1      -3.350  -0.642   2.177  1.00  0.00     0.140 C 
HETATM   22  O2  UNL     1      -3.643  -1.727   1.569  1.00  0.00    -0.650 OA
BRANCH  21  23
HETATM   23  O3  UNL     1      -3.988  -0.475   3.420  1.00  0.00    -0.776 OA
HETATM   24  H19 UNL     1      -4.700  -1.135   3.706  1.00  0.00     0.167 HD
ENDBRANCH  21  23
ENDBRANCH  20  21
ENDBRANCH  15  20
ENDBRANCH   1  14
TORSDOF 5
