REMARK  2 active torsions:
REMARK  status: ('A' for Active; 'I' for Inactive)
REMARK    1  A    between atoms: C10_13  and  C11_14 
REMARK    2  A    between atoms: C16_20  and  N2_21 
ROOT
HETATM    1  C1  UNL     1       4.026  -0.463   1.993  1.00  0.00     0.071 C 
HETATM    2  C2  UNL     1       2.859  -0.677   1.082  1.00  0.00     0.039 A 
HETATM    3  N1  UNL     1       1.931  -1.551   1.092  1.00  0.00    -0.255 NA
HETATM    4  C3  UNL     1       1.340  -0.968  -0.092  1.00  0.00     0.080 A 
HETATM    5  C4  UNL     1       2.299  -0.058  -0.109  1.00  0.00    -0.006 A 
HETATM    6  C5  UNL     1       2.424   1.020  -1.107  1.00  0.00     0.052 C 
HETATM    7  C6  UNL     1       1.826   2.329  -0.587  1.00  0.00     0.116 C 
HETATM    8  C7  UNL     1       0.397   2.029  -0.204  1.00  0.00     0.259 C 
HETATM    9  O1  UNL     1      -0.257   2.049   0.866  1.00  0.00    -0.265 OA
HETATM   10  O2  UNL     1      -0.302   1.641  -1.360  1.00  0.00    -0.317 OA
HETATM   11  C8  UNL     1      -1.682   1.291  -1.295  1.00  0.00     0.218 C 
HETATM   12  C9  UNL     1      -1.912   0.157  -0.380  1.00  0.00    -0.013 A 
HETATM   13  C10 UNL     1      -3.016   0.123   0.433  1.00  0.00    -0.003 A 
HETATM   14  C12 UNL     1      -3.400  -0.832   1.342  1.00  0.00     0.014 A 
HETATM   15  C13 UNL     1      -2.539  -1.906   1.440  1.00  0.00     0.002 A 
HETATM   16  C14 UNL     1      -1.404  -1.934   0.645  1.00  0.00     0.010 A 
HETATM   17  C15 UNL     1      -1.078  -0.931  -0.255  1.00  0.00    -0.010 A 
HETATM   18  C16 UNL     1       0.181  -1.184  -0.996  1.00  0.00     0.303 C 
ENDROOT
BRANCH  18  19
HETATM   19  N2  UNL     1       0.162  -2.585  -1.389  1.00  0.00     0.093 N 
HETATM   20  H15 UNL     1      -0.515  -2.781  -2.145  1.00  0.00     0.314 HD
HETATM   21  H16 UNL     1       1.118  -2.961  -1.547  1.00  0.00     0.314 HD
ENDBRANCH  18  19
BRANCH  13  22
HETATM   22  C11 UNL     1      -3.920   1.255   0.329  1.00  0.00     0.390 C 
HETATM   23  O3  UNL     1      -4.351   2.345  -0.090  1.00  0.00    -0.405 OA
ENDBRANCH  13  22
TORSDOF 2
