REMARK  4 active torsions:
REMARK  status: ('A' for Active; 'I' for Inactive)
REMARK    1  A    between atoms: C2_2  and  C3_4 
REMARK    2  A    between atoms: C3_4  and  C4_5 
REMARK    3  A    between atoms: C4_5  and  C5_6 
REMARK    4  A    between atoms: C6_7  and  C7_8 
ROOT
HETATM    1  C7  UNL     1      -1.022  -1.137   0.877  1.00  0.00     0.166 A 
HETATM    2  C8  UNL     1      -0.440  -0.424   2.044  1.00  0.00     0.236 A 
HETATM    3  O2  UNL     1       0.525  -1.129   2.507  1.00  0.00    -0.272 OA
HETATM    4  N1  UNL     1      -1.101   0.805   2.312  1.00  0.00    -0.326 N 
HETATM    5  C9  UNL     1      -2.171   0.860   1.376  1.00  0.00     0.042 A 
HETATM    6  C10 UNL     1      -3.088   1.890   1.336  1.00  0.00     0.030 A 
HETATM    7  C11 UNL     1      -4.120   1.834   0.424  1.00  0.00     0.003 A 
HETATM    8  C12 UNL     1      -4.187   0.739  -0.410  1.00  0.00     0.007 A 
HETATM    9  C13 UNL     1      -3.235  -0.251  -0.312  1.00  0.00    -0.052 A 
HETATM   10  C14 UNL     1      -3.427  -1.385  -1.261  1.00  0.00     0.049 C 
HETATM   11  C15 UNL     1      -2.181  -0.258   0.570  1.00  0.00    -0.006 A 
HETATM   12  H9  UNL     1      -0.695   1.374   3.083  1.00  0.00     0.169 HD
ENDROOT
BRANCH   1  13
HETATM   13  C6  UNL     1      -0.126  -1.068  -0.307  1.00  0.00     0.054 C 
HETATM   14  C5  UNL     1       0.936  -0.370  -0.633  1.00  0.00    -0.028 C 
HETATM   15  C16 UNL     1       1.389  -0.780  -2.013  1.00  0.00     0.237 C 
HETATM   16  O3  UNL     1       0.230  -1.361  -2.533  1.00  0.00    -0.276 OA
HETATM   17  N2  UNL     1      -0.384  -1.899  -1.430  1.00  0.00    -0.269 N 
HETATM   18  H16 UNL     1      -0.895  -2.782  -1.640  1.00  0.00     0.194 HD
BRANCH  14  19
HETATM   19  C4  UNL     1       1.717   0.671   0.051  1.00  0.00     0.046 C 
BRANCH  19  20
HETATM   20  C3  UNL     1       3.139   0.116   0.209  1.00  0.00     0.082 C 
BRANCH  20  21
HETATM   21  C2  UNL     1       4.014   1.094   0.891  1.00  0.00     0.123 C 
HETATM   22  C1  UNL     1       5.427   0.661   1.100  1.00  0.00     0.091 C 
HETATM   23  O1  UNL     1       3.618   2.188   1.264  1.00  0.00    -0.298 OA
ENDBRANCH  20  21
ENDBRANCH  19  20
ENDBRANCH  14  19
ENDBRANCH   1  13
TORSDOF 4
