REMARK  6 active torsions:
REMARK  status: ('A' for Active; 'I' for Inactive)
REMARK    1  A    between atoms: C9_9  and  B1_10 
REMARK    2  A    between atoms: B1_10  and  C10_11 
REMARK    3  A    between atoms: C11_12  and  C12_13 
REMARK    4  A    between atoms: C12_13  and  C13_14 
REMARK    5  A    between atoms: C13_14  and  C14_15 
REMARK    6  A    between atoms: C14_15  and  C15_16 
ROOT
HETATM    1  B1  UNL     1      -0.138  -1.707  -0.283  1.00  0.00     0.253 B 
HETATM    2  H8  UNL     1      -0.672  -2.036  -1.305  1.00  0.00    -0.014 HD
ENDROOT
BRANCH   1   3
HETATM    3  C9  UNL     1       1.398  -1.420  -0.232  1.00  0.00    -0.065 C 
HETATM    4  C8  UNL     1       2.056  -0.279  -0.357  1.00  0.00    -0.041 C 
HETATM    5  C7  UNL     1       3.477   0.060  -0.321  1.00  0.00     0.003 A 
HETATM    6  C17 UNL     1       1.276   0.961  -0.584  1.00  0.00     0.158 C 
HETATM    7  C2  UNL     1       4.501  -0.701   0.189  1.00  0.00    -0.049 A 
HETATM    8  C6  UNL     1       3.572   1.306  -0.907  1.00  0.00     0.039 A 
HETATM    9  C1  UNL     1       4.264  -2.032   0.795  1.00  0.00     0.049 C 
HETATM   10  C3  UNL     1       5.773  -0.127   0.091  1.00  0.00     0.007 A 
HETATM   11  C4  UNL     1       5.935   1.111  -0.481  1.00  0.00     0.003 A 
HETATM   12  C5  UNL     1       4.868   1.831  -0.977  1.00  0.00     0.030 A 
HETATM   13  N2  UNL     1       2.280   1.756  -1.305  1.00  0.00    -0.385 N 
HETATM   14  H21 UNL     1       2.207   2.530  -2.002  1.00  0.00     0.160 HD
ENDBRANCH   1   3
BRANCH   1  15
HETATM   15  C10 UNL     1      -1.082  -0.953   0.726  1.00  0.00     0.028 C 
HETATM   16  C11 UNL     1      -2.225  -0.237   0.574  1.00  0.00    -0.045 C 
HETATM   17  C16 UNL     1      -2.561   0.221   1.928  1.00  0.00     0.153 C 
HETATM   18  N1  UNL     1      -1.856  -0.683   2.821  1.00  0.00    -0.197 NA
HETATM   19  O3  UNL     1      -0.724  -0.990   2.092  1.00  0.00    -0.280 OA
HETATM   20  H18 UNL     1      -1.554  -0.183   3.686  1.00  0.00     0.154 HD
BRANCH  16  21
HETATM   21  C12 UNL     1      -2.727  -0.111  -0.803  1.00  0.00     0.037 C 
BRANCH  21  22
HETATM   22  C13 UNL     1      -4.020  -0.741  -1.133  1.00  0.00     0.011 C 
BRANCH  22  23
HETATM   23  C14 UNL     1      -5.237  -0.292  -0.405  1.00  0.00     0.071 C 
BRANCH  23  24
HETATM   24  C15 UNL     1      -5.517   1.146  -0.572  1.00  0.00     0.117 A 
HETATM   25  O1  UNL     1      -4.856   1.995  -1.255  1.00  0.00    -0.194 OA
HETATM   26  O2  UNL     1      -6.007   2.426  -0.550  1.00  0.00     0.000 OA
HETATM   27  H15 UNL     1      -6.857   2.681  -0.020  1.00  0.00     0.000 HD
ENDBRANCH  23  24
ENDBRANCH  22  23
ENDBRANCH  21  22
ENDBRANCH  16  21
ENDBRANCH   1  15
TORSDOF 6
