REMARK  9 active torsions:
REMARK  status: ('A' for Active; 'I' for Inactive)
REMARK    1  A    between atoms: C2_2  and  C3_3 
REMARK    2  A    between atoms: C3_3  and  C4_4 
REMARK    3  A    between atoms: C4_4  and  C5_5 
REMARK    4  A    between atoms: C9_11  and  C10_12 
REMARK    5  A    between atoms: C9_11  and  C21_27 
REMARK    6  A    between atoms: N4_15  and  C12_16 
REMARK    7  A    between atoms: N5_19  and  C15_20 
REMARK    8  A    between atoms: N6_26  and  C21_27 
REMARK    9  A    between atoms: C21_27  and  N7_28 
ROOT
HETATM    1  C5  UNL     1       4.720   0.188   0.541  1.00  0.00    -0.015 C 
HETATM    2  C6  UNL     1       6.098  -0.232   0.286  1.00  0.00     0.185 C 
HETATM    3  N1  UNL     1       6.238  -1.682   0.054  1.00  0.00    -0.300 NA
HETATM    4  C7  UNL     1       5.226  -2.579  -0.093  1.00  0.00     0.100 C 
HETATM    5  C8  UNL     1       3.697  -2.949  -0.232  1.00  0.00     0.087 A 
HETATM    6  N2  UNL     1       3.249  -1.697   0.304  1.00  0.00     0.000 N 
HETATM    7  C9  UNL     1       2.116  -1.123   0.663  1.00  0.00     0.291 A 
HETATM    8  C20 UNL     1       3.318  -0.393   0.782  1.00  0.00     0.277 A 
HETATM    9  N6  UNL     1       2.663  -1.650   0.379  1.00  0.00     0.164 N 
HETATM   10  C21 UNL     1       2.676  -2.598   0.023  1.00  0.00     0.288 A 
ENDROOT
BRANCH   7  11
HETATM   11  C10 UNL     1       0.709  -0.425   1.101  1.00  0.00     0.025 A 
HETATM   12  C11 UNL     1       0.321   0.172   2.296  1.00  0.00     0.150 A 
HETATM   13  N3  UNL     1      -0.899   0.440   1.951  1.00  0.00    -0.184 NA
HETATM   14  N4  UNL     1      -1.327   0.130   0.804  1.00  0.00    -0.276 N 
HETATM   15  C19 UNL     1      -0.375  -0.441   0.131  1.00  0.00     0.124 A 
BRANCH  14  16
HETATM   16  C12 UNL     1      -2.499   0.195  -0.004  1.00  0.00     0.112 C 
HETATM   17  C13 UNL     1      -3.401  -0.991   0.276  1.00  0.00     0.047 C 
HETATM   18  C14 UNL     1      -4.753  -0.905  -0.328  1.00  0.00     0.119 C 
HETATM   19  N5  UNL     1      -5.337   0.392  -0.506  1.00  0.00    -0.413 N 
HETATM   20  C17 UNL     1      -4.437   1.461  -0.669  1.00  0.00     0.119 C 
HETATM   21  C18 UNL     1      -3.310   1.437   0.371  1.00  0.00     0.047 C 
BRANCH  19  22
HETATM   22  C15 UNL     1      -6.467   0.615   0.338  1.00  0.00     0.112 C 
HETATM   23  C16 UNL     1      -7.170   1.918   0.194  1.00  0.00     0.026 C 
ENDBRANCH  19  22
ENDBRANCH  14  16
ENDBRANCH   7  11
BRANCH  10  24
HETATM   24  N7  UNL     1       1.826  -3.881  -0.471  1.00  0.00    -0.394 N 
HETATM   25  H24 UNL     1       1.301  -4.152  -1.329  1.00  0.00     0.152 HD
HETATM   26  H25 UNL     1       1.358  -4.516  -0.839  1.00  0.00     0.152 HD
ENDBRANCH  10  24
BRANCH   1  27
HETATM   27  C4  UNL     1       4.654   1.558   0.402  1.00  0.00     0.015 C 
BRANCH  27  28
HETATM   28  C3  UNL     1       5.801   2.332   0.047  1.00  0.00     0.051 C 
BRANCH  28  29
HETATM   29  C2  UNL     1       5.945   2.543  -1.276  1.00  0.00    -0.155 C 
HETATM   30  C1  UNL     1       5.936   2.328  -2.591  1.00  0.00     0.096 C 
ENDBRANCH  28  29
ENDBRANCH  27  28
ENDBRANCH   1  27
TORSDOF 9
