REMARK  5 active torsions:
REMARK  status: ('A' for Active; 'I' for Inactive)
REMARK    1  A    between atoms: C2_2  and  N1_3 
REMARK    2  A    between atoms: C5_6  and  N2_7 
REMARK    3  A    between atoms: N2_7  and  C6_8 
REMARK    4  A    between atoms: N3_9  and  C7_10 
REMARK    5  A    between atoms: C12_18  and  C13_19 
ROOT
HETATM    1  C6  UNL     1       1.468   0.527  -0.670  1.00  0.00     0.197 C 
HETATM    2  N3  UNL     1       1.369   0.032   0.515  1.00  0.00    -0.270 NA
ENDROOT
BRANCH   2   3
HETATM    3  C7  UNL     1       2.461  -0.404   1.241  1.00  0.00     0.228 C 
HETATM    4  C8  UNL     1       3.388   0.752   1.573  1.00  0.00     0.121 C 
HETATM    5  N4  UNL     1       4.588   0.219   1.369  1.00  0.00    -0.232 NA
HETATM    6  C9  UNL     1       4.566  -1.132   0.578  1.00  0.00     0.490 A 
HETATM    7  N5  UNL     1       4.046  -2.277  -0.049  1.00  0.00     0.226 N 
HETATM    8  C12 UNL     1       5.841  -1.458   0.269  1.00  0.00     0.330 A 
HETATM    9  N6  UNL     1       4.625  -2.008   0.045  1.00  0.00     0.228 N 
HETATM   10  C11 UNL     1       3.410  -1.437   0.511  1.00  0.00     0.451 A 
HETATM   11  C10 UNL     1       2.784  -2.552  -0.097  1.00  0.00     0.299 A 
BRANCH   8  12
HETATM   12  C13 UNL     1       7.147  -2.017  -0.203  1.00  0.00     0.443 C 
HETATM   13  O1  UNL     1       8.058  -1.274   0.140  1.00  0.00    -0.427 OA
ENDBRANCH   8  12
ENDBRANCH   2   3
BRANCH   1  14
HETATM   14  N2  UNL     1       0.214   0.927  -1.268  1.00  0.00    -0.380 N 
HETATM   15  H11 UNL     1       0.187   0.785  -2.326  1.00  0.00     0.160 HD
BRANCH  14  16
HETATM   16  C5  UNL     1      -0.915   1.467  -0.470  1.00  0.00     0.085 C 
HETATM   17  C4  UNL     1      -1.457   0.428   0.453  1.00  0.00     0.044 C 
HETATM   18  C3  UNL     1      -2.834   0.827   0.971  1.00  0.00     0.119 C 
HETATM   19  N1  UNL     1      -3.708   1.166  -0.078  1.00  0.00    -0.413 N 
HETATM   20  C15 UNL     1      -3.301   2.118  -1.030  1.00  0.00     0.119 C 
HETATM   21  C14 UNL     1      -1.931   1.825  -1.531  1.00  0.00     0.044 C 
BRANCH  19  22
HETATM   22  C2  UNL     1      -5.067   0.812   0.024  1.00  0.00     0.112 C 
HETATM   23  C1  UNL     1      -5.348  -0.668  -0.033  1.00  0.00     0.026 C 
ENDBRANCH  19  22
ENDBRANCH  14  16
ENDBRANCH   1  14
TORSDOF 5
