REMARK  4 active torsions:
REMARK  status: ('A' for Active; 'I' for Inactive)
REMARK    1  A    between atoms: C2_2  and  C3_3 
REMARK       I    between atoms: C3_3  and  N1_5 
REMARK    2  A    between atoms: N1_5  and  C4_6 
REMARK    3  A    between atoms: C8_10  and  N2_11 
REMARK    4  A    between atoms: C9_12  and  C10_13 
ROOT
HETATM    1  C4  UNL     1       2.080  -0.125  -0.646  1.00  0.00     0.037 A 
HETATM    2  C5  UNL     1       2.138  -0.495  -1.995  1.00  0.00     0.029 A 
HETATM    3  C6  UNL     1       1.013  -0.908  -2.706  1.00  0.00     0.004 A 
HETATM    4  C7  UNL     1      -0.171  -0.936  -2.013  1.00  0.00     0.030 A 
HETATM    5  C8  UNL     1      -0.309  -0.587  -0.685  1.00  0.00     0.043 A 
HETATM    6  C17 UNL     1       0.842  -0.186  -0.035  1.00  0.00     0.059 A 
ENDROOT
BRANCH   5   7
HETATM    7  N2  UNL     1      -1.543  -0.620   0.023  1.00  0.00    -0.293 N 
HETATM    8  C9  UNL     1      -1.566  -1.143   1.283  1.00  0.00     0.152 A 
HETATM    9  N4  UNL     1      -2.831  -1.076   1.771  1.00  0.00    -0.227 NA
HETATM   10  C11 UNL     1      -3.622  -0.514   0.832  1.00  0.00     0.086 A 
HETATM   11  C12 UNL     1      -4.951  -0.170   0.689  1.00  0.00     0.034 A 
HETATM   12  C16 UNL     1      -2.794  -0.240  -0.243  1.00  0.00     0.070 A 
HETATM   13  C13 UNL     1      -5.441   0.419  -0.467  1.00  0.00     0.002 A 
HETATM   14  C14 UNL     1      -4.575   0.678  -1.526  1.00  0.00     0.002 A 
HETATM   15  C15 UNL     1      -3.248   0.345  -1.407  1.00  0.00     0.032 A 
BRANCH   8  16
HETATM   16  C10 UNL     1      -0.554  -1.734   2.176  1.00  0.00     0.158 C 
HETATM   17  N3  UNL     1      -0.324  -1.083   3.275  1.00  0.00    -0.308 NA
HETATM   18  H9  UNL     1      -0.835  -0.193   3.500  1.00  0.00     0.186 HD
ENDBRANCH   8  16
ENDBRANCH   5   7
BRANCH   1  19
HETATM   19  N1  UNL     1       3.267   0.288   0.024  1.00  0.00    -0.324 N 
HETATM   20  C3  UNL     1       3.947   1.498   0.246  1.00  0.00     0.244 C 
HETATM   21  O1  UNL     1       3.309   2.430  -0.304  1.00  0.00    -0.268 OA
HETATM   22  H4  UNL     1       3.512  -0.690   0.337  1.00  0.00     0.169 HD
BRANCH  20  23
HETATM   23  C2  UNL     1       5.174   1.404   1.024  1.00  0.00     0.064 C 
HETATM   24  C1  UNL     1       5.737   0.335   1.551  1.00  0.00     0.017 C 
ENDBRANCH  20  23
ENDBRANCH   1  19
TORSDOF 4
