REMARK  5 active torsions:
REMARK  status: ('A' for Active; 'I' for Inactive)
REMARK    1  A    between atoms: C4_5  and  C5_6 
REMARK    2  A    between atoms: C4_5  and  C8_11 
REMARK    3  A    between atoms: C5_6  and  C6_7 
REMARK    4  A    between atoms: C6_7  and  C7_8 
REMARK    5  A    between atoms: C7_8  and  O2_10 
ROOT
HETATM    1  C1  UNL     1       0.914  -1.395  -2.252  1.00  0.00     0.048 C 
HETATM    2  C2  UNL     1       1.358  -1.226  -0.834  1.00  0.00    -0.036 A 
HETATM    3  C3  UNL     1       2.268  -1.997  -0.239  1.00  0.00     0.089 A 
HETATM    4  N1  UNL     1       2.094  -1.223   0.935  1.00  0.00    -0.381 N 
HETATM    5  C4  UNL     1       1.105  -0.364   0.381  1.00  0.00     0.084 A 
HETATM    6  H5  UNL     1       2.333  -1.022   1.909  1.00  0.00     0.160 HD
ENDROOT
BRANCH   5   7
HETATM    7  C5  UNL     1       1.452   1.085   0.151  1.00  0.00     0.051 C 
BRANCH   7   8
HETATM    8  C6  UNL     1       2.926   1.124  -0.218  1.00  0.00     0.113 C 
BRANCH   8   9
HETATM    9  C7  UNL     1       3.381   2.514  -0.465  1.00  0.00     0.139 C 
HETATM   10  O1  UNL     1       4.191   3.079   0.331  1.00  0.00    -0.650 OA
BRANCH   9  11
HETATM   11  O2  UNL     1       2.873   3.143  -1.591  1.00  0.00    -0.776 OA
HETATM   12  H10 UNL     1       2.804   4.169  -1.600  1.00  0.00     0.167 HD
ENDBRANCH   9  11
ENDBRANCH   8   9
ENDBRANCH   7   8
ENDBRANCH   5   7
BRANCH   5  13
HETATM   13  C8  UNL     1      -0.262  -0.512   0.929  1.00  0.00     0.007 A 
HETATM   14  C9  UNL     1      -0.445  -0.984   2.170  1.00  0.00     0.087 A 
HETATM   15  C10 UNL     1      -1.870  -1.059   2.534  1.00  0.00     0.248 A 
HETATM   16  O3  UNL     1      -2.379  -1.452   3.612  1.00  0.00    -0.268 OA
HETATM   17  N2  UNL     1      -2.577  -0.586   1.400  1.00  0.00    -0.310 N 
HETATM   18  C11 UNL     1      -3.999  -0.439   1.158  1.00  0.00     0.161 A 
HETATM   19  C15 UNL     1      -1.597  -0.251   0.416  1.00  0.00     0.048 A 
HETATM   20  C12 UNL     1      -4.277   0.113  -0.196  1.00  0.00     0.012 A 
HETATM   21  C13 UNL     1      -3.352   0.421  -1.076  1.00  0.00     0.011 A 
HETATM   22 BR1  UNL     1      -3.912   1.115  -2.758  1.00  0.00    -0.051 Br
HETATM   23  C14 UNL     1      -1.946   0.229  -0.752  1.00  0.00     0.049 A 
ENDBRANCH   5  13
TORSDOF 5
