REMARK  3 active torsions:
REMARK  status: ('A' for Active; 'I' for Inactive)
REMARK    1  A    between atoms: C9_11  and  N2_12 
REMARK    2  A    between atoms: N2_12  and  C10_13 
REMARK    3  A    between atoms: C10_13  and  C11_14 
ROOT
HETATM    1  F1  UNL     1      -6.919   1.657   1.457  1.00  0.00    -0.206 F 
HETATM    2  C1  UNL     1      -5.948   0.775   1.105  1.00  0.00     0.117 A 
HETATM    3  C2  UNL     1      -6.244  -0.384   0.418  1.00  0.00     0.043 A 
HETATM    4  C3  UNL     1      -5.251  -1.263   0.071  1.00  0.00     0.022 A 
HETATM    5  C4  UNL     1      -3.977  -0.954   0.425  1.00  0.00     0.015 A 
HETATM    6  C5  UNL     1      -3.562   0.177   1.114  1.00  0.00    -0.021 A 
HETATM    7  C6  UNL     1      -4.640   1.020   1.429  1.00  0.00     0.052 A 
HETATM    8  C7  UNL     1      -2.337   0.767   1.619  1.00  0.00     0.160 C 
HETATM    9  N1  UNL     1      -1.099   0.343   1.068  1.00  0.00    -0.380 N 
HETATM   10  C8  UNL     1      -0.629  -0.424  -0.027  1.00  0.00     0.111 A 
HETATM   11  C9  UNL     1       0.586   0.062  -0.453  1.00  0.00     0.154 A 
HETATM   12  N3  UNL     1       1.124  -0.604  -1.482  1.00  0.00    -0.222 NA
HETATM   13  C17 UNL     1       0.497  -1.657  -2.029  1.00  0.00     0.236 A 
HETATM   14  N4  UNL     1      -0.710  -2.128  -1.597  1.00  0.00    -0.232 NA
HETATM   15  C18 UNL     1      -1.301  -1.492  -0.556  1.00  0.00     0.129 A 
HETATM   16  S1  UNL     1      -2.866  -2.235  -0.129  1.00  0.00    -0.068 SA
HETATM   17  H6  UNL     1      -0.301   0.722   1.670  1.00  0.00     0.160 HD
ENDROOT
BRANCH  11  18
HETATM   18  N2  UNL     1       1.271   1.179   0.078  1.00  0.00    -0.369 N 
HETATM   19  H7  UNL     1       0.991   1.824   0.847  1.00  0.00     0.161 HD
BRANCH  18  20
HETATM   20  C10 UNL     1       2.546   1.621  -0.414  1.00  0.00     0.160 C 
BRANCH  20  21
HETATM   21  C11 UNL     1       3.657   0.686  -0.255  1.00  0.00    -0.041 A 
HETATM   22  C12 UNL     1       4.266   0.769   1.007  1.00  0.00     0.009 A 
HETATM   23  C13 UNL     1       5.343  -0.015   1.365  1.00  0.00     0.001 A 
HETATM   24  C14 UNL     1       5.871  -0.925   0.485  1.00  0.00     0.000 A 
HETATM   25  C15 UNL     1       5.279  -1.011  -0.754  1.00  0.00     0.001 A 
HETATM   26  C16 UNL     1       4.220  -0.230  -1.087  1.00  0.00     0.009 A 
ENDBRANCH  20  21
ENDBRANCH  18  20
ENDBRANCH  11  18
TORSDOF 3
