REMARK  5 active torsions:
REMARK  status: ('A' for Active; 'I' for Inactive)
REMARK    1  A    between atoms: C2_2  and  C3_3 
REMARK       I    between atoms: C3_3  and  N1_5 
REMARK    2  A    between atoms: N1_5  and  C4_6 
REMARK    3  A    between atoms: C8_10  and  N2_11 
REMARK    4  A    between atoms: N2_11  and  C9_12 
REMARK    5  A    between atoms: C18_23  and  N5_24 
ROOT
HETATM    1  C9  UNL     1      -1.204   0.388  -0.098  1.00  0.00     0.140 C 
HETATM    2  N3  UNL     1      -1.619   1.077   0.934  1.00  0.00    -0.230 NA
HETATM    3  C10 UNL     1      -2.921   0.755   1.606  1.00  0.00     0.070 A 
HETATM    4  C11 UNL     1      -3.226   0.930   2.890  1.00  0.00     0.032 A 
HETATM    5  C12 UNL     1      -4.485   0.554   3.315  1.00  0.00     0.002 A 
HETATM    6  C13 UNL     1      -5.491  -0.005   2.511  1.00  0.00     0.001 A 
HETATM    7  C14 UNL     1      -5.304  -0.241   1.160  1.00  0.00     0.014 A 
HETATM    8  C15 UNL     1      -4.019   0.191   0.936  1.00  0.00     0.001 A 
HETATM    9  C16 UNL     1      -4.099  -0.193  -0.437  1.00  0.00    -0.015 A 
HETATM   10  C17 UNL     1      -4.618  -0.609  -1.538  1.00  0.00     0.136 A 
HETATM   11  N4  UNL     1      -3.709  -0.726  -2.517  1.00  0.00    -0.199 NA
HETATM   12  C18 UNL     1      -2.413  -0.436  -2.350  1.00  0.00     0.172 A 
HETATM   13  C19 UNL     1      -2.095  -0.033  -1.149  1.00  0.00     0.050 A 
HETATM   14  N6  UNL     1      -3.400  -0.387  -1.551  1.00  0.00     0.000 N 
ENDROOT
BRANCH   1  15
HETATM   15  N2  UNL     1      -0.068  -0.233  -0.624  1.00  0.00    -0.340 N 
HETATM   16  H8  UNL     1      -0.024  -1.064  -1.233  1.00  0.00     0.167 HD
BRANCH  15  17
HETATM   17  C8  UNL     1       1.015   0.510  -0.085  1.00  0.00     0.035 A 
HETATM   18  C7  UNL     1       1.182   1.608   0.686  1.00  0.00     0.029 A 
HETATM   19  C6  UNL     1       2.367   2.110   1.114  1.00  0.00     0.004 A 
HETATM   20  C5  UNL     1       3.505   1.468   0.743  1.00  0.00     0.029 A 
HETATM   21  C4  UNL     1       3.485   0.344  -0.039  1.00  0.00     0.037 A 
HETATM   22  C20 UNL     1       2.227  -0.105  -0.433  1.00  0.00     0.059 A 
BRANCH  21  23
HETATM   23  N1  UNL     1       4.617  -0.435  -0.480  1.00  0.00    -0.324 N 
HETATM   24  C3  UNL     1       5.192  -1.676   0.002  1.00  0.00     0.241 C 
HETATM   25  O1  UNL     1       4.453  -1.969   0.961  1.00  0.00    -0.269 OA
HETATM   26  H4  UNL     1       4.839   0.249  -1.269  1.00  0.00     0.169 HD
BRANCH  24  27
HETATM   27  C2  UNL     1       6.323  -1.885  -0.927  1.00  0.00     0.048 C 
HETATM   28  C1  UNL     1       7.143  -1.563  -1.948  1.00  0.00     0.037 C 
ENDBRANCH  24  27
ENDBRANCH  21  23
ENDBRANCH  15  17
ENDBRANCH   1  15
BRANCH  12  29
HETATM   29  N5  UNL     1      -1.088  -0.287  -2.883  1.00  0.00    -0.402 N 
HETATM   30  H14 UNL     1      -0.343   0.438  -2.960  1.00  0.00     0.152 HD
HETATM   31  H15 UNL     1      -0.492  -0.999  -3.441  1.00  0.00     0.152 HD
ENDBRANCH  12  29
TORSDOF 5
