REMARK  8 active torsions:
REMARK  status: ('A' for Active; 'I' for Inactive)
REMARK    1  A    between atoms: C2_2  and  N1_3 
REMARK    2  A    between atoms: C4_5  and  C5_6 
REMARK    3  A    between atoms: C9_13  and  C10_14 
REMARK    4  A    between atoms: C10_14  and  N4_15 
REMARK    5  A    between atoms: N4_15  and  C12_17 
REMARK    6  A    between atoms: C12_17  and  C13_18 
REMARK    7  A    between atoms: C13_18  and  C14_19 
REMARK    8  A    between atoms: C15_20  and  N5_21 
ROOT
HETATM    1  C5  UNL     1      -1.888   0.177  -0.536  1.00  0.00     0.167 C 
HETATM    2  C6  UNL     1      -2.108   1.135  -1.760  1.00  0.00     0.202 C 
HETATM    3  O1  UNL     1      -1.129   2.114  -1.547  1.00  0.00    -0.366 OA
HETATM    4  C7  UNL     1      -1.316   2.951  -0.491  1.00  0.00     0.340 C 
HETATM    5  N2  UNL     1       0.008   3.484  -0.172  1.00  0.00    -0.172 NA
HETATM    6  N3  UNL     1       0.764   2.728   0.535  1.00  0.00    -0.190 NA
HETATM    7  C8  UNL     1       0.371   1.449   0.985  1.00  0.00     0.229 C 
HETATM    8  C9  UNL     1       0.412   0.331   0.027  1.00  0.00     0.046 C 
HETATM    9  N6  UNL     1      -0.544  -0.252  -0.651  1.00  0.00    -0.283 NA
ENDROOT
BRANCH   8  10
HETATM   10  C10 UNL     1       1.760  -0.132  -0.359  1.00  0.00     0.177 C 
BRANCH  10  11
HETATM   11  N4  UNL     1       2.701  -0.364   0.708  1.00  0.00    -0.389 N 
HETATM   12  C11 UNL     1       2.662  -1.413   1.720  1.00  0.00     0.149 C 
BRANCH  11  13
HETATM   13  C12 UNL     1       3.852   0.496   0.870  1.00  0.00     0.085 C 
BRANCH  13  14
HETATM   14  C13 UNL     1       5.128   0.361   0.666  1.00  0.00     0.018 C 
BRANCH  14  15
HETATM   15  C14 UNL     1       6.543   0.282   0.464  1.00  0.00     0.018 C 
HETATM   16  C15 UNL     1       7.103  -0.832   0.006  1.00  0.00     0.080 C 
BRANCH  16  17
HETATM   17  N5  UNL     1       8.500  -0.884  -0.187  1.00  0.00    -0.408 N 
HETATM   18  H23 UNL     1       9.153  -1.445   0.418  1.00  0.00     0.155 HD
HETATM   19  H24 UNL     1       8.815  -0.294  -0.998  1.00  0.00     0.155 HD
ENDBRANCH  16  17
ENDBRANCH  14  15
ENDBRANCH  13  14
ENDBRANCH  11  13
ENDBRANCH  10  11
ENDBRANCH   8  10
BRANCH   1  20
HETATM   20  C4  UNL     1      -2.926  -0.859  -0.461  1.00  0.00     0.005 A 
HETATM   21  C3  UNL     1      -4.084  -0.579   0.286  1.00  0.00     0.123 A 
HETATM   22  N1  UNL     1      -4.931  -1.634   0.286  1.00  0.00    -0.281 N 
HETATM   23  N7  UNL     1      -4.362  -2.597  -0.436  1.00  0.00    -0.185 NA
HETATM   24  C16 UNL     1      -3.161  -2.136  -0.885  1.00  0.00     0.149 A 
BRANCH  22  25
HETATM   25  C2  UNL     1      -6.199  -1.588   0.981  1.00  0.00     0.146 C 
HETATM   26  C1  UNL     1      -7.320  -1.072   0.126  1.00  0.00     0.028 C 
ENDBRANCH  22  25
ENDBRANCH   1  20
TORSDOF 8
