REMARK  8 active torsions:
REMARK  status: ('A' for Active; 'I' for Inactive)
REMARK    1  A    between atoms: N1_2  and  C2_3 
REMARK    2  A    between atoms: C2_3  and  C3_4 
REMARK    3  A    between atoms: C3_4  and  C4_5 
REMARK    4  A    between atoms: N2_6  and  C5_7 
REMARK    5  A    between atoms: C5_7  and  C6_8 
REMARK    6  A    between atoms: C6_8  and  C7_9 
REMARK    7  A    between atoms: C7_9  and  N3_10 
REMARK    8  A    between atoms: N3_10  and  C8_11 
ROOT
HETATM    1  C8  UNL     1      -0.448   1.269  -1.220  1.00  0.00     0.110 C 
HETATM    2  C9  UNL     1      -1.688   0.887  -0.869  1.00  0.00     0.045 C 
HETATM    3  C10 UNL     1      -2.805   1.838  -0.826  1.00  0.00     0.233 C 
HETATM    4  O1  UNL     1      -3.651   1.720   0.278  1.00  0.00    -0.345 OA
HETATM    5  C11 UNL     1      -4.061   0.668   1.058  1.00  0.00     0.077 A 
HETATM    6  C12 UNL     1      -4.861   1.041   2.117  1.00  0.00     0.037 A 
HETATM    7  C13 UNL     1      -5.349   0.088   2.988  1.00  0.00     0.003 A 
HETATM    8  C14 UNL     1      -5.010  -1.248   2.764  1.00  0.00     0.001 A 
HETATM    9  C15 UNL     1      -4.211  -1.600   1.703  1.00  0.00     0.011 A 
HETATM   10  C16 UNL     1      -3.720  -0.635   0.826  1.00  0.00    -0.007 A 
HETATM   11  C17 UNL     1      -2.890  -1.325  -0.213  1.00  0.00     0.161 C 
HETATM   12  N4  UNL     1      -1.730  -0.522  -0.562  1.00  0.00    -0.386 N 
HETATM   13  H22 UNL     1      -0.799  -1.024  -0.598  1.00  0.00     0.159 HD
ENDROOT
BRANCH   1  14
HETATM   14  N3  UNL     1       0.670   0.360  -1.271  1.00  0.00    -0.397 N 
HETATM   15  H12 UNL     1       0.834   0.546  -0.264  1.00  0.00     0.158 HD
BRANCH  14  16
HETATM   16  C7  UNL     1       0.723  -0.114  -2.644  1.00  0.00     0.120 C 
BRANCH  16  17
HETATM   17  C6  UNL     1       1.878  -1.086  -2.791  1.00  0.00     0.041 C 
BRANCH  17  18
HETATM   18  C5  UNL     1       3.197  -0.454  -2.461  1.00  0.00     0.150 C 
BRANCH  18  19
HETATM   19  N2  UNL     1       3.306   0.055  -1.129  1.00  0.00    -0.301 NA
HETATM   20  C4  UNL     1       3.438  -0.717  -0.079  1.00  0.00     0.120 C 
BRANCH  20  21
HETATM   21  C3  UNL     1       3.525   0.103   1.148  1.00  0.00     0.095 C 
BRANCH  21  22
HETATM   22  C2  UNL     1       4.546  -0.239   1.918  1.00  0.00    -0.021 C 
BRANCH  22  23
HETATM   23  N1  UNL     1       5.656  -0.400   2.554  1.00  0.00    -0.252 NA
HETATM   24  C1  UNL     1       6.823   0.298   2.046  1.00  0.00     0.189 C 
ENDBRANCH  22  23
ENDBRANCH  21  22
ENDBRANCH  20  21
ENDBRANCH  18  19
ENDBRANCH  17  18
ENDBRANCH  16  17
ENDBRANCH  14  16
ENDBRANCH   1  14
TORSDOF 8
