REMARK  9 active torsions:
REMARK  status: ('A' for Active; 'I' for Inactive)
REMARK    1  A    between atoms: N2_12  and  N3_13 
REMARK    2  A    between atoms: C11_14  and  C12_15 
REMARK    3  A    between atoms: C12_15  and  C13_16 
REMARK    4  A    between atoms: C13_16  and  N4_17 
REMARK    5  A    between atoms: C13_16  and  N5_18 
REMARK    6  A    between atoms: C14_19  and  N6_20 
REMARK    7  A    between atoms: C14_19  and  C15_21 
REMARK    8  A    between atoms: C15_21  and  C16_22 
REMARK    9  A    between atoms: N8_30  and  C23_31 
ROOT
HETATM    1  C13 UNL     1       0.975  -0.748  -0.577  1.00  0.00     0.344 C 
ENDROOT
BRANCH   1   2
HETATM    2  C12 UNL     1      -0.438  -0.694  -0.012  1.00  0.00     0.107 C 
BRANCH   2   3
HETATM    3  C11 UNL     1      -0.949   0.664  -0.256  1.00  0.00     0.115 C 
HETATM    4  N3  UNL     1      -2.001   1.386  -0.440  1.00  0.00    -0.189 NA
BRANCH   4   5
HETATM    5  N2  UNL     1      -3.255   0.798  -0.435  1.00  0.00    -0.270 N 
HETATM    6  C2  UNL     1      -3.817   0.604   0.862  1.00  0.00     0.025 C 
HETATM    7  C1  UNL     1      -2.886   1.010   1.959  1.00  0.00     0.070 C 
HETATM    8  C3  UNL     1      -4.959   0.154   1.408  1.00  0.00     0.024 C 
HETATM    9  C4  UNL     1      -6.269  -0.130   0.794  1.00  0.00     0.100 C 
HETATM   10  C5  UNL     1      -6.807  -1.401   1.409  1.00  0.00     0.036 C 
HETATM   11  N1  UNL     1      -6.242  -0.182  -0.632  1.00  0.00    -0.405 N 
HETATM   12  C6  UNL     1      -5.541  -1.264  -1.209  1.00  0.00     0.119 C 
HETATM   13  C10 UNL     1      -6.215   1.057  -1.304  1.00  0.00     0.119 C 
HETATM   14  C7  UNL     1      -4.180  -0.976  -1.751  1.00  0.00     0.047 C 
HETATM   15  C8  UNL     1      -3.807   0.469  -1.758  1.00  0.00     0.113 C 
HETATM   16  C9  UNL     1      -4.948   1.410  -2.001  1.00  0.00     0.047 C 
ENDBRANCH   4   5
ENDBRANCH   2   3
ENDBRANCH   1   2
BRANCH   1  17
HETATM   17  N4  UNL     1       1.004  -0.472  -1.988  1.00  0.00     0.103 N 
HETATM   18  H22 UNL     1       0.791   0.519  -2.188  1.00  0.00     0.315 HD
HETATM   19  H23 UNL     1       0.494  -1.142  -2.582  1.00  0.00     0.315 HD
ENDBRANCH   1  17
BRANCH   1  20
HETATM   20  N5  UNL     1       1.751   0.282   0.084  1.00  0.00    -0.246 NA
HETATM   21  C14 UNL     1       2.672  -0.095   0.905  1.00  0.00     0.081 C 
BRANCH  21  22
HETATM   22  N6  UNL     1       2.786   1.336   0.973  1.00  0.00    -0.291 NA
HETATM   23  H24 UNL     1       2.931   2.000   1.787  1.00  0.00     0.125 HD
HETATM   24  H25 UNL     1       2.894   2.332   1.258  1.00  0.00     0.125 HD
ENDBRANCH  21  22
BRANCH  21  25
HETATM   25  C15 UNL     1       3.701  -0.684   1.826  1.00  0.00     0.150 C 
BRANCH  25  26
HETATM   26  C16 UNL     1       5.033  -0.221   1.345  1.00  0.00     0.116 A 
HETATM   27  N7  UNL     1       5.692   0.904   1.719  1.00  0.00    -0.233 NA
HETATM   28  C17 UNL     1       6.875   0.958   1.049  1.00  0.00     0.085 A 
HETATM   29  C18 UNL     1       7.915   1.863   1.044  1.00  0.00     0.034 A 
HETATM   30  C22 UNL     1       6.903  -0.171   0.261  1.00  0.00     0.067 A 
HETATM   31  C19 UNL     1       8.987   1.586   0.214  1.00  0.00     0.002 A 
HETATM   32  C20 UNL     1       9.086   0.481  -0.599  1.00  0.00     0.002 A 
HETATM   33  C21 UNL     1       8.012  -0.392  -0.553  1.00  0.00     0.032 A 
HETATM   34  N8  UNL     1       5.779  -0.899   0.436  1.00  0.00    -0.306 N 
BRANCH  34  35
HETATM   35  C23 UNL     1       5.468  -2.147  -0.229  1.00  0.00     0.354 C 
HETATM   36  F1  UNL     1       4.795  -1.841  -1.395  1.00  0.00    -0.234 F 
ENDBRANCH  34  35
ENDBRANCH  25  26
ENDBRANCH  21  25
ENDBRANCH   1  20
TORSDOF 9
