REMARK  3 active torsions:
REMARK  status: ('A' for Active; 'I' for Inactive)
REMARK    1  A    between atoms: N1_1  and  C1_2 
REMARK    2  A    between atoms: C14_21  and  C15_22 
REMARK    3  A    between atoms: N8_24  and  C16_25 
ROOT
HETATM    1  C1  UNL     1       1.594  -1.682  -0.071  1.00  0.00     0.150 C 
HETATM    2  N2  UNL     1       0.371  -1.682  -0.455  1.00  0.00    -0.249 NA
HETATM    3  C2  UNL     1      -0.456  -2.887  -0.398  1.00  0.00     0.301 C 
HETATM    4  N3  UNL     1      -1.804  -2.497  -0.843  1.00  0.00    -0.261 N 
HETATM    5  C3  UNL     1      -2.401  -1.775   0.105  1.00  0.00     0.123 A 
HETATM    6  C4  UNL     1      -3.648  -1.411  -0.346  1.00  0.00    -0.018 A 
HETATM    7  C5  UNL     1      -3.771  -1.958  -1.625  1.00  0.00     0.148 A 
HETATM    8  N4  UNL     1      -2.610  -2.616  -1.883  1.00  0.00    -0.183 NA
HETATM    9  C6  UNL     1      -4.821  -0.642   0.115  1.00  0.00     0.024 C 
HETATM   10  C7  UNL     1      -5.211   0.468  -0.853  1.00  0.00     0.029 C 
HETATM   11  C8  UNL     1      -4.616   1.800  -0.388  1.00  0.00     0.126 C 
HETATM   12  N5  UNL     1      -3.290   1.505   0.082  1.00  0.00    -0.352 N 
HETATM   13  C9  UNL     1      -3.556   1.097   1.474  1.00  0.00     0.126 C 
HETATM   14  C10 UNL     1      -4.573   0.001   1.451  1.00  0.00     0.029 C 
HETATM   15  C11 UNL     1      -2.139   1.634  -0.773  1.00  0.00     0.221 C 
HETATM   16  O1  UNL     1      -1.566   1.296   0.270  1.00  0.00    -0.273 OA
HETATM   17  C12 UNL     1      -1.120   1.819  -1.785  1.00  0.00     0.124 C 
HETATM   18  C13 UNL     1       0.256   1.474  -1.325  1.00  0.00     0.159 C 
HETATM   19  N6  UNL     1       0.377   0.092  -0.921  1.00  0.00    -0.282 NA
HETATM   20  C14 UNL     1       1.522  -0.284  -0.464  1.00  0.00     0.145 C 
ENDROOT
BRANCH  20  21
HETATM   21  C15 UNL     1       2.661   0.605  -0.346  1.00  0.00     0.204 A 
HETATM   22  N7  UNL     1       2.997   1.863  -0.577  1.00  0.00    -0.143 NA
HETATM   23  N8  UNL     1       3.975   1.016  -0.046  1.00  0.00    -0.210 N 
BRANCH  23  24
HETATM   24  C16 UNL     1       5.287   0.765   0.431  1.00  0.00     0.060 A 
HETATM   25  C17 UNL     1       5.781  -0.433   0.901  1.00  0.00     0.031 A 
HETATM   26  C18 UNL     1       7.057  -0.619   1.350  1.00  0.00     0.002 A 
HETATM   27  C19 UNL     1       7.947   0.432   1.352  1.00  0.00     0.000 A 
HETATM   28  C20 UNL     1       7.483   1.638   0.889  1.00  0.00     0.002 A 
HETATM   29  C21 UNL     1       6.195   1.814   0.439  1.00  0.00     0.031 A 
ENDBRANCH  23  24
ENDBRANCH  20  21
BRANCH   1  30
HETATM   30  N1  UNL     1       2.628  -2.489   0.465  1.00  0.00    -0.382 N 
HETATM   31  H1  UNL     1       3.165  -2.687  -0.385  1.00  0.00     0.157 HD
HETATM   32  H2  UNL     1       2.158  -2.353   1.392  1.00  0.00     0.157 HD
ENDBRANCH   1  30
TORSDOF 3
