REMARK  5 active torsions:
REMARK  status: ('A' for Active; 'I' for Inactive)
REMARK    1  A    between atoms: C1_2  and  C15_20 
REMARK    2  A    between atoms: C2_3  and  C3_4 
REMARK    3  A    between atoms: C4_5  and  N1_6 
REMARK    4  A    between atoms: N1_6  and  N2_7 
REMARK    5  A    between atoms: C15_20  and  C16_21 
ROOT
HETATM    1  N1  UNL     1       0.273   1.478   1.819  1.00  0.00    -0.308 N 
HETATM    2  H4  UNL     1       1.099   1.422   2.466  1.00  0.00     0.186 HD
ENDROOT
BRANCH   1   3
HETATM    3  C4  UNL     1       0.646   1.844   0.503  1.00  0.00     0.107 C 
HETATM    4  C3  UNL     1       1.588   1.171  -0.130  1.00  0.00     0.021 C 
BRANCH   4   5
HETATM    5  C2  UNL     1       2.350   0.026   0.367  1.00  0.00     0.039 C 
HETATM    6  C1  UNL     1       3.296  -0.726  -0.134  1.00  0.00     0.098 C 
HETATM    7  F1  UNL     1       3.858  -1.754   0.542  1.00  0.00    -0.210 F 
BRANCH   6   8
HETATM    8  C15 UNL     1       3.894  -0.586  -1.483  1.00  0.00     0.108 C 
BRANCH   8   9
HETATM    9  C16 UNL     1       5.362  -0.330  -1.332  1.00  0.00    -0.052 A 
HETATM   10  C17 UNL     1       6.004   0.876  -1.230  1.00  0.00     0.007 A 
HETATM   11  C18 UNL     1       7.368   0.946  -1.096  1.00  0.00     0.001 A 
HETATM   12  C19 UNL     1       8.145  -0.191  -1.059  1.00  0.00     0.000 A 
HETATM   13  C20 UNL     1       7.559  -1.432  -1.157  1.00  0.00     0.001 A 
HETATM   14  C21 UNL     1       6.190  -1.451  -1.291  1.00  0.00     0.007 A 
ENDBRANCH   8   9
ENDBRANCH   6   8
ENDBRANCH   4   5
ENDBRANCH   1   3
BRANCH   1  15
HETATM   15  N2  UNL     1      -1.019   1.229   2.258  1.00  0.00    -0.276 N 
HETATM   16  C5  UNL     1      -0.837  -0.168   1.891  1.00  0.00     0.221 C 
HETATM   17  N3  UNL     1      -1.201  -0.968   0.911  1.00  0.00    -0.281 NA
HETATM   18  C6  UNL     1      -2.007  -0.450  -0.167  1.00  0.00     0.180 C 
HETATM   19  C7  UNL     1      -3.422  -0.888   0.015  1.00  0.00     0.295 C 
HETATM   20  N4  UNL     1      -4.391  -0.212  -0.817  1.00  0.00     0.106 N 
HETATM   21  C8  UNL     1      -5.407  -0.976  -1.384  1.00  0.00     0.274 C 
HETATM   22  C11 UNL     1      -5.056   0.838  -0.022  1.00  0.00     0.301 C 
HETATM   23  C9  UNL     1      -6.549  -1.016  -0.412  1.00  0.00     0.033 C 
HETATM   24  C10 UNL     1      -6.271   0.127   0.514  1.00  0.00     0.050 C 
HETATM   25  C12 UNL     1      -4.089   1.111   1.022  1.00  0.00    -0.069 C 
HETATM   26  C13 UNL     1      -3.327   1.309   1.824  1.00  0.00    -0.083 C 
HETATM   27  C14 UNL     1      -2.348   1.538   2.829  1.00  0.00     0.243 C 
ENDBRANCH   1  15
TORSDOF 5
