REMARK  1 active torsions:
REMARK  status: ('A' for Active; 'I' for Inactive)
REMARK    1  A    between atoms: C3_4  and  N1_5 
ROOT
HETATM    1  C1  UNL     1      -0.493   3.910  -0.513  1.00  0.00     0.064 C 
HETATM    2  C2  UNL     1      -0.432   2.728  -1.428  1.00  0.00     0.232 A 
HETATM    3  O1  UNL     1       0.842   2.133  -1.266  1.00  0.00    -0.308 OA
HETATM    4  C3  UNL     1       0.602   0.833  -0.847  1.00  0.00     0.175 A 
HETATM    5  C12 UNL     1      -0.662   0.527  -0.643  1.00  0.00     0.100 A 
HETATM    6  C13 UNL     1      -1.514  -0.473  -0.260  1.00  0.00     0.012 A 
HETATM    7  C14 UNL     1      -1.244  -1.658   0.225  1.00  0.00    -0.040 C 
HETATM    8  C15 UNL     1      -0.027  -2.408   0.571  1.00  0.00     0.158 C 
HETATM    9  N2  UNL     1      -0.371  -2.903   1.934  1.00  0.00    -0.357 N 
HETATM   10  C16 UNL     1      -1.784  -2.977   2.042  1.00  0.00     0.221 C 
HETATM   11  O2  UNL     1      -2.376  -3.093   3.148  1.00  0.00    -0.273 OA
HETATM   12  C17 UNL     1      -2.008  -2.871   0.579  1.00  0.00     0.139 C 
HETATM   13  C18 UNL     1      -2.749   0.106  -0.426  1.00  0.00     0.004 A 
HETATM   14  C19 UNL     1      -4.061  -0.253  -0.246  1.00  0.00     0.014 A 
HETATM   15  C20 UNL     1      -5.183   0.506  -0.470  1.00  0.00     0.001 A 
HETATM   16  C21 UNL     1      -4.986   1.788  -0.933  1.00  0.00     0.002 A 
HETATM   17  C22 UNL     1      -3.716   2.228  -1.139  1.00  0.00     0.030 A 
HETATM   18  C23 UNL     1      -2.609   1.406  -0.892  1.00  0.00     0.048 A 
HETATM   19  N3  UNL     1      -1.301   1.646  -1.018  1.00  0.00    -0.314 N 
HETATM   20  H15 UNL     1       0.410  -3.132   2.641  1.00  0.00     0.162 HD
ENDROOT
BRANCH   4  21
HETATM   21  N1  UNL     1       1.806   0.110  -0.734  1.00  0.00    -0.325 N 
HETATM   22  C4  UNL     1       2.202  -0.903  -1.726  1.00  0.00     0.136 C 
HETATM   23  C5  UNL     1       3.263  -1.698  -1.040  1.00  0.00     0.061 C 
HETATM   24  C6  UNL     1       3.662  -0.840   0.101  1.00  0.00    -0.030 A 
HETATM   25  C7  UNL     1       4.744  -0.979   0.962  1.00  0.00     0.009 A 
HETATM   26  C11 UNL     1       2.803   0.237   0.290  1.00  0.00     0.042 A 
HETATM   27  C8  UNL     1       4.942  -0.054   1.980  1.00  0.00     0.001 A 
HETATM   28  C9  UNL     1       4.088   1.013   2.164  1.00  0.00     0.002 A 
HETATM   29  C10 UNL     1       3.011   1.148   1.304  1.00  0.00     0.030 A 
ENDBRANCH   4  21
TORSDOF 1
