REMARK  3 active torsions:
REMARK  status: ('A' for Active; 'I' for Inactive)
REMARK    1  A    between atoms: N1_2  and  C2_3 
REMARK    2  A    between atoms: C16_19  and  N4_21 
REMARK    3  A    between atoms: C19_24  and  O1_25 
ROOT
HETATM    1  C2  UNL     1      -1.778  -1.082  -0.433  1.00  0.00     0.250 C 
HETATM    2  C3  UNL     1      -1.297  -1.922   0.679  1.00  0.00     0.058 C 
HETATM    3  C4  UNL     1       0.087  -2.379   0.803  1.00  0.00     0.125 C 
HETATM    4  N2  UNL     1       1.128  -1.366   1.043  1.00  0.00    -0.376 N 
HETATM    5  C5  UNL     1       2.525  -1.300   1.499  1.00  0.00     0.164 C 
HETATM    6  C6  UNL     1       3.171  -0.409   0.457  1.00  0.00    -0.009 C 
HETATM    7  C7  UNL     1       4.293  -0.429  -0.235  1.00  0.00     0.017 A 
HETATM    8  C8  UNL     1       5.585  -1.152  -0.534  1.00  0.00     0.121 A 
HETATM    9  C9  UNL     1       6.513  -0.525  -1.466  1.00  0.00     0.122 A 
HETATM   10  N3  UNL     1       5.199   0.053  -1.144  1.00  0.00    -0.272 NA
HETATM   11  C10 UNL     1       2.132   0.642   0.390  1.00  0.00    -0.000 A 
HETATM   12  C11 UNL     1       2.156   1.985  -0.007  1.00  0.00     0.015 A 
HETATM   13  C12 UNL     1       0.977   2.736  -0.048  1.00  0.00     0.010 A 
HETATM   14  C13 UNL     1      -0.247   2.197   0.298  1.00  0.00    -0.032 A 
HETATM   15  C14 UNL     1       0.052   0.947   0.626  1.00  0.00     0.039 A 
HETATM   16  C15 UNL     1       0.964  -0.018   0.764  1.00  0.00     0.042 A 
HETATM   17  C16 UNL     1      -1.666   2.352   0.355  1.00  0.00     0.051 C 
HETATM   18  C17 UNL     1      -2.111   2.570   1.798  1.00  0.00     0.038 C 
HETATM   19  C18 UNL     1      -2.565   1.376  -0.351  1.00  0.00     0.065 C 
HETATM   20  C19 UNL     1      -2.714  -0.004  -0.064  1.00  0.00     0.153 C 
ENDROOT
BRANCH   1  21
HETATM   21  N1  UNL     1      -2.055  -1.735  -1.714  1.00  0.00     0.086 NA
HETATM   22  C1  UNL     1      -3.117  -2.717  -1.573  1.00  0.00     0.307 C 
HETATM   23  H4  UNL     1      -1.180  -2.167  -2.088  1.00  0.00     0.315 HD
ENDBRANCH   1  21
BRANCH  17  24
HETATM   24  N4  UNL     1      -1.991   3.644  -0.297  1.00  0.00    -0.224 NA
HETATM   25 CL1  UNL     1      -1.388   3.475  -1.941  1.00  0.00    -0.023 Cl
HETATM   26  H21 UNL     1      -3.042   3.773  -0.344  1.00  0.00     0.142 HD
ENDBRANCH  17  24
BRANCH  20  27
HETATM   27  O1  UNL     1      -4.048  -0.469  -0.236  1.00  0.00    -0.393 OA
HETATM   28  H25 UNL     1      -4.581   0.267  -0.600  1.00  0.00     0.210 HD
ENDBRANCH  20  27
TORSDOF 3
