REMARK  9 active torsions:
REMARK  status: ('A' for Active; 'I' for Inactive)
REMARK    1  A    between atoms: C2_2  and  C3_3 
REMARK    2  A    between atoms: C3_3  and  N1_4 
REMARK    3  A    between atoms: N1_4  and  C4_5 
REMARK    4  A    between atoms: C4_5  and  C5_6 
REMARK    5  A    between atoms: C6_7  and  C7_8 
REMARK    6  A    between atoms: C7_8  and  C8_9 
REMARK    7  A    between atoms: C10_12  and  N2_13 
REMARK    8  A    between atoms: N2_13  and  C11_14 
REMARK    9  A    between atoms: C14_17  and  C15_18 
ROOT
HETATM    1  C8  UNL     1       0.145   0.306   1.329  1.00  0.00     0.129 A 
HETATM    2  S1  UNL     1      -1.592   0.584   1.418  1.00  0.00    -0.110 SA
HETATM    3  C9  UNL     1      -0.972   1.491   0.014  1.00  0.00     0.085 A 
HETATM    4  C10 UNL     1      -1.680   2.308  -0.903  1.00  0.00     0.150 A 
HETATM    5  N3  UNL     1      -0.811   2.825  -1.824  1.00  0.00    -0.211 NA
HETATM    6  C18 UNL     1       0.505   2.579  -1.834  1.00  0.00     0.301 A 
HETATM    7  N4  UNL     1       0.454   1.846  -0.835  1.00  0.00    -0.401 NA
HETATM    8  C19 UNL     1       0.380   1.131   0.144  1.00  0.00     0.121 A 
ENDROOT
BRANCH   4   9
HETATM    9  N2  UNL     1      -3.102   2.619  -0.972  1.00  0.00    -0.340 N 
HETATM   10  H14 UNL     1      -3.349   3.180  -1.780  1.00  0.00     0.167 HD
BRANCH   9  11
HETATM   11  C11 UNL     1      -4.000   2.169  -0.006  1.00  0.00     0.033 A 
HETATM   12  C12 UNL     1      -5.015   1.353  -0.560  1.00  0.00     0.030 A 
HETATM   13  C13 UNL     1      -6.005   0.809   0.260  1.00  0.00     0.012 A 
HETATM   14  C14 UNL     1      -5.918   1.125   1.623  1.00  0.00    -0.030 A 
HETATM   15  C16 UNL     1      -4.964   1.907   2.221  1.00  0.00     0.012 A 
HETATM   16  C17 UNL     1      -4.058   2.378   1.328  1.00  0.00     0.030 A 
BRANCH  14  17
HETATM   17  C15 UNL     1      -6.984   0.492   2.469  1.00  0.00     0.261 C 
HETATM   18  F1  UNL     1      -8.105   1.271   2.430  1.00  0.00    -0.251 F 
ENDBRANCH  14  17
ENDBRANCH   9  11
ENDBRANCH   4   9
BRANCH   1  19
HETATM   19  C7  UNL     1       0.581  -1.145   1.109  1.00  0.00     0.116 C 
BRANCH  19  20
HETATM   20  C6  UNL     1       2.058  -1.181   1.074  1.00  0.00    -0.103 C 
HETATM   21  C5  UNL     1       3.285  -1.211   1.066  1.00  0.00    -0.087 C 
BRANCH  21  22
HETATM   22  C4  UNL     1       4.745  -1.233   1.078  1.00  0.00     0.208 C 
BRANCH  22  23
HETATM   23  N1  UNL     1       5.342  -2.268   0.302  1.00  0.00    -0.411 N 
HETATM   24  H8  UNL     1       5.310  -3.217   0.684  1.00  0.00     0.154 HD
BRANCH  23  25
HETATM   25  C3  UNL     1       5.136  -2.122  -1.103  1.00  0.00     0.114 C 
BRANCH  25  26
HETATM   26  C2  UNL     1       5.847  -3.245  -1.850  1.00  0.00     0.015 C 
HETATM   27  C1  UNL     1       5.571  -3.014  -3.331  1.00  0.00     0.006 C 
ENDBRANCH  25  26
ENDBRANCH  23  25
ENDBRANCH  22  23
ENDBRANCH  21  22
ENDBRANCH  19  20
ENDBRANCH   1  19
TORSDOF 9
