REMARK  4 active torsions:
REMARK  status: ('A' for Active; 'I' for Inactive)
REMARK    1  A    between atoms: C2_2  and  N1_3 
REMARK    2  A    between atoms: C7_10  and  N4_11 
REMARK    3  A    between atoms: N4_11  and  C8_12 
REMARK    4  A    between atoms: C8_12  and  C9_13 
ROOT
HETATM    1  N1  UNL     1      -2.264  -0.044  -0.742  1.00  0.00    -0.341 N 
HETATM    2  C3  UNL     1      -3.593  -0.318  -0.917  1.00  0.00     0.053 A 
HETATM    3  C4  UNL     1      -3.954  -1.537  -0.399  1.00  0.00     0.061 A 
HETATM    4  C5  UNL     1      -2.769  -2.015   0.115  1.00  0.00     0.104 A 
HETATM    5  N2  UNL     1      -2.475  -3.177   0.759  1.00  0.00    -0.239 NA
HETATM    6  C6  UNL     1      -1.231  -3.446   1.185  1.00  0.00     0.236 A 
HETATM    7  N3  UNL     1      -0.305  -2.535   0.955  1.00  0.00    -0.222 NA
HETATM    8  C7  UNL     1      -0.469  -1.355   0.333  1.00  0.00     0.154 A 
HETATM    9  C15 UNL     1      -1.755  -1.106  -0.096  1.00  0.00     0.111 A 
HETATM   10  C16 UNL     1      -5.230  -1.472  -0.729  1.00  0.00     0.133 A 
HETATM   11  F1  UNL     1      -6.338  -2.234  -0.611  1.00  0.00    -0.205 F 
HETATM   12  C17 UNL     1      -4.878  -0.174  -1.287  1.00  0.00     0.074 A 
ENDROOT
BRANCH   8  13
HETATM   13  N4  UNL     1       0.626  -0.444   0.194  1.00  0.00    -0.369 N 
HETATM   14  H7  UNL     1       0.727   0.487  -0.178  1.00  0.00     0.161 HD
BRANCH  13  15
HETATM   15  C8  UNL     1       1.898  -0.909   0.702  1.00  0.00     0.160 C 
BRANCH  15  16
HETATM   16  C9  UNL     1       2.961   0.095   0.512  1.00  0.00    -0.041 A 
HETATM   17  C10 UNL     1       3.187   1.032   1.510  1.00  0.00     0.009 A 
HETATM   18  C11 UNL     1       4.180   2.006   1.386  1.00  0.00     0.001 A 
HETATM   19  C12 UNL     1       4.938   2.006   0.223  1.00  0.00     0.000 A 
HETATM   20  C13 UNL     1       4.716   1.073  -0.777  1.00  0.00     0.001 A 
HETATM   21  C14 UNL     1       3.721   0.109  -0.635  1.00  0.00     0.009 A 
ENDBRANCH  15  16
ENDBRANCH  13  15
ENDBRANCH   8  13
BRANCH   1  22
HETATM   22  C2  UNL     1      -1.638   1.173  -1.203  1.00  0.00     0.125 C 
HETATM   23  C1  UNL     1      -1.570   2.264  -0.176  1.00  0.00     0.027 C 
ENDBRANCH   1  22
TORSDOF 4
