REMARK  5 active torsions:
REMARK  status: ('A' for Active; 'I' for Inactive)
REMARK    1  A    between atoms: C5_6  and  C6_7 
REMARK    2  A    between atoms: C6_7  and  S1_8 
REMARK    3  A    between atoms: S1_8  and  C7_9 
REMARK    4  A    between atoms: C15_18  and  C16_19 
REMARK    5  A    between atoms: C17_20  and  C18_21 
ROOT
HETATM    1  C7  UNL     1       3.842  -0.329  -0.534  1.00  0.00     0.009 A 
HETATM    2  C8  UNL     1       3.543  -1.133  -1.539  1.00  0.00     0.019 A 
HETATM    3  C9  UNL     1       2.123  -1.079  -1.869  1.00  0.00     0.029 A 
HETATM    4  C10 UNL     1       1.555  -0.201  -1.019  1.00  0.00     0.041 A 
HETATM    5  N1  UNL     1       0.151   0.139  -1.018  1.00  0.00    -0.341 N 
HETATM    6  C11 UNL     1      -0.414   1.359  -0.550  1.00  0.00     0.146 C 
HETATM    7  C12 UNL     1      -1.833   1.394  -0.415  1.00  0.00     0.052 A 
HETATM    8  C13 UNL     1      -2.872   2.347  -0.541  1.00  0.00     0.025 A 
HETATM    9  C14 UNL     1      -4.157   1.953  -0.312  1.00  0.00     0.029 A 
HETATM   10  C15 UNL     1      -4.387   0.637   0.034  1.00  0.00     0.059 A 
HETATM   11  S2  UNL     1      -2.747  -0.165   0.061  1.00  0.00    -0.077 SA
HETATM   12  N3  UNL     1       0.256   2.446  -0.239  1.00  0.00    -0.223 NA
HETATM   13  C22 UNL     1       1.694   2.617  -0.309  1.00  0.00     0.230 C 
HETATM   14  N4  UNL     1       2.643   1.762  -0.255  1.00  0.00    -0.266 NA
HETATM   15  C23 UNL     1       2.595   0.339  -0.106  1.00  0.00     0.198 A 
HETATM   16  H8  UNL     1      -0.464  -0.589  -1.394  1.00  0.00     0.167 HD
ENDROOT
BRANCH  10  17
HETATM   17  C16 UNL     1      -5.653  -0.002   0.321  1.00  0.00    -0.057 C 
HETATM   18  C17 UNL     1      -6.691  -0.548   0.567  1.00  0.00    -0.065 C 
BRANCH  18  19
HETATM   19  C18 UNL     1      -7.971  -1.202   0.862  1.00  0.00     0.299 C 
HETATM   20  C19 UNL     1      -8.797  -0.298   1.728  1.00  0.00     0.050 C 
HETATM   21  C20 UNL     1     -10.030  -0.042   0.875  1.00  0.00     0.033 C 
HETATM   22  C21 UNL     1     -10.057  -1.261  -0.005  1.00  0.00     0.271 C 
HETATM   23  N2  UNL     1      -8.661  -1.386  -0.387  1.00  0.00     0.099 N 
HETATM   24  H18 UNL     1      -8.426  -2.320  -0.785  1.00  0.00     0.317 HD
ENDBRANCH  18  19
ENDBRANCH  10  17
BRANCH   1  25
HETATM   25  S1  UNL     1       5.423  -0.030   0.244  1.00  0.00    -0.127 SA
BRANCH  25  26
HETATM   26  C6  UNL     1       6.723  -1.008  -0.524  1.00  0.00     0.117 C 
BRANCH  26  27
HETATM   27  C5  UNL     1       7.988  -0.715   0.159  1.00  0.00    -0.046 A 
HETATM   28  C4  UNL     1       8.526  -1.351   1.254  1.00  0.00     0.008 A 
HETATM   29  C3  UNL     1       9.748  -0.920   1.756  1.00  0.00     0.004 A 
HETATM   30  C2  UNL     1      10.433   0.148   1.165  1.00  0.00     0.042 A 
HETATM   31  C1  UNL     1       9.894   0.789   0.064  1.00  0.00     0.117 A 
HETATM   32  F1  UNL     1      10.581   1.822  -0.489  1.00  0.00    -0.206 F 
HETATM   33  C24 UNL     1       8.676   0.351  -0.429  1.00  0.00     0.050 A 
ENDBRANCH  26  27
ENDBRANCH  25  26
ENDBRANCH   1  25
TORSDOF 5
