REMARK  7 active torsions:
REMARK  status: ('A' for Active; 'I' for Inactive)
REMARK    1  A    between atoms: C3_4  and  C4_5 
REMARK    2  A    between atoms: C8_11  and  N4_12 
REMARK    3  A    between atoms: N4_12  and  C9_13 
REMARK    4  A    between atoms: C12_16  and  O1_17 
REMARK    5  A    between atoms: O1_17  and  C13_18 
REMARK    6  A    between atoms: C13_18  and  C14_19 
REMARK    7  A    between atoms: C15_21  and  C16_22 
ROOT
HETATM    1  N1  UNL     1      10.093  -1.009   0.286  1.00  0.00    -0.182 NA
HETATM    2  C1  UNL     1       9.228  -0.738   0.327  1.00  0.00     0.152 C 
HETATM    3  C2  UNL     1       7.792  -0.257   0.393  1.00  0.00     0.015 C 
HETATM    4  C3  UNL     1       6.735   0.114   0.451  1.00  0.00    -0.067 C 
ENDROOT
BRANCH   4   5
HETATM    5  C4  UNL     1       5.342   0.632   0.529  1.00  0.00     0.107 A 
HETATM    6  C5  UNL     1       5.139   2.027  -0.211  1.00  0.00     0.115 A 
HETATM    7  C6  UNL     1       3.828   2.059  -0.107  1.00  0.00     0.142 A 
HETATM    8  S1  UNL     1       4.283   1.688   0.058  1.00  0.00    -0.155 SA
HETATM    9  N2  UNL     1       3.035   2.786  -1.199  1.00  0.00    -0.255 NA
HETATM   10  C19 UNL     1       2.642   1.792   0.150  1.00  0.00     0.052 A 
HETATM   11  C7  UNL     1       1.728   2.754  -1.297  1.00  0.00     0.231 A 
HETATM   12  N3  UNL     1       0.878   2.130  -0.510  1.00  0.00    -0.224 NA
HETATM   13  C8  UNL     1       1.425   1.410   0.568  1.00  0.00     0.144 A 
BRANCH  13  14
HETATM   14  N4  UNL     1       1.152   0.568   1.658  1.00  0.00    -0.340 N 
HETATM   15  H3  UNL     1       1.742   0.327   2.486  1.00  0.00     0.167 HD
BRANCH  14  16
HETATM   16  C9  UNL     1      -0.183  -0.010   1.517  1.00  0.00     0.033 A 
HETATM   17  C10 UNL     1      -0.199  -1.244   2.097  1.00  0.00     0.032 A 
HETATM   18  C11 UNL     1      -1.440  -1.940   2.042  1.00  0.00     0.039 A 
HETATM   19  C12 UNL     1      -2.547  -1.391   1.442  1.00  0.00     0.069 A 
HETATM   20  C17 UNL     1      -2.397  -0.122   0.881  1.00  0.00     0.039 A 
HETATM   21  C18 UNL     1      -1.236   0.614   0.890  1.00  0.00     0.032 A 
BRANCH  19  22
HETATM   22  O1  UNL     1      -3.706  -2.110   1.436  1.00  0.00    -0.349 OA
BRANCH  22  23
HETATM   23  C13 UNL     1      -4.840  -1.464   0.778  1.00  0.00     0.203 C 
BRANCH  23  24
HETATM   24  C14 UNL     1      -4.499  -1.410  -0.672  1.00  0.00     0.086 A 
HETATM   25 CL1  UNL     1      -6.071  -2.165  -1.152  1.00  0.00    -0.198 Cl
HETATM   26  C15 UNL     1      -4.692  -1.637  -1.915  1.00  0.00     0.122 A 
BRANCH  26  27
HETATM   27  C16 UNL     1      -5.144  -2.016  -3.353  1.00  0.00     0.243 C 
HETATM   28  F1  UNL     1      -5.277  -0.866  -4.072  1.00  0.00    -0.254 F 
ENDBRANCH  26  27
ENDBRANCH  23  24
ENDBRANCH  22  23
ENDBRANCH  19  22
ENDBRANCH  14  16
ENDBRANCH  13  14
ENDBRANCH   4   5
TORSDOF 7
