REMARK  11 active torsions:
REMARK  status: ('A' for Active; 'I' for Inactive)
REMARK    1  A    between atoms: C2_2  and  C3_3 
REMARK    2  A    between atoms: C3_3  and  C4_4 
REMARK    3  A    between atoms: C5_5  and  C6_6 
REMARK    4  A    between atoms: C6_6  and  S1_7 
REMARK    5  A    between atoms: S1_7  and  C7_8 
REMARK    6  A    between atoms: C8_9  and  C9_10 
REMARK    7  A    between atoms: C9_10  and  C10_11 
REMARK    8  A    between atoms: C11_12  and  C12_14 
REMARK    9  A    between atoms: C12_14  and  O1_15 
REMARK   10  A    between atoms: C12_14  and  C13_16 
REMARK   11  A    between atoms: C13_16  and  C14_17 
ROOT
HETATM    1  C10 UNL     1      -1.205   0.281   0.666  1.00  0.00    -0.001 C 
HETATM    2  C11 UNL     1      -2.002  -0.636   0.148  1.00  0.00     0.037 C 
HETATM    3 CL1  UNL     1      -1.458  -2.295   0.204  1.00  0.00    -0.086 Cl
ENDROOT
BRANCH   2   4
HETATM    4  C12 UNL     1      -3.279  -0.168  -0.431  1.00  0.00     0.166 C 
BRANCH   4   5
HETATM    5  O1  UNL     1      -3.440   1.212  -0.328  1.00  0.00    -0.390 OA
HETATM    6  H16 UNL     1      -3.557   1.406   0.651  1.00  0.00     0.210 HD
ENDBRANCH   4   5
BRANCH   4   7
HETATM    7  C13 UNL     1      -4.415  -0.842   0.327  1.00  0.00     0.076 C 
BRANCH   7   8
HETATM    8  C14 UNL     1      -5.737  -0.411  -0.209  1.00  0.00    -0.052 A 
HETATM    9  C15 UNL     1      -6.397  -1.057  -1.228  1.00  0.00     0.007 A 
HETATM   10  C16 UNL     1      -7.635  -0.621  -1.702  1.00  0.00     0.003 A 
HETATM   11  C17 UNL     1      -8.191   0.491  -1.116  1.00  0.00     0.042 A 
HETATM   12  C18 UNL     1      -7.537   1.145  -0.094  1.00  0.00     0.116 A 
HETATM   13  F1  UNL     1      -8.186   2.235   0.410  1.00  0.00    -0.206 F 
HETATM   14  C19 UNL     1      -6.325   0.707   0.360  1.00  0.00     0.049 A 
ENDBRANCH   7   8
ENDBRANCH   4   7
ENDBRANCH   2   4
BRANCH   1  15
HETATM   15  C9  UNL     1       0.114   0.186   1.314  1.00  0.00     0.056 C 
BRANCH  15  16
HETATM   16  C8  UNL     1       1.153   0.985   0.566  1.00  0.00    -0.016 C 
HETATM   17  C7  UNL     1       2.263   0.474   0.028  1.00  0.00     0.042 C 
BRANCH  17  18
HETATM   18  S1  UNL     1       2.337  -1.292   0.323  1.00  0.00    -0.130 SA
BRANCH  18  19
HETATM   19  C6  UNL     1       3.506  -1.988  -0.878  1.00  0.00     0.172 C 
BRANCH  19  20
HETATM   20  C5  UNL     1       4.864  -1.506  -0.618  1.00  0.00    -0.096 C 
HETATM   21  C4  UNL     1       5.989  -1.120  -0.403  1.00  0.00    -0.106 C 
BRANCH  21  22
HETATM   22  C3  UNL     1       7.361  -0.666  -0.148  1.00  0.00     0.093 C 
BRANCH  22  23
HETATM   23  C2  UNL     1       7.392   0.674   0.552  1.00  0.00     0.007 C 
HETATM   24  C1  UNL     1       8.822   1.097   0.792  1.00  0.00     0.006 C 
ENDBRANCH  22  23
ENDBRANCH  21  22
ENDBRANCH  19  20
ENDBRANCH  18  19
ENDBRANCH  17  18
ENDBRANCH  15  16
ENDBRANCH   1  15
TORSDOF 11
