REMARK  6 active torsions:
REMARK  status: ('A' for Active; 'I' for Inactive)
REMARK    1  A    between atoms: O1_2  and  C2_3 
REMARK       I    between atoms: C2_3  and  N1_5 
REMARK    2  A    between atoms: C6_9  and  C7_10 
REMARK    3  A    between atoms: C8_11  and  C9_12 
REMARK    4  A    between atoms: C13_18  and  N4_19 
REMARK    5  A    between atoms: N4_19  and  C14_20 
REMARK    6  A    between atoms: C14_20  and  C15_21 
ROOT
HETATM    1  C9  UNL     1       0.220   0.143  -0.217  1.00  0.00     0.061 A 
HETATM    2  C10 UNL     1       0.703   1.368  -0.542  1.00  0.00     0.061 A 
HETATM    3  C11 UNL     1       2.026   1.525  -0.845  1.00  0.00     0.081 A 
HETATM    4  N2  UNL     1       2.681   2.648  -1.187  1.00  0.00    -0.241 NA
HETATM    5  C12 UNL     1       3.977   2.640  -1.454  1.00  0.00     0.236 A 
HETATM    6  N3  UNL     1       4.796   1.555  -1.424  1.00  0.00    -0.223 NA
HETATM    7  C13 UNL     1       4.202   0.400  -1.089  1.00  0.00     0.144 A 
HETATM    8  C17 UNL     1       2.804   0.408  -0.801  1.00  0.00     0.080 A 
HETATM    9  S1  UNL     1       1.724  -0.940  -0.329  1.00  0.00    -0.075 SA
ENDROOT
BRANCH   1  10
HETATM   10  C8  UNL     1      -1.058  -0.328   0.135  1.00  0.00    -0.057 C 
HETATM   11  C7  UNL     1      -2.154  -0.710   0.436  1.00  0.00    -0.075 C 
BRANCH  11  12
HETATM   12  C6  UNL     1      -3.484  -1.182   0.827  1.00  0.00     0.169 C 
HETATM   13  N1  UNL     1      -4.386  -0.053   0.671  1.00  0.00    -0.313 N 
HETATM   14  C2  UNL     1      -5.281   0.044  -0.437  1.00  0.00     0.363 C 
HETATM   15  C3  UNL     1      -4.130   0.819   1.825  1.00  0.00     0.129 C 
HETATM   16  O2  UNL     1      -5.392  -0.796  -1.369  1.00  0.00    -0.238 OA
HETATM   17  C4  UNL     1      -4.195  -0.189   2.935  1.00  0.00     0.023 C 
HETATM   18  C5  UNL     1      -3.508  -1.393   2.320  1.00  0.00     0.040 C 
BRANCH  14  19
HETATM   19  O1  UNL     1      -6.152   1.079  -0.640  1.00  0.00    -0.309 OA
HETATM   20  C1  UNL     1      -6.988   1.052  -1.784  1.00  0.00     0.215 C 
ENDBRANCH  14  19
ENDBRANCH  11  12
ENDBRANCH   1  10
BRANCH   7  21
HETATM   21  N4  UNL     1       4.871  -0.850  -0.998  1.00  0.00    -0.370 N 
HETATM   22  H13 UNL     1       4.360  -1.717  -0.733  1.00  0.00     0.161 HD
BRANCH  21  23
HETATM   23  C14 UNL     1       6.288  -0.823  -1.296  1.00  0.00     0.149 C 
BRANCH  23  24
HETATM   24  C15 UNL     1       7.049   0.078  -0.380  1.00  0.00     0.004 C 
HETATM   25  C16 UNL     1       8.048  -0.247   0.445  1.00  0.00     0.082 C 
HETATM   26 CL1  UNL     1       9.000   0.751   1.557  1.00  0.00    -0.097 Cl
ENDBRANCH  23  24
ENDBRANCH  21  23
ENDBRANCH   7  21
TORSDOF 6
