REMARK  0 active torsions:
REMARK  status: ('A' for Active; 'I' for Inactive)
REMARK       I    between atoms: C2_2  and  N1_4 
ROOT
HETATM    1  C1  UNL     1      -4.742   1.820  -1.341  1.00  0.00     0.117 C 
HETATM    2  C2  UNL     1      -4.209   0.500  -0.926  1.00  0.00     0.216 C 
HETATM    3  O1  UNL     1      -4.539  -0.310  -1.836  1.00  0.00    -0.274 OA
HETATM    4  N1  UNL     1      -3.472   0.148   0.239  1.00  0.00    -0.338 N 
HETATM    5  C3  UNL     1      -3.016   0.996   1.387  1.00  0.00     0.212 C 
HETATM    6  C4  UNL     1      -1.671   1.335   1.123  1.00  0.00    -0.116 C 
HETATM    7  C5  UNL     1      -0.538   1.599   0.901  1.00  0.00     0.058 A 
HETATM    8  C6  UNL     1       0.809   1.887   0.643  1.00  0.00     0.024 A 
HETATM    9  C7  UNL     1       1.346   3.038   0.799  1.00  0.00     0.023 C 
HETATM   10  C8  UNL     1       2.746   2.916   0.439  1.00  0.00    -0.074 C 
HETATM   11  C9  UNL     1       3.552   4.135   0.512  1.00  0.00     0.044 C 
HETATM   12  C10 UNL     1       3.686   2.097   0.039  1.00  0.00     0.050 C 
HETATM   13  C11 UNL     1       4.429   0.934  -0.387  1.00  0.00     0.007 C 
HETATM   14  C12 UNL     1       4.498  -0.379  -0.668  1.00  0.00     0.132 C 
HETATM   15  O2  UNL     1       3.166  -0.438  -0.329  1.00  0.00    -0.350 OA
HETATM   16  C13 UNL     1       2.252  -1.285  -0.929  1.00  0.00     0.205 C 
HETATM   17  C14 UNL     1       2.613  -2.753  -0.814  1.00  0.00     0.012 C 
HETATM   18  C15 UNL     1       1.614  -3.643  -0.628  1.00  0.00     0.030 C 
HETATM   19  C16 UNL     1       0.516  -3.466   0.294  1.00  0.00     0.058 C 
HETATM   20  C17 UNL     1       0.893  -2.249   0.778  1.00  0.00     0.062 C 
HETATM   21  C18 UNL     1       0.904  -1.105  -0.261  1.00  0.00     0.202 C 
HETATM   22  F1  UNL     1      -0.078  -1.572  -1.228  1.00  0.00    -0.223 F 
HETATM   23  S1  UNL     1       0.408   0.360   0.343  1.00  0.00    -0.094 SA
HETATM   24  N2  UNL     1      -0.609  -3.465   1.123  1.00  0.00    -0.242 NA
HETATM   25  C19 UNL     1      -1.823  -3.353   0.670  1.00  0.00     0.232 C 
HETATM   26  N3  UNL     1      -3.184  -3.296   1.051  1.00  0.00    -0.257 NA
HETATM   27  C20 UNL     1      -3.876  -2.169   0.882  1.00  0.00     0.110 C 
HETATM   28  C21 UNL     1      -2.972  -1.185   0.290  1.00  0.00     0.173 C 
ENDROOT
TORSDOF 0
