REMARK  6 active torsions:
REMARK  status: ('A' for Active; 'I' for Inactive)
REMARK    1  A    between atoms: C5_6  and  C6_7 
REMARK    2  A    between atoms: C6_7  and  O1_8 
REMARK    3  A    between atoms: O1_8  and  C7_9 
REMARK    4  A    between atoms: C10_12  and  N1_13 
REMARK    5  A    between atoms: N1_13  and  C11_14 
REMARK    6  A    between atoms: C13_16  and  C17_22 
ROOT
HETATM    1  C7  UNL     1      -1.264   0.125   0.526  1.00  0.00     0.091 A 
HETATM    2  C8  UNL     1      -0.681   0.250  -0.715  1.00  0.00     0.041 A 
HETATM    3  C9  UNL     1       0.654   0.589  -0.769  1.00  0.00     0.032 A 
HETATM    4  C10 UNL     1       1.458   0.815   0.324  1.00  0.00     0.030 A 
HETATM    5  C18 UNL     1       0.846   0.683   1.550  1.00  0.00     0.056 A 
HETATM    6  C19 UNL     1      -0.488   0.345   1.653  1.00  0.00     0.069 A 
HETATM    7 CL1  UNL     1      -1.180   0.200   3.257  1.00  0.00    -0.081 Cl
ENDROOT
BRANCH   4   8
HETATM    8  N1  UNL     1       2.828   1.163   0.252  1.00  0.00    -0.383 N 
HETATM    9  H8  UNL     1       3.372   1.318   1.115  1.00  0.00     0.160 HD
BRANCH   8  10
HETATM   10  C11 UNL     1       3.296   1.253  -1.255  1.00  0.00     0.116 A 
HETATM   11  C12 UNL     1       4.331   1.527  -1.333  1.00  0.00     0.038 A 
HETATM   12  C13 UNL     1       4.996   1.686  -1.372  1.00  0.00     0.038 A 
HETATM   13  C14 UNL     1       6.064   1.916  -1.416  1.00  0.00     0.095 A 
HETATM   14  C17 UNL     1       5.025   0.231  -0.481  1.00  0.00     0.083 A 
HETATM   15  S1  UNL     1       7.315   0.637  -1.992  1.00  0.00    -0.132 SA
HETATM   16  C15 UNL     1       7.478  -0.411  -0.589  1.00  0.00     0.064 C 
HETATM   17  C16 UNL     1       6.904  -0.981   0.418  1.00  0.00     0.118 C 
HETATM   18  N2  UNL     1       5.559  -0.569   0.360  1.00  0.00    -0.288 NA
ENDBRANCH   8  10
ENDBRANCH   4   8
BRANCH   1  19
HETATM   19  O1  UNL     1      -2.589  -0.208   0.734  1.00  0.00    -0.345 OA
BRANCH  19  20
HETATM   20  C6  UNL     1      -3.389  -0.435  -0.410  1.00  0.00     0.214 C 
BRANCH  20  21
HETATM   21  C5  UNL     1      -4.800  -0.787  -0.037  1.00  0.00    -0.031 A 
HETATM   22  C4  UNL     1      -5.257  -2.067   0.179  1.00  0.00     0.009 A 
HETATM   23  C3  UNL     1      -6.586  -2.252   0.518  1.00  0.00     0.004 A 
HETATM   24  C2  UNL     1      -7.484  -1.192   0.650  1.00  0.00     0.042 A 
HETATM   25  C1  UNL     1      -7.026   0.100   0.432  1.00  0.00     0.117 A 
HETATM   26  F1  UNL     1      -7.844   1.188   0.542  1.00  0.00    -0.206 F 
HETATM   27  C20 UNL     1      -5.696   0.278   0.094  1.00  0.00     0.051 A 
ENDBRANCH  20  21
ENDBRANCH  19  20
ENDBRANCH   1  19
TORSDOF 6
