REMARK  0 active torsions:
REMARK  status: ('A' for Active; 'I' for Inactive)
ROOT
HETATM    1  F1  UNL     1       5.352   2.308   0.692  1.00  0.00    -0.206 F 
HETATM    2  C1  UNL     1       4.434   1.422   0.251  1.00  0.00     0.117 A 
HETATM    3  C2  UNL     1       4.853   0.261  -0.365  1.00  0.00     0.045 A 
HETATM    4  C3  UNL     1       3.912  -0.638  -0.813  1.00  0.00     0.041 A 
HETATM    5  C4  UNL     1       2.544  -0.457  -0.686  1.00  0.00     0.086 A 
HETATM    6  C5  UNL     1       2.136   0.705  -0.070  1.00  0.00    -0.003 A 
HETATM    7  C6  UNL     1       3.077   1.627   0.390  1.00  0.00     0.054 A 
HETATM    8  C7  UNL     1       0.832   1.240   0.238  1.00  0.00     0.170 C 
HETATM    9  N1  UNL     1      -0.324   0.471  -0.080  1.00  0.00    -0.346 N 
HETATM   10  C8  UNL     1      -1.153   1.667  -0.094  1.00  0.00     0.088 C 
HETATM   11  C9  UNL     1      -2.487   1.854  -0.136  1.00  0.00    -0.008 C 
HETATM   12  C10 UNL     1      -3.696   0.973  -0.185  1.00  0.00     0.048 C 
HETATM   13  C11 UNL     1      -3.720  -0.104   0.811  1.00  0.00     0.125 C 
HETATM   14  N2  UNL     1      -3.103  -1.342   0.459  1.00  0.00    -0.372 N 
HETATM   15  C12 UNL     1      -1.783  -1.637  -0.050  1.00  0.00     0.156 A 
HETATM   16  N3  UNL     1      -1.912  -2.951  -0.295  1.00  0.00    -0.222 NA
HETATM   17  C13 UNL     1      -0.910  -3.666  -0.789  1.00  0.00     0.238 A 
HETATM   18  N4  UNL     1       0.277  -3.105  -1.065  1.00  0.00    -0.215 NA
HETATM   19  C14 UNL     1       0.441  -1.767  -0.826  1.00  0.00     0.202 A 
HETATM   20  C15 UNL     1      -0.578  -0.945  -0.303  1.00  0.00     0.134 A 
HETATM   21  O1  UNL     1       1.772  -1.506  -1.216  1.00  0.00    -0.289 OA
HETATM   22  H12 UNL     1      -3.703  -2.187   0.588  1.00  0.00     0.161 HD
ENDROOT
TORSDOF 0
