REMARK  5 active torsions:
REMARK  status: ('A' for Active; 'I' for Inactive)
REMARK    1  A    between atoms: C2_2  and  C3_3 
REMARK    2  A    between atoms: C3_3  and  O2_5 
REMARK    3  A    between atoms: O2_5  and  C4_6 
REMARK    4  A    between atoms: C6_9  and  C7_10 
REMARK    5  A    between atoms: C8_11  and  C9_12 
ROOT
HETATM    1  C9  UNL     1      -0.338   0.402   0.555  1.00  0.00     0.061 A 
HETATM    2  C10 UNL     1      -0.975  -0.007  -0.536  1.00  0.00     0.061 A 
HETATM    3  C11 UNL     1      -2.055   0.725  -0.877  1.00  0.00     0.078 A 
HETATM    4  C12 UNL     1      -2.487   1.859  -0.133  1.00  0.00     0.055 A 
HETATM    5  S1  UNL     1      -1.229   1.816   1.128  1.00  0.00    -0.077 SA
HETATM    6  C13 UNL     1      -3.321   2.848  -0.275  1.00  0.00     0.055 C 
HETATM    7 CL1  UNL     1      -4.433   3.496  -1.430  1.00  0.00    -0.085 Cl
HETATM    8  C14 UNL     1      -3.732   3.509   1.029  1.00  0.00     0.228 C 
HETATM    9  O3  UNL     1      -5.121   2.937   1.213  1.00  0.00    -0.346 OA
HETATM   10  C15 UNL     1      -5.016   1.497   1.008  1.00  0.00     0.069 A 
HETATM   11  C16 UNL     1      -5.875   1.308  -0.054  1.00  0.00     0.039 A 
HETATM   12  C17 UNL     1      -6.150   0.128  -0.714  1.00  0.00     0.032 A 
HETATM   13  C18 UNL     1      -5.393  -0.838  -0.097  1.00  0.00     0.029 A 
HETATM   14  C19 UNL     1      -4.533  -0.729   0.964  1.00  0.00     0.032 A 
HETATM   15  C20 UNL     1      -4.309   0.476   1.575  1.00  0.00     0.039 A 
HETATM   16  N2  UNL     1      -5.382  -2.133  -0.736  1.00  0.00    -0.372 N 
HETATM   17  C21 UNL     1      -5.175  -2.137  -2.167  1.00  0.00     0.272 C 
HETATM   18  N3  UNL     1      -3.972  -1.645  -2.677  1.00  0.00    -0.263 NA
HETATM   19  C22 UNL     1      -3.326  -0.606  -2.386  1.00  0.00     0.229 C 
HETATM   20  N4  UNL     1      -3.122   0.611  -1.645  1.00  0.00    -0.241 NA
HETATM   21  H18 UNL     1      -5.527  -2.944  -0.088  1.00  0.00     0.161 HD
ENDROOT
BRANCH   1  22
HETATM   22  C8  UNL     1       0.812  -0.203   1.119  1.00  0.00    -0.057 C 
HETATM   23  C7  UNL     1       1.776  -0.731   1.608  1.00  0.00    -0.065 C 
BRANCH  23  24
HETATM   24  C6  UNL     1       2.931  -1.389   2.210  1.00  0.00     0.301 C 
HETATM   25  N1  UNL     1       3.242  -2.647   1.561  1.00  0.00     0.102 N 
HETATM   26  C5  UNL     1       4.138  -2.339   0.478  1.00  0.00     0.303 C 
HETATM   27  H9  UNL     1       2.399  -3.175   1.241  1.00  0.00     0.317 HD
HETATM   28  C4  UNL     1       4.535  -0.902   0.580  1.00  0.00     0.162 C 
HETATM   29  C23 UNL     1       4.138  -0.523   1.971  1.00  0.00     0.083 C 
BRANCH  28  30
HETATM   30  O2  UNL     1       5.908  -0.692   0.326  1.00  0.00    -0.314 OA
BRANCH  30  31
HETATM   31  C3  UNL     1       6.381   0.151  -0.666  1.00  0.00     0.258 C 
HETATM   32  O1  UNL     1       5.589   0.783  -1.405  1.00  0.00    -0.265 OA
BRANCH  31  33
HETATM   33  C2  UNL     1       7.863   0.217  -0.750  1.00  0.00     0.106 C 
HETATM   34  C1  UNL     1       8.335   1.472  -0.045  1.00  0.00     0.015 C 
ENDBRANCH  31  33
ENDBRANCH  30  31
ENDBRANCH  28  30
ENDBRANCH  23  24
ENDBRANCH   1  22
TORSDOF 5
