REMARK  4 active torsions:
REMARK  status: ('A' for Active; 'I' for Inactive)
REMARK    1  A    between atoms: C2_2  and  C3_3 
REMARK    2  A    between atoms: C4_4  and  C5_5 
REMARK    3  A    between atoms: C4_4  and  C7_8 
REMARK    4  A    between atoms: C5_5  and  C6_6 
ROOT
HETATM    1  C7  UNL     1      -1.959  -0.559   0.301  1.00  0.00     0.310 C 
HETATM    2  O1  UNL     1      -1.327  -0.235  -1.012  1.00  0.00    -0.273 OA
HETATM    3  C8  UNL     1      -0.109  -0.495  -1.068  1.00  0.00     0.007 C 
HETATM    4  P1  UNL     1       1.129  -0.759  -1.101  1.00  0.00    -0.005 P 
HETATM    5  C9  UNL     1       3.546  -1.268  -1.119  1.00  0.00     0.020 C 
HETATM    6  C10 UNL     1       4.074  -0.109  -0.679  1.00  0.00     0.030 C 
HETATM    7  C11 UNL     1       3.758   1.210  -0.240  1.00  0.00     0.027 C 
HETATM    8  C12 UNL     1       4.902   1.810   0.047  1.00  0.00    -0.002 C 
HETATM    9  C13 UNL     1       6.227   1.166  -0.088  1.00  0.00     0.038 C 
HETATM   10  N1  UNL     1       2.535   1.870  -0.097  1.00  0.00    -0.366 N 
HETATM   11  C14 UNL     1       1.578   2.274   0.835  1.00  0.00     0.095 C 
HETATM   12  C15 UNL     1       0.693   2.715   1.685  1.00  0.00     0.064 C 
HETATM   13  S1  UNL     1      -0.374   1.903   2.939  1.00  0.00    -0.114 SA
HETATM   14  C16 UNL     1      -0.870   0.336   2.114  1.00  0.00     0.249 C 
HETATM   15  O2  UNL     1      -1.747   0.591   1.058  1.00  0.00    -0.346 OA
HETATM   16  H8  UNL     1       1.600  -0.861  -1.121  1.00  0.00     0.076 HD
HETATM   17  H15 UNL     1       2.445   2.062  -1.110  1.00  0.00     0.165 HD
ENDROOT
BRANCH   1  18
HETATM   18  C4  UNL     1      -3.251  -1.059   0.081  1.00  0.00    -0.004 C 
HETATM   19  C3  UNL     1      -3.875  -2.196   0.281  1.00  0.00     0.011 C 
BRANCH  19  20
HETATM   20  C2  UNL     1      -5.250  -2.440  -0.054  1.00  0.00    -0.010 C 
HETATM   21  C1  UNL     1      -5.668  -3.656   0.234  1.00  0.00     0.011 C 
ENDBRANCH  19  20
BRANCH  18  22
HETATM   22  C5  UNL     1      -3.922   0.087  -0.517  1.00  0.00     0.024 C 
BRANCH  22  23
HETATM   23  C6  UNL     1      -4.258   1.258  -1.022  1.00  0.00     0.442 C 
HETATM   24  F1  UNL     1      -3.079   1.915  -0.890  1.00  0.00    -0.452 F 
ENDBRANCH  22  23
ENDBRANCH  18  22
ENDBRANCH   1  18
TORSDOF 4
