REMARK  0 active torsions:
REMARK  status: ('A' for Active; 'I' for Inactive)
ROOT
HETATM    1  C1  UNL     1       5.634   0.946   0.290  1.00  0.00    -0.027 C 
HETATM    2  C2  UNL     1       5.290   0.513  -0.897  1.00  0.00    -0.008 C 
HETATM    3  C3  UNL     1       3.913   0.952  -1.257  1.00  0.00     0.089 C 
HETATM    4  C4  UNL     1       2.974   0.381  -0.252  1.00  0.00     0.064 C 
HETATM    5  C5  UNL     1       3.391   0.446   1.005  1.00  0.00     0.083 C 
HETATM    6  C6  UNL     1       4.712   1.068   1.224  1.00  0.00     0.045 C 
HETATM    7  N1  UNL     1       2.684  -0.026   2.145  1.00  0.00    -0.240 NA
HETATM    8  C7  UNL     1       1.421   0.217   2.249  1.00  0.00     0.236 C 
HETATM    9  N2  UNL     1       0.329   0.848   1.588  1.00  0.00    -0.215 NA
HETATM   10  C8  UNL     1      -0.535   0.170   0.880  1.00  0.00     0.199 C 
HETATM   11  O1  UNL     1      -1.460   1.107   0.384  1.00  0.00    -0.294 OA
HETATM   12  C9  UNL     1      -2.818   0.946   0.061  1.00  0.00     0.065 A 
HETATM   13  C10 UNL     1      -3.818   1.817   0.113  1.00  0.00     0.033 A 
HETATM   14  C11 UNL     1      -5.038   1.174  -0.322  1.00  0.00    -0.001 A 
HETATM   15  C12 UNL     1      -4.810  -0.092  -0.647  1.00  0.00    -0.014 A 
HETATM   16  C13 UNL     1      -3.355  -0.330  -0.422  1.00  0.00     0.083 A 
HETATM   17  C14 UNL     1      -3.263  -1.462   0.574  1.00  0.00     0.135 C 
HETATM   18  N3  UNL     1      -1.898  -1.999   0.671  1.00  0.00    -0.384 N 
HETATM   19  C15 UNL     1      -0.672  -1.248   0.562  1.00  0.00     0.106 C 
HETATM   20  C16 UNL     1       0.337  -1.992   0.136  1.00  0.00     0.201 C 
HETATM   21  O2  UNL     1       1.558  -1.375  -0.005  1.00  0.00    -0.248 OA
HETATM   22  N4  UNL     1       1.742  -0.178  -0.644  1.00  0.00    -0.263 N 
HETATM   23  H12 UNL     1      -1.754  -3.022   0.836  1.00  0.00     0.159 HD
HETATM   24  H14 UNL     1       1.263   0.459  -1.331  1.00  0.00     0.194 HD
ENDROOT
TORSDOF 0
