REMARK  7 active torsions:
REMARK  status: ('A' for Active; 'I' for Inactive)
REMARK    1  A    between atoms: C2_2  and  O1_3 
REMARK    2  A    between atoms: O1_3  and  C3_4 
REMARK    3  A    between atoms: C5_6  and  C6_7 
REMARK    4  A    between atoms: C11_15  and  O2_16 
REMARK    5  A    between atoms: O2_16  and  C12_17 
REMARK    6  A    between atoms: C12_17  and  C13_18 
REMARK    7  A    between atoms: N4_26  and  C18_27 
ROOT
HETATM    1  C6  UNL     1      -0.930  -1.339   1.781  1.00  0.00     0.324 C 
HETATM    2  N1  UNL     1      -1.284  -2.713   1.857  1.00  0.00     0.168 N 
HETATM    3  C7  UNL     1       0.087  -2.973   2.248  1.00  0.00     0.430 C 
HETATM    4  N2  UNL     1       0.819  -3.742   1.368  1.00  0.00    -0.374 N 
HETATM    5  C8  UNL     1       2.120  -3.427   0.965  1.00  0.00     0.147 C 
HETATM    6  C9  UNL     1       2.226  -2.358   0.006  1.00  0.00     0.019 C 
HETATM    7  C10 UNL     1       2.674  -1.174   0.003  1.00  0.00     0.065 C 
HETATM    8 CL1  UNL     1       2.358  -0.698  -1.696  1.00  0.00    -0.082 Cl
HETATM    9  C11 UNL     1       3.160   0.171   0.220  1.00  0.00     0.086 C 
HETATM   10  C14 UNL     1       2.933   0.112   1.552  1.00  0.00     0.018 C 
HETATM   11  C15 UNL     1       2.502  -0.522   2.782  1.00  0.00     0.087 C 
HETATM   12  C16 UNL     1       0.983  -0.393   2.917  1.00  0.00     0.024 C 
HETATM   13  C17 UNL     1       0.041   0.466   3.377  1.00  0.00     0.074 C 
HETATM   14  S1  UNL     1      -1.639  -0.240   3.102  1.00  0.00    -0.074 SA
HETATM   15  N3  UNL     1       0.332  -1.575   2.454  1.00  0.00    -0.292 N 
HETATM   16  H10 UNL     1      -2.029  -2.973   2.509  1.00  0.00     0.325 HD
HETATM   17  H12 UNL     1       0.343  -4.405   0.759  1.00  0.00     0.157 HD
ENDROOT
BRANCH   1  18
HETATM   18  C5  UNL     1      -0.976  -0.687   0.461  1.00  0.00     0.296 C 
HETATM   19  C4  UNL     1      -0.633   0.774   0.396  1.00  0.00     0.075 C 
HETATM   20  C3  UNL     1      -1.658   1.358  -0.594  1.00  0.00     0.151 C 
HETATM   21  C20 UNL     1      -2.852   0.489  -0.302  1.00  0.00     0.305 C 
HETATM   22  N4  UNL     1      -2.352  -0.809  -0.007  1.00  0.00     0.100 N 
BRANCH  20  23
HETATM   23  O1  UNL     1      -1.932   2.677  -0.248  1.00  0.00    -0.384 OA
BRANCH  23  24
HETATM   24  C2  UNL     1      -1.702   3.568  -1.296  1.00  0.00     0.163 C 
HETATM   25  C1  UNL     1      -2.550   3.268  -2.509  1.00  0.00     0.033 C 
ENDBRANCH  23  24
ENDBRANCH  20  23
BRANCH  22  26
HETATM   26  C18 UNL     1      -2.558  -1.818  -0.990  1.00  0.00     0.268 C 
HETATM   27  C19 UNL     1      -4.032  -1.826  -1.363  1.00  0.00     0.037 C 
ENDBRANCH  22  26
ENDBRANCH   1  18
BRANCH   9  28
HETATM   28  O2  UNL     1       3.677   1.267  -0.373  1.00  0.00    -0.347 OA
BRANCH  28  29
HETATM   29  C12 UNL     1       2.953   2.249  -1.079  1.00  0.00     0.207 C 
BRANCH  29  30
HETATM   30  C13 UNL     1       3.846   3.391  -1.497  1.00  0.00     0.248 C 
HETATM   31  F1  UNL     1       4.875   3.000  -2.310  1.00  0.00    -0.253 F 
ENDBRANCH  29  30
ENDBRANCH  28  29
ENDBRANCH   9  28
TORSDOF 7
