REMARK  7 active torsions:
REMARK  status: ('A' for Active; 'I' for Inactive)
REMARK    1  A    between atoms: O1_2  and  C2_3 
REMARK    2  A    between atoms: C5_6  and  N1_7 
REMARK    3  A    between atoms: N1_7  and  C6_8 
REMARK    4  A    between atoms: C8_12  and  C9_13 
REMARK    5  A    between atoms: C9_13  and  C10_14 
REMARK    6  A    between atoms: C11_15  and  C12_16 
REMARK    7  A    between atoms: C18_23  and  S1_24 
ROOT
HETATM    1  C6  UNL     1       0.799  -0.579  -0.138  1.00  0.00     0.147 A 
HETATM    2  N2  UNL     1       1.105  -1.579  -1.008  1.00  0.00    -0.223 NA
HETATM    3  C7  UNL     1       0.389  -1.676  -2.149  1.00  0.00     0.235 A 
HETATM    4  N3  UNL     1      -0.611  -0.830  -2.459  1.00  0.00    -0.244 NA
HETATM    5  C8  UNL     1      -0.969   0.179  -1.651  1.00  0.00     0.067 A 
HETATM    6  C18 UNL     1      -0.231   0.266  -0.492  1.00  0.00     0.069 A 
ENDROOT
BRANCH   1   7
HETATM    7  N1  UNL     1       1.546  -0.460   1.064  1.00  0.00    -0.349 N 
HETATM    8  H6  UNL     1       1.309   0.294   1.750  1.00  0.00     0.167 HD
BRANCH   7   9
HETATM    9  C5  UNL     1       2.597  -1.370   1.303  1.00  0.00     0.101 C 
HETATM   10  C4  UNL     1       3.761  -0.912   0.809  1.00  0.00    -0.016 A 
HETATM   11  C3  UNL     1       4.050   0.320   0.106  1.00  0.00     0.051 A 
HETATM   12  C19 UNL     1       5.056  -1.585   0.871  1.00  0.00     0.039 A 
HETATM   13  C2  UNL     1       5.360   0.329  -0.189  1.00  0.00     0.090 A 
HETATM   14  C20 UNL     1       6.002  -0.873   0.292  1.00  0.00     0.068 A 
HETATM   15 CL1  UNL     1       7.708  -1.183   0.076  1.00  0.00    -0.081 Cl
BRANCH  13  16
HETATM   16  O1  UNL     1       5.910   1.405  -0.870  1.00  0.00    -0.354 OA
HETATM   17  C1  UNL     1       7.262   1.526  -1.228  1.00  0.00     0.210 C 
ENDBRANCH  13  16
ENDBRANCH   7   9
ENDBRANCH   1   7
BRANCH   6  18
HETATM   18  S1  UNL     1      -0.570   1.549   0.702  1.00  0.00    -0.137 SA
HETATM   19  H14 UNL     1      -0.163   2.808   0.276  1.00  0.00     0.107 HD
ENDBRANCH   6  18
BRANCH   5  20
HETATM   20  C9  UNL     1      -2.034   1.155  -1.894  1.00  0.00     0.155 C 
BRANCH  20  21
HETATM   21  C10 UNL     1      -3.186   0.809  -1.062  1.00  0.00    -0.095 C 
HETATM   22  C11 UNL     1      -4.147   0.534  -0.389  1.00  0.00    -0.067 C 
BRANCH  22  23
HETATM   23  C12 UNL     1      -5.297   0.197   0.409  1.00  0.00     0.020 A 
HETATM   24  C13 UNL     1      -6.483   0.011  -0.263  1.00  0.00     0.021 A 
HETATM   25  C14 UNL     1      -7.567  -0.309   0.535  1.00  0.00     0.004 A 
HETATM   26  C15 UNL     1      -7.431  -0.425   1.896  1.00  0.00     0.042 A 
HETATM   27  C16 UNL     1      -6.226  -0.228   2.509  1.00  0.00     0.117 A 
HETATM   28  F1  UNL     1      -6.148  -0.355   3.864  1.00  0.00    -0.206 F 
HETATM   29  C17 UNL     1      -5.101   0.095   1.770  1.00  0.00     0.062 A 
ENDBRANCH  22  23
ENDBRANCH  20  21
ENDBRANCH   5  20
TORSDOF 7
