REMARK  4 active torsions:
REMARK  status: ('A' for Active; 'I' for Inactive)
REMARK    1  A    between atoms: C2_2  and  O1_3 
REMARK    2  A    between atoms: O1_3  and  C3_4 
REMARK    3  A    between atoms: C11_12  and  N1_13 
REMARK    4  A    between atoms: C21_25  and  N3_26 
ROOT
HETATM    1  C3  UNL     1      -3.387  -0.530  -0.749  1.00  0.00     0.132 C 
HETATM    2  C4  UNL     1      -2.767  -1.234  -2.015  1.00  0.00     0.125 C 
HETATM    3  C5  UNL     1      -1.717  -2.073  -1.596  1.00  0.00    -0.104 C 
HETATM    4  C6  UNL     1      -0.844  -2.743  -1.252  1.00  0.00    -0.100 C 
HETATM    5  C7  UNL     1       0.230  -3.538  -0.827  1.00  0.00     0.108 C 
HETATM    6  C8  UNL     1       1.523  -3.495  -1.193  1.00  0.00    -0.006 C 
HETATM    7  C9  UNL     1       2.906  -3.266  -1.746  1.00  0.00     0.032 C 
HETATM    8  C10 UNL     1       3.895  -2.900  -0.740  1.00  0.00     0.021 C 
HETATM    9  C11 UNL     1       4.817  -2.641   0.135  1.00  0.00     0.094 C 
HETATM   10  N2  UNL     1       5.220  -1.749   1.121  1.00  0.00    -0.353 N 
HETATM   11  C12 UNL     1       5.103  -0.350   1.033  1.00  0.00     0.089 C 
HETATM   12  C13 UNL     1       5.261   0.934   0.853  1.00  0.00     0.018 C 
HETATM   13  C14 UNL     1       4.737   2.265   0.923  1.00  0.00     0.016 C 
HETATM   14  C15 UNL     1       3.582   2.734   1.307  1.00  0.00    -0.008 C 
HETATM   15 BR1  UNL     1       3.368   4.623   1.210  1.00  0.00    -0.056 Br
HETATM   16  C16 UNL     1       2.287   2.244   1.825  1.00  0.00     0.073 C 
HETATM   17  C17 UNL     1       1.150   2.619   0.992  1.00  0.00    -0.022 C 
HETATM   18  C18 UNL     1       0.293   3.063   0.112  1.00  0.00    -0.004 C 
HETATM   19  C19 UNL     1      -1.003   3.273  -0.496  1.00  0.00    -0.002 C 
HETATM   20  C20 UNL     1      -2.204   2.883  -0.152  1.00  0.00     0.008 C 
HETATM   21  C21 UNL     1      -3.084   2.153   0.790  1.00  0.00     0.240 C 
HETATM   22  C22 UNL     1      -2.477   0.809   1.204  1.00  0.00     0.042 C 
HETATM   23  C23 UNL     1      -2.214  -0.043  -0.003  1.00  0.00     0.035 C 
HETATM   24  H16 UNL     1       5.625  -2.212   1.951  1.00  0.00     0.166 HD
ENDROOT
BRANCH   1  25
HETATM   25  O1  UNL     1      -4.303   0.352  -1.218  1.00  0.00    -0.385 OA
BRANCH  25  26
HETATM   26  C2  UNL     1      -5.616  -0.009  -1.018  1.00  0.00     0.163 C 
HETATM   27  C1  UNL     1      -5.989  -0.167   0.431  1.00  0.00     0.033 C 
ENDBRANCH  25  26
ENDBRANCH   1  25
BRANCH  21  28
HETATM   28  N3  UNL     1      -3.149   3.008   1.991  1.00  0.00     0.086 N 
HETATM   29  H27 UNL     1      -2.953   4.002   1.777  1.00  0.00     0.313 HD
HETATM   30  H28 UNL     1      -2.391   2.675   2.629  1.00  0.00     0.313 HD
ENDBRANCH  21  28
BRANCH   9  31
HETATM   31  N1  UNL     1       5.465  -3.811  -0.302  1.00  0.00    -0.386 N 
HETATM   32  H14 UNL     1       6.079  -4.300  -0.989  1.00  0.00     0.157 HD
HETATM   33  H15 UNL     1       5.506  -4.780   0.067  1.00  0.00     0.157 HD
ENDBRANCH   9  31
TORSDOF 4
