REMARK  4 active torsions:
REMARK  status: ('A' for Active; 'I' for Inactive)
REMARK    1  A    between atoms: C5_6  and  C6_7 
REMARK    2  A    between atoms: C6_7  and  O1_8 
REMARK    3  A    between atoms: O1_8  and  C7_9 
REMARK    4  A    between atoms: C10_12  and  N1_13 
ROOT
HETATM    1  C7  UNL     1      -0.822   0.102  -0.193  1.00  0.00     0.091 A 
HETATM    2  C8  UNL     1      -0.291  -0.971   0.488  1.00  0.00     0.041 A 
HETATM    3  C9  UNL     1       1.077  -1.265   0.442  1.00  0.00     0.032 A 
HETATM    4  C10 UNL     1       1.928  -0.482  -0.291  1.00  0.00     0.034 A 
HETATM    5  C16 UNL     1       1.352   0.577  -0.953  1.00  0.00     0.056 A 
HETATM    6  C17 UNL     1       0.015   0.902  -0.936  1.00  0.00     0.069 A 
HETATM    7 CL1  UNL     1      -0.609   2.262  -1.808  1.00  0.00    -0.081 Cl
ENDROOT
BRANCH   4   8
HETATM    8  N1  UNL     1       3.300  -0.842  -0.282  1.00  0.00    -0.344 N 
HETATM    9  C11 UNL     1       3.700  -1.813   0.753  1.00  0.00     0.267 C 
HETATM   10  N2  UNL     1       5.083  -1.636   1.157  1.00  0.00    -0.295 N 
HETATM   11  N3  UNL     1       5.597  -0.353   0.928  1.00  0.00    -0.180 NA
HETATM   12  H10 UNL     1       5.564  -2.459   1.574  1.00  0.00     0.184 HD
HETATM   13  C12 UNL     1       5.338   0.309  -0.153  1.00  0.00     0.088 A 
HETATM   14  C13 UNL     1       5.729   1.616  -0.630  1.00  0.00     0.039 A 
HETATM   15  C15 UNL     1       4.442  -0.507  -1.051  1.00  0.00     0.206 A 
HETATM   16  C14 UNL     1       5.219   1.927  -1.810  1.00  0.00     0.049 A 
HETATM   17  S1  UNL     1       4.193   0.599  -2.440  1.00  0.00    -0.109 SA
ENDBRANCH   4   8
BRANCH   1  18
HETATM   18  O1  UNL     1      -2.181   0.417  -0.164  1.00  0.00    -0.345 OA
BRANCH  18  19
HETATM   19  C6  UNL     1      -3.020  -0.421   0.607  1.00  0.00     0.214 C 
BRANCH  19  20
HETATM   20  C5  UNL     1      -4.430   0.052   0.530  1.00  0.00    -0.031 A 
HETATM   21  C4  UNL     1      -5.172  -0.496  -0.505  1.00  0.00     0.009 A 
HETATM   22  C3  UNL     1      -6.490  -0.114  -0.653  1.00  0.00     0.004 A 
HETATM   23  C2  UNL     1      -7.065   0.799   0.214  1.00  0.00     0.042 A 
HETATM   24  C1  UNL     1      -6.321   1.342   1.244  1.00  0.00     0.117 A 
HETATM   25  F1  UNL     1      -6.872   2.237   2.100  1.00  0.00    -0.206 F 
HETATM   26  C18 UNL     1      -5.010   0.952   1.379  1.00  0.00     0.051 A 
ENDBRANCH  19  20
ENDBRANCH  18  19
ENDBRANCH   1  18
TORSDOF 4
