REMARK  6 active torsions:
REMARK  status: ('A' for Active; 'I' for Inactive)
REMARK    1  A    between atoms: C2_2  and  C3_3 
REMARK    2  A    between atoms: C6_7  and  C7_8 
REMARK    3  A    between atoms: C15_17  and  C16_18 
REMARK    4  A    between atoms: C17_19  and  C18_20 
REMARK    5  A    between atoms: C20_22  and  O2_23 
REMARK    6  A    between atoms: O2_23  and  C21_24 
ROOT
HETATM    1  C3  UNL     1      -3.878   3.309  -0.558  1.00  0.00    -0.013 C 
HETATM    2  C4  UNL     1      -4.625   2.537   0.290  1.00  0.00     0.018 C 
HETATM    3  C5  UNL     1      -4.094   1.199   0.133  1.00  0.00     0.200 C 
HETATM    4  O1  UNL     1      -3.514   0.585   1.248  1.00  0.00    -0.357 OA
HETATM    5  C6  UNL     1      -3.040  -0.668   0.769  1.00  0.00     0.279 C 
HETATM    6  N1  UNL     1      -1.639  -0.713   0.667  1.00  0.00    -0.252 NA
HETATM    7  C13 UNL     1      -0.827   0.092   0.081  1.00  0.00     0.074 A 
HETATM    8  C14 UNL     1       0.310  -0.602   0.404  1.00  0.00     0.061 A 
HETATM    9  C15 UNL     1       1.586  -0.181  -0.023  1.00  0.00     0.061 A 
HETATM   10  S1  UNL     1       1.127   1.371  -0.988  1.00  0.00    -0.078 SA
HETATM   11  C23 UNL     1      -0.670   1.257  -0.700  1.00  0.00     0.045 A 
HETATM   12  C24 UNL     1      -1.357   2.207  -1.172  1.00  0.00     0.083 C 
HETATM   13  N3  UNL     1      -2.713   2.632  -1.159  1.00  0.00    -0.272 NA
HETATM   14  H25 UNL     1      -2.347   2.989  -0.199  1.00  0.00     0.132 HD
ENDROOT
BRANCH   9  15
HETATM   15  C16 UNL     1       2.991  -0.519   0.006  1.00  0.00    -0.057 C 
HETATM   16  C17 UNL     1       4.120  -0.800   0.011  1.00  0.00    -0.065 C 
BRANCH  16  17
HETATM   17  C18 UNL     1       5.527  -1.141  -0.006  1.00  0.00     0.301 C 
HETATM   18  C19 UNL     1       6.230  -0.551  -1.219  1.00  0.00     0.083 C 
HETATM   19  C20 UNL     1       7.384  -1.498  -1.408  1.00  0.00     0.162 C 
HETATM   20  C22 UNL     1       6.991  -2.728  -0.614  1.00  0.00     0.303 C 
HETATM   21  N2  UNL     1       5.587  -2.560  -0.297  1.00  0.00     0.102 N 
HETATM   22  H23 UNL     1       5.319  -3.118   0.545  1.00  0.00     0.317 HD
BRANCH  19  23
HETATM   23  O2  UNL     1       7.592  -1.811  -2.775  1.00  0.00    -0.321 OA
BRANCH  23  24
HETATM   24  C21 UNL     1       8.781  -1.505  -3.412  1.00  0.00     0.398 C 
HETATM   25  O3  UNL     1       9.757  -0.946  -2.876  1.00  0.00    -0.276 OA
ENDBRANCH  23  24
ENDBRANCH  19  23
ENDBRANCH  16  17
ENDBRANCH   9  15
BRANCH   5  26
HETATM   26  C7  UNL     1      -3.584  -1.727   1.594  1.00  0.00    -0.008 A 
HETATM   27  C8  UNL     1      -4.126  -2.876   1.059  1.00  0.00     0.011 A 
HETATM   28  C9  UNL     1      -4.649  -3.905   1.791  1.00  0.00     0.001 A 
HETATM   29  C10 UNL     1      -4.629  -3.775   3.176  1.00  0.00     0.000 A 
HETATM   30  C11 UNL     1      -4.089  -2.627   3.735  1.00  0.00     0.001 A 
HETATM   31  C12 UNL     1      -3.557  -1.583   2.971  1.00  0.00     0.011 A 
ENDBRANCH   5  26
BRANCH   1  32
HETATM   32  C2  UNL     1      -3.863   4.780  -0.943  1.00  0.00     0.046 C 
HETATM   33  C1  UNL     1      -4.919   5.568  -0.250  1.00  0.00     0.011 C 
ENDBRANCH   1  32
TORSDOF 6
