REMARK  5 active torsions:
REMARK  status: ('A' for Active; 'I' for Inactive)
REMARK    1  A    between atoms: C2_3  and  C3_4 
REMARK    2  A    between atoms: C4_5  and  C5_6 
REMARK    3  A    between atoms: C13_14  and  O1_15 
REMARK    4  A    between atoms: O1_15  and  C14_16 
REMARK    5  A    between atoms: C14_16  and  C15_17 
ROOT
HETATM    1  N1  UNL     1       7.167  -1.800   1.112  1.00  0.00    -0.196 NA
HETATM    2  C1  UNL     1       6.298  -1.992   0.363  1.00  0.00     0.071 C 
HETATM    3  C2  UNL     1       5.194  -2.229  -0.564  1.00  0.00     0.217 C 
ENDROOT
BRANCH   3   4
HETATM    4  C3  UNL     1       3.971  -1.796   0.111  1.00  0.00    -0.091 C 
HETATM    5  C4  UNL     1       2.947  -1.454   0.665  1.00  0.00    -0.089 C 
BRANCH   5   6
HETATM    6  C5  UNL     1       1.679  -1.046   1.345  1.00  0.00     0.140 C 
HETATM    7  C6  UNL     1       0.522  -1.487   0.588  1.00  0.00     0.044 C 
HETATM    8  C7  UNL     1      -0.680  -1.544  -0.028  1.00  0.00    -0.005 C 
HETATM    9  C8  UNL     1      -1.716  -0.474  -0.091  1.00  0.00    -0.004 A 
HETATM   10  C9  UNL     1      -0.838   0.592  -0.384  1.00  0.00     0.043 A 
HETATM   11  C13 UNL     1      -3.033  -0.224   0.108  1.00  0.00     0.078 A 
HETATM   12  C10 UNL     1      -1.214   1.910  -0.479  1.00  0.00     0.034 A 
HETATM   13  C11 UNL     1      -2.555   2.105  -0.267  1.00  0.00     0.032 A 
HETATM   14  N2  UNL     1      -0.222   2.895  -0.697  1.00  0.00    -0.340 N 
HETATM   15  C12 UNL     1      -3.437   1.087   0.015  1.00  0.00     0.040 A 
HETATM   16  C16 UNL     1       1.180   2.533  -0.608  1.00  0.00     0.147 A 
HETATM   17  H13 UNL     1      -0.596   3.838  -0.905  1.00  0.00     0.167 HD
HETATM   18  N3  UNL     1       1.747   3.150  -1.618  1.00  0.00    -0.223 NA
HETATM   19  C19 UNL     1       1.962   1.747   0.253  1.00  0.00     0.065 A 
HETATM   20  C17 UNL     1       3.033   3.144  -1.974  1.00  0.00     0.235 A 
HETATM   21  N4  UNL     1       3.884   2.408  -1.202  1.00  0.00    -0.253 NA
HETATM   22  C18 UNL     1       3.302   1.761  -0.147  1.00  0.00     0.140 A 
HETATM   23  S1  UNL     1       1.888   0.697   1.702  1.00  0.00    -0.106 SA
BRANCH  11  24
HETATM   24  O1  UNL     1      -3.535  -1.465   0.352  1.00  0.00    -0.349 OA
BRANCH  24  25
HETATM   25  C14 UNL     1      -4.816  -1.889   0.624  1.00  0.00     0.191 C 
BRANCH  25  26
HETATM   26  C15 UNL     1      -5.767  -1.607  -0.481  1.00  0.00     0.141 C 
HETATM   27 CL1  UNL     1      -5.240  -2.430  -1.970  1.00  0.00    -0.128 Cl
ENDBRANCH  25  26
ENDBRANCH  24  25
ENDBRANCH  11  24
ENDBRANCH   5   6
ENDBRANCH   3   4
TORSDOF 5
