REMARK  3 active torsions:
REMARK  status: ('A' for Active; 'I' for Inactive)
REMARK    1  A    between atoms: C1_2  and  N5_21 
REMARK    2  A    between atoms: N3_11  and  N4_12 
REMARK    3  A    between atoms: N4_12  and  C7_13 
ROOT
HETATM    1  O1  UNL     1       0.961  -0.606  -1.031  1.00  0.00     0.000 OA
HETATM    2  C1  UNL     1       2.167  -0.677  -1.292  1.00  0.00     0.119 A 
HETATM    3  O2  UNL     1       0.796  -0.591  -0.996  1.00  0.00     0.000 OA
HETATM    4  C2  UNL     1      -0.003  -1.708  -0.757  1.00  0.00     0.019 A 
HETATM    5  C3  UNL     1       0.119  -2.322  -1.896  1.00  0.00     0.006 C 
HETATM    6  C4  UNL     1      -0.696  -3.566  -1.912  1.00  0.00     0.282 C 
HETATM    7  N1  UNL     1      -1.571  -4.338  -1.394  1.00  0.00    -0.383 NA
HETATM    8  C5  UNL     1      -2.278  -4.067  -0.167  1.00  0.00     0.191 C 
HETATM    9  N2  UNL     1      -2.852  -3.194   0.572  1.00  0.00    -0.270 NA
HETATM   10  C6  UNL     1      -2.918  -1.793   0.146  1.00  0.00     0.263 C 
HETATM   11  N3  UNL     1      -1.809  -1.090   0.824  1.00  0.00    -0.210 NA
HETATM   12  C13 UNL     1      -0.608  -1.830   0.549  1.00  0.00     0.131 C 
ENDROOT
BRANCH   2  13
HETATM   13  N5  UNL     1       3.039   0.428  -1.519  1.00  0.00    -0.393 N 
HETATM   14  C14 UNL     1       4.409   0.038  -1.813  1.00  0.00     0.144 C 
HETATM   15  C15 UNL     1       5.292   1.208  -1.427  1.00  0.00     0.187 C 
HETATM   16  O3  UNL     1       4.845   1.726  -0.231  1.00  0.00    -0.388 OA
HETATM   17  C16 UNL     1       3.632   2.400  -0.348  1.00  0.00     0.187 C 
HETATM   18  C17 UNL     1       2.817   1.880  -1.513  1.00  0.00     0.144 C 
ENDBRANCH   2  13
BRANCH  11  19
HETATM   19  N4  UNL     1      -1.742   0.242   0.621  1.00  0.00    -0.318 N 
HETATM   20  H6  UNL     1      -1.243   0.745  -0.171  1.00  0.00     0.181 HD
BRANCH  19  21
HETATM   21  C7  UNL     1      -2.342   1.267   1.447  1.00  0.00     0.044 A 
HETATM   22  C8  UNL     1      -2.296   2.636   1.323  1.00  0.00     0.030 A 
HETATM   23  C9  UNL     1      -2.938   3.473   2.201  1.00  0.00     0.004 A 
HETATM   24  C10 UNL     1      -3.660   2.987   3.251  1.00  0.00     0.024 A 
HETATM   25  C11 UNL     1      -3.724   1.613   3.400  1.00  0.00     0.036 A 
HETATM   26 CL1  UNL     1      -4.668   1.062   4.767  1.00  0.00    -0.084 Cl
HETATM   27  C12 UNL     1      -3.079   0.732   2.518  1.00  0.00     0.054 A 
ENDBRANCH  19  21
ENDBRANCH  11  19
TORSDOF 3
