REMARK  7 active torsions:
REMARK  status: ('A' for Active; 'I' for Inactive)
REMARK    1  A    between atoms: C2_2  and  N1_3 
REMARK    2  A    between atoms: C2_2  and  N3_12 
REMARK    3  A    between atoms: N1_3  and  C3_4 
REMARK    4  A    between atoms: C3_4  and  C4_5 
REMARK    5  A    between atoms: C4_5  and  N2_6 
REMARK    6  A    between atoms: N3_12  and  C10_13 
REMARK    7  A    between atoms: N6_22  and  C17_23 
ROOT
HETATM    1  C10 UNL     1      -1.491   0.363  -0.048  1.00  0.00     0.131 C 
HETATM    2  C11 UNL     1      -2.478   1.422  -0.413  1.00  0.00     0.000 C 
HETATM    3  C12 UNL     1      -3.731   1.053  -0.126  1.00  0.00     0.005 C 
HETATM    4  C13 UNL     1      -3.877  -0.289   0.477  1.00  0.00     0.182 A 
HETATM    5  C14 UNL     1      -2.956  -0.384   1.621  1.00  0.00     0.062 A 
HETATM    6  C15 UNL     1      -1.684  -0.047   1.380  1.00  0.00     0.032 C 
HETATM    7  N4  UNL     1      -3.340  -0.794   2.927  1.00  0.00    -0.245 NA
HETATM    8  C16 UNL     1      -4.569  -1.122   3.164  1.00  0.00     0.223 A 
HETATM    9  N5  UNL     1      -5.508  -1.062   2.097  1.00  0.00    -0.291 N 
HETATM   10  N6  UNL     1      -5.217  -0.672   0.786  1.00  0.00    -0.277 N 
HETATM   11  H25 UNL     1      -6.457  -1.349   2.416  1.00  0.00     0.188 HD
ENDROOT
BRANCH   1  12
HETATM   12  N3  UNL     1      -0.127   0.855  -0.125  1.00  0.00    -0.369 N 
HETATM   13  H18 UNL     1       0.018   1.862  -0.419  1.00  0.00     0.161 HD
BRANCH  12  14
HETATM   14  C2  UNL     1       1.103   0.192   0.138  1.00  0.00     0.073 C 
HETATM   15  C1  UNL     1       1.486   0.548   1.373  1.00  0.00     0.083 C 
BRANCH  14  16
HETATM   16  N1  UNL     1       1.765  -0.678  -0.770  1.00  0.00    -0.378 N 
HETATM   17  H3  UNL     1       1.153  -1.072  -1.501  1.00  0.00     0.160 HD
BRANCH  16  18
HETATM   18  C3  UNL     1       3.183  -0.933  -0.607  1.00  0.00     0.151 C 
BRANCH  18  19
HETATM   19  C4  UNL     1       3.918   0.347  -0.919  1.00  0.00     0.292 C 
BRANCH  19  20
HETATM   20  N2  UNL     1       5.338   0.227  -0.794  1.00  0.00     0.090 N 
HETATM   21  C5  UNL     1       5.949   1.494  -1.112  1.00  0.00     0.272 C 
HETATM   22  C6  UNL     1       7.399   1.254  -1.378  1.00  0.00     0.030 C 
HETATM   23  C7  UNL     1       7.952   0.061  -0.626  1.00  0.00     0.003 C 
HETATM   24  C8  UNL     1       7.238  -0.151   0.690  1.00  0.00     0.030 C 
HETATM   25  C9  UNL     1       5.740  -0.196   0.515  1.00  0.00     0.272 C 
ENDBRANCH  19  20
ENDBRANCH  18  19
ENDBRANCH  16  18
ENDBRANCH  14  16
ENDBRANCH  12  14
ENDBRANCH   1  12
BRANCH  10  26
HETATM   26  C17 UNL     1      -6.225  -0.657  -0.216  1.00  0.00     0.052 A 
HETATM   27  C18 UNL     1      -5.925  -0.373  -1.531  1.00  0.00     0.034 A 
HETATM   28  C19 UNL     1      -6.850  -0.340  -2.540  1.00  0.00     0.044 A 
HETATM   29  C20 UNL     1      -8.176  -0.601  -2.271  1.00  0.00     0.116 A 
HETATM   30  F1  UNL     1      -9.166  -0.594  -3.192  1.00  0.00    -0.206 F 
HETATM   31  C21 UNL     1      -8.493  -0.886  -0.963  1.00  0.00     0.044 A 
HETATM   32  C22 UNL     1      -7.552  -0.918   0.053  1.00  0.00     0.034 A 
ENDBRANCH  10  26
TORSDOF 7
