REMARK  4 active torsions:
REMARK  status: ('A' for Active; 'I' for Inactive)
REMARK    1  A    between atoms: C5_6  and  C6_7 
REMARK    2  A    between atoms: C6_7  and  O1_8 
REMARK    3  A    between atoms: O1_8  and  C7_9 
REMARK    4  A    between atoms: C10_12  and  N1_13 
ROOT
HETATM    1  C7  UNL     1       1.385  -0.383   1.225  1.00  0.00     0.091 A 
HETATM    2  C8  UNL     1       0.982  -1.037   0.084  1.00  0.00     0.041 A 
HETATM    3  C9  UNL     1      -0.339  -1.071  -0.306  1.00  0.00     0.032 A 
HETATM    4  C10 UNL     1      -1.326  -0.449   0.430  1.00  0.00     0.040 A 
HETATM    5  C17 UNL     1      -0.968   0.217   1.579  1.00  0.00     0.056 A 
HETATM    6  C18 UNL     1       0.377   0.249   1.973  1.00  0.00     0.069 A 
HETATM    7 CL1  UNL     1       0.590   1.160   3.474  1.00  0.00    -0.081 Cl
ENDROOT
BRANCH   4   8
HETATM    8  N1  UNL     1      -2.620  -0.592  -0.149  1.00  0.00    -0.308 N 
HETATM    9  C11 UNL     1      -2.673  -0.985  -1.544  1.00  0.00     0.305 C 
HETATM   10  O2  UNL     1      -3.816  -0.751  -2.203  1.00  0.00    -0.328 OA
HETATM   11  C12 UNL     1      -4.324   0.462  -2.419  1.00  0.00     0.378 C 
HETATM   12  F2  UNL     1      -5.030   0.434  -3.629  1.00  0.00    -0.207 F 
HETATM   13  S1  UNL     1      -5.479   1.081  -1.134  1.00  0.00    -0.060 SA
HETATM   14  C13 UNL     1      -4.921   0.326   0.398  1.00  0.00     0.069 A 
HETATM   15  C14 UNL     1      -5.859   0.444   1.416  1.00  0.00     0.140 A 
HETATM   16  C16 UNL     1      -3.746  -0.339   0.729  1.00  0.00     0.151 A 
HETATM   17  N2  UNL     1      -5.575  -0.080   2.622  1.00  0.00    -0.253 NA
HETATM   18  C15 UNL     1      -4.421  -0.716   2.888  1.00  0.00     0.235 A 
HETATM   19  N3  UNL     1      -3.477  -0.859   1.941  1.00  0.00    -0.223 NA
ENDBRANCH   4   8
BRANCH   1  20
HETATM   20  O1  UNL     1       2.566  -0.172   1.862  1.00  0.00    -0.345 OA
BRANCH  20  21
HETATM   21  C6  UNL     1       3.859  -0.534   1.608  1.00  0.00     0.214 C 
BRANCH  21  22
HETATM   22  C5  UNL     1       4.395  -0.020   0.345  1.00  0.00    -0.031 A 
HETATM   23  C4  UNL     1       4.495  -0.542  -0.923  1.00  0.00     0.009 A 
HETATM   24  C3  UNL     1       5.030   0.141  -1.971  1.00  0.00     0.004 A 
HETATM   25  C2  UNL     1       5.520   1.432  -1.823  1.00  0.00     0.042 A 
HETATM   26  C1  UNL     1       5.439   1.992  -0.566  1.00  0.00     0.117 A 
HETATM   27  F1  UNL     1       5.925   3.244  -0.471  1.00  0.00    -0.206 F 
HETATM   28  C19 UNL     1       4.889   1.278   0.486  1.00  0.00     0.051 A 
ENDBRANCH  21  22
ENDBRANCH  20  21
ENDBRANCH   1  20
TORSDOF 4
