REMARK  7 active torsions:
REMARK  status: ('A' for Active; 'I' for Inactive)
REMARK    1  A    between atoms: C1_2  and  N1_3 
REMARK    2  A    between atoms: C1_2  and  N3_12 
REMARK    3  A    between atoms: N1_3  and  C2_4 
REMARK    4  A    between atoms: C2_4  and  C3_5 
REMARK    5  A    between atoms: C3_5  and  N2_6 
REMARK    6  A    between atoms: C12_19  and  N6_20 
REMARK    7  A    between atoms: N6_20  and  C13_21 
ROOT
HETATM    1  N3  UNL     1       0.620  -0.999   1.693  1.00  0.00    -0.354 N 
HETATM    2  C8  UNL     1       0.818  -1.738   2.897  1.00  0.00     0.132 C 
HETATM    3  C9  UNL     1       2.224  -1.881   3.361  1.00  0.00     0.080 C 
HETATM    4  C10 UNL     1       3.133  -1.933   2.192  1.00  0.00     0.049 A 
HETATM    5  N4  UNL     1       4.295  -2.562   2.451  1.00  0.00    -0.246 NA
HETATM    6  C11 UNL     1       5.214  -2.659   1.451  1.00  0.00     0.235 A 
HETATM    7  N5  UNL     1       5.000  -2.152   0.223  1.00  0.00    -0.224 NA
HETATM    8  C12 UNL     1       3.858  -1.515  -0.090  1.00  0.00     0.139 A 
HETATM    9  C19 UNL     1       2.903  -1.410   0.937  1.00  0.00     0.030 A 
HETATM   10  C20 UNL     1       1.592  -0.745   0.683  1.00  0.00     0.169 C 
ENDROOT
BRANCH   1  11
HETATM   11  C1  UNL     1      -0.684  -0.435   1.473  1.00  0.00     0.170 C 
HETATM   12  S1  UNL     1      -1.867  -0.611   2.586  1.00  0.00    -0.041 SA
BRANCH  11  13
HETATM   13  N1  UNL     1      -0.992   0.311   0.272  1.00  0.00    -0.365 N 
HETATM   14  H1  UNL     1      -0.201   0.404  -0.416  1.00  0.00     0.161 HD
BRANCH  13  15
HETATM   15  C2  UNL     1      -2.284   0.893   0.009  1.00  0.00     0.152 C 
BRANCH  15  16
HETATM   16  C3  UNL     1      -3.309  -0.171  -0.232  1.00  0.00     0.292 C 
BRANCH  16  17
HETATM   17  N2  UNL     1      -4.604   0.426  -0.467  1.00  0.00     0.094 N 
HETATM   18  C4  UNL     1      -5.148   1.041   0.717  1.00  0.00     0.298 C 
HETATM   19  C5  UNL     1      -6.369   1.845   0.304  1.00  0.00     0.198 C 
HETATM   20  O1  UNL     1      -7.288   1.076  -0.416  1.00  0.00    -0.388 OA
HETATM   21  C6  UNL     1      -6.698   0.518  -1.556  1.00  0.00     0.198 C 
HETATM   22  C7  UNL     1      -5.584  -0.418  -1.053  1.00  0.00     0.298 C 
ENDBRANCH  16  17
ENDBRANCH  15  16
ENDBRANCH  13  15
ENDBRANCH  11  13
ENDBRANCH   1  11
BRANCH   8  23
HETATM   23  N6  UNL     1       3.419  -0.907  -1.304  1.00  0.00    -0.340 N 
HETATM   24  H19 UNL     1       2.693  -1.330  -1.934  1.00  0.00     0.167 HD
BRANCH  23  25
HETATM   25  C13 UNL     1       4.004   0.359  -1.686  1.00  0.00     0.035 A 
HETATM   26  C14 UNL     1       3.336   1.380  -2.336  1.00  0.00     0.029 A 
HETATM   27  C15 UNL     1       4.024   2.527  -2.674  1.00  0.00     0.004 A 
HETATM   28  C16 UNL     1       5.374   2.702  -2.386  1.00  0.00     0.019 A 
HETATM   29  C17 UNL     1       6.058   1.692  -1.736  1.00  0.00     0.013 A 
HETATM   30 BR1  UNL     1       7.921   1.862  -1.317  1.00  0.00    -0.051 Br
HETATM   31  C18 UNL     1       5.366   0.529  -1.393  1.00  0.00     0.048 A 
ENDBRANCH  23  25
ENDBRANCH   8  23
TORSDOF 7
