REMARK  4 active torsions:
REMARK  status: ('A' for Active; 'I' for Inactive)
REMARK    1  A    between atoms: C12_15  and  O2_16 
REMARK    2  A    between atoms: O2_16  and  C13_17 
REMARK    3  A    between atoms: C13_17  and  C14_18 
REMARK    4  A    between atoms: C14_18  and  S1_19 
ROOT
HETATM    1  F1  UNL     1      -4.048  -2.592  -0.581  1.00  0.00    -0.205 F 
HETATM    2  C1  UNL     1      -3.842  -1.307  -0.101  1.00  0.00     0.129 A 
HETATM    3  C2  UNL     1      -4.373  -0.136  -0.495  1.00  0.00     0.073 A 
HETATM    4  C3  UNL     1      -3.572   0.533   0.557  1.00  0.00     0.048 A 
HETATM    5  C4  UNL     1      -3.041  -0.625   0.955  1.00  0.00     0.031 A 
HETATM    6  C5  UNL     1      -2.073  -1.100   1.992  1.00  0.00     0.220 C 
HETATM    7  O1  UNL     1      -0.764  -1.190   1.584  1.00  0.00    -0.344 OA
HETATM    8  C6  UNL     1      -0.129  -1.885   0.618  1.00  0.00     0.099 A 
HETATM    9  C7  UNL     1      -0.481  -3.200   0.405  1.00  0.00     0.068 A 
HETATM   10 CL1  UNL     1      -1.713  -4.040   1.318  1.00  0.00    -0.081 Cl
HETATM   11  C8  UNL     1       0.196  -3.869  -0.592  1.00  0.00     0.026 A 
HETATM   12  C9  UNL     1       1.187  -3.382  -1.408  1.00  0.00     0.002 A 
HETATM   13  C10 UNL     1       1.539  -2.071  -1.197  1.00  0.00     0.013 A 
HETATM   14  C11 UNL     1       0.886  -1.402  -0.225  1.00  0.00     0.007 A 
HETATM   15  C12 UNL     1       1.313   0.035  -0.090  1.00  0.00     0.082 C 
HETATM   16  C15 UNL     1       1.114   1.369  -0.014  1.00  0.00     0.168 C 
HETATM   17  C16 UNL     1      -0.081   2.197  -0.053  1.00  0.00     0.048 A 
HETATM   18  C17 UNL     1      -1.424   2.163   0.248  1.00  0.00     0.078 A 
HETATM   19  C18 UNL     1      -2.597   2.813   0.274  1.00  0.00     0.131 A 
HETATM   20  N1  UNL     1      -2.295   3.999  -0.206  1.00  0.00    -0.224 NA
HETATM   21  C19 UNL     1      -1.041   4.310  -0.585  1.00  0.00     0.235 A 
HETATM   22  N2  UNL     1       0.023   3.449  -0.514  1.00  0.00    -0.246 NA
HETATM   23  N3  UNL     1      -3.603   1.965   0.781  1.00  0.00    -0.340 N 
HETATM   24  H15 UNL     1      -4.232   2.614   1.259  1.00  0.00     0.167 HD
ENDROOT
BRANCH  15  25
HETATM   25  O2  UNL     1       2.717   0.118   0.032  1.00  0.00    -0.379 OA
BRANCH  25  26
HETATM   26  C13 UNL     1       3.574   0.741  -0.864  1.00  0.00     0.178 C 
BRANCH  26  27
HETATM   27  C14 UNL     1       5.005   0.576  -0.410  1.00  0.00     0.097 C 
BRANCH  27  28
HETATM   28  S1  UNL     1       5.191   1.327   1.232  1.00  0.00    -0.180 SA
HETATM   29  H11 UNL     1       6.550   1.210   1.644  1.00  0.00     0.101 HD
ENDBRANCH  27  28
ENDBRANCH  26  27
ENDBRANCH  25  26
ENDBRANCH  15  25
TORSDOF 4
