REMARK  1 active torsions:
REMARK  status: ('A' for Active; 'I' for Inactive)
REMARK    1  A    between atoms: N1_4  and  C3_5 
ROOT
HETATM    1  C3  UNL     1       1.427  -0.926  -0.097  1.00  0.00     0.152 A 
HETATM    2  N2  UNL     1       1.873  -2.085  -0.472  1.00  0.00    -0.214 NA
HETATM    3  C4  UNL     1       1.174  -3.268  -0.145  1.00  0.00     0.294 A 
HETATM    4  N3  UNL     1       0.405  -2.598   0.419  1.00  0.00    -0.426 NA
HETATM    5  C5  UNL     1      -0.491  -1.893   1.068  1.00  0.00     0.150 A 
HETATM    6  C6  UNL     1      -1.626  -1.329   1.665  1.00  0.00     0.064 A 
HETATM    7  C7  UNL     1      -1.973  -2.428   0.917  1.00  0.00     0.064 A 
HETATM    8  C8  UNL     1      -3.133  -1.829   1.389  1.00  0.00     0.100 A 
HETATM    9  N4  UNL     1      -4.425  -2.363   1.044  1.00  0.00    -0.362 N 
HETATM   10  C9  UNL     1      -4.076  -2.055  -0.395  1.00  0.00     0.167 C 
HETATM   11  S1  UNL     1      -5.328  -2.530  -1.383  1.00  0.00    -0.041 SA
HETATM   12  N5  UNL     1      -2.791  -1.408  -0.779  1.00  0.00    -0.367 N 
HETATM   13  C10 UNL     1      -1.594  -0.802  -1.247  1.00  0.00     0.130 C 
HETATM   14  C11 UNL     1      -0.878   0.027  -0.270  1.00  0.00     0.054 C 
HETATM   15  C12 UNL     1      -0.317   1.313  -0.900  1.00  0.00     0.009 C 
HETATM   16  C13 UNL     1      -1.257   2.465  -0.749  1.00  0.00     0.001 C 
HETATM   17  C14 UNL     1      -1.252   3.064   0.621  1.00  0.00     0.002 C 
HETATM   18  C15 UNL     1      -0.084   2.663   1.494  1.00  0.00     0.030 C 
HETATM   19  C16 UNL     1      -0.310   1.309   2.146  1.00  0.00     0.271 C 
HETATM   20  N6  UNL     1       0.517   0.316   1.639  1.00  0.00     0.105 N 
HETATM   21  C17 UNL     1       0.199  -0.596   0.626  1.00  0.00     0.259 A 
HETATM   22  H6  UNL     1      -5.332  -2.785   1.244  1.00  0.00     0.162 HD
HETATM   23  H7  UNL     1      -3.163  -1.700  -1.698  1.00  0.00     0.161 HD
HETATM   24  H21 UNL     1       1.461   0.769   1.378  1.00  0.00     0.317 HD
ENDROOT
BRANCH   1  25
HETATM   25  N1  UNL     1       2.528  -0.260  -0.700  1.00  0.00    -0.336 N 
HETATM   26  C2  UNL     1       3.650  -0.054   0.198  1.00  0.00     0.136 A 
HETATM   27  C1  UNL     1       4.876   0.471   0.019  1.00  0.00     0.153 A 
HETATM   28  F1  UNL     1       5.773   0.551   1.040  1.00  0.00    -0.203 F 
HETATM   29  C20 UNL     1       5.137   0.937  -1.333  1.00  0.00     0.071 A 
HETATM   30  C19 UNL     1       4.144   0.787  -2.171  1.00  0.00     0.020 A 
HETATM   31 CL1  UNL     1       6.676   1.643  -1.729  1.00  0.00    -0.081 Cl
HETATM   32  C18 UNL     1       2.782   0.240  -2.031  1.00  0.00     0.159 A 
ENDBRANCH   1  25
TORSDOF 1
