REMARK  7 active torsions:
REMARK  status: ('A' for Active; 'I' for Inactive)
REMARK    1  A    between atoms: N2_2  and  C1_3 
REMARK    2  A    between atoms: C1_3  and  C2_4 
REMARK    3  A    between atoms: C2_4  and  N3_5 
REMARK    4  A    between atoms: N3_5  and  C3_6 
REMARK    5  A    between atoms: C3_6  and  C4_7 
REMARK    6  A    between atoms: C13_19  and  N6_20 
REMARK    7  A    between atoms: N6_20  and  C14_21 
ROOT
HETATM    1  C1  UNL     1      -0.199  -0.278  -1.710  1.00  0.00     0.096 C 
HETATM    2  C10 UNL     1      -1.154   0.497  -2.161  1.00  0.00     0.036 A 
HETATM    3  C11 UNL     1      -0.736   1.276  -3.352  1.00  0.00     0.195 A 
HETATM    4  N4  UNL     1      -1.847   2.101  -3.747  1.00  0.00    -0.278 NA
HETATM    5  C12 UNL     1      -2.975   2.105  -3.135  1.00  0.00     0.229 A 
HETATM    6  N5  UNL     1      -3.362   1.332  -1.982  1.00  0.00    -0.224 NA
HETATM    7  C13 UNL     1      -2.456   0.543  -1.512  1.00  0.00     0.139 A 
ENDROOT
BRANCH   1   8
HETATM    8  N2  UNL     1       0.727   0.124  -2.706  1.00  0.00    -0.160 NA
HETATM    9  N1  UNL     1       1.416  -0.607  -3.443  1.00  0.00    -0.203 NA
HETATM   10  H1  UNL     1       1.444  -1.642  -3.472  1.00  0.00     0.212 HD
ENDBRANCH   1   8
BRANCH   1  11
HETATM   11  C2  UNL     1       0.579  -1.248  -0.913  1.00  0.00     0.331 C 
BRANCH  11  12
HETATM   12  N3  UNL     1       1.773  -0.638  -0.347  1.00  0.00     0.093 N 
HETATM   13  H4  UNL     1       1.518   0.180   0.248  1.00  0.00     0.316 HD
BRANCH  12  14
HETATM   14  C3  UNL     1       2.532  -1.571   0.434  1.00  0.00     0.308 C 
BRANCH  14  15
HETATM   15  C4  UNL     1       3.757  -0.940   1.016  1.00  0.00    -0.029 A 
HETATM   16  C5  UNL     1       3.717  -0.330   2.270  1.00  0.00     0.009 A 
HETATM   17  C6  UNL     1       4.854   0.257   2.816  1.00  0.00     0.002 A 
HETATM   18  C7  UNL     1       6.016   0.219   2.087  1.00  0.00     0.024 A 
HETATM   19  C8  UNL     1       6.128  -0.371   0.833  1.00  0.00     0.034 A 
HETATM   20 CL1  UNL     1       7.628  -0.390  -0.048  1.00  0.00    -0.084 Cl
HETATM   21  C9  UNL     1       4.970  -0.928   0.359  1.00  0.00     0.032 A 
ENDBRANCH  14  15
ENDBRANCH  12  14
ENDBRANCH  11  12
ENDBRANCH   1  11
BRANCH   7  22
HETATM   22  N6  UNL     1      -2.746  -0.255  -0.388  1.00  0.00    -0.340 N 
HETATM   23  H14 UNL     1      -2.293  -1.192  -0.368  1.00  0.00     0.167 HD
BRANCH  22  24
HETATM   24  C14 UNL     1      -3.588   0.169   0.663  1.00  0.00     0.035 A 
HETATM   25  C15 UNL     1      -4.221   1.368   0.832  1.00  0.00     0.029 A 
HETATM   26  C16 UNL     1      -5.033   1.677   1.901  1.00  0.00     0.004 A 
HETATM   27  C17 UNL     1      -5.251   0.744   2.893  1.00  0.00     0.024 A 
HETATM   28  C18 UNL     1      -4.646  -0.487   2.790  1.00  0.00     0.036 A 
HETATM   29 CL2  UNL     1      -4.894  -1.702   4.025  1.00  0.00    -0.084 Cl
HETATM   30  C19 UNL     1      -3.845  -0.735   1.696  1.00  0.00     0.053 A 
ENDBRANCH  22  24
ENDBRANCH   7  22
TORSDOF 7
