REMARK  6 active torsions:
REMARK  status: ('A' for Active; 'I' for Inactive)
REMARK    1  A    between atoms: C1_2  and  N1_3 
REMARK    2  A    between atoms: C1_2  and  N3_12 
REMARK    3  A    between atoms: N1_3  and  C2_4 
REMARK    4  A    between atoms: C2_4  and  C3_5 
REMARK    5  A    between atoms: C3_5  and  N2_6 
REMARK    6  A    between atoms: N3_12  and  C8_13 
ROOT
HETATM    1  S1  UNL     1       1.345   1.063  -1.383  1.00  0.00    -0.041 SA
HETATM    2  C1  UNL     1       0.650   0.149  -0.202  1.00  0.00     0.172 C 
ENDROOT
BRANCH   2   3
HETATM    3  N1  UNL     1      -0.722   0.330   0.220  1.00  0.00    -0.365 N 
HETATM    4  H1  UNL     1      -1.008  -0.326   0.969  1.00  0.00     0.161 HD
BRANCH   3   5
HETATM    5  C2  UNL     1      -1.398   1.372  -0.476  1.00  0.00     0.152 C 
BRANCH   5   6
HETATM    6  C3  UNL     1      -2.815   1.615  -0.133  1.00  0.00     0.292 C 
BRANCH   6   7
HETATM    7  N2  UNL     1      -3.753   0.578  -0.365  1.00  0.00     0.094 N 
HETATM    8  C4  UNL     1      -3.665  -0.591   0.426  1.00  0.00     0.298 C 
HETATM    9  C5  UNL     1      -4.916  -1.421   0.464  1.00  0.00     0.198 C 
HETATM   10  O1  UNL     1      -5.847  -1.002  -0.500  1.00  0.00    -0.388 OA
HETATM   11  C6  UNL     1      -6.200   0.297  -0.069  1.00  0.00     0.198 C 
HETATM   12  C7  UNL     1      -5.063   1.198  -0.390  1.00  0.00     0.298 C 
ENDBRANCH   6   7
ENDBRANCH   5   6
ENDBRANCH   3   5
ENDBRANCH   2   3
BRANCH   2  13
HETATM   13  N3  UNL     1       1.521  -0.826   0.361  1.00  0.00    -0.333 N 
HETATM   14  H14 UNL     1       1.301  -1.516   1.124  1.00  0.00     0.168 HD
BRANCH  13  15
HETATM   15  C8  UNL     1       2.863  -1.016  -0.039  1.00  0.00     0.035 A 
HETATM   16  C9  UNL     1       3.439  -1.931  -0.907  1.00  0.00     0.032 A 
HETATM   17  C10 UNL     1       4.791  -1.907  -1.162  1.00  0.00     0.035 A 
HETATM   18  C11 UNL     1       5.608  -0.972  -0.562  1.00  0.00     0.070 A 
HETATM   19  N4  UNL     1       6.932  -0.957  -0.816  1.00  0.00    -0.241 NA
HETATM   20  C14 UNL     1       5.050  -0.042   0.314  1.00  0.00     0.012 A 
HETATM   21  C12 UNL     1       7.755  -0.049  -0.238  1.00  0.00     0.233 A 
HETATM   22  N5  UNL     1       7.235   0.863   0.615  1.00  0.00    -0.253 NA
HETATM   23  C13 UNL     1       5.914   0.885   0.900  1.00  0.00     0.132 A 
HETATM   24  C15 UNL     1       3.690  -0.068   0.570  1.00  0.00     0.044 A 
ENDBRANCH  13  15
ENDBRANCH   2  13
TORSDOF 6
