REMARK  7 active torsions:
REMARK  status: ('A' for Active; 'I' for Inactive)
REMARK    1  A    between atoms: C1_2  and  N1_3 
REMARK    2  A    between atoms: C1_2  and  N3_12 
REMARK    3  A    between atoms: N1_3  and  C2_4 
REMARK    4  A    between atoms: C2_4  and  C3_5 
REMARK    5  A    between atoms: C3_5  and  N2_6 
REMARK    6  A    between atoms: N3_12  and  C8_13 
REMARK    7  A    between atoms: C13_20  and  C14_21 
ROOT
HETATM    1  C8  UNL     1       0.889  -0.939  -1.871  1.00  0.00     0.035 A 
HETATM    2  C9  UNL     1       1.009  -1.276  -3.225  1.00  0.00     0.032 A 
HETATM    3  C10 UNL     1       2.217  -1.157  -3.900  1.00  0.00     0.035 A 
HETATM    4  C11 UNL     1       3.334  -0.701  -3.246  1.00  0.00     0.070 A 
HETATM    5  N4  UNL     1       4.556  -0.564  -3.811  1.00  0.00    -0.241 NA
HETATM    6  C12 UNL     1       5.613  -0.120  -3.099  1.00  0.00     0.234 A 
HETATM    7  N5  UNL     1       5.473   0.203  -1.788  1.00  0.00    -0.240 NA
HETATM    8  C13 UNL     1       4.274   0.091  -1.156  1.00  0.00     0.081 A 
HETATM    9  C20 UNL     1       3.231  -0.365  -1.915  1.00  0.00     0.025 A 
HETATM   10  C21 UNL     1       2.032  -0.484  -1.248  1.00  0.00     0.045 A 
ENDROOT
BRANCH   1  11
HETATM   11  N3  UNL     1      -0.382  -1.086  -1.260  1.00  0.00    -0.333 N 
HETATM   12  H14 UNL     1      -0.673  -0.113  -1.439  1.00  0.00     0.168 HD
BRANCH  11  13
HETATM   13  C1  UNL     1      -0.827  -2.295  -0.681  1.00  0.00     0.172 C 
HETATM   14  S1  UNL     1       0.201  -3.559  -0.743  1.00  0.00    -0.041 SA
BRANCH  13  15
HETATM   15  N1  UNL     1      -2.090  -2.461  -0.063  1.00  0.00    -0.365 N 
HETATM   16  H1  UNL     1      -2.359  -3.385   0.342  1.00  0.00     0.161 HD
BRANCH  15  17
HETATM   17  C2  UNL     1      -3.092  -1.427   0.068  1.00  0.00     0.141 C 
BRANCH  17  18
HETATM   18  C3  UNL     1      -2.661  -0.347   1.020  1.00  0.00     0.136 C 
BRANCH  18  19
HETATM   19  N2  UNL     1      -3.614   0.699   1.188  1.00  0.00    -0.407 N 
HETATM   20  C4  UNL     1      -4.815   0.337   1.855  1.00  0.00     0.143 C 
HETATM   21  C5  UNL     1      -5.985   0.416   0.896  1.00  0.00     0.187 C 
HETATM   22  O1  UNL     1      -6.152   1.683   0.406  1.00  0.00    -0.388 OA
HETATM   23  C6  UNL     1      -5.006   2.452   0.421  1.00  0.00     0.187 C 
HETATM   24  C7  UNL     1      -3.819   1.552   0.062  1.00  0.00     0.143 C 
ENDBRANCH  18  19
ENDBRANCH  17  18
ENDBRANCH  15  17
ENDBRANCH  13  15
ENDBRANCH  11  13
ENDBRANCH   1  11
BRANCH   8  25
HETATM   25  C14 UNL     1       4.302   0.477   0.244  1.00  0.00    -0.005 A 
HETATM   26  C15 UNL     1       5.299  -0.107   1.014  1.00  0.00     0.015 A 
HETATM   27  C16 UNL     1       5.434   0.205   2.370  1.00  0.00     0.026 A 
HETATM   28  C17 UNL     1       4.559   1.102   2.928  1.00  0.00     0.055 A 
HETATM   29 CL1  UNL     1       4.687   1.529   4.631  1.00  0.00    -0.083 Cl
HETATM   30  C18 UNL     1       3.556   1.705   2.201  1.00  0.00     0.056 A 
HETATM   31 CL2  UNL     1       2.417   2.867   2.896  1.00  0.00    -0.083 Cl
HETATM   32  C19 UNL     1       3.457   1.371   0.867  1.00  0.00     0.039 A 
ENDBRANCH   8  25
TORSDOF 7
