REMARK  7 active torsions:
REMARK  status: ('A' for Active; 'I' for Inactive)
REMARK    1  A    between atoms: C1_2  and  N1_3 
REMARK    2  A    between atoms: C1_2  and  N3_12 
REMARK    3  A    between atoms: N1_3  and  C2_4 
REMARK    4  A    between atoms: C2_4  and  C3_5 
REMARK    5  A    between atoms: C3_5  and  N2_6 
REMARK    6  A    between atoms: N3_12  and  C8_13 
REMARK    7  A    between atoms: C13_20  and  C14_21 
ROOT
HETATM    1  C8  UNL     1       1.540  -0.714   0.006  1.00  0.00     0.035 A 
HETATM    2  C9  UNL     1       1.244  -1.919   0.601  1.00  0.00     0.032 A 
HETATM    3  C10 UNL     1       2.212  -2.732   1.146  1.00  0.00     0.035 A 
HETATM    4  C11 UNL     1       3.521  -2.270   1.065  1.00  0.00     0.070 A 
HETATM    5  N4  UNL     1       4.480  -3.063   1.596  1.00  0.00    -0.241 NA
HETATM    6  C12 UNL     1       5.786  -2.661   1.543  1.00  0.00     0.234 A 
HETATM    7  N5  UNL     1       6.029  -1.481   0.955  1.00  0.00    -0.240 NA
HETATM    8  C13 UNL     1       5.107  -0.685   0.427  1.00  0.00     0.082 A 
HETATM    9  C19 UNL     1       3.782  -1.061   0.464  1.00  0.00     0.025 A 
HETATM   10  C20 UNL     1       2.829  -0.233  -0.087  1.00  0.00     0.045 A 
ENDROOT
BRANCH   1  11
HETATM   11  N3  UNL     1       0.459   0.033  -0.531  1.00  0.00    -0.333 N 
HETATM   12  H14 UNL     1       0.497   0.094  -1.591  1.00  0.00     0.168 HD
BRANCH  11  13
HETATM   13  C1  UNL     1      -0.622   0.677   0.181  1.00  0.00     0.172 C 
HETATM   14  S1  UNL     1      -0.510   0.458   1.795  1.00  0.00    -0.041 SA
BRANCH  13  15
HETATM   15  N1  UNL     1      -1.617   1.390  -0.528  1.00  0.00    -0.365 N 
HETATM   16  H1  UNL     1      -1.538   1.449  -1.560  1.00  0.00     0.161 HD
BRANCH  15  17
HETATM   17  C2  UNL     1      -2.694   2.006   0.227  1.00  0.00     0.141 C 
BRANCH  17  18
HETATM   18  C3  UNL     1      -3.616   0.973   0.817  1.00  0.00     0.136 C 
BRANCH  18  19
HETATM   19  N2  UNL     1      -4.216   0.179  -0.204  1.00  0.00    -0.407 N 
HETATM   20  C4  UNL     1      -5.177   0.827  -1.034  1.00  0.00     0.143 C 
HETATM   21  C5  UNL     1      -6.513   0.774  -0.307  1.00  0.00     0.187 C 
HETATM   22  O1  UNL     1      -6.883  -0.552  -0.214  1.00  0.00    -0.388 OA
HETATM   23  C6  UNL     1      -6.014  -1.323   0.514  1.00  0.00     0.187 C 
HETATM   24  C7  UNL     1      -4.561  -1.158   0.164  1.00  0.00     0.143 C 
ENDBRANCH  18  19
ENDBRANCH  17  18
ENDBRANCH  15  17
ENDBRANCH  13  15
ENDBRANCH  11  13
ENDBRANCH   1  11
BRANCH   8  25
HETATM   25  C14 UNL     1       5.581   0.575  -0.184  1.00  0.00     0.006 C 
HETATM   26  C15 UNL     1       5.646   0.789  -1.493  1.00  0.00    -0.011 C 
HETATM   27  C16 UNL     1       6.794   1.324  -1.891  1.00  0.00     0.032 C 
HETATM   28  C17 UNL     1       6.830   2.300  -0.759  1.00  0.00     0.012 C 
HETATM   29 BR1  UNL     1       7.598   4.023  -0.289  1.00  0.00    -0.051 Br
HETATM   30  C18 UNL     1       6.099   1.872   0.299  1.00  0.00     0.033 C 
ENDBRANCH   8  25
TORSDOF 7
