REMARK  5 active torsions:
REMARK  status: ('A' for Active; 'I' for Inactive)
REMARK    1  A    between atoms: C3_3  and  N1_4 
REMARK    2  A    between atoms: N1_4  and  C4_5 
REMARK    3  A    between atoms: C5_6  and  O1_7 
REMARK    4  A    between atoms: O1_7  and  C6_8 
REMARK    5  A    between atoms: C6_8  and  C7_9 
ROOT
HETATM    1  C4  UNL     1      -1.143   1.372  -0.255  1.00  0.00     0.063 A 
HETATM    2  C5  UNL     1       0.103   1.342   0.189  1.00  0.00     0.077 A 
HETATM    3  C13 UNL     1       0.514   2.654   0.738  1.00  0.00     0.100 A 
HETATM    4  C14 UNL     1      -0.723   3.473   0.537  1.00  0.00    -0.075 A 
HETATM    5  C15 UNL     1      -0.741   4.900   0.965  1.00  0.00     0.044 C 
HETATM    6  C16 UNL     1      -1.664   2.735  -0.030  1.00  0.00     0.035 A 
ENDROOT
BRANCH   1   7
HETATM    7  N1  UNL     1      -1.973   0.386  -0.857  1.00  0.00    -0.338 N 
HETATM    8  H3  UNL     1      -2.255   0.491  -1.870  1.00  0.00     0.167 HD
BRANCH   7   9
HETATM    9  C3  UNL     1      -2.432  -0.734  -0.132  1.00  0.00     0.138 A 
HETATM   10  C2  UNL     1      -3.607  -1.484  -0.504  1.00  0.00     0.018 A 
HETATM   11  C1  UNL     1      -4.274  -1.103  -1.566  1.00  0.00     0.026 C 
HETATM   12  C18 UNL     1      -4.176  -2.667   0.177  1.00  0.00     0.241 A 
HETATM   13  N3  UNL     1      -3.353  -2.968   1.308  1.00  0.00    -0.257 NA
HETATM   14 CL1  UNL     1      -5.854  -2.275   0.629  1.00  0.00    -0.095 Cl
HETATM   15  C17 UNL     1      -2.314  -2.262   1.592  1.00  0.00     0.231 A 
HETATM   16  N2  UNL     1      -1.789  -1.126   0.917  1.00  0.00    -0.224 NA
ENDBRANCH   7   9
ENDBRANCH   1   7
BRANCH   2  17
HETATM   17  O1  UNL     1       1.090   0.382   0.257  1.00  0.00    -0.348 OA
BRANCH  17  18
HETATM   18  C6  UNL     1       2.078   0.251  -0.771  1.00  0.00     0.214 C 
BRANCH  18  19
HETATM   19  C7  UNL     1       3.035  -0.833  -0.502  1.00  0.00    -0.031 A 
HETATM   20  C8  UNL     1       2.908  -2.152  -0.895  1.00  0.00     0.009 A 
HETATM   21  C9  UNL     1       3.878  -3.084  -0.582  1.00  0.00     0.004 A 
HETATM   22  C10 UNL     1       5.019  -2.762   0.134  1.00  0.00     0.042 A 
HETATM   23  C11 UNL     1       5.157  -1.447   0.532  1.00  0.00     0.117 A 
HETATM   24  F1  UNL     1       6.249  -1.076   1.232  1.00  0.00    -0.206 F 
HETATM   25  C12 UNL     1       4.176  -0.520   0.211  1.00  0.00     0.051 A 
ENDBRANCH  18  19
ENDBRANCH  17  18
ENDBRANCH   2  17
TORSDOF 5
