REMARK  2 active torsions:
REMARK  status: ('A' for Active; 'I' for Inactive)
REMARK    1  A    between atoms: N1_1  and  C1_2 
REMARK    2  A    between atoms: C5_8  and  C6_9 
ROOT
HETATM    1  C1  UNL     1      -2.442   1.404  -0.861  1.00  0.00     0.135 C 
HETATM    2  N2  UNL     1      -1.125   1.203  -1.202  1.00  0.00    -0.227 NA
HETATM    3  C2  UNL     1      -0.547   2.553  -1.501  1.00  0.00     0.235 C 
HETATM    4  N3  UNL     1       0.659   2.813  -1.198  1.00  0.00    -0.242 NA
HETATM    5  C3  UNL     1       1.462   1.797  -0.553  1.00  0.00     0.057 C 
HETATM    6  C4  UNL     1       2.527   1.115  -1.016  1.00  0.00     0.020 C 
HETATM    7  C5  UNL     1       3.251   0.915   0.303  1.00  0.00     0.093 C 
HETATM    8  C12 UNL     1       2.176   0.293   1.043  1.00  0.00     0.026 C 
HETATM    9  C13 UNL     1       1.262   1.230   0.814  1.00  0.00     0.057 C 
HETATM   10  N4  UNL     1       1.659  -0.781   1.842  1.00  0.00    -0.336 N 
HETATM   11  C14 UNL     1       0.562  -1.391   1.290  1.00  0.00     0.172 C 
HETATM   12  S1  UNL     1      -0.014  -2.555   2.283  1.00  0.00    -0.041 SA
HETATM   13  N5  UNL     1      -0.459  -1.731   0.440  1.00  0.00    -0.365 N 
HETATM   14  C15 UNL     1      -1.501  -2.083  -0.419  1.00  0.00     0.152 C 
HETATM   15  C16 UNL     1      -2.878  -1.786   0.038  1.00  0.00     0.293 C 
HETATM   16  N6  UNL     1      -3.251  -0.510   0.458  1.00  0.00     0.106 NA
HETATM   17  C17 UNL     1      -4.519  -0.698   1.228  1.00  0.00     0.299 C 
HETATM   18  C18 UNL     1      -5.677  -0.496   0.283  1.00  0.00     0.198 C 
HETATM   19  O1  UNL     1      -5.392  -0.763  -1.041  1.00  0.00    -0.387 OA
HETATM   20  C19 UNL     1      -4.455   0.124  -1.579  1.00  0.00     0.211 C 
HETATM   21  C20 UNL     1      -3.536   0.530  -0.449  1.00  0.00     0.315 C 
HETATM   22  H11 UNL     1       2.253  -0.854   2.621  1.00  0.00     0.168 HD
HETATM   23  H12 UNL     1       0.050  -0.969  -0.060  1.00  0.00     0.161 HD
ENDROOT
BRANCH   7  24
HETATM   24  C6  UNL     1       4.490   0.181   0.128  1.00  0.00    -0.043 A 
HETATM   25  C7  UNL     1       5.089   0.413  -1.096  1.00  0.00     0.008 A 
HETATM   26  C8  UNL     1       6.308  -0.224  -1.335  1.00  0.00     0.002 A 
HETATM   27  C9  UNL     1       6.938  -1.073  -0.406  1.00  0.00     0.019 A 
HETATM   28  C10 UNL     1       6.297  -1.280   0.824  1.00  0.00     0.011 A 
HETATM   29 BR1  UNL     1       7.183  -2.433   2.034  1.00  0.00    -0.051 Br
HETATM   30  C11 UNL     1       5.101  -0.632   1.020  1.00  0.00     0.027 A 
ENDBRANCH   7  24
BRANCH   1  31
HETATM   31  N1  UNL     1      -2.372   2.803  -1.041  1.00  0.00    -0.386 N 
HETATM   32  H1  UNL     1      -2.334   3.363  -0.127  1.00  0.00     0.157 HD
HETATM   33  H2  UNL     1      -2.405   2.983  -2.110  1.00  0.00     0.157 HD
ENDBRANCH   1  31
TORSDOF 2
