REMARK  8 active torsions:
REMARK  status: ('A' for Active; 'I' for Inactive)
REMARK    1  A    between atoms: C1_2  and  N1_3 
REMARK    2  A    between atoms: C1_2  and  N3_12 
REMARK    3  A    between atoms: N1_3  and  C2_4 
REMARK    4  A    between atoms: C2_4  and  C3_5 
REMARK    5  A    between atoms: C3_5  and  N2_6 
REMARK    6  A    between atoms: N3_12  and  C8_13 
REMARK    7  A    between atoms: C12_19  and  N6_20 
REMARK    8  A    between atoms: N6_20  and  C13_21 
ROOT
HETATM    1  C8  UNL     1       0.580  -0.020   1.571  1.00  0.00     0.131 C 
HETATM    2  C9  UNL     1       1.182   1.182   0.897  1.00  0.00     0.021 C 
HETATM    3  C10 UNL     1       1.204   2.267   0.088  1.00  0.00     0.116 C 
HETATM    4  N4  UNL     1       2.474   2.993   0.021  1.00  0.00    -0.254 NA
HETATM    5  C11 UNL     1       3.505   2.145  -0.071  1.00  0.00     0.234 C 
HETATM    6  N5  UNL     1       4.005   0.865  -0.139  1.00  0.00    -0.225 NA
HETATM    7  C12 UNL     1       3.631  -0.285   0.168  1.00  0.00     0.129 C 
HETATM    8  C19 UNL     1       2.682  -1.282   0.723  1.00  0.00     0.049 C 
HETATM    9  C20 UNL     1       1.480  -1.201   1.278  1.00  0.00     0.006 C 
ENDROOT
BRANCH   1  10
HETATM   10  N3  UNL     1      -0.712  -0.323   0.997  1.00  0.00    -0.356 N 
HETATM   11  H14 UNL     1      -0.979   0.276   0.162  1.00  0.00     0.162 HD
BRANCH  10  12
HETATM   12  C1  UNL     1      -1.857  -1.158   1.094  1.00  0.00     0.168 C 
HETATM   13  S1  UNL     1      -1.436  -2.069   2.390  1.00  0.00    -0.041 SA
BRANCH  12  14
HETATM   14  N1  UNL     1      -3.090  -1.280   0.366  1.00  0.00    -0.366 N 
HETATM   15  H1  UNL     1      -3.666  -2.040   0.779  1.00  0.00     0.161 HD
BRANCH  14  16
HETATM   16  C2  UNL     1      -3.114  -0.315  -0.688  1.00  0.00     0.141 C 
BRANCH  16  17
HETATM   17  C3  UNL     1      -4.380  -0.345  -1.504  1.00  0.00     0.136 C 
BRANCH  17  18
HETATM   18  N2  UNL     1      -5.577  -0.100  -0.826  1.00  0.00    -0.407 N 
HETATM   19  C4  UNL     1      -6.801  -0.079  -1.520  1.00  0.00     0.143 C 
HETATM   20  C5  UNL     1      -7.854   0.799  -0.876  1.00  0.00     0.187 C 
HETATM   21  O1  UNL     1      -7.952   0.602   0.485  1.00  0.00    -0.388 OA
HETATM   22  C6  UNL     1      -6.745   0.915   1.072  1.00  0.00     0.187 C 
HETATM   23  C7  UNL     1      -5.598   0.065   0.568  1.00  0.00     0.143 C 
ENDBRANCH  17  18
ENDBRANCH  16  17
ENDBRANCH  14  16
ENDBRANCH  12  14
ENDBRANCH  10  12
ENDBRANCH   1  10
BRANCH   7  24
HETATM   24  N6  UNL     1       4.838  -0.972  -0.286  1.00  0.00    -0.341 N 
HETATM   25  H19 UNL     1       4.947  -1.988  -0.632  1.00  0.00     0.167 HD
BRANCH  24  26
HETATM   26  C13 UNL     1       6.220  -0.544  -0.404  1.00  0.00     0.035 A 
HETATM   27  C14 UNL     1       6.975  -0.842   0.693  1.00  0.00     0.031 A 
HETATM   28  C15 UNL     1       8.327  -0.479   0.714  1.00  0.00     0.028 A 
HETATM   29  C16 UNL     1       8.876   0.176  -0.375  1.00  0.00     0.055 A 
HETATM   30 CL1  UNL     1      10.552   0.645  -0.388  1.00  0.00    -0.083 Cl
HETATM   31  C17 UNL     1       8.087   0.466  -1.476  1.00  0.00     0.058 A 
HETATM   32 CL2  UNL     1       8.736   1.294  -2.878  1.00  0.00    -0.082 Cl
HETATM   33  C18 UNL     1       6.743   0.111  -1.512  1.00  0.00     0.055 A 
ENDBRANCH  24  26
ENDBRANCH   7  24
TORSDOF 8
