REMARK  6 active torsions:
REMARK  status: ('A' for Active; 'I' for Inactive)
REMARK    1  A    between atoms: C4_5  and  N1_6 
REMARK    2  A    between atoms: N1_6  and  N2_7 
REMARK    3  A    between atoms: C12_16  and  N4_17 
REMARK    4  A    between atoms: N4_17  and  C13_18 
REMARK    5  A    between atoms: C13_18  and  C14_19 
REMARK    6  A    between atoms: C14_19  and  N5_20 
ROOT
HETATM    1  N2  UNL     1       2.993  -0.894   0.617  1.00  0.00    -0.207 N 
HETATM    2  C5  UNL     1       2.031  -1.389  -0.381  1.00  0.00     0.210 C 
HETATM    3  C6  UNL     1       1.000  -0.329  -0.481  1.00  0.00    -0.033 C 
HETATM    4  C7  UNL     1      -0.056  -0.180   0.285  1.00  0.00    -0.002 C 
HETATM    5  C8  UNL     1      -0.784   1.039   0.693  1.00  0.00     0.088 C 
HETATM    6  C9  UNL     1       0.063   1.893   1.576  1.00  0.00    -0.010 C 
HETATM    7  C10 UNL     1       1.271   2.019   2.070  1.00  0.00     0.018 C 
HETATM    8  C11 UNL     1       2.349   1.081   1.778  1.00  0.00     0.140 C 
HETATM    9  N3  UNL     1       3.205   0.189   1.443  1.00  0.00    -0.169 NA
HETATM   10  C12 UNL     1      -1.331   1.828  -0.440  1.00  0.00     0.058 C 
HETATM   11  S1  UNL     1      -0.110   1.854  -1.515  1.00  0.00    -0.087 SA
HETATM   12  C19 UNL     1       1.057   0.720  -1.484  1.00  0.00     0.060 C 
ENDROOT
BRANCH   1  13
HETATM   13  N1  UNL     1       4.082  -1.774   0.854  1.00  0.00    -0.282 N 
HETATM   14  H3  UNL     1       3.883  -2.513   1.560  1.00  0.00     0.189 HD
BRANCH  13  15
HETATM   15  C4  UNL     1       5.298  -1.594   0.149  1.00  0.00     0.051 A 
HETATM   16  C3  UNL     1       5.557  -2.208  -1.041  1.00  0.00     0.033 A 
HETATM   17  C2  UNL     1       6.731  -2.046  -1.742  1.00  0.00     0.028 A 
HETATM   18  C1  UNL     1       7.707  -1.206  -1.198  1.00  0.00     0.055 A 
HETATM   19 CL1  UNL     1       9.226  -0.963  -2.050  1.00  0.00    -0.083 Cl
HETATM   20  C21 UNL     1       7.486  -0.563   0.009  1.00  0.00     0.058 A 
HETATM   21  C20 UNL     1       6.278  -0.756   0.687  1.00  0.00     0.056 A 
HETATM   22 CL2  UNL     1       8.757   0.471   0.621  1.00  0.00    -0.082 Cl
ENDBRANCH  13  15
ENDBRANCH   1  13
BRANCH  10  23
HETATM   23  N4  UNL     1      -2.588   2.492  -0.690  1.00  0.00    -0.385 N 
HETATM   24  H11 UNL     1      -2.578   2.975  -1.641  1.00  0.00     0.160 HD
BRANCH  23  25
HETATM   25  C13 UNL     1      -3.807   2.651   0.008  1.00  0.00     0.150 C 
BRANCH  25  26
HETATM   26  C14 UNL     1      -4.782   1.529   0.032  1.00  0.00     0.292 C 
BRANCH  26  27
HETATM   27  N5  UNL     1      -4.342   0.249   0.519  1.00  0.00     0.094 N 
HETATM   28  C15 UNL     1      -5.563  -0.537   0.786  1.00  0.00     0.298 C 
HETATM   29  C16 UNL     1      -6.432  -0.658  -0.421  1.00  0.00     0.198 C 
HETATM   30  O1  UNL     1      -5.772  -1.409  -1.375  1.00  0.00    -0.388 OA
HETATM   31  C17 UNL     1      -4.449  -1.619  -1.114  1.00  0.00     0.198 C 
HETATM   32  C18 UNL     1      -3.680  -0.397  -0.647  1.00  0.00     0.298 C 
ENDBRANCH  26  27
ENDBRANCH  25  26
ENDBRANCH  23  25
ENDBRANCH  10  23
TORSDOF 6
