REMARK  3 active torsions:
REMARK  status: ('A' for Active; 'I' for Inactive)
REMARK       I    between atoms: N1_1  and  C1_2 
REMARK       I    between atoms: C1_2  and  N2_4 
REMARK    1  A    between atoms: N2_4  and  C2_5 
REMARK    2  A    between atoms: C7_12  and  C8_13 
REMARK    3  A    between atoms: C8_13  and  C9_14 
ROOT
HETATM    1  C2  UNL     1      -2.904  -0.285   0.248  1.00  0.00     0.036 A 
HETATM    2  C3  UNL     1      -3.466   0.075  -0.935  1.00  0.00     0.032 A 
HETATM    3  C4  UNL     1      -2.766   0.463  -2.062  1.00  0.00     0.035 A 
HETATM    4  C5  UNL     1      -1.385   0.499  -2.018  1.00  0.00     0.070 A 
HETATM    5  N3  UNL     1      -0.623   0.860  -3.055  1.00  0.00    -0.241 NA
HETATM    6  C6  UNL     1       0.722   0.880  -2.965  1.00  0.00     0.234 A 
HETATM    7  N4  UNL     1       1.289   0.525  -1.797  1.00  0.00    -0.245 NA
HETATM    8  C7  UNL     1       0.591   0.150  -0.710  1.00  0.00     0.052 A 
HETATM    9  C15 UNL     1      -0.782   0.139  -0.831  1.00  0.00     0.020 A 
HETATM   10  C16 UNL     1      -1.524  -0.241   0.267  1.00  0.00     0.045 A 
ENDROOT
BRANCH   8  11
HETATM   11  C8  UNL     1       1.278  -0.228   0.538  1.00  0.00     0.099 C 
BRANCH  11  12
HETATM   12  C9  UNL     1       2.745  -0.113   0.345  1.00  0.00    -0.052 A 
HETATM   13  C10 UNL     1       3.348   1.101   0.635  1.00  0.00     0.009 A 
HETATM   14  C11 UNL     1       4.713   1.308   0.487  1.00  0.00     0.019 A 
HETATM   15  C12 UNL     1       5.500   0.265   0.034  1.00  0.00     0.011 A 
HETATM   16 BR1  UNL     1       7.359   0.646  -0.136  1.00  0.00    -0.051 Br
HETATM   17  C13 UNL     1       4.913  -0.954  -0.260  1.00  0.00     0.019 A 
HETATM   18  C14 UNL     1       3.570  -1.102  -0.096  1.00  0.00     0.009 A 
ENDBRANCH  11  12
ENDBRANCH   8  11
BRANCH   1  19
HETATM   19  N2  UNL     1      -3.557  -0.683   1.409  1.00  0.00    -0.314 N 
HETATM   20  C1  UNL     1      -4.943  -0.813   1.659  1.00  0.00     0.296 C 
HETATM   21  N1  UNL     1      -5.543  -1.226   2.875  1.00  0.00    -0.254 NA
HETATM   22  O1  UNL     1      -5.757  -0.550   0.750  1.00  0.00    -0.254 OA
HETATM   23  H1  UNL     1      -5.403  -0.400   3.503  1.00  0.00     0.128 HD
HETATM   24  H2  UNL     1      -5.429  -0.430   3.541  1.00  0.00     0.128 HD
HETATM   25  H3  UNL     1      -3.022  -0.943   2.277  1.00  0.00     0.170 HD
ENDBRANCH   1  19
TORSDOF 3
