REMARK  5 active torsions:
REMARK  status: ('A' for Active; 'I' for Inactive)
REMARK    1  A    between atoms: C5_6  and  C6_7 
REMARK    2  A    between atoms: C6_7  and  O1_8 
REMARK    3  A    between atoms: O1_8  and  C7_9 
REMARK    4  A    between atoms: C10_12  and  N1_13 
REMARK    5  A    between atoms: N1_13  and  C11_14 
ROOT
HETATM    1  C7  UNL     1      -1.103  -1.082  -0.337  1.00  0.00     0.091 A 
HETATM    2  C8  UNL     1      -0.653  -0.091   0.498  1.00  0.00     0.041 A 
HETATM    3  C9  UNL     1       0.539   0.575   0.388  1.00  0.00     0.032 A 
HETATM    4  C10 UNL     1       1.372   0.215  -0.670  1.00  0.00     0.035 A 
HETATM    5  C16 UNL     1       1.002  -0.773  -1.561  1.00  0.00     0.056 A 
HETATM    6  C17 UNL     1      -0.233  -1.417  -1.392  1.00  0.00     0.069 A 
HETATM    7 CL1  UNL     1      -0.490  -2.639  -2.648  1.00  0.00    -0.081 Cl
ENDROOT
BRANCH   1   8
HETATM    8  O1  UNL     1      -2.196  -1.863  -0.438  1.00  0.00    -0.345 OA
BRANCH   8   9
HETATM    9  C6  UNL     1      -3.349  -1.977   0.298  1.00  0.00     0.214 C 
BRANCH   9  10
HETATM   10  C5  UNL     1      -4.200  -0.773   0.391  1.00  0.00    -0.031 A 
HETATM   11  C4  UNL     1      -5.122  -0.567  -0.643  1.00  0.00     0.009 A 
HETATM   12  C3  UNL     1      -5.987   0.510  -0.675  1.00  0.00     0.004 A 
HETATM   13  C2  UNL     1      -5.976   1.448   0.333  1.00  0.00     0.042 A 
HETATM   14  C1  UNL     1      -5.080   1.267   1.359  1.00  0.00     0.117 A 
HETATM   15  F1  UNL     1      -4.973   2.130   2.421  1.00  0.00    -0.206 F 
HETATM   16  C18 UNL     1      -4.230   0.192   1.373  1.00  0.00     0.051 A 
ENDBRANCH   9  10
ENDBRANCH   8   9
ENDBRANCH   1   8
BRANCH   4  17
HETATM   17  N1  UNL     1       2.581   0.975  -0.689  1.00  0.00    -0.344 N 
HETATM   18  H8  UNL     1       2.606   1.850  -1.258  1.00  0.00     0.167 HD
BRANCH  17  19
HETATM   19  C11 UNL     1       3.722   0.551   0.046  1.00  0.00     0.109 C 
HETATM   20  N2  UNL     1       3.806  -0.722   0.238  1.00  0.00    -0.228 NA
HETATM   21  C12 UNL     1       4.825  -1.471   0.936  1.00  0.00     0.234 C 
HETATM   22  N3  UNL     1       6.043  -1.052   1.088  1.00  0.00    -0.254 NA
HETATM   23  C13 UNL     1       6.663   0.157   0.648  1.00  0.00     0.114 C 
HETATM   24  C14 UNL     1       6.058   1.303   0.386  1.00  0.00     0.000 C 
HETATM   25  C15 UNL     1       4.623   1.653   0.469  1.00  0.00     0.107 C 
ENDBRANCH  17  19
ENDBRANCH   4  17
TORSDOF 5
