REMARK  4 active torsions:
REMARK  status: ('A' for Active; 'I' for Inactive)
REMARK    1  A    between atoms: C2_2  and  N1_3 
REMARK    2  A    between atoms: C2_2  and  N2_4 
REMARK    3  A    between atoms: N2_4  and  C3_5 
REMARK    4  A    between atoms: C6_8  and  C7_9 
ROOT
HETATM    1  C3  UNL     1       1.686   0.967   0.279  1.00  0.00     0.270 C 
HETATM    2  C4  UNL     1       1.144   0.786  -1.097  1.00  0.00     0.011 C 
HETATM    3  C5  UNL     1      -0.157   0.894  -1.426  1.00  0.00     0.014 C 
HETATM    4  C6  UNL     1      -1.131   1.213  -0.366  1.00  0.00     0.121 C 
HETATM    5  N3  UNL     1      -2.046   2.289  -0.775  1.00  0.00    -0.362 N 
HETATM    6  C13 UNL     1      -2.582   2.704   0.500  1.00  0.00     0.204 C 
HETATM    7  N4  UNL     1      -1.725   2.425   1.451  1.00  0.00    -0.246 NA
HETATM    8  C14 UNL     1      -0.570   1.807   0.846  1.00  0.00     0.071 C 
HETATM    9  C15 UNL     1       0.730   1.694   1.144  1.00  0.00     0.043 C 
HETATM   10  H15 UNL     1      -2.401   2.801  -1.606  1.00  0.00     0.162 HD
ENDROOT
BRANCH   1  11
HETATM   11  N2  UNL     1       2.086  -0.278   0.858  1.00  0.00     0.128 N 
HETATM   12  H7  UNL     1       2.479  -0.112   1.801  1.00  0.00     0.319 HD
BRANCH  11  13
HETATM   13  C2  UNL     1       3.128  -0.858   0.002  1.00  0.00     0.446 C 
HETATM   14  C1  UNL     1       3.603  -2.188   0.559  1.00  0.00     0.076 C 
BRANCH  13  15
HETATM   15  N1  UNL     1       4.191   0.090  -0.134  1.00  0.00     0.111 N 
HETATM   16  H5  UNL     1       5.131  -0.234   0.133  1.00  0.00     0.315 HD
HETATM   17  H6  UNL     1       4.185   0.559  -1.074  1.00  0.00     0.315 HD
ENDBRANCH  13  15
ENDBRANCH  11  13
ENDBRANCH   1  11
BRANCH   4  18
HETATM   18  C7  UNL     1      -1.996   0.054  -0.023  1.00  0.00    -0.020 A 
HETATM   19  C8  UNL     1      -2.376  -0.440   1.208  1.00  0.00     0.012 A 
HETATM   20  C9  UNL     1      -3.200  -1.546   1.254  1.00  0.00     0.020 A 
HETATM   21  C10 UNL     1      -3.657  -2.176   0.115  1.00  0.00     0.011 A 
HETATM   22 BR1  UNL     1      -4.802  -3.711   0.291  1.00  0.00    -0.051 Br
HETATM   23  C11 UNL     1      -3.284  -1.690  -1.120  1.00  0.00     0.020 A 
HETATM   24  C12 UNL     1      -2.456  -0.579  -1.184  1.00  0.00     0.012 A 
ENDBRANCH   4  18
TORSDOF 4
