REMARK  2 active torsions:
REMARK  status: ('A' for Active; 'I' for Inactive)
REMARK    1  A    between atoms: C8_12  and  N3_13 
REMARK    2  A    between atoms: N3_13  and  C9_14 
ROOT
HETATM    1  S1  UNL     1      -4.108   3.180   2.555  1.00  0.00    -0.041 SA
HETATM    2  C1  UNL     1      -3.273   1.907   1.983  1.00  0.00     0.172 C 
HETATM    3  N1  UNL     1      -3.242   0.567   2.432  1.00  0.00    -0.365 N 
HETATM    4  C2  UNL     1      -2.422  -0.405   1.792  1.00  0.00     0.152 C 
HETATM    5  C3  UNL     1      -2.819  -0.813   0.411  1.00  0.00     0.289 C 
HETATM    6  N2  UNL     1      -1.792  -1.778  -0.029  1.00  0.00     0.087 N 
HETATM    7  C4  UNL     1      -2.041  -2.169  -1.404  1.00  0.00     0.295 C 
HETATM    8  C5  UNL     1      -1.079  -3.220  -1.874  1.00  0.00     0.197 C 
HETATM    9  O1  UNL     1       0.225  -2.993  -1.874  1.00  0.00    -0.389 OA
HETATM   10  C6  UNL     1       0.941  -2.108  -2.536  1.00  0.00     0.175 C 
HETATM   11  C7  UNL     1       0.827  -0.644  -2.310  1.00  0.00     0.104 C 
HETATM   12  C8  UNL     1       1.142  -0.217  -0.920  1.00  0.00     0.107 C 
HETATM   13  N4  UNL     1       0.890   0.684  -0.062  1.00  0.00    -0.229 NA
HETATM   14  C15 UNL     1       0.004   1.788  -0.322  1.00  0.00     0.235 C 
HETATM   15  N5  UNL     1      -0.024   2.948   0.272  1.00  0.00    -0.240 NA
HETATM   16  C16 UNL     1      -0.994   3.932  -0.133  1.00  0.00     0.085 A 
HETATM   17  C17 UNL     1      -1.316   5.027  -0.768  1.00  0.00     0.036 A 
HETATM   18  C18 UNL     1      -2.710   4.976  -0.403  1.00  0.00     0.034 A 
HETATM   19  C19 UNL     1      -2.450   3.871   0.255  1.00  0.00     0.063 A 
HETATM   20  N6  UNL     1      -2.760   2.775   1.029  1.00  0.00    -0.331 N 
HETATM   21  H1  UNL     1      -3.898   0.537   3.240  1.00  0.00     0.161 HD
HETATM   22  H6  UNL     1      -1.873  -2.620   0.583  1.00  0.00     0.316 HD
HETATM   23  H23 UNL     1      -2.265   2.006   0.585  1.00  0.00     0.168 HD
ENDROOT
BRANCH  12  24
HETATM   24  N3  UNL     1       2.110  -1.110  -0.338  1.00  0.00    -0.344 N 
HETATM   25  H15 UNL     1       2.223  -2.167  -0.442  1.00  0.00     0.167 HD
BRANCH  24  26
HETATM   26  C9  UNL     1       3.222  -0.895   0.551  1.00  0.00     0.033 A 
HETATM   27  C10 UNL     1       3.077  -0.865   1.919  1.00  0.00     0.031 A 
HETATM   28  C11 UNL     1       4.199  -0.665   2.678  1.00  0.00     0.026 A 
HETATM   29  C12 UNL     1       5.429  -0.500   2.096  1.00  0.00     0.034 A 
HETATM   30 CL1  UNL     1       6.789  -0.256   3.166  1.00  0.00    -0.084 Cl
HETATM   31  C13 UNL     1       5.614  -0.526   0.713  1.00  0.00     0.026 A 
HETATM   32  C14 UNL     1       4.463  -0.731  -0.060  1.00  0.00     0.031 A 
ENDBRANCH  24  26
ENDBRANCH  12  24
TORSDOF 2
