REMARK  8 active torsions:
REMARK  status: ('A' for Active; 'I' for Inactive)
REMARK    1  A    between atoms: C3_4  and  N1_5 
REMARK    2  A    between atoms: N1_5  and  C4_6 
REMARK    3  A    between atoms: C9_13  and  N4_14 
REMARK    4  A    between atoms: N4_14  and  C10_15 
REMARK    5  A    between atoms: C10_15  and  N5_17 
REMARK    6  A    between atoms: N5_17  and  C11_18 
REMARK    7  A    between atoms: C11_18  and  C12_19 
REMARK    8  A    between atoms: C12_19  and  N6_20 
ROOT
HETATM    1  B1  UNL     1       6.715   3.882  -0.399  1.00  0.00     0.196 B 
HETATM    2  C1  UNL     1       7.238   2.257   0.099  1.00  0.00    -0.234 C 
HETATM    3  C2  UNL     1       7.663   0.944   0.515  1.00  0.00     0.050 C 
HETATM    4  C3  UNL     1       6.867   0.025   1.016  1.00  0.00     0.096 C 
ENDROOT
BRANCH   4   5
HETATM    5  N1  UNL     1       5.462   0.121   1.247  1.00  0.00    -0.350 N 
HETATM    6  H3  UNL     1       4.865   0.910   1.591  1.00  0.00     0.166 HD
BRANCH   5   7
HETATM    7  C4  UNL     1       4.749  -1.101   0.977  1.00  0.00     0.141 A 
HETATM    8  N2  UNL     1       5.298  -2.282   1.366  1.00  0.00    -0.224 NA
HETATM    9  C5  UNL     1       4.671  -3.460   1.102  1.00  0.00     0.236 A 
HETATM   10  N3  UNL     1       3.498  -3.447   0.449  1.00  0.00    -0.241 NA
HETATM   11  C6  UNL     1       2.925  -2.283   0.047  1.00  0.00     0.072 A 
HETATM   12  C7  UNL     1       1.705  -2.327  -0.641  1.00  0.00     0.035 A 
HETATM   13  C18 UNL     1       3.534  -1.077   0.302  1.00  0.00     0.041 A 
HETATM   14  C8  UNL     1       1.153  -1.140  -1.045  1.00  0.00     0.032 A 
HETATM   15  C9  UNL     1       1.772   0.078  -0.784  1.00  0.00     0.035 A 
HETATM   16  C17 UNL     1       2.962   0.091  -0.111  1.00  0.00     0.047 A 
BRANCH  15  17
HETATM   17  N4  UNL     1       1.054   1.191  -1.258  1.00  0.00    -0.333 N 
HETATM   18  H7  UNL     1       1.787   1.690  -1.799  1.00  0.00     0.168 HD
BRANCH  17  19
HETATM   19  C10 UNL     1      -0.256   1.744  -1.214  1.00  0.00     0.172 C 
HETATM   20  S1  UNL     1      -0.383   3.173  -2.038  1.00  0.00    -0.041 SA
BRANCH  19  21
HETATM   21  N5  UNL     1      -1.469   1.287  -0.580  1.00  0.00    -0.365 N 
HETATM   22  H8  UNL     1      -2.265   1.958  -0.732  1.00  0.00     0.161 HD
BRANCH  21  23
HETATM   23  C11 UNL     1      -2.003   0.189   0.215  1.00  0.00     0.152 C 
BRANCH  23  24
HETATM   24  C12 UNL     1      -3.326   0.605   0.811  1.00  0.00     0.292 C 
BRANCH  24  25
HETATM   25  N6  UNL     1      -4.361   0.962  -0.107  1.00  0.00     0.094 N 
HETATM   26  C13 UNL     1      -5.394   1.638   0.662  1.00  0.00     0.298 C 
HETATM   27  C14 UNL     1      -6.610   0.835   0.957  1.00  0.00     0.198 C 
HETATM   28  O1  UNL     1      -6.210  -0.441   1.378  1.00  0.00    -0.388 OA
HETATM   29  C15 UNL     1      -5.732  -1.078   0.242  1.00  0.00     0.198 C 
HETATM   30  C16 UNL     1      -4.998  -0.202  -0.714  1.00  0.00     0.298 C 
ENDBRANCH  24  25
ENDBRANCH  23  24
ENDBRANCH  21  23
ENDBRANCH  19  21
ENDBRANCH  17  19
ENDBRANCH  15  17
ENDBRANCH   5   7
ENDBRANCH   4   5
TORSDOF 8
