REMARK  3 active torsions:
REMARK  status: ('A' for Active; 'I' for Inactive)
REMARK       I    between atoms: C2_2  and  N1_4 
REMARK    1  A    between atoms: N1_4  and  C3_5 
REMARK    2  A    between atoms: C8_12  and  N4_13 
REMARK    3  A    between atoms: N4_13  and  C9_14 
ROOT
HETATM    1  C3  UNL     1       2.673  -0.281   0.240  1.00  0.00     0.035 A 
HETATM    2  C4  UNL     1       3.104  -1.573   0.311  1.00  0.00     0.032 A 
HETATM    3  C5  UNL     1       2.285  -2.681   0.368  1.00  0.00     0.035 A 
HETATM    4  C6  UNL     1       0.934  -2.416   0.349  1.00  0.00     0.072 A 
HETATM    5  N2  UNL     1       0.122  -3.506   0.404  1.00  0.00    -0.241 NA
HETATM    6  C7  UNL     1      -1.211  -3.336   0.390  1.00  0.00     0.236 A 
HETATM    7  N3  UNL     1      -1.721  -2.128   0.322  1.00  0.00    -0.224 NA
HETATM    8  C8  UNL     1      -0.957  -1.034   0.267  1.00  0.00     0.142 A 
HETATM    9  C15 UNL     1       0.413  -1.145   0.278  1.00  0.00     0.041 A 
HETATM   10  C16 UNL     1       1.306  -0.124   0.226  1.00  0.00     0.047 A 
ENDROOT
BRANCH   8  11
HETATM   11  N4  UNL     1      -1.524   0.263   0.194  1.00  0.00    -0.340 N 
HETATM   12  H8  UNL     1      -0.949   1.116   0.175  1.00  0.00     0.167 HD
BRANCH  11  13
HETATM   13  C9  UNL     1      -2.885   0.664   0.135  1.00  0.00     0.035 A 
HETATM   14  C10 UNL     1      -3.346   1.974   0.256  1.00  0.00     0.029 A 
HETATM   15  C11 UNL     1      -4.665   2.339   0.189  1.00  0.00     0.004 A 
HETATM   16  C12 UNL     1      -5.634   1.385  -0.010  1.00  0.00     0.019 A 
HETATM   17  C13 UNL     1      -5.240   0.076  -0.137  1.00  0.00     0.013 A 
HETATM   18 BR1  UNL     1      -6.645  -1.182  -0.410  1.00  0.00    -0.051 Br
HETATM   19  C14 UNL     1      -3.909  -0.229  -0.062  1.00  0.00     0.048 A 
ENDBRANCH  11  13
ENDBRANCH   8  11
BRANCH   1  20
HETATM   20  N1  UNL     1       3.470   0.881   0.180  1.00  0.00    -0.327 N 
HETATM   21  C2  UNL     1       4.872   1.006   0.176  1.00  0.00     0.218 C 
HETATM   22  C1  UNL     1       5.637   2.277   0.111  1.00  0.00     0.117 C 
HETATM   23  O1  UNL     1       5.558  -0.042   0.234  1.00  0.00    -0.274 OA
HETATM   24  H4  UNL     1       3.038   1.830   0.128  1.00  0.00     0.169 HD
ENDBRANCH   1  20
TORSDOF 3
