REMARK  5 active torsions:
REMARK  status: ('A' for Active; 'I' for Inactive)
REMARK    1  A    between atoms: C2_2  and  S1_4 
REMARK    2  A    between atoms: S1_4  and  N1_5 
REMARK    3  A    between atoms: N1_5  and  C3_6 
REMARK    4  A    between atoms: C8_13  and  N4_14 
REMARK    5  A    between atoms: N4_14  and  C9_15 
ROOT
HETATM    1  C3  UNL     1       1.985  -0.991  -0.422  1.00  0.00     0.039 A 
HETATM    2  C4  UNL     1       2.446  -2.278  -0.136  1.00  0.00     0.032 A 
HETATM    3  C5  UNL     1       1.614  -3.359   0.051  1.00  0.00     0.035 A 
HETATM    4  C6  UNL     1       0.257  -3.142  -0.053  1.00  0.00     0.072 A 
HETATM    5  N2  UNL     1      -0.609  -4.155   0.115  1.00  0.00    -0.241 NA
HETATM    6  C7  UNL     1      -1.940  -3.939   0.010  1.00  0.00     0.236 A 
HETATM    7  N3  UNL     1      -2.399  -2.700  -0.266  1.00  0.00    -0.224 NA
HETATM    8  C8  UNL     1      -1.580  -1.659  -0.443  1.00  0.00     0.142 A 
HETATM    9  C15 UNL     1      -0.223  -1.879  -0.336  1.00  0.00     0.041 A 
HETATM   10  C16 UNL     1       0.624  -0.793  -0.523  1.00  0.00     0.047 A 
ENDROOT
BRANCH   8  11
HETATM   11  N4  UNL     1      -2.204  -0.417  -0.732  1.00  0.00    -0.340 N 
HETATM   12  H8  UNL     1      -2.147  -0.499  -1.774  1.00  0.00     0.167 HD
BRANCH  11  13
HETATM   13  C9  UNL     1      -2.771   0.684  -0.035  1.00  0.00     0.035 A 
HETATM   14  C10 UNL     1      -3.277   1.687  -0.831  1.00  0.00     0.029 A 
HETATM   15  C11 UNL     1      -3.834   2.759  -0.177  1.00  0.00     0.004 A 
HETATM   16  C12 UNL     1      -3.879   2.818   1.208  1.00  0.00     0.019 A 
HETATM   17  C13 UNL     1      -3.346   1.766   1.930  1.00  0.00     0.013 A 
HETATM   18 BR1  UNL     1      -3.479   1.985   3.822  1.00  0.00    -0.051 Br
HETATM   19  C14 UNL     1      -2.774   0.662   1.336  1.00  0.00     0.048 A 
ENDBRANCH  11  13
ENDBRANCH   8  11
BRANCH   1  20
HETATM   20  N1  UNL     1       2.924   0.072  -0.603  1.00  0.00    -0.324 N 
HETATM   21  H4  UNL     1       3.956  -0.170  -0.497  1.00  0.00     0.174 HD
BRANCH  20  22
HETATM   22  S1  UNL     1       2.503   1.716  -0.977  1.00  0.00     0.024 SA
BRANCH  22  23
HETATM   23  C2  UNL     1       3.911   2.789  -0.599  1.00  0.00     0.202 C 
HETATM   24  C1  UNL     1       5.109   2.060  -0.043  1.00  0.00     0.106 C 
HETATM   25  O1  UNL     1       3.911   3.993  -0.771  1.00  0.00    -0.284 OA
ENDBRANCH  22  23
ENDBRANCH  20  22
ENDBRANCH   1  20
TORSDOF 5
