REMARK  4 active torsions:
REMARK  status: ('A' for Active; 'I' for Inactive)
REMARK    1  A    between atoms: B1_1  and  C1_2 
REMARK       I    between atoms: C1_2  and  N1_4 
REMARK    2  A    between atoms: N1_4  and  C2_5 
REMARK    3  A    between atoms: C3_6  and  N2_7 
REMARK    4  A    between atoms: C6_12  and  C7_13 
ROOT
HETATM    1  C2  UNL     1      -2.346  -0.324   0.385  1.00  0.00     0.039 C 
HETATM    2  C3  UNL     1      -2.061   0.739  -0.319  1.00  0.00     0.055 C 
HETATM    3  C4  UNL     1      -0.874   1.621  -0.245  1.00  0.00     0.195 C 
HETATM    4  N3  UNL     1      -0.654   2.264  -1.555  1.00  0.00    -0.267 NA
HETATM    5  C5  UNL     1       0.548   2.228  -2.069  1.00  0.00     0.228 C 
HETATM    6  N4  UNL     1       1.708   1.627  -1.523  1.00  0.00    -0.241 NA
HETATM    7  C6  UNL     1       1.684   1.003  -0.398  1.00  0.00     0.077 C 
HETATM    8  C13 UNL     1       0.309   0.794   0.080  1.00  0.00    -0.001 C 
HETATM    9  C14 UNL     1       0.046  -0.250   0.853  1.00  0.00    -0.009 C 
HETATM   10  C15 UNL     1      -1.282  -0.603   1.381  1.00  0.00     0.087 C 
ENDROOT
BRANCH   1  11
HETATM   11  N1  UNL     1      -3.441  -1.215   0.374  1.00  0.00    -0.340 N 
HETATM   12  C1  UNL     1      -4.649  -1.405  -0.315  1.00  0.00     0.155 C 
HETATM   13  O1  UNL     1      -4.904  -0.567  -1.212  1.00  0.00    -0.289 OA
HETATM   14  H3  UNL     1      -3.411  -2.004   1.068  1.00  0.00     0.167 HD
BRANCH  12  15
HETATM   15  B1  UNL     1      -5.723  -2.487  -0.147  1.00  0.00     0.250 B 
HETATM   16  H1  UNL     1      -6.815  -2.126   0.197  1.00  0.00    -0.021 HD
HETATM   17  H2  UNL     1      -5.530  -3.647  -0.049  1.00  0.00    -0.021 HD
ENDBRANCH  12  15
ENDBRANCH   1  11
BRANCH   2  18
HETATM   18  N2  UNL     1      -2.984   1.148  -1.312  1.00  0.00    -0.399 N 
HETATM   19  H4  UNL     1      -2.656   0.630  -2.181  1.00  0.00     0.156 HD
HETATM   20  H5  UNL     1      -3.633   1.807  -0.800  1.00  0.00     0.156 HD
ENDBRANCH   2  18
BRANCH   7  21
HETATM   21  C7  UNL     1       2.879   0.424   0.145  1.00  0.00    -0.005 A 
HETATM   22  C8  UNL     1       3.987   0.454  -0.718  1.00  0.00     0.014 A 
HETATM   23  C9  UNL     1       5.250   0.009  -0.393  1.00  0.00     0.002 A 
HETATM   24  C10 UNL     1       5.483  -0.502   0.844  1.00  0.00     0.019 A 
HETATM   25  C11 UNL     1       4.452  -0.566   1.752  1.00  0.00     0.011 A 
HETATM   26 BR1  UNL     1       4.691  -1.268   3.504  1.00  0.00    -0.051 Br
HETATM   27  C12 UNL     1       3.224  -0.103   1.352  1.00  0.00     0.032 A 
ENDBRANCH   7  21
TORSDOF 4
