REMARK  3 active torsions:
REMARK  status: ('A' for Active; 'I' for Inactive)
REMARK       I    between atoms: C2_2  and  N1_4 
REMARK    1  A    between atoms: N3_11  and  N4_12 
REMARK    2  A    between atoms: N4_12  and  N5_13 
REMARK    3  A    between atoms: N5_13  and  C8_14 
ROOT
HETATM    1  C1  UNL     1      -4.156  -2.634  -1.376  1.00  0.00     0.118 C 
HETATM    2  C2  UNL     1      -2.821  -2.216  -0.905  1.00  0.00     0.238 C 
HETATM    3  O1  UNL     1      -1.853  -3.022  -0.937  1.00  0.00    -0.273 OA
HETATM    4  N1  UNL     1      -2.722  -0.870  -0.427  1.00  0.00    -0.123 N 
HETATM    5  C3  UNL     1      -3.865  -0.022  -0.425  1.00  0.00     0.118 C 
HETATM    6  C4  UNL     1      -3.974   1.209   0.042  1.00  0.00     0.020 C 
HETATM    7  C5  UNL     1      -2.997   2.078   0.687  1.00  0.00     0.019 C 
HETATM    8  C6  UNL     1      -1.753   1.786   1.032  1.00  0.00     0.106 C 
HETATM    9  N2  UNL     1      -1.062   0.554   0.860  1.00  0.00    -0.198 N 
HETATM   10  C7  UNL     1      -1.398  -0.558   0.005  1.00  0.00     0.731 C 
HETATM   11  N3  UNL     1      -0.387  -1.285  -0.361  1.00  0.00     0.033 NA
HETATM   12  H8  UNL     1      -0.191   0.449   1.437  1.00  0.00     0.183 HD
ENDROOT
BRANCH  11  13
HETATM   13  N4  UNL     1       0.904  -0.966   0.072  1.00  0.00    -0.204 N 
HETATM   14  H9  UNL     1       1.328  -1.708   0.672  1.00  0.00     0.211 HD
BRANCH  13  15
HETATM   15  N5  UNL     1       1.509   0.240  -0.297  1.00  0.00    -0.284 N 
HETATM   16  H10 UNL     1       0.895   1.003  -0.630  1.00  0.00     0.188 HD
BRANCH  15  17
HETATM   17  C8  UNL     1       2.917   0.424  -0.223  1.00  0.00     0.050 A 
HETATM   18  C9  UNL     1       3.735  -0.594   0.220  1.00  0.00     0.031 A 
HETATM   19  C10 UNL     1       5.111  -0.468   0.311  1.00  0.00     0.004 A 
HETATM   20  C11 UNL     1       5.676   0.732  -0.059  1.00  0.00     0.019 A 
HETATM   21  C12 UNL     1       4.859   1.769  -0.508  1.00  0.00     0.013 A 
HETATM   22 BR1  UNL     1       5.642   3.424  -1.019  1.00  0.00    -0.051 Br
HETATM   23  C13 UNL     1       3.472   1.614  -0.591  1.00  0.00     0.050 A 
ENDBRANCH  15  17
ENDBRANCH  13  15
ENDBRANCH  11  13
TORSDOF 3
