REMARK  5 active torsions:
REMARK  status: ('A' for Active; 'I' for Inactive)
REMARK    1  A    between atoms: C2_2  and  C3_3 
REMARK    2  A    between atoms: C3_3  and  N4_18 
REMARK    3  A    between atoms: C4_4  and  C5_5 
REMARK    4  A    between atoms: C8_10  and  N3_11 
REMARK    5  A    between atoms: N3_11  and  C9_12 
REMARK       I    between atoms: N4_18  and  C14_19 
REMARK       I    between atoms: C14_19  and  N5_20 
ROOT
HETATM    1  C5  UNL     1      -0.362  -1.250   0.348  1.00  0.00     0.010 A 
HETATM    2  C6  UNL     1      -0.749  -2.660   0.363  1.00  0.00     0.192 A 
HETATM    3  N1  UNL     1       0.379  -3.502   0.558  1.00  0.00    -0.278 NA
HETATM    4  C7  UNL     1       1.555  -3.040   0.705  1.00  0.00     0.229 A 
HETATM    5  N2  UNL     1       1.917  -1.669   0.698  1.00  0.00    -0.224 NA
HETATM    6  C8  UNL     1       1.023  -0.763   0.530  1.00  0.00     0.137 A 
ENDROOT
BRANCH   1   7
HETATM    7  C4  UNL     1      -1.280  -0.311   0.157  1.00  0.00     0.051 C 
HETATM    8  C3  UNL     1      -2.681  -0.137  -0.067  1.00  0.00     0.079 C 
BRANCH   8   9
HETATM    9  C2  UNL     1      -3.254  -1.321  -0.104  1.00  0.00    -0.126 C 
HETATM   10  C1  UNL     1      -3.965  -2.404  -0.420  1.00  0.00     0.099 C 
ENDBRANCH   8   9
BRANCH   8  11
HETATM   11  N4  UNL     1      -3.533   0.983  -0.252  1.00  0.00    -0.302 N 
HETATM   12  C14 UNL     1      -3.205   2.361  -0.263  1.00  0.00     0.318 C 
HETATM   13  N5  UNL     1      -4.105   3.439  -0.453  1.00  0.00    -0.352 N 
HETATM   14  O1  UNL     1      -2.015   2.715  -0.092  1.00  0.00    -0.247 OA
HETATM   15  H13 UNL     1      -4.688   3.383  -1.318  1.00  0.00     0.160 HD
HETATM   16  H14 UNL     1      -4.119   4.198   0.275  1.00  0.00     0.160 HD
HETATM   17  H12 UNL     1      -4.538   0.879  -0.403  1.00  0.00     0.171 HD
ENDBRANCH   8  11
ENDBRANCH   1   7
BRANCH   6  18
HETATM   18  N3  UNL     1       1.406   0.605   0.534  1.00  0.00    -0.344 N 
HETATM   19  H7  UNL     1       0.692   1.255   0.978  1.00  0.00     0.167 HD
BRANCH  18  20
HETATM   20  C9  UNL     1       2.674   0.970  -0.038  1.00  0.00     0.015 A 
HETATM   21  C10 UNL     1       3.167   1.525  -1.148  1.00  0.00     0.026 A 
HETATM   22  C11 UNL     1       4.621   1.619  -1.105  1.00  0.00     0.017 A 
HETATM   23  C12 UNL     1       4.981   1.108   0.055  1.00  0.00    -0.006 A 
HETATM   24 BR1  UNL     1       6.819   1.021   0.552  1.00  0.00    -0.055 Br
HETATM   25  C13 UNL     1       3.829   0.653   0.838  1.00  0.00     0.103 A 
ENDBRANCH  18  20
ENDBRANCH   6  18
TORSDOF 5
