REMARK  7 active torsions:
REMARK  status: ('A' for Active; 'I' for Inactive)
REMARK    1  A    between atoms: C3_3  and  C4_4 
REMARK    2  A    between atoms: C3_3  and  C17_21 
REMARK    3  A    between atoms: C5_5  and  C6_6 
REMARK    4  A    between atoms: C6_6  and  C7_7 
REMARK    5  A    between atoms: C6_6  and  C12_14 
REMARK    6  A    between atoms: C8_9  and  C9_10 
REMARK    7  A    between atoms: C10_11  and  N2_12 
ROOT
HETATM    1  C17 UNL     1      -1.340  -2.485   1.903  1.00  0.00     0.075 C 
HETATM    2  C18 UNL     1      -0.579  -2.870   0.687  1.00  0.00     0.395 C 
HETATM    3  O1  UNL     1      -0.003  -3.248  -0.299  1.00  0.00    -0.429 OA
ENDROOT
BRANCH   1   4
HETATM    4  C3  UNL     1      -2.641  -1.901   1.449  1.00  0.00    -0.060 C 
HETATM    5  C2  UNL     1      -3.725  -2.576   1.864  1.00  0.00    -0.024 C 
HETATM    6  C1  UNL     1      -3.643  -3.788   2.697  1.00  0.00     0.036 C 
BRANCH   4   7
HETATM    7  C4  UNL     1      -2.798  -0.719   0.633  1.00  0.00     0.004 C 
HETATM    8  C5  UNL     1      -1.953   0.139   0.098  1.00  0.00    -0.012 C 
BRANCH   8   9
HETATM    9  C6  UNL     1      -0.553   0.532  -0.086  1.00  0.00     0.076 C 
BRANCH   9  10
HETATM   10  C7  UNL     1      -0.157   0.221  -1.510  1.00  0.00     0.047 A 
HETATM   11  N1  UNL     1      -0.441  -0.165  -2.691  1.00  0.00    -0.280 NA
HETATM   12  C8  UNL     1       0.883   0.146  -2.574  1.00  0.00     0.180 A 
BRANCH  12  13
HETATM   13  C9  UNL     1       1.938  -0.859  -2.301  1.00  0.00     0.023 C 
HETATM   14  C10 UNL     1       3.223  -0.560  -2.312  1.00  0.00     0.080 C 
BRANCH  14  15
HETATM   15  N2  UNL     1       3.675   0.756  -2.590  1.00  0.00    -0.403 N 
HETATM   16  C11 UNL     1       4.898   1.111  -3.279  1.00  0.00     0.145 C 
HETATM   17  H11 UNL     1       3.218   1.660  -2.351  1.00  0.00     0.158 HD
ENDBRANCH  14  15
ENDBRANCH  12  13
ENDBRANCH   9  10
BRANCH   9  18
HETATM   18  C12 UNL     1      -0.248   1.945   0.140  1.00  0.00    -0.108 C 
HETATM   19  B1  UNL     1      -0.931   3.440  -0.592  1.00  0.00     0.207 B 
HETATM   20  C13 UNL     1      -0.984   4.655   0.934  1.00  0.00    -0.079 C 
HETATM   21  C14 UNL     1       0.107   4.469   1.701  1.00  0.00     0.003 C 
HETATM   22  C15 UNL     1       0.921   3.408   1.807  1.00  0.00     0.009 C 
HETATM   23 BR1  UNL     1       2.369   3.588   3.041  1.00  0.00    -0.051 Br
HETATM   24  C16 UNL     1       0.719   2.266   1.068  1.00  0.00     0.010 C 
ENDBRANCH   9  18
ENDBRANCH   8   9
ENDBRANCH   4   7
ENDBRANCH   1   4
TORSDOF 7
