REMARK  5 active torsions:
REMARK  status: ('A' for Active; 'I' for Inactive)
REMARK    1  A    between atoms: C2_2  and  N1_3 
REMARK    2  A    between atoms: N1_3  and  O1_4 
REMARK    3  A    between atoms: N1_3  and  C3_5 
REMARK    4  A    between atoms: C8_12  and  N4_13 
REMARK    5  A    between atoms: N4_13  and  C9_14 
ROOT
HETATM    1  C3  UNL     1      -2.585   0.043  -0.288  1.00  0.00     0.063 A 
HETATM    2  C4  UNL     1      -2.834   0.586  -1.539  1.00  0.00     0.034 A 
HETATM    3  C5  UNL     1      -1.740   0.897  -2.324  1.00  0.00     0.035 A 
HETATM    4  C6  UNL     1      -0.455   0.697  -1.929  1.00  0.00     0.072 A 
HETATM    5  N2  UNL     1       0.583   1.025  -2.724  1.00  0.00    -0.241 NA
HETATM    6  C7  UNL     1       1.869   0.824  -2.300  1.00  0.00     0.235 A 
HETATM    7  N3  UNL     1       2.054   0.299  -1.083  1.00  0.00    -0.224 NA
HETATM    8  C8  UNL     1       1.091  -0.052  -0.236  1.00  0.00     0.138 A 
HETATM    9  C14 UNL     1      -0.208   0.158  -0.684  1.00  0.00     0.041 A 
HETATM   10  C15 UNL     1      -1.263  -0.165   0.126  1.00  0.00     0.049 A 
ENDROOT
BRANCH   8  11
HETATM   11  N4  UNL     1       1.401  -0.589   1.045  1.00  0.00    -0.363 N 
HETATM   12  H8  UNL     1       0.727  -0.911   1.748  1.00  0.00     0.162 HD
BRANCH  11  13
HETATM   13  C9  UNL     1       2.798  -0.696   1.402  1.00  0.00     0.131 A 
HETATM   14  C10 UNL     1       3.398   0.668   1.459  1.00  0.00     0.003 A 
HETATM   15  C11 UNL     1       4.396   0.764   0.598  1.00  0.00     0.017 A 
HETATM   16  C12 UNL     1       4.535  -0.519  -0.091  1.00  0.00     0.009 A 
HETATM   17 BR1  UNL     1       5.959  -0.537  -1.385  1.00  0.00    -0.051 Br
HETATM   18  C13 UNL     1       3.607  -1.367   0.375  1.00  0.00     0.021 A 
ENDBRANCH  11  13
ENDBRANCH   8  11
BRANCH   1  19
HETATM   19  N1  UNL     1      -3.606  -0.319   0.669  1.00  0.00    -0.237 N 
BRANCH  19  20
HETATM   20  C2  UNL     1      -3.828   0.485   1.820  1.00  0.00     0.113 C 
HETATM   21  C1  UNL     1      -4.821  -0.120   2.485  1.00  0.00     0.032 C 
ENDBRANCH  19  20
BRANCH  19  22
HETATM   22  O1  UNL     1      -4.147  -1.443   0.159  1.00  0.00    -0.283 OA
HETATM   23  H4  UNL     1      -3.554  -2.233   0.181  1.00  0.00     0.245 HD
ENDBRANCH  19  22
ENDBRANCH   1  19
TORSDOF 5
