REMARK  3 active torsions:
REMARK  status: ('A' for Active; 'I' for Inactive)
REMARK    1  A    between atoms: C2_2  and  C3_4 
REMARK    2  A    between atoms: N3_12  and  C9_13 
REMARK    3  A    between atoms: C15_19  and  N4_20 
ROOT
HETATM    1  C3  UNL     1      -1.887  -0.339   0.338  1.00  0.00     0.025 C 
HETATM    2  C4  UNL     1      -2.629   0.315  -0.532  1.00  0.00    -0.009 C 
HETATM    3  C5  UNL     1      -2.274   1.538  -1.267  1.00  0.00     0.024 C 
HETATM    4  C6  UNL     1      -1.447   2.567  -1.608  1.00  0.00     0.170 C 
HETATM    5  N1  UNL     1      -0.379   3.482  -1.736  1.00  0.00    -0.275 NA
HETATM    6  C7  UNL     1       0.771   3.295  -1.190  1.00  0.00     0.228 C 
HETATM    7  N2  UNL     1       0.650   2.069  -0.523  1.00  0.00    -0.237 NA
HETATM    8  C8  UNL     1       0.593   1.825   0.733  1.00  0.00     0.213 C 
HETATM    9  N3  UNL     1       0.470   0.368   0.725  1.00  0.00    -0.316 N 
HETATM   10  C15 UNL     1      -0.627  -0.482   1.071  1.00  0.00     0.221 C 
ENDROOT
BRANCH   9  11
HETATM   11  C9  UNL     1       1.771  -0.112   0.308  1.00  0.00     0.037 A 
HETATM   12  C10 UNL     1       2.935   0.518   0.735  1.00  0.00     0.030 A 
HETATM   13  C11 UNL     1       4.243   0.155   0.387  1.00  0.00     0.002 A 
HETATM   14  C12 UNL     1       4.371  -0.925  -0.455  1.00  0.00     0.000 A 
HETATM   15  C13 UNL     1       3.263  -1.587  -0.910  1.00  0.00     0.002 A 
HETATM   16  C14 UNL     1       2.015  -1.165  -0.520  1.00  0.00     0.030 A 
ENDBRANCH   9  11
BRANCH  10  17
HETATM   17  N4  UNL     1      -0.086  -1.830   1.023  1.00  0.00    -0.406 N 
HETATM   18  H15 UNL     1       0.192  -2.199   1.945  1.00  0.00     0.152 HD
HETATM   19  H16 UNL     1      -0.554  -2.470   0.380  1.00  0.00     0.152 HD
ENDBRANCH  10  17
BRANCH   1  20
HETATM   20  C2  UNL     1      -2.710  -1.505   0.804  1.00  0.00     0.155 C 
HETATM   21  C1  UNL     1      -4.076  -1.842   0.344  1.00  0.00     0.096 C 
HETATM   22  O1  UNL     1      -2.406  -2.408   1.660  1.00  0.00    -0.293 OA
ENDBRANCH   1  20
TORSDOF 3
