REMARK  3 active torsions:
REMARK  status: ('A' for Active; 'I' for Inactive)
REMARK    1  A    between atoms: O1_2  and  C2_3 
REMARK    2  A    between atoms: C12_16  and  N4_17 
REMARK    3  A    between atoms: N4_17  and  C13_18 
ROOT
HETATM    1  C2  UNL     1       4.823   0.158   0.729  1.00  0.00     0.068 A 
HETATM    2  C3  UNL     1       4.926   0.050  -0.665  1.00  0.00     0.039 A 
HETATM    3  C4  UNL     1       3.814  -0.274  -1.415  1.00  0.00     0.033 A 
HETATM    4  C5  UNL     1       2.580  -0.498  -0.802  1.00  0.00     0.041 A 
HETATM    5  C6  UNL     1       2.421  -0.404   0.579  1.00  0.00    -0.011 A 
HETATM    6  C7  UNL     1       3.574  -0.077   1.262  1.00  0.00     0.048 A 
HETATM    7  C8  UNL     1       1.227  -0.597   1.412  1.00  0.00     0.161 C 
HETATM    8  N1  UNL     1       0.037  -0.008   0.795  1.00  0.00    -0.379 N 
HETATM    9  C9  UNL     1      -0.512  -0.333  -0.471  1.00  0.00     0.121 A 
HETATM   10  C10 UNL     1       0.212  -0.675  -1.625  1.00  0.00     0.160 A 
HETATM   11  N2  UNL     1      -0.417  -0.950  -2.802  1.00  0.00    -0.222 NA
HETATM   12  C11 UNL     1      -1.780  -0.889  -2.851  1.00  0.00     0.237 A 
HETATM   13  N3  UNL     1      -2.437  -0.560  -1.732  1.00  0.00    -0.222 NA
HETATM   14  C12 UNL     1      -1.887  -0.279  -0.547  1.00  0.00     0.160 A 
HETATM   15  N5  UNL     1       1.632  -0.808  -1.819  1.00  0.00    -0.339 N 
HETATM   16  H9  UNL     1      -0.560   0.755   1.234  1.00  0.00     0.160 HD
HETATM   17  H15 UNL     1       1.946  -1.150  -2.763  1.00  0.00     0.167 HD
ENDROOT
BRANCH  14  18
HETATM   18  N4  UNL     1      -2.650   0.023   0.608  1.00  0.00    -0.339 N 
HETATM   19  H11 UNL     1      -2.287   0.115   1.577  1.00  0.00     0.167 HD
BRANCH  18  20
HETATM   20  C13 UNL     1      -4.058   0.240   0.662  1.00  0.00     0.035 A 
HETATM   21  C14 UNL     1      -4.829   0.214   1.808  1.00  0.00     0.032 A 
HETATM   22  C15 UNL     1      -6.178   0.429   1.869  1.00  0.00     0.046 A 
HETATM   23  C16 UNL     1      -6.866   0.700   0.708  1.00  0.00     0.138 A 
HETATM   24  F1  UNL     1      -8.188   0.906   0.808  1.00  0.00    -0.204 F 
HETATM   25  C17 UNL     1      -6.171   0.743  -0.470  1.00  0.00     0.074 A 
HETATM   26 CL1  UNL     1      -7.107   1.092  -1.901  1.00  0.00    -0.081 Cl
HETATM   27  C18 UNL     1      -4.820   0.517  -0.457  1.00  0.00     0.056 A 
ENDBRANCH  18  20
ENDBRANCH  14  18
BRANCH   1  28
HETATM   28  O1  UNL     1       5.872   0.474   1.548  1.00  0.00    -0.356 OA
HETATM   29  C1  UNL     1       7.141   0.712   0.998  1.00  0.00     0.210 C 
ENDBRANCH   1  28
TORSDOF 3
