REMARK  4 active torsions:
REMARK  status: ('A' for Active; 'I' for Inactive)
REMARK    1  A    between atoms: C2_2  and  N1_3 
REMARK    2  A    between atoms: C2_2  and  N2_4 
REMARK    3  A    between atoms: N2_4  and  C3_5 
REMARK    4  A    between atoms: N5_14  and  C9_15 
ROOT
HETATM    1  C3  UNL     1       2.256   0.131  -0.830  1.00  0.00     0.286 C 
HETATM    2  P1  UNL     1       2.223  -1.639  -0.272  1.00  0.00    -0.010 P 
HETATM    3  C4  UNL     1       1.131  -1.900   0.954  1.00  0.00    -0.015 C 
HETATM    4  C5  UNL     1       0.153  -1.008   0.892  1.00  0.00     0.015 C 
HETATM    5  C6  UNL     1      -0.138  -0.376  -0.379  1.00  0.00     0.154 C 
HETATM    6  C7  UNL     1       0.878   0.729  -0.603  1.00  0.00     0.175 C 
HETATM    7  N3  UNL     1       0.504   1.612  -1.694  1.00  0.00    -0.273 NA
HETATM    8  C8  UNL     1      -0.637   1.504  -2.330  1.00  0.00     0.217 C 
HETATM    9  N4  UNL     1      -1.566   0.469  -1.938  1.00  0.00    -0.295 N 
HETATM   10  N5  UNL     1      -1.407   0.124  -0.606  1.00  0.00    -0.303 N 
HETATM   11  H13 UNL     1      -2.178   0.192  -2.765  1.00  0.00     0.187 HD
ENDROOT
BRANCH   1  12
HETATM   12  N2  UNL     1       3.220   0.795   0.003  1.00  0.00     0.128 N 
HETATM   13  H7  UNL     1       2.916   0.845   0.993  1.00  0.00     0.319 HD
BRANCH  12  14
HETATM   14  C2  UNL     1       4.544   0.263  -0.176  1.00  0.00     0.445 C 
HETATM   15  C1  UNL     1       5.567   0.972   0.711  1.00  0.00     0.076 C 
BRANCH  14  16
HETATM   16  N1  UNL     1       4.648  -1.146   0.134  1.00  0.00     0.111 N 
HETATM   17  H5  UNL     1       5.026  -1.315   1.091  1.00  0.00     0.315 HD
HETATM   18  H6  UNL     1       5.135  -1.687  -0.608  1.00  0.00     0.315 HD
ENDBRANCH  14  16
ENDBRANCH  12  14
ENDBRANCH   1  12
BRANCH  10  19
HETATM   19  C9  UNL     1      -2.508  -0.020   0.203  1.00  0.00     0.066 A 
HETATM   20  C10 UNL     1      -2.193   0.602   1.575  1.00  0.00     0.045 C 
HETATM   21  C11 UNL     1      -2.997  -1.377   0.490  1.00  0.00     0.005 A 
HETATM   22  C12 UNL     1      -4.157  -2.004   0.382  1.00  0.00    -0.002 A 
HETATM   23  C13 UNL     1      -5.239  -1.186  -0.146  1.00  0.00    -0.004 A 
HETATM   24  C14 UNL     1      -4.927   0.062  -0.447  1.00  0.00    -0.024 A 
HETATM   25  C15 UNL     1      -3.659   0.797  -0.345  1.00  0.00     0.063 A 
ENDBRANCH  10  19
TORSDOF 4
