REMARK  5 active torsions:
REMARK  status: ('A' for Active; 'I' for Inactive)
REMARK    1  A    between atoms: C3_3  and  N1_4 
REMARK    2  A    between atoms: N1_4  and  C4_5 
REMARK    3  A    between atoms: C11_15  and  C12_16 
REMARK    4  A    between atoms: C12_16  and  C13_17 
REMARK    5  A    between atoms: C14_18  and  N4_19 
REMARK       I    between atoms: N4_19  and  C15_20 
ROOT
HETATM    1  C1  UNL     1       0.023   1.575   0.109  1.00  0.00     0.030 C 
HETATM    2  C2  UNL     1      -0.222   0.354  -0.307  1.00  0.00     0.029 A 
HETATM    3  C3  UNL     1      -1.464   0.022  -0.773  1.00  0.00     0.141 A 
HETATM    4  N2  UNL     1      -1.711  -1.209  -1.196  1.00  0.00    -0.224 NA
HETATM    5  C10 UNL     1      -0.815  -2.210  -1.212  1.00  0.00     0.236 A 
HETATM    6  N3  UNL     1       0.414  -1.843  -0.740  1.00  0.00    -0.241 NA
HETATM    7  C11 UNL     1       0.714  -0.626  -0.304  1.00  0.00     0.071 A 
ENDROOT
BRANCH   3   8
HETATM    8  N1  UNL     1      -2.558   0.886  -0.847  1.00  0.00    -0.340 N 
HETATM    9  H3  UNL     1      -2.456   1.818  -1.314  1.00  0.00     0.167 HD
BRANCH   8  10
HETATM   10  C4  UNL     1      -3.829   0.525  -0.298  1.00  0.00     0.035 A 
HETATM   11  C5  UNL     1      -3.963  -0.645   0.418  1.00  0.00     0.029 A 
HETATM   12  C6  UNL     1      -5.140  -1.057   0.965  1.00  0.00     0.004 A 
HETATM   13  C7  UNL     1      -6.293  -0.284   0.818  1.00  0.00     0.019 A 
HETATM   14  C8  UNL     1      -6.147   0.886   0.100  1.00  0.00     0.013 A 
HETATM   15 BR1  UNL     1      -7.714   1.968  -0.122  1.00  0.00    -0.051 Br
HETATM   16  C9  UNL     1      -4.953   1.298  -0.452  1.00  0.00     0.048 A 
ENDBRANCH   8  10
ENDBRANCH   3   8
BRANCH   7  17
HETATM   17  C12 UNL     1       1.955  -0.434   0.129  1.00  0.00     0.034 C 
BRANCH  17  18
HETATM   18  C13 UNL     1       2.954  -1.492   0.131  1.00  0.00     0.019 C 
HETATM   19  C14 UNL     1       4.204  -1.378   0.542  1.00  0.00     0.091 C 
BRANCH  19  20
HETATM   20  N4  UNL     1       4.682  -0.128   1.041  1.00  0.00    -0.338 N 
HETATM   21  C15 UNL     1       5.754   0.213   0.156  1.00  0.00     0.217 C 
HETATM   22  C16 UNL     1       6.698   1.382   0.081  1.00  0.00     0.117 C 
HETATM   23  O1  UNL     1       6.026  -0.597  -0.795  1.00  0.00    -0.274 OA
HETATM   24  H12 UNL     1       4.585   0.622   1.754  1.00  0.00     0.168 HD
ENDBRANCH  19  20
ENDBRANCH  17  18
ENDBRANCH   7  17
TORSDOF 5
