REMARK  3 active torsions:
REMARK  status: ('A' for Active; 'I' for Inactive)
REMARK       I    between atoms: C2_2  and  N1_4 
REMARK    1  A    between atoms: N1_4  and  C3_5 
REMARK    2  A    between atoms: C8_12  and  N4_13 
REMARK    3  A    between atoms: N4_13  and  C9_14 
ROOT
HETATM    1  C3  UNL     1      -2.903  -0.034  -0.817  1.00  0.00     0.035 C 
HETATM    2  C4  UNL     1      -2.622   1.224  -1.128  1.00  0.00    -0.038 C 
HETATM    3  C5  UNL     1      -3.696   2.207  -1.440  1.00  0.00     0.048 C 
HETATM    4  C6  UNL     1      -1.229   1.538  -1.388  1.00  0.00     0.186 C 
HETATM    5  N2  UNL     1      -0.447   2.390  -0.607  1.00  0.00    -0.279 NA
HETATM    6  C7  UNL     1       0.548   2.129   0.163  1.00  0.00     0.223 C 
HETATM    7  N3  UNL     1       1.266   0.932   0.550  1.00  0.00    -0.257 NA
HETATM    8  C8  UNL     1       0.577  -0.255   0.565  1.00  0.00     0.110 C 
HETATM    9  C15 UNL     1      -0.644  -1.180   0.340  1.00  0.00     0.169 C 
HETATM   10  C16 UNL     1      -1.838  -0.885  -0.186  1.00  0.00     0.013 C 
ENDROOT
BRANCH   8  11
HETATM   11  N4  UNL     1       1.667  -1.131   1.009  1.00  0.00    -0.375 N 
HETATM   12  H11 UNL     1       1.189  -1.824   1.684  1.00  0.00     0.161 HD
BRANCH  11  13
HETATM   13  C9  UNL     1       3.064  -1.258   0.788  1.00  0.00     0.093 C 
HETATM   14  C10 UNL     1       4.250  -0.708   0.829  1.00  0.00    -0.023 A 
HETATM   15  C11 UNL     1       4.398   0.674   1.293  1.00  0.00     0.013 A 
HETATM   16  C14 UNL     1       5.432  -1.453   0.388  1.00  0.00     0.190 A 
HETATM   17  C12 UNL     1       5.587   1.238   1.284  1.00  0.00     0.040 A 
HETATM   18  C13 UNL     1       6.742   0.520   0.831  1.00  0.00     0.097 A 
HETATM   19 BR1  UNL     1       8.486   1.288   0.787  1.00  0.00    -0.030 Br
HETATM   20  N5  UNL     1       6.612  -0.672   0.444  1.00  0.00    -0.278 NA
ENDBRANCH  11  13
ENDBRANCH   8  11
BRANCH   1  21
HETATM   21  N1  UNL     1      -4.185  -0.550  -0.779  1.00  0.00    -0.328 N 
HETATM   22  C2  UNL     1      -4.830  -1.815  -0.506  1.00  0.00     0.218 C 
HETATM   23  C1  UNL     1      -6.308  -2.003  -0.566  1.00  0.00     0.117 C 
HETATM   24  O1  UNL     1      -4.025  -2.728  -0.219  1.00  0.00    -0.274 OA
HETATM   25  H4  UNL     1      -4.915   0.170  -1.007  1.00  0.00     0.169 HD
ENDBRANCH   1  21
TORSDOF 3
