REMARK  4 active torsions:
REMARK  status: ('A' for Active; 'I' for Inactive)
REMARK    1  A    between atoms: C4_4  and  C5_5 
REMARK    2  A    between atoms: C5_5  and  N1_6 
REMARK    3  A    between atoms: N1_6  and  C6_7 
REMARK    4  A    between atoms: C11_13  and  N3_14 
REMARK       I    between atoms: N3_14  and  C12_15 
ROOT
HETATM    1  C6  UNL     1       0.313  -0.731   0.808  1.00  0.00     0.137 A 
HETATM    2  N2  UNL     1       0.907  -1.469   1.692  1.00  0.00    -0.242 NA
HETATM    3  C7  UNL     1      -0.129  -2.016   2.523  1.00  0.00     0.127 A 
HETATM    4  C8  UNL     1      -1.327  -1.628   2.158  1.00  0.00    -0.023 A 
HETATM    5  C9  UNL     1      -2.735  -1.794   2.551  1.00  0.00     0.070 A 
HETATM    6  C10 UNL     1      -3.637  -1.034   1.633  1.00  0.00     0.007 A 
HETATM    7  C11 UNL     1      -3.419  -0.257   0.603  1.00  0.00     0.032 A 
HETATM    8  C14 UNL     1      -1.991  -0.094   0.240  1.00  0.00     0.045 A 
HETATM    9  C15 UNL     1      -1.127  -0.767   1.019  1.00  0.00     0.020 A 
ENDROOT
BRANCH   1  10
HETATM   10  N1  UNL     1       1.087  -0.066  -0.163  1.00  0.00    -0.353 N 
HETATM   11  H4  UNL     1       0.723   0.902  -0.453  1.00  0.00     0.166 HD
BRANCH  10  12
HETATM   12  C5  UNL     1       2.327  -0.476  -0.843  1.00  0.00     0.068 C 
BRANCH  12  13
HETATM   13  C4  UNL     1       3.540  -0.603  -1.329  1.00  0.00     0.043 A 
HETATM   14  C3  UNL     1       4.686   0.559  -0.969  1.00  0.00    -0.007 A 
HETATM   15  C2  UNL     1       5.457  -0.532  -1.926  1.00  0.00    -0.038 A 
HETATM   16  C16 UNL     1       5.141  -0.090  -1.535  1.00  0.00     0.077 A 
HETATM   17  C17 UNL     1       4.368   1.008  -0.574  1.00  0.00     0.023 A 
HETATM   18  C1  UNL     1       6.131  -1.447  -2.724  1.00  0.00    -0.043 C 
HETATM   19  C18 UNL     1       3.583   1.700   0.301  1.00  0.00    -0.012 C 
ENDBRANCH  12  13
ENDBRANCH  10  12
ENDBRANCH   1  10
BRANCH   7  20
HETATM   20  N3  UNL     1      -4.302   0.458  -0.265  1.00  0.00    -0.328 N 
HETATM   21  C12 UNL     1      -4.326   1.876  -0.432  1.00  0.00     0.218 C 
HETATM   22  C13 UNL     1      -5.292   2.434  -1.394  1.00  0.00     0.117 C 
HETATM   23  O1  UNL     1      -3.554   2.655   0.206  1.00  0.00    -0.274 OA
HETATM   24  H9  UNL     1      -4.914  -0.233  -0.748  1.00  0.00     0.169 HD
ENDBRANCH   7  20
TORSDOF 4
