REMARK  4 active torsions:
REMARK  status: ('A' for Active; 'I' for Inactive)
REMARK    1  A    between atoms: C3_3  and  C4_4 
REMARK    2  A    between atoms: N1_5  and  C5_6 
REMARK    3  A    between atoms: C10_13  and  N4_14 
REMARK       I    between atoms: N4_14  and  C11_15 
REMARK    4  A    between atoms: C15_20  and  C16_21 
ROOT
HETATM    1  C1  UNL     1      -3.904   2.536   0.193  1.00  0.00     0.018 C 
HETATM    2  C2  UNL     1      -3.390   1.434   0.077  1.00  0.00    -0.076 C 
HETATM    3  C3  UNL     1      -2.765   0.151  -0.066  1.00  0.00     0.034 C 
HETATM    4  C15 UNL     1      -3.319  -0.901   0.556  1.00  0.00     0.018 C 
ENDROOT
BRANCH   3   5
HETATM    5  C4  UNL     1      -1.557  -0.048  -0.857  1.00  0.00     0.139 C 
HETATM    6  N1  UNL     1      -1.240  -1.287  -0.796  1.00  0.00    -0.239 NA
BRANCH   6   7
HETATM    7  C5  UNL     1      -0.079  -1.703  -1.506  1.00  0.00     0.163 A 
HETATM    8  N2  UNL     1      -0.238  -2.578  -2.524  1.00  0.00    -0.222 NA
HETATM    9  C6  UNL     1       0.793  -3.012  -3.232  1.00  0.00     0.236 A 
HETATM   10  N3  UNL     1       2.050  -2.614  -2.985  1.00  0.00    -0.241 NA
HETATM   11  C7  UNL     1       2.288  -1.741  -1.985  1.00  0.00     0.072 A 
HETATM   12  C8  UNL     1       3.565  -1.290  -1.677  1.00  0.00     0.035 A 
HETATM   13  C14 UNL     1       1.218  -1.295  -1.255  1.00  0.00     0.043 A 
HETATM   14  C9  UNL     1       3.787  -0.390  -0.641  1.00  0.00     0.032 A 
HETATM   15  C10 UNL     1       2.656   0.025   0.062  1.00  0.00     0.035 A 
HETATM   16  C13 UNL     1       1.401  -0.409  -0.228  1.00  0.00     0.047 A 
BRANCH  15  17
HETATM   17  N4  UNL     1       2.872   0.957   1.137  1.00  0.00    -0.327 N 
HETATM   18  C11 UNL     1       2.783   2.285   0.614  1.00  0.00     0.218 C 
HETATM   19  C12 UNL     1       2.947   3.527   1.408  1.00  0.00     0.117 C 
HETATM   20  O1  UNL     1       2.541   2.280  -0.638  1.00  0.00    -0.274 OA
HETATM   21  H6  UNL     1       3.072   0.865   2.177  1.00  0.00     0.169 HD
ENDBRANCH  15  17
ENDBRANCH   6   7
ENDBRANCH   3   5
BRANCH   4  22
HETATM   22  C16 UNL     1      -4.528  -0.702   1.348  1.00  0.00    -0.025 C 
HETATM   23  C17 UNL     1      -5.075  -1.739   1.961  1.00  0.00     0.031 C 
ENDBRANCH   4  22
TORSDOF 4
