REMARK  2 active torsions:
REMARK  status: ('A' for Active; 'I' for Inactive)
REMARK    1  A    between atoms: C7_7  and  C8_8 
REMARK    2  A    between atoms: C13_15  and  N3_16 
REMARK       I    between atoms: N3_16  and  C14_17 
REMARK       I    between atoms: C14_17  and  N4_18 
ROOT
HETATM    1  C1  UNL     1       5.923   0.735   1.840  1.00  0.00     0.018 C 
HETATM    2  C2  UNL     1       4.971   0.706   1.094  1.00  0.00    -0.078 C 
HETATM    3  C3  UNL     1       3.828   0.664   0.226  1.00  0.00     0.017 A 
HETATM    4  C4  UNL     1       3.759   1.659  -0.721  1.00  0.00     0.020 A 
HETATM    5  C5  UNL     1       2.666   1.630  -1.562  1.00  0.00     0.002 A 
HETATM    6  C6  UNL     1       1.677   0.675  -1.491  1.00  0.00     0.014 A 
HETATM    7  C7  UNL     1       1.736  -0.326  -0.545  1.00  0.00    -0.005 A 
HETATM    8  C17 UNL     1       2.843  -0.290   0.299  1.00  0.00     0.034 A 
ENDROOT
BRANCH   7   9
HETATM    9  C8  UNL     1       0.839  -1.425  -0.233  1.00  0.00     0.081 A 
HETATM   10  N1  UNL     1       1.405  -2.660  -0.153  1.00  0.00    -0.240 NA
HETATM   11  C9  UNL     1       0.710  -3.776   0.130  1.00  0.00     0.234 A 
HETATM   12  N2  UNL     1      -0.622  -3.712   0.355  1.00  0.00    -0.241 NA
HETATM   13  C10 UNL     1      -1.241  -2.522   0.292  1.00  0.00     0.070 A 
HETATM   14  C11 UNL     1      -2.584  -2.380   0.518  1.00  0.00     0.035 A 
HETATM   15  C16 UNL     1      -0.518  -1.386   0.001  1.00  0.00     0.025 A 
HETATM   16  C12 UNL     1      -3.141  -1.123   0.446  1.00  0.00     0.032 A 
HETATM   17  C13 UNL     1      -2.454   0.028   0.161  1.00  0.00     0.037 A 
HETATM   18  C15 UNL     1      -1.109  -0.143  -0.062  1.00  0.00     0.045 A 
BRANCH  17  19
HETATM   19  N3  UNL     1      -2.990   1.325   0.080  1.00  0.00    -0.309 N 
HETATM   20  C14 UNL     1      -4.319   1.774   0.262  1.00  0.00     0.318 C 
HETATM   21  N4  UNL     1      -4.760   3.119   0.156  1.00  0.00    -0.352 N 
HETATM   22  O1  UNL     1      -5.197   0.933   0.539  1.00  0.00    -0.247 OA
HETATM   23  H9  UNL     1      -5.304   3.630  -0.573  1.00  0.00     0.160 HD
HETATM   24  H10 UNL     1      -4.629   3.928   0.815  1.00  0.00     0.160 HD
HETATM   25  H8  UNL     1      -2.372   2.140  -0.147  1.00  0.00     0.170 HD
ENDBRANCH  17  19
ENDBRANCH   7   9
TORSDOF 2
