REMARK  1 active torsions:
REMARK  status: ('A' for Active; 'I' for Inactive)
REMARK    1  A    between atoms: C7_7  and  N1_8 
REMARK       I    between atoms: N1_8  and  C8_9 
REMARK       I    between atoms: C8_9  and  N2_10 
ROOT
HETATM    1  C1  UNL     1       5.341   1.372  -0.379  1.00  0.00     0.017 C 
HETATM    2  C2  UNL     1       4.257   1.078   0.016  1.00  0.00    -0.082 C 
HETATM    3  C3  UNL     1       2.904   0.718   0.482  1.00  0.00     0.001 C 
HETATM    4  C4  UNL     1       1.681   0.548  -0.052  1.00  0.00     0.062 C 
HETATM    5  C5  UNL     1       1.033   0.629  -1.410  1.00  0.00    -0.017 C 
HETATM    6  C6  UNL     1      -0.295   0.406  -1.615  1.00  0.00     0.005 C 
HETATM    7  C7  UNL     1      -1.602   0.070  -1.016  1.00  0.00     0.073 C 
HETATM    8  C9  UNL     1      -1.196  -0.049   0.446  1.00  0.00     0.021 C 
HETATM    9  C10 UNL     1      -0.578  -1.255   0.606  1.00  0.00     0.006 C 
HETATM   10  C11 UNL     1      -0.015  -1.355   1.914  1.00  0.00     0.113 C 
HETATM   11  N3  UNL     1       0.040  -2.578   2.231  1.00  0.00    -0.230 NA
HETATM   12  C12 UNL     1      -0.379  -3.572   1.252  1.00  0.00     0.229 C 
HETATM   13  N4  UNL     1      -0.780  -3.398  -0.018  1.00  0.00    -0.273 NA
HETATM   14  C13 UNL     1      -0.793  -2.100  -0.584  1.00  0.00     0.148 C 
HETATM   15  C14 UNL     1      -2.000  -1.427  -1.130  1.00  0.00     0.072 C 
HETATM   16  N5  UNL     1       0.514  -0.425   2.855  1.00  0.00    -0.268 NA
HETATM   17  C15 UNL     1       1.947  -0.046   2.803  1.00  0.00     0.086 A 
HETATM   18  C16 UNL     1       2.940   0.403   1.927  1.00  0.00     0.008 C 
HETATM   19  H13 UNL     1       1.274  -0.678   2.217  1.00  0.00     0.155 HD
ENDROOT
BRANCH   7  20
HETATM   20  N1  UNL     1      -2.678   0.928  -1.218  1.00  0.00    -0.327 N 
HETATM   21  C8  UNL     1      -2.598   2.269  -0.777  1.00  0.00     0.314 C 
HETATM   22  N2  UNL     1      -3.718   3.146  -0.992  1.00  0.00    -0.352 N 
HETATM   23  O1  UNL     1      -1.599   2.775  -0.194  1.00  0.00    -0.248 OA
HETATM   24  H6  UNL     1      -4.107   3.933  -1.566  1.00  0.00     0.160 HD
HETATM   25  H7  UNL     1      -4.481   2.925  -0.292  1.00  0.00     0.160 HD
HETATM   26  H5  UNL     1      -3.562   0.619  -1.692  1.00  0.00     0.165 HD
ENDBRANCH   7  20
TORSDOF 1
