REMARK  5 active torsions:
REMARK  status: ('A' for Active; 'I' for Inactive)
REMARK    1  A    between atoms: C7_7  and  C8_8 
REMARK    2  A    between atoms: C10_12  and  C11_13 
REMARK    3  A    between atoms: C12_14  and  C13_15 
REMARK    4  A    between atoms: C12_14  and  N4_17 
REMARK    5  A    between atoms: C13_15  and  N3_16 
REMARK       I    between atoms: N4_17  and  C14_18 
ROOT
HETATM    1  C1  UNL     1       7.343  -2.258   0.458  1.00  0.00     0.018 C 
HETATM    2  C2  UNL     1       6.442  -1.456   0.473  1.00  0.00    -0.078 C 
HETATM    3  C3  UNL     1       5.382  -0.487   0.480  1.00  0.00     0.017 A 
HETATM    4  C4  UNL     1       5.742   0.838   0.542  1.00  0.00     0.020 A 
HETATM    5  C5  UNL     1       4.714   1.756   0.548  1.00  0.00     0.002 A 
HETATM    6  C6  UNL     1       3.404   1.329   0.493  1.00  0.00     0.013 A 
HETATM    7  C7  UNL     1       3.041  -0.001   0.430  1.00  0.00    -0.010 A 
HETATM    8  C17 UNL     1       4.082  -0.933   0.424  1.00  0.00     0.034 A 
ENDROOT
BRANCH   7   9
HETATM    9  C8  UNL     1       1.666  -0.479   0.371  1.00  0.00     0.048 A 
HETATM   10  N1  UNL     1       1.414  -1.756   0.314  1.00  0.00    -0.246 NA
HETATM   11  C9  UNL     1       0.061  -2.196   0.257  1.00  0.00     0.227 A 
HETATM   12  N2  UNL     1      -0.906  -1.359   0.261  1.00  0.00    -0.273 NA
HETATM   13  C10 UNL     1      -0.782   0.064   0.320  1.00  0.00     0.139 A 
HETATM   14  C16 UNL     1       0.622   0.546   0.380  1.00  0.00     0.091 A 
BRANCH  13  15
HETATM   15  C11 UNL     1      -1.474   0.728  -0.820  1.00  0.00     0.027 C 
HETATM   16  C12 UNL     1      -2.756   0.542  -1.117  1.00  0.00     0.038 C 
BRANCH  16  17
HETATM   17  C13 UNL     1      -3.472   1.188  -2.243  1.00  0.00     0.323 C 
BRANCH  17  18
HETATM   18  N3  UNL     1      -4.583   1.995  -1.831  1.00  0.00     0.083 N 
HETATM   19  H10 UNL     1      -4.340   2.974  -1.598  1.00  0.00     0.313 HD
HETATM   20  H11 UNL     1      -5.413   1.907  -2.467  1.00  0.00     0.313 HD
ENDBRANCH  17  18
ENDBRANCH  16  17
BRANCH  16  21
HETATM   21  N4  UNL     1      -3.631  -0.310  -0.388  1.00  0.00    -0.330 N 
HETATM   22  C14 UNL     1      -4.842  -0.190   0.349  1.00  0.00     0.217 C 
HETATM   23  C15 UNL     1      -5.389  -1.421   0.952  1.00  0.00     0.117 C 
HETATM   24  O1  UNL     1      -5.420   0.920   0.480  1.00  0.00    -0.274 OA
HETATM   25  H12 UNL     1      -3.163  -1.243  -0.486  1.00  0.00     0.168 HD
ENDBRANCH  16  21
ENDBRANCH  13  15
ENDBRANCH   7   9
TORSDOF 5
