REMARK  3 active torsions:
REMARK  status: ('A' for Active; 'I' for Inactive)
REMARK    1  A    between atoms: C7_7  and  N1_8 
REMARK    2  A    between atoms: N1_8  and  C8_9 
REMARK    3  A    between atoms: C12_14  and  N3_15 
REMARK       I    between atoms: N3_15  and  C13_16 
ROOT
HETATM    1  C1  UNL     1      -4.335   0.944  -5.355  1.00  0.00     0.018 C 
HETATM    2  C2  UNL     1      -3.847   0.335  -4.480  1.00  0.00    -0.078 C 
HETATM    3  C3  UNL     1      -3.245  -0.435  -3.346  1.00  0.00     0.019 A 
HETATM    4  C4  UNL     1      -4.114  -1.299  -2.729  1.00  0.00     0.021 A 
HETATM    5  C5  UNL     1      -3.549  -1.987  -1.687  1.00  0.00     0.004 A 
HETATM    6  C6  UNL     1      -2.225  -1.889  -1.220  1.00  0.00     0.029 A 
HETATM    7  C7  UNL     1      -1.460  -0.968  -1.947  1.00  0.00     0.029 A 
HETATM    8  C18 UNL     1      -1.930  -0.225  -3.012  1.00  0.00     0.049 A 
ENDROOT
BRANCH   7   9
HETATM    9  N1  UNL     1      -0.108  -0.791  -1.544  1.00  0.00    -0.381 N 
HETATM   10  H5  UNL     1       0.510  -0.132  -2.088  1.00  0.00     0.160 HD
BRANCH   9  11
HETATM   11  C8  UNL     1       0.583  -1.423  -0.430  1.00  0.00     0.118 A 
HETATM   12  C9  UNL     1       2.010  -1.140  -0.390  1.00  0.00    -0.003 A 
HETATM   13  N2  UNL     1       0.844  -0.942   0.281  1.00  0.00     0.000 N 
HETATM   14  C10 UNL     1       0.402  -0.368   1.501  1.00  0.00     0.018 A 
HETATM   15  C15 UNL     1       1.683  -0.205   1.503  1.00  0.00     0.068 A 
HETATM   16  C16 UNL     1       0.306  -0.682   0.928  1.00  0.00     0.024 A 
HETATM   17  C11 UNL     1       0.543   0.322   2.802  1.00  0.00     0.014 A 
HETATM   18  C17 UNL     1      -0.899  -0.559   1.461  1.00  0.00    -0.024 A 
HETATM   19  C12 UNL     1       1.863   0.472   2.767  1.00  0.00     0.016 A 
BRANCH  19  20
HETATM   20  N3  UNL     1       2.841   1.005   3.574  1.00  0.00    -0.331 N 
HETATM   21  C13 UNL     1       3.147   2.364   3.334  1.00  0.00     0.217 C 
HETATM   22  C14 UNL     1       4.207   2.950   4.175  1.00  0.00     0.117 C 
HETATM   23  O1  UNL     1       2.701   3.209   2.532  1.00  0.00    -0.274 OA
HETATM   24  H9  UNL     1       3.224   0.331   4.257  1.00  0.00     0.168 HD
ENDBRANCH  19  20
ENDBRANCH   9  11
ENDBRANCH   7   9
TORSDOF 3
