REMARK  3 active torsions:
REMARK  status: ('A' for Active; 'I' for Inactive)
REMARK       I    between atoms: N1_1  and  C1_2 
REMARK       I    between atoms: C1_2  and  N2_4 
REMARK    1  A    between atoms: N2_4  and  C2_5 
REMARK    2  A    between atoms: C7_12  and  N5_13 
REMARK    3  A    between atoms: N5_13  and  C8_14 
ROOT
HETATM    1  C2  UNL     1       3.341  -0.361  -0.241  1.00  0.00     0.037 A 
HETATM    2  C3  UNL     1       3.758  -1.652   0.008  1.00  0.00     0.032 A 
HETATM    3  C4  UNL     1       2.834  -2.661   0.273  1.00  0.00     0.035 A 
HETATM    4  C5  UNL     1       1.474  -2.377   0.292  1.00  0.00     0.072 A 
HETATM    5  N3  UNL     1       0.560  -3.351   0.550  1.00  0.00    -0.241 NA
HETATM    6  C6  UNL     1      -0.754  -3.067   0.565  1.00  0.00     0.236 A 
HETATM    7  N4  UNL     1      -1.184  -1.794   0.322  1.00  0.00    -0.224 NA
HETATM    8  C7  UNL     1      -0.265  -0.850   0.070  1.00  0.00     0.142 A 
HETATM    9  C15 UNL     1       1.097  -1.060   0.036  1.00  0.00     0.041 A 
HETATM   10  C16 UNL     1       1.998  -0.058  -0.227  1.00  0.00     0.047 A 
ENDROOT
BRANCH   8  11
HETATM   11  N5  UNL     1      -0.798   0.446  -0.172  1.00  0.00    -0.340 N 
HETATM   12  H7  UNL     1      -0.352   1.363  -0.391  1.00  0.00     0.167 HD
BRANCH  11  13
HETATM   13  C8  UNL     1      -2.202   0.670  -0.139  1.00  0.00     0.030 C 
HETATM   14  C9  UNL     1      -2.800   1.422  -1.047  1.00  0.00     0.006 C 
HETATM   15  C10 UNL     1      -4.177   1.864  -1.326  1.00  0.00     0.056 C 
HETATM   16  C11 UNL     1      -5.210   0.911  -0.900  1.00  0.00    -0.023 C 
HETATM   17  C12 UNL     1      -5.235   0.014   0.097  1.00  0.00    -0.004 C 
HETATM   18  C13 UNL     1      -4.182  -0.276   1.088  1.00  0.00     0.002 C 
HETATM   19  C14 UNL     1      -2.906   0.017   0.954  1.00  0.00     0.029 C 
ENDBRANCH  11  13
ENDBRANCH   8  11
BRANCH   1  20
HETATM   20  N2  UNL     1       4.254   0.702  -0.517  1.00  0.00    -0.309 N 
HETATM   21  C1  UNL     1       4.940   1.646   0.307  1.00  0.00     0.318 C 
HETATM   22  N1  UNL     1       5.786   2.576  -0.346  1.00  0.00    -0.352 N 
HETATM   23  O1  UNL     1       4.845   1.710   1.566  1.00  0.00    -0.247 OA
HETATM   24  H1  UNL     1       5.700   3.172  -1.202  1.00  0.00     0.160 HD
HETATM   25  H2  UNL     1       6.726   2.744   0.083  1.00  0.00     0.160 HD
HETATM   26  H3  UNL     1       4.390   0.720  -1.557  1.00  0.00     0.170 HD
ENDBRANCH   1  20
TORSDOF 3
