REMARK  5 active torsions:
REMARK  status: ('A' for Active; 'I' for Inactive)
REMARK    1  A    between atoms: C2_2  and  O1_3 
REMARK    2  A    between atoms: C2_2  and  N1_4 
REMARK    3  A    between atoms: N1_4  and  C3_5 
REMARK    4  A    between atoms: C8_12  and  N4_13 
REMARK    5  A    between atoms: N4_13  and  C9_14 
ROOT
HETATM    1  C3  UNL     1      -2.963   0.092  -0.199  1.00  0.00     0.035 A 
HETATM    2  C4  UNL     1      -3.674  -1.015  -0.567  1.00  0.00     0.032 A 
HETATM    3  C5  UNL     1      -2.996  -2.231  -0.496  1.00  0.00     0.035 A 
HETATM    4  C6  UNL     1      -1.673  -2.282  -0.073  1.00  0.00     0.072 A 
HETATM    5  N2  UNL     1      -1.034  -3.447  -0.020  1.00  0.00    -0.241 NA
HETATM    6  C7  UNL     1       0.250  -3.483   0.383  1.00  0.00     0.236 A 
HETATM    7  N3  UNL     1       0.921  -2.373   0.738  1.00  0.00    -0.224 NA
HETATM    8  C8  UNL     1       0.317  -1.147   0.705  1.00  0.00     0.142 A 
HETATM    9  C16 UNL     1      -0.994  -1.140   0.289  1.00  0.00     0.041 A 
HETATM   10  C17 UNL     1      -1.643   0.048   0.225  1.00  0.00     0.047 A 
ENDROOT
BRANCH   8  11
HETATM   11  N4  UNL     1       1.057   0.028   1.074  1.00  0.00    -0.340 N 
HETATM   12  H8  UNL     1       0.738   0.815   1.688  1.00  0.00     0.167 HD
BRANCH  11  13
HETATM   13  C9  UNL     1       2.375   0.134   0.548  1.00  0.00     0.034 A 
HETATM   14  C10 UNL     1       2.794  -0.654  -0.514  1.00  0.00     0.029 A 
HETATM   15  C11 UNL     1       4.045  -0.639  -1.097  1.00  0.00     0.003 A 
HETATM   16  C12 UNL     1       4.972   0.241  -0.580  1.00  0.00     0.007 A 
HETATM   17  C13 UNL     1       4.621   1.065   0.488  1.00  0.00    -0.060 A 
HETATM   18  C14 UNL     1       5.659   1.973   0.986  1.00  0.00     0.048 C 
HETATM   19  C15 UNL     1       3.349   1.009   1.037  1.00  0.00     0.036 A 
ENDBRANCH  11  13
ENDBRANCH   8  11
BRANCH   1  20
HETATM   20  N1  UNL     1      -3.565   1.376  -0.246  1.00  0.00    -0.338 N 
HETATM   21  H4  UNL     1      -3.020   2.254   0.015  1.00  0.00     0.168 HD
BRANCH  20  22
HETATM   22  C2  UNL     1      -4.928   1.647  -0.638  1.00  0.00     0.130 C 
HETATM   23  C1  UNL     1      -5.584   2.323   0.305  1.00  0.00     0.071 C 
BRANCH  22  24
HETATM   24  O1  UNL     1      -5.749   1.399  -1.725  1.00  0.00    -0.347 OA
HETATM   25  H3  UNL     1      -6.350   0.564  -1.742  1.00  0.00     0.219 HD
ENDBRANCH  22  24
ENDBRANCH  20  22
ENDBRANCH   1  20
TORSDOF 5
