REMARK  3 active torsions:
REMARK  status: ('A' for Active; 'I' for Inactive)
REMARK       I    between atoms: C2_2  and  N1_4 
REMARK    1  A    between atoms: N1_4  and  C3_5 
REMARK    2  A    between atoms: C3_5  and  C6_9 
REMARK    3  A    between atoms: C4_6  and  C5_7 
ROOT
HETATM    1  C6  UNL     1      -1.428  -1.393  -0.343  1.00  0.00     0.035 C 
HETATM    2  C7  UNL     1      -0.173  -0.932  -0.156  1.00  0.00    -0.030 A 
HETATM    3  C8  UNL     1       0.651   0.230   0.069  1.00  0.00     0.251 A 
HETATM    4  N2  UNL     1       1.091   0.751   1.314  1.00  0.00     0.047 NA
HETATM    5  C9  UNL     1       1.978   1.733   1.238  1.00  0.00     0.775 C 
HETATM    6  N3  UNL     1       2.857   2.691   0.577  1.00  0.00    -0.168 NA
HETATM    7  O2  UNL     1       3.680   1.659   0.662  1.00  0.00    -0.299 OA
HETATM    8  C10 UNL     1       3.846   0.932  -0.527  1.00  0.00     0.228 C 
HETATM    9  C11 UNL     1       3.458  -0.502  -0.291  1.00  0.00    -0.053 C 
HETATM   10  C12 UNL     1       4.024  -1.325   0.599  1.00  0.00     0.005 C 
HETATM   11  C13 UNL     1       3.048  -2.096   1.420  1.00  0.00    -0.002 C 
HETATM   12  C14 UNL     1       1.745  -1.868   1.169  1.00  0.00    -0.010 C 
HETATM   13  C15 UNL     1       1.224  -1.198  -0.041  1.00  0.00     0.040 A 
HETATM   14  C16 UNL     1       2.289  -1.062  -1.101  1.00  0.00     0.057 C 
HETATM   15  H11 UNL     1       2.018   3.309   0.648  1.00  0.00     0.156 HD
ENDROOT
BRANCH   1  16
HETATM   16  C3  UNL     1      -2.629  -0.573  -0.372  1.00  0.00     0.032 C 
HETATM   17  C4  UNL     1      -3.788  -1.174  -0.565  1.00  0.00     0.018 C 
BRANCH  16  18
HETATM   18  N1  UNL     1      -2.461   0.824  -0.189  1.00  0.00    -0.328 N 
HETATM   19  C2  UNL     1      -3.453   1.824  -0.175  1.00  0.00     0.218 C 
HETATM   20  C1  UNL     1      -3.238   3.273   0.019  1.00  0.00     0.117 C 
HETATM   21  O1  UNL     1      -4.656   1.547  -0.335  1.00  0.00    -0.274 OA
HETATM   22  H4  UNL     1      -1.541   1.248  -0.042  1.00  0.00     0.169 HD
ENDBRANCH  16  18
BRANCH  17  23
HETATM   23  C5  UNL     1      -4.184  -2.567  -0.772  1.00  0.00     0.144 C 
HETATM   24 CL1  UNL     1      -5.320  -3.115   0.509  1.00  0.00    -0.126 Cl
ENDBRANCH  17  23
ENDBRANCH   1  16
TORSDOF 3
