REMARK  3 active torsions:
REMARK  status: ('A' for Active; 'I' for Inactive)
REMARK    1  A    between atoms: C2_2  and  N3_18 
REMARK    2  A    between atoms: C3_3  and  C4_4 
REMARK    3  A    between atoms: N1_7  and  C7_8 
REMARK       I    between atoms: N3_18  and  C14_19 
REMARK       I    between atoms: C14_19  and  N4_20 
ROOT
HETATM    1  C4  UNL     1      -0.755  -0.519  -0.119  1.00  0.00     0.135 C 
HETATM    2  C5  UNL     1      -0.327   0.793  -0.747  1.00  0.00     0.052 C 
HETATM    3  C6  UNL     1       1.072   1.091  -0.243  1.00  0.00     0.132 C 
HETATM    4  N1  UNL     1       1.892  -0.078  -0.494  1.00  0.00    -0.342 N 
HETATM    5  C13 UNL     1       1.328  -1.296  -0.959  1.00  0.00     0.204 C 
HETATM    6  N2  UNL     1       0.061  -1.538  -0.795  1.00  0.00    -0.275 NA
ENDROOT
BRANCH   1   7
HETATM    7  C3  UNL     1      -2.178  -0.804  -0.325  1.00  0.00     0.025 C 
HETATM    8  C2  UNL     1      -3.114  -0.133   0.291  1.00  0.00     0.008 C 
HETATM    9  C1  UNL     1      -2.786   0.963   1.240  1.00  0.00     0.068 C 
BRANCH   8  10
HETATM   10  N3  UNL     1      -4.496  -0.407   0.095  1.00  0.00    -0.314 N 
HETATM   11  C14 UNL     1      -5.554  -0.811   0.979  1.00  0.00     0.318 C 
HETATM   12  N4  UNL     1      -6.836  -0.982   0.357  1.00  0.00    -0.352 N 
HETATM   13  O1  UNL     1      -5.427  -1.016   2.213  1.00  0.00    -0.247 OA
HETATM   14  H15 UNL     1      -7.689  -0.461  -0.004  1.00  0.00     0.160 HD
HETATM   15  H16 UNL     1      -7.178  -1.958   0.112  1.00  0.00     0.160 HD
HETATM   16  H14 UNL     1      -4.668  -0.255  -0.913  1.00  0.00     0.170 HD
ENDBRANCH   8  10
ENDBRANCH   1   7
BRANCH   4  17
HETATM   17  C7  UNL     1       3.283   0.051  -0.252  1.00  0.00     0.036 A 
HETATM   18  C8  UNL     1       3.776   1.257   0.200  1.00  0.00     0.033 A 
HETATM   19  C9  UNL     1       5.137   1.423   0.448  1.00  0.00     0.046 A 
HETATM   20  C10 UNL     1       6.026   0.387   0.250  1.00  0.00     0.138 A 
HETATM   21  F1  UNL     1       7.361   0.508   0.481  1.00  0.00    -0.204 F 
HETATM   22  C11 UNL     1       5.555  -0.828  -0.201  1.00  0.00     0.074 A 
HETATM   23 CL1  UNL     1       6.680  -2.156  -0.458  1.00  0.00    -0.081 Cl
HETATM   24  C12 UNL     1       4.207  -0.956  -0.436  1.00  0.00     0.056 A 
ENDBRANCH   4  17
TORSDOF 3
