REMARK  2 active torsions:
REMARK  status: ('A' for Active; 'I' for Inactive)
REMARK    1  A    between atoms: N1_7  and  C7_8 
REMARK    2  A    between atoms: C12_15  and  N4_16 
REMARK       I    between atoms: N4_16  and  C13_17 
ROOT
HETATM    1  C1  UNL     1      -6.000   1.138  -0.307  1.00  0.00     0.017 C 
HETATM    2  C2  UNL     1      -5.069   0.421  -0.528  1.00  0.00    -0.080 C 
HETATM    3  C3  UNL     1      -3.945  -0.429  -0.785  1.00  0.00     0.023 C 
HETATM    4  C4  UNL     1      -3.986  -1.723  -0.833  1.00  0.00    -0.011 C 
HETATM    5  C5  UNL     1      -3.049  -2.366  -0.155  1.00  0.00     0.006 C 
HETATM    6  C6  UNL     1      -1.650  -1.812  -0.056  1.00  0.00     0.153 C 
HETATM    7  N1  UNL     1      -1.662  -0.370   0.003  1.00  0.00    -0.357 N 
HETATM    8  C17 UNL     1      -2.589   0.122  -1.027  1.00  0.00     0.173 C 
ENDROOT
BRANCH   7   9
HETATM    9  C7  UNL     1      -1.012   0.620   0.793  1.00  0.00     0.140 A 
HETATM   10  N2  UNL     1      -1.858   1.410   1.491  1.00  0.00    -0.224 NA
HETATM   11  C8  UNL     1      -1.389   2.403   2.291  1.00  0.00     0.236 A 
HETATM   12  N3  UNL     1      -0.076   2.637   2.421  1.00  0.00    -0.241 NA
HETATM   13  C9  UNL     1       0.772   1.854   1.730  1.00  0.00     0.072 A 
HETATM   14  C10 UNL     1       2.146   2.036   1.813  1.00  0.00     0.035 A 
HETATM   15  C16 UNL     1       0.345   0.838   0.907  1.00  0.00     0.041 A 
HETATM   16  C11 UNL     1       2.999   1.223   1.097  1.00  0.00     0.032 A 
HETATM   17  C12 UNL     1       2.519   0.204   0.274  1.00  0.00     0.035 A 
HETATM   18  C15 UNL     1       1.148  -0.000   0.172  1.00  0.00     0.047 A 
BRANCH  17  19
HETATM   19  N4  UNL     1       3.392  -0.638  -0.468  1.00  0.00    -0.327 N 
HETATM   20  C13 UNL     1       3.955  -0.566  -1.764  1.00  0.00     0.218 C 
HETATM   21  C14 UNL     1       4.845  -1.648  -2.224  1.00  0.00     0.117 C 
HETATM   22  O1  UNL     1       3.695   0.404  -2.502  1.00  0.00    -0.274 OA
HETATM   23  H8  UNL     1       3.551  -1.404   0.214  1.00  0.00     0.169 HD
ENDBRANCH  17  19
ENDBRANCH   7   9
TORSDOF 2
