REMARK  3 active torsions:
REMARK  status: ('A' for Active; 'I' for Inactive)
REMARK       I    between atoms: N1_1  and  C1_2 
REMARK       I    between atoms: C1_2  and  N2_4 
REMARK    1  A    between atoms: N2_4  and  C2_5 
REMARK    2  A    between atoms: C7_12  and  N5_13 
REMARK    3  A    between atoms: N5_13  and  C8_14 
ROOT
HETATM    1  C2  UNL     1       2.693  -0.205   0.578  1.00  0.00     0.037 A 
HETATM    2  C3  UNL     1       3.146  -1.494   0.449  1.00  0.00     0.032 A 
HETATM    3  C4  UNL     1       2.263  -2.520   0.199  1.00  0.00     0.035 A 
HETATM    4  C5  UNL     1       0.903  -2.243   0.077  1.00  0.00     0.072 A 
HETATM    5  N3  UNL     1       0.069  -3.270  -0.168  1.00  0.00    -0.241 NA
HETATM    6  C6  UNL     1      -1.246  -3.022  -0.289  1.00  0.00     0.236 A 
HETATM    7  N4  UNL     1      -1.688  -1.754  -0.162  1.00  0.00    -0.224 NA
HETATM    8  C7  UNL     1      -0.850  -0.733   0.083  1.00  0.00     0.141 A 
HETATM    9  C13 UNL     1       0.507  -0.923   0.217  1.00  0.00     0.041 A 
HETATM   10  C14 UNL     1       1.346   0.119   0.464  1.00  0.00     0.047 A 
ENDROOT
BRANCH   8  11
HETATM   11  N5  UNL     1      -1.452   0.548   0.193  1.00  0.00    -0.341 N 
HETATM   12  H7  UNL     1      -1.036   1.485   0.375  1.00  0.00     0.167 HD
BRANCH  11  13
HETATM   13  C8  UNL     1      -2.859   0.694   0.047  1.00  0.00     0.048 A 
HETATM   14  C9  UNL     1      -3.667  -0.172   0.641  1.00  0.00     0.028 A 
HETATM   15  C10 UNL     1      -5.054   0.178   0.350  1.00  0.00     0.001 A 
HETATM   16  C11 UNL     1      -5.045   1.255  -0.418  1.00  0.00     0.016 A 
HETATM   17  C12 UNL     1      -3.657   1.712  -0.704  1.00  0.00     0.242 A 
HETATM   18  F1  UNL     1      -3.326   1.598  -2.029  1.00  0.00    -0.239 F 
ENDBRANCH  11  13
ENDBRANCH   8  11
BRANCH   1  19
HETATM   19  N2  UNL     1       3.631   0.856   0.839  1.00  0.00    -0.309 N 
HETATM   20  C1  UNL     1       4.161   1.465  -0.328  1.00  0.00     0.318 C 
HETATM   21  N1  UNL     1       5.093   2.519  -0.146  1.00  0.00    -0.352 N 
HETATM   22  O1  UNL     1       3.915   1.195  -1.531  1.00  0.00    -0.247 OA
HETATM   23  H1  UNL     1       5.417   3.050   0.682  1.00  0.00     0.160 HD
HETATM   24  H2  UNL     1       5.662   2.980  -0.884  1.00  0.00     0.160 HD
HETATM   25  H3  UNL     1       3.931   1.189   1.783  1.00  0.00     0.170 HD
ENDBRANCH   1  19
TORSDOF 3
