REMARK  1 active torsions:
REMARK  status: ('A' for Active; 'I' for Inactive)
REMARK    1  A    between atoms: O1_2  and  C2_3 
ROOT
HETATM    1  C2  UNL     1       2.216  -0.724  -0.607  1.00  0.00     0.060 C 
HETATM    2  C3  UNL     1       1.110  -1.558  -0.540  1.00  0.00     0.017 C 
HETATM    3  C4  UNL     1      -0.109  -0.993  -0.103  1.00  0.00     0.047 C 
HETATM    4  C5  UNL     1       0.016  -0.629   1.355  1.00  0.00     0.033 C 
HETATM    5  C6  UNL     1       0.998   0.424   1.672  1.00  0.00     0.124 C 
HETATM    6  N1  UNL     1       1.162   1.063   0.394  1.00  0.00    -0.370 N 
HETATM    7  C7  UNL     1       2.287   0.814  -0.494  1.00  0.00     0.187 C 
HETATM    8  C8  UNL     1       0.246   2.034  -0.113  1.00  0.00     0.095 A 
HETATM    9  C9  UNL     1       1.010   3.172   0.044  1.00  0.00     0.151 A 
HETATM   10  N2  UNL     1       0.427   4.346  -0.305  1.00  0.00    -0.252 NA
HETATM   11  C10 UNL     1      -0.821   4.413  -0.779  1.00  0.00     0.235 A 
HETATM   12  N3  UNL     1      -1.531   3.280  -0.921  1.00  0.00    -0.222 NA
HETATM   13  C11 UNL     1      -1.067   2.057  -0.612  1.00  0.00     0.157 A 
HETATM   14  N4  UNL     1      -1.844   0.927  -0.850  1.00  0.00    -0.339 N 
HETATM   15  C12 UNL     1      -2.420  -0.325  -0.540  1.00  0.00     0.042 A 
HETATM   16  C13 UNL     1      -3.755  -0.601  -0.584  1.00  0.00     0.057 A 
HETATM   17  C14 UNL     1      -4.168  -1.879  -0.289  1.00  0.00     0.074 A 
HETATM   18 CL1  UNL     1      -5.882  -2.221  -0.348  1.00  0.00    -0.081 Cl
HETATM   19  C15 UNL     1      -3.239  -2.830   0.038  1.00  0.00     0.138 A 
HETATM   20  F1  UNL     1      -3.743  -4.051   0.312  1.00  0.00    -0.204 F 
HETATM   21  C16 UNL     1      -1.878  -2.643   0.108  1.00  0.00     0.054 A 
HETATM   22  C17 UNL     1      -1.473  -1.362  -0.188  1.00  0.00    -0.021 A 
HETATM   23  H14 UNL     1      -2.234   1.043  -1.843  1.00  0.00     0.167 HD
ENDROOT
BRANCH   1  24
HETATM   24  O1  UNL     1       3.407  -1.378  -0.803  1.00  0.00    -0.359 OA
HETATM   25  C1  UNL     1       4.237  -1.578   0.327  1.00  0.00     0.209 C 
ENDBRANCH   1  24
TORSDOF 1
