REMARK  4 active torsions:
REMARK  status: ('A' for Active; 'I' for Inactive)
REMARK    1  A    between atoms: O1_1  and  C1_2 
REMARK    2  A    between atoms: C1_2  and  C2_3 
REMARK    3  A    between atoms: C6_7  and  C7_8 
REMARK    4  A    between atoms: N3_12  and  C9_13 
ROOT
HETATM    1  C7  UNL     1       0.336  -0.893   1.635  1.00  0.00     0.163 A 
HETATM    2  N1  UNL     1       0.107  -1.530   2.820  1.00  0.00    -0.220 NA
HETATM    3  C8  UNL     1       1.259  -1.615   3.506  1.00  0.00     0.258 A 
HETATM    4  N2  UNL     1       2.200  -1.030   2.745  1.00  0.00    -0.159 NA
HETATM    5  N3  UNL     1       1.645  -0.591   1.610  1.00  0.00    -0.214 N 
ENDROOT
BRANCH   1   6
HETATM    6  C6  UNL     1      -0.841  -0.734   0.787  1.00  0.00     0.012 A 
HETATM    7  C5  UNL     1      -1.173  -1.864   0.033  1.00  0.00     0.015 A 
HETATM    8  C4  UNL     1      -2.270  -1.886  -0.832  1.00  0.00     0.002 A 
HETATM    9  C3  UNL     1      -3.033  -0.739  -0.925  1.00  0.00     0.009 A 
HETATM   10  C2  UNL     1      -2.708   0.377  -0.183  1.00  0.00    -0.034 A 
HETATM   11  C15 UNL     1      -1.621   0.388   0.670  1.00  0.00     0.024 A 
BRANCH  10  12
HETATM   12  C1  UNL     1      -3.554   1.618  -0.299  1.00  0.00     0.202 C 
BRANCH  12  13
HETATM   13  O1  UNL     1      -3.080   2.437  -1.293  1.00  0.00    -0.396 OA
HETATM   14  H1  UNL     1      -3.781   2.527  -1.987  1.00  0.00     0.209 HD
ENDBRANCH  12  13
ENDBRANCH  10  12
ENDBRANCH   1   6
BRANCH   5  15
HETATM   15  C9  UNL     1       2.128   0.087   0.456  1.00  0.00     0.062 A 
HETATM   16  C10 UNL     1       1.758   1.335  -0.017  1.00  0.00     0.035 A 
HETATM   17  C11 UNL     1       2.357   1.818  -1.173  1.00  0.00     0.046 A 
HETATM   18  C12 UNL     1       3.310   1.118  -1.886  1.00  0.00     0.138 A 
HETATM   19  F1  UNL     1       3.848   1.654  -3.003  1.00  0.00    -0.204 F 
HETATM   20  C13 UNL     1       3.678  -0.135  -1.406  1.00  0.00     0.074 A 
HETATM   21 CL1  UNL     1       4.887  -1.027  -2.308  1.00  0.00    -0.081 Cl
HETATM   22  C14 UNL     1       3.086  -0.628  -0.251  1.00  0.00     0.058 A 
ENDBRANCH   5  15
TORSDOF 4
