REMARK  7 active torsions:
REMARK  status: ('A' for Active; 'I' for Inactive)
REMARK    1  A    between atoms: C2_2  and  C3_3 
REMARK    2  A    between atoms: C3_3  and  C4_5 
REMARK    3  A    between atoms: C4_5  and  C5_7 
REMARK    4  A    between atoms: C5_7  and  C6_8 
REMARK    5  A    between atoms: C6_8  and  N1_9 
REMARK    6  A    between atoms: N1_9  and  C7_10 
REMARK    7  A    between atoms: C12_17  and  N4_18 
REMARK       I    between atoms: N4_18  and  C13_19 
ROOT
HETATM    1  C7  UNL     1       0.080  -1.952   0.109  1.00  0.00     0.137 A 
HETATM    2  N2  UNL     1       0.275  -3.248  -0.265  1.00  0.00    -0.224 NA
HETATM    3  C8  UNL     1       1.164  -4.023   0.348  1.00  0.00     0.235 A 
HETATM    4  N3  UNL     1       1.881  -3.530   1.348  1.00  0.00    -0.241 NA
HETATM    5  C9  UNL     1       1.759  -2.279   1.781  1.00  0.00     0.072 A 
HETATM    6  C10 UNL     1       2.459  -1.697   2.798  1.00  0.00     0.035 A 
HETATM    7  C11 UNL     1       2.326  -0.379   3.246  1.00  0.00     0.032 A 
HETATM    8  C12 UNL     1       1.365   0.318   2.516  1.00  0.00     0.035 A 
HETATM    9  C15 UNL     1       0.591  -0.158   1.464  1.00  0.00     0.047 A 
HETATM   10  C16 UNL     1       0.856  -1.459   1.171  1.00  0.00     0.041 A 
ENDROOT
BRANCH   1  11
HETATM   11  N1  UNL     1      -0.917  -1.227  -0.635  1.00  0.00    -0.370 N 
HETATM   12  H6  UNL     1      -1.162  -0.236  -0.438  1.00  0.00     0.161 HD
BRANCH  11  13
HETATM   13  C6  UNL     1      -1.641  -1.881  -1.723  1.00  0.00     0.150 C 
BRANCH  13  14
HETATM   14  C5  UNL     1      -2.545  -0.886  -2.341  1.00  0.00     0.019 C 
BRANCH  14  15
HETATM   15  C4  UNL     1      -2.423  -0.544  -3.645  1.00  0.00     0.070 C 
HETATM   16 CL1  UNL     1      -1.099  -1.395  -4.471  1.00  0.00    -0.081 Cl
BRANCH  15  17
HETATM   17  C3  UNL     1      -3.009   0.310  -4.658  1.00  0.00     0.144 C 
HETATM   18  F1  UNL     1      -4.315   0.243  -4.956  1.00  0.00    -0.204 F 
BRANCH  17  19
HETATM   19  C2  UNL     1      -2.269   1.186  -5.306  1.00  0.00    -0.008 C 
HETATM   20  C1  UNL     1      -1.346   2.120  -5.508  1.00  0.00     0.047 C 
ENDBRANCH  17  19
ENDBRANCH  15  17
ENDBRANCH  14  15
ENDBRANCH  13  14
ENDBRANCH  11  13
ENDBRANCH   1  11
BRANCH   8  21
HETATM   21  N4  UNL     1       1.178   1.688   2.927  1.00  0.00    -0.327 N 
HETATM   22  C13 UNL     1       1.701   2.963   2.632  1.00  0.00     0.218 C 
HETATM   23  C14 UNL     1       1.112   4.113   3.392  1.00  0.00     0.117 C 
HETATM   24  O1  UNL     1       2.580   3.321   1.839  1.00  0.00    -0.274 OA
HETATM   25  H10 UNL     1       0.414   1.570   3.648  1.00  0.00     0.169 HD
ENDBRANCH   8  21
TORSDOF 7
