REMARK  2 active torsions:
REMARK  status: ('A' for Active; 'I' for Inactive)
REMARK       I    between atoms: C1_2  and  N1_3 
REMARK       I    between atoms: C1_2  and  N2_5 
REMARK    1  A    between atoms: N2_5  and  C2_6 
REMARK    2  A    between atoms: C7_13  and  C8_14 
ROOT
HETATM    1  C2  UNL     1       1.771   0.082  -0.820  1.00  0.00     0.037 A 
HETATM    2  C3  UNL     1       2.394  -1.043  -1.320  1.00  0.00     0.032 A 
HETATM    3  C4  UNL     1       1.598  -2.176  -1.423  1.00  0.00     0.035 A 
HETATM    4  C5  UNL     1       0.277  -2.137  -1.041  1.00  0.00     0.070 A 
HETATM    5  N3  UNL     1      -0.482  -3.237  -1.145  1.00  0.00    -0.241 NA
HETATM    6  C6  UNL     1      -1.776  -3.199  -0.771  1.00  0.00     0.234 A 
HETATM    7  N4  UNL     1      -2.354  -2.062  -0.281  1.00  0.00    -0.240 NA
HETATM    8  C7  UNL     1      -1.645  -0.928  -0.153  1.00  0.00     0.082 A 
HETATM    9  C13 UNL     1      -0.329  -1.008  -0.546  1.00  0.00     0.025 A 
HETATM   10  C14 UNL     1       0.446   0.138  -0.432  1.00  0.00     0.045 A 
ENDROOT
BRANCH   1  11
HETATM   11  N2  UNL     1       2.595   1.260  -0.712  1.00  0.00    -0.307 N 
HETATM   12  C1  UNL     1       3.242   1.326   0.572  1.00  0.00     0.348 C 
HETATM   13  O1  UNL     1       2.914   0.319   1.281  1.00  0.00    -0.245 OA
HETATM   14  N1  UNL     1       4.101   2.408   0.887  1.00  0.00    -0.173 N 
HETATM   15  F1  UNL     1       4.739   2.532   2.073  1.00  0.00    -0.097 F 
HETATM   16  H1  UNL     1       4.223   3.120   0.152  1.00  0.00     0.204 HD
HETATM   17  H2  UNL     1       2.732   1.992  -1.444  1.00  0.00     0.170 HD
ENDBRANCH   1  11
BRANCH   8  18
HETATM   18  C8  UNL     1      -2.293   0.255   0.370  1.00  0.00     0.006 C 
HETATM   19  C9  UNL     1      -2.396   1.532   0.035  1.00  0.00    -0.011 C 
HETATM   20  C10 UNL     1      -3.521   2.102   0.414  1.00  0.00     0.037 C 
HETATM   21  C11 UNL     1      -3.849   1.348   1.633  1.00  0.00     0.035 C 
HETATM   22 CL1  UNL     1      -4.991   1.814   2.884  1.00  0.00    -0.084 Cl
HETATM   23  C12 UNL     1      -3.107   0.233   1.605  1.00  0.00     0.038 C 
ENDBRANCH   8  18
TORSDOF 2
