REMARK  2 active torsions:
REMARK  status: ('A' for Active; 'I' for Inactive)
REMARK       I    between atoms: C2_2  and  N1_4 
REMARK    1  A    between atoms: C5_7  and  N2_8 
REMARK    2  A    between atoms: N2_8  and  C6_9 
ROOT
HETATM    1  C1  UNL     1      -1.627  -3.363   0.304  1.00  0.00     0.117 C 
HETATM    2  C2  UNL     1      -2.597  -2.299   0.042  1.00  0.00     0.220 C 
HETATM    3  O1  UNL     1      -3.692  -2.951  -0.022  1.00  0.00    -0.274 OA
HETATM    4  N1  UNL     1      -2.556  -0.859  -0.132  1.00  0.00    -0.324 N 
HETATM    5  C3  UNL     1      -1.253  -0.254  -0.043  1.00  0.00     0.112 C 
HETATM    6  C4  UNL     1      -0.776   0.966   0.052  1.00  0.00     0.054 A 
HETATM    7  C5  UNL     1       0.586   0.799   0.095  1.00  0.00     0.143 A 
HETATM    8  N3  UNL     1       1.351   1.882   0.191  1.00  0.00    -0.223 NA
HETATM    9  C12 UNL     1       0.847   3.113   0.248  1.00  0.00     0.236 A 
HETATM   10  N4  UNL     1      -0.482   3.271   0.207  1.00  0.00    -0.241 NA
HETATM   11  C13 UNL     1      -1.315   2.229   0.110  1.00  0.00     0.073 A 
HETATM   12  C14 UNL     1      -2.529   2.750   0.097  1.00  0.00     0.032 C 
HETATM   13  C15 UNL     1      -3.882   2.206   0.015  1.00  0.00    -0.000 C 
HETATM   14  C16 UNL     1      -4.245   0.939  -0.163  1.00  0.00    -0.007 C 
HETATM   15  C17 UNL     1      -3.924  -0.462  -0.357  1.00  0.00     0.158 C 
ENDROOT
BRANCH   7  16
HETATM   16  N2  UNL     1       1.248  -0.455   0.056  1.00  0.00    -0.340 N 
HETATM   17  H5  UNL     1       1.186  -1.486   0.011  1.00  0.00     0.167 HD
BRANCH  16  18
HETATM   18  C6  UNL     1       2.684  -0.498   0.072  1.00  0.00     0.035 A 
HETATM   19  C7  UNL     1       3.578  -1.307   0.777  1.00  0.00     0.032 A 
HETATM   20  C8  UNL     1       4.945  -1.217   0.656  1.00  0.00     0.046 A 
HETATM   21  C9  UNL     1       5.472  -0.282  -0.206  1.00  0.00     0.138 A 
HETATM   22  F1  UNL     1       6.835  -0.272  -0.255  1.00  0.00    -0.204 F 
HETATM   23  C10 UNL     1       4.627   0.525  -0.911  1.00  0.00     0.074 A 
HETATM   24 CL1  UNL     1       5.500   1.655  -1.959  1.00  0.00    -0.081 Cl
HETATM   25  C11 UNL     1       3.249   0.443  -0.797  1.00  0.00     0.056 A 
ENDBRANCH  16  18
ENDBRANCH   7  16
TORSDOF 2
