REMARK  5 active torsions:
REMARK  status: ('A' for Active; 'I' for Inactive)
REMARK    1  A    between atoms: C2_2  and  O1_3 
REMARK    2  A    between atoms: C2_2  and  N1_4 
REMARK    3  A    between atoms: N1_4  and  C3_5 
REMARK    4  A    between atoms: C8_12  and  N4_13 
REMARK    5  A    between atoms: N4_13  and  C9_14 
ROOT
HETATM    1  C3  UNL     1      -1.782  -1.037  -0.044  1.00  0.00     0.014 C 
HETATM    2  C4  UNL     1      -1.374  -2.292  -0.003  1.00  0.00     0.026 C 
HETATM    3  C5  UNL     1      -0.939  -3.437  -0.849  1.00  0.00     0.021 C 
HETATM    4  C6  UNL     1      -0.838  -3.171  -2.173  1.00  0.00     0.118 C 
HETATM    5  N2  UNL     1      -1.209  -1.775  -2.115  1.00  0.00    -0.254 NA
HETATM    6  C7  UNL     1      -0.314  -0.997  -1.534  1.00  0.00     0.234 C 
HETATM    7  N3  UNL     1       0.540  -0.032  -0.940  1.00  0.00    -0.228 NA
HETATM    8  C8  UNL     1       0.198   0.286   0.337  1.00  0.00     0.111 C 
HETATM    9  C15 UNL     1      -0.983  -0.361   1.096  1.00  0.00     0.135 C 
ENDROOT
BRANCH   8  10
HETATM   10  N4  UNL     1       1.098   1.244   0.840  1.00  0.00    -0.344 N 
HETATM   11  H11 UNL     1       0.635   1.962   1.428  1.00  0.00     0.167 HD
BRANCH  10  12
HETATM   12  C9  UNL     1       2.466   1.140   0.532  1.00  0.00     0.035 A 
HETATM   13  C10 UNL     1       3.210   0.189  -0.101  1.00  0.00     0.032 A 
HETATM   14  C11 UNL     1       4.546   0.263  -0.336  1.00  0.00     0.046 A 
HETATM   15  C12 UNL     1       5.246   1.377   0.086  1.00  0.00     0.138 A 
HETATM   16  F1  UNL     1       6.586   1.435  -0.158  1.00  0.00    -0.204 F 
HETATM   17  C13 UNL     1       4.544   2.370   0.732  1.00  0.00     0.074 A 
HETATM   18 CL1  UNL     1       5.486   3.755   1.241  1.00  0.00    -0.081 Cl
HETATM   19  C14 UNL     1       3.176   2.265   0.957  1.00  0.00     0.056 A 
ENDBRANCH  10  12
ENDBRANCH   8  10
BRANCH   1  20
HETATM   20  N1  UNL     1      -2.197   0.262  -0.320  1.00  0.00    -0.367 N 
HETATM   21  H6  UNL     1      -1.812   1.119  -0.752  1.00  0.00     0.162 HD
BRANCH  20  22
HETATM   22  C2  UNL     1      -3.554   0.303   0.156  1.00  0.00     0.213 C 
HETATM   23  C1  UNL     1      -4.128   1.691  -0.047  1.00  0.00     0.063 C 
BRANCH  22  24
HETATM   24  O1  UNL     1      -3.775  -0.114   1.427  1.00  0.00    -0.377 OA
HETATM   25  H5  UNL     1      -4.086  -1.074   1.501  1.00  0.00     0.212 HD
ENDBRANCH  22  24
ENDBRANCH  20  22
ENDBRANCH   1  20
TORSDOF 5
