REMARK  6 active torsions:
REMARK  status: ('A' for Active; 'I' for Inactive)
REMARK    1  A    between atoms: C2_2  and  C3_3 
REMARK    2  A    between atoms: C4_5  and  C5_6 
REMARK    3  A    between atoms: C5_6  and  N1_7 
REMARK    4  A    between atoms: N1_7  and  C6_8 
REMARK    5  A    between atoms: C11_15  and  N4_16 
REMARK    6  A    between atoms: N4_16  and  N5_17 
ROOT
HETATM    1  C6  UNL     1      -0.262   0.014   0.236  1.00  0.00     0.137 A 
HETATM    2  N2  UNL     1       0.584  -1.019   0.288  1.00  0.00    -0.224 NA
HETATM    3  C7  UNL     1       0.174  -2.294   0.381  1.00  0.00     0.235 A 
HETATM    4  N3  UNL     1      -1.157  -2.598   0.428  1.00  0.00    -0.241 NA
HETATM    5  C8  UNL     1      -2.084  -1.608   0.381  1.00  0.00     0.072 A 
HETATM    6  C9  UNL     1      -3.424  -1.918   0.429  1.00  0.00     0.035 A 
HETATM    7  C10 UNL     1      -4.358  -0.903   0.381  1.00  0.00     0.033 A 
HETATM    8  C11 UNL     1      -3.920   0.424   0.284  1.00  0.00     0.053 A 
HETATM    9  C12 UNL     1      -2.561   0.663   0.240  1.00  0.00     0.048 A 
HETATM   10  C13 UNL     1      -1.598  -0.321   0.286  1.00  0.00     0.041 A 
ENDROOT
BRANCH   1  11
HETATM   11  N1  UNL     1       0.202   1.366   0.136  1.00  0.00    -0.370 N 
HETATM   12  H9  UNL     1      -0.383   2.199   0.093  1.00  0.00     0.161 HD
BRANCH  11  13
HETATM   13  C5  UNL     1       1.653   1.550   0.095  1.00  0.00     0.150 C 
BRANCH  13  14
HETATM   14  C4  UNL     1       2.266   0.863  -1.068  1.00  0.00     0.012 C 
HETATM   15  C3  UNL     1       3.172  -0.088  -1.244  1.00  0.00     0.009 C 
HETATM   16 CL1  UNL     1       3.540  -0.539  -2.896  1.00  0.00    -0.089 Cl
BRANCH  15  17
HETATM   17  C2  UNL     1       3.853  -0.752  -0.102  1.00  0.00     0.046 C 
HETATM   18  C1  UNL     1       5.343  -0.475  -0.285  1.00  0.00     0.011 C 
ENDBRANCH  15  17
ENDBRANCH  13  14
ENDBRANCH  11  13
ENDBRANCH   1  11
BRANCH   8  19
HETATM   19  N4  UNL     1      -4.874   1.505   0.231  1.00  0.00    -0.254 N 
HETATM   20  H13 UNL     1      -5.886   1.254   0.268  1.00  0.00     0.191 HD
BRANCH  19  21
HETATM   21  N5  UNL     1      -4.473   2.855   0.133  1.00  0.00    -0.014 NA
HETATM   22  O1  UNL     1      -5.122   3.695   0.814  1.00  0.00    -0.042 OA
ENDBRANCH  19  21
ENDBRANCH   8  19
TORSDOF 6
