REMARK  3 active torsions:
REMARK  status: ('A' for Active; 'I' for Inactive)
REMARK       I    between atoms: C2_2  and  N1_4 
REMARK    1  A    between atoms: N1_4  and  C3_5 
REMARK    2  A    between atoms: C8_12  and  N4_13 
REMARK    3  A    between atoms: N4_13  and  C9_14 
ROOT
HETATM    1  C3  UNL     1       2.318  -1.426   0.837  1.00  0.00     0.035 A 
HETATM    2  C4  UNL     1       3.530  -1.373   0.179  1.00  0.00     0.032 A 
HETATM    3  C5  UNL     1       3.593  -0.659  -1.020  1.00  0.00     0.035 A 
HETATM    4  C6  UNL     1       2.466  -0.036  -1.511  1.00  0.00     0.072 A 
HETATM    5  N2  UNL     1       2.516   0.661  -2.678  1.00  0.00    -0.241 NA
HETATM    6  C7  UNL     1       1.372   1.259  -3.120  1.00  0.00     0.236 A 
HETATM    7  N3  UNL     1       0.179   1.198  -2.459  1.00  0.00    -0.224 NA
HETATM    8  C8  UNL     1       0.087   0.518  -1.300  1.00  0.00     0.142 A 
HETATM    9  C15 UNL     1       1.250  -0.084  -0.861  1.00  0.00     0.041 A 
HETATM   10  C16 UNL     1       1.206  -0.792   0.322  1.00  0.00     0.047 A 
ENDROOT
BRANCH   8  11
HETATM   11  N4  UNL     1      -1.147   0.473  -0.644  1.00  0.00    -0.341 N 
HETATM   12  H8  UNL     1      -1.412   0.017   0.227  1.00  0.00     0.167 HD
BRANCH  11  13
HETATM   13  C9  UNL     1      -2.240   1.154  -1.248  1.00  0.00     0.054 A 
HETATM   14  C10 UNL     1      -2.195   2.358  -1.800  1.00  0.00     0.028 A 
HETATM   15  C11 UNL     1      -3.504   2.750  -2.324  1.00  0.00     0.002 A 
HETATM   16  C12 UNL     1      -4.345   1.762  -2.080  1.00  0.00     0.022 A 
HETATM   17  C13 UNL     1      -3.647   0.666  -1.386  1.00  0.00     0.160 A 
HETATM   18  C14 UNL     1      -4.307   0.500  -0.033  1.00  0.00     0.063 C 
HETATM   19  F1  UNL     1      -3.760  -0.475  -2.119  1.00  0.00    -0.232 F 
ENDBRANCH  11  13
ENDBRANCH   8  11
BRANCH   1  20
HETATM   20  N1  UNL     1       2.369  -2.176   2.043  1.00  0.00    -0.327 N 
HETATM   21  C2  UNL     1       2.695  -1.490   3.269  1.00  0.00     0.218 C 
HETATM   22  C1  UNL     1       2.736  -2.313   4.492  1.00  0.00     0.117 C 
HETATM   23  O1  UNL     1       2.941  -0.259   3.346  1.00  0.00    -0.274 OA
HETATM   24  H4  UNL     1       2.175  -3.212   2.059  1.00  0.00     0.169 HD
ENDBRANCH   1  20
TORSDOF 3
