REMARK  6 active torsions:
REMARK  status: ('A' for Active; 'I' for Inactive)
REMARK       I    between atoms: C2_2  and  N1_4 
REMARK    1  A    between atoms: N1_4  and  C3_5 
REMARK    2  A    between atoms: C6_8  and  N2_9 
REMARK    3  A    between atoms: C7_10  and  C8_11 
REMARK    4  A    between atoms: C8_11  and  C11_16 
REMARK    5  A    between atoms: N3_12  and  C9_13 
REMARK    6  A    between atoms: C10_14  and  N4_15 
ROOT
HETATM    1  C8  UNL     1      -0.065   0.778   1.034  1.00  0.00     0.079 C 
HETATM    2  N3  UNL     1      -0.510   1.158   2.212  1.00  0.00    -0.258 NA
ENDROOT
BRANCH   1   3
HETATM    3  C7  UNL     1       0.622   0.330  -0.158  1.00  0.00     0.017 A 
HETATM    4  C6  UNL     1      -0.152   0.653  -1.299  1.00  0.00     0.018 A 
HETATM    5  C5  UNL     1       0.326   0.539  -2.610  1.00  0.00     0.026 A 
HETATM    6  C4  UNL     1       1.630   0.076  -2.607  1.00  0.00     0.031 A 
HETATM    7  C3  UNL     1       2.389  -0.236  -1.513  1.00  0.00     0.035 A 
HETATM    8  C17 UNL     1       1.874  -0.107  -0.266  1.00  0.00     0.045 A 
BRANCH   4   9
HETATM    9  N2  UNL     1      -1.448   1.174  -1.276  1.00  0.00    -0.302 NA
HETATM   10  H7  UNL     1      -2.405   1.439  -1.077  1.00  0.00     0.124 HD
HETATM   11  H8  UNL     1      -2.359   1.221  -0.786  1.00  0.00     0.124 HD
ENDBRANCH   4   9
BRANCH   7  12
HETATM   12  N1  UNL     1       3.704  -0.728  -1.584  1.00  0.00    -0.327 N 
HETATM   13  C2  UNL     1       4.928  -0.073  -1.669  1.00  0.00     0.218 C 
HETATM   14  C1  UNL     1       6.316  -0.504  -1.732  1.00  0.00     0.117 C 
HETATM   15  O1  UNL     1       4.907   1.220  -1.706  1.00  0.00    -0.274 OA
HETATM   16  H4  UNL     1       3.844  -1.779  -1.570  1.00  0.00     0.169 HD
ENDBRANCH   7  12
ENDBRANCH   1   3
BRANCH   1  17
HETATM   17  C11 UNL     1      -1.052  -0.417   1.016  1.00  0.00    -0.005 A 
HETATM   18  C12 UNL     1      -1.844  -0.800   2.134  1.00  0.00     0.017 A 
HETATM   19  C13 UNL     1      -2.777  -1.829   2.350  1.00  0.00     0.045 A 
HETATM   20  C14 UNL     1      -2.952  -2.642   1.212  1.00  0.00     0.138 A 
HETATM   21  F1  UNL     1      -3.833  -3.633   1.358  1.00  0.00    -0.204 F 
HETATM   22  C15 UNL     1      -2.273  -2.416   0.068  1.00  0.00     0.073 A 
HETATM   23 CL1  UNL     1      -2.488  -3.422  -1.340  1.00  0.00    -0.081 Cl
HETATM   24  C16 UNL     1      -1.429  -1.372   0.089  1.00  0.00     0.041 A 
ENDBRANCH   1  17
BRANCH   2  25
HETATM   25  C9  UNL     1      -1.934   1.552   2.103  1.00  0.00     0.134 C 
HETATM   26  C10 UNL     1      -2.991   2.349   2.366  1.00  0.00     0.099 C 
BRANCH  26  27
HETATM   27  N4  UNL     1      -4.358   2.813   2.322  1.00  0.00    -0.407 N 
HETATM   28  H11 UNL     1      -4.226   3.203   1.327  1.00  0.00     0.155 HD
HETATM   29  H12 UNL     1      -4.789   2.554   3.225  1.00  0.00     0.155 HD
ENDBRANCH  26  27
ENDBRANCH   2  25
TORSDOF 6
