REMARK  3 active torsions:
REMARK  status: ('A' for Active; 'I' for Inactive)
REMARK       I    between atoms: N1_1  and  C1_2 
REMARK       I    between atoms: C1_2  and  N2_4 
REMARK    1  A    between atoms: C13_20  and  O2_21 
REMARK    2  A    between atoms: O2_21  and  C14_22 
REMARK    3  A    between atoms: C14_22  and  C15_23 
ROOT
HETATM    1  N1  UNL     1      -5.499   3.470  -0.622  1.00  0.00    -0.352 N 
HETATM    2  C1  UNL     1      -5.090   2.090  -0.453  1.00  0.00     0.318 C 
HETATM    3  O1  UNL     1      -5.902   1.187  -0.713  1.00  0.00    -0.247 OA
HETATM    4  N2  UNL     1      -3.770   1.951   0.002  1.00  0.00    -0.315 N 
HETATM    5  C2  UNL     1      -3.316   0.677   0.186  1.00  0.00     0.015 A 
HETATM    6  C3  UNL     1      -2.050   0.322   0.624  1.00  0.00     0.090 A 
HETATM    7  C4  UNL     1      -1.282   0.051  -0.550  1.00  0.00     0.146 C 
HETATM    8  N3  UNL     1      -2.123  -0.252  -1.669  1.00  0.00    -0.225 NA
HETATM    9  C5  UNL     1      -2.566  -1.344  -2.145  1.00  0.00     0.235 C 
HETATM   10  N4  UNL     1      -2.424  -2.685  -1.798  1.00  0.00    -0.246 NA
HETATM   11  C6  UNL     1      -2.389  -3.210  -0.658  1.00  0.00     0.036 C 
HETATM   12  C7  UNL     1      -2.582  -1.960   0.014  1.00  0.00     0.043 C 
HETATM   13  C8  UNL     1      -2.889  -0.711   0.231  1.00  0.00     0.060 A 
HETATM   14  C9  UNL     1      -2.320  -3.998   0.621  1.00  0.00     0.087 C 
HETATM   15  C10 UNL     1      -1.288  -3.286   1.468  1.00  0.00     0.002 C 
HETATM   16  C11 UNL     1      -0.167  -2.683   1.175  1.00  0.00     0.047 A 
HETATM   17 CL1  UNL     1       0.007  -2.861  -0.554  1.00  0.00    -0.138 Cl
HETATM   18  C12 UNL     1       1.105  -1.979   0.961  1.00  0.00     0.323 A 
HETATM   19  F1  UNL     1       2.051  -2.696   0.291  1.00  0.00    -0.223 F 
HETATM   20  C13 UNL     1       0.910  -0.631   0.289  1.00  0.00     0.192 C 
HETATM   21  N5  UNL     1       0.097   0.169  -0.275  1.00  0.00    -0.208 NA
HETATM   22  H1  UNL     1      -4.974   4.296  -1.024  1.00  0.00     0.160 HD
HETATM   23  H2  UNL     1      -6.401   3.973  -0.389  1.00  0.00     0.160 HD
HETATM   24  H3  UNL     1      -3.049   2.640   0.235  1.00  0.00     0.170 HD
ENDROOT
BRANCH  20  25
HETATM   25  O2  UNL     1       2.160  -0.024   0.294  1.00  0.00    -0.330 OA
BRANCH  25  26
HETATM   26  C14 UNL     1       2.493   1.211  -0.260  1.00  0.00     0.215 C 
BRANCH  26  27
HETATM   27  C15 UNL     1       3.946   1.479  -0.160  1.00  0.00    -0.034 A 
HETATM   28  C16 UNL     1       4.838   1.119  -1.140  1.00  0.00     0.009 A 
HETATM   29  C17 UNL     1       6.187   1.393  -1.020  1.00  0.00     0.001 A 
HETATM   30  C18 UNL     1       6.687   2.050   0.111  1.00  0.00     0.000 A 
HETATM   31  C19 UNL     1       5.821   2.420   1.106  1.00  0.00     0.001 A 
HETATM   32  C20 UNL     1       4.479   2.117   0.927  1.00  0.00     0.009 A 
ENDBRANCH  26  27
ENDBRANCH  25  26
ENDBRANCH  20  25
TORSDOF 3
