REMARK  8 active torsions:
REMARK  status: ('A' for Active; 'I' for Inactive)
REMARK    1  A    between atoms: C1_2  and  C2_3 
REMARK    2  A    between atoms: C7_10  and  N3_11 
REMARK    3  A    between atoms: N3_11  and  C8_12 
REMARK    4  A    between atoms: C8_12  and  C9_13 
REMARK    5  A    between atoms: C10_14  and  C11_16 
REMARK    6  A    between atoms: C11_16  and  C12_18 
REMARK    7  A    between atoms: C12_18  and  C13_19 
REMARK    8  A    between atoms: C13_19  and  C14_20 
ROOT
HETATM    1  N3  UNL     1       1.965   0.875  -0.036  1.00  0.00    -0.370 N 
HETATM    2  H5  UNL     1       2.128   1.182   0.942  1.00  0.00     0.161 HD
ENDROOT
BRANCH   1   3
HETATM    3  C7  UNL     1       2.929   0.269  -0.875  1.00  0.00     0.137 A 
HETATM    4  N2  UNL     1       2.649  -0.107  -2.134  1.00  0.00    -0.224 NA
HETATM    5  C6  UNL     1       3.531  -0.687  -2.966  1.00  0.00     0.235 A 
HETATM    6  N1  UNL     1       4.790  -0.919  -2.535  1.00  0.00    -0.241 NA
HETATM    7  C5  UNL     1       5.160  -0.576  -1.289  1.00  0.00     0.072 A 
HETATM    8  C4  UNL     1       6.466  -0.858  -0.955  1.00  0.00     0.033 A 
HETATM    9  C20 UNL     1       4.222   0.016  -0.472  1.00  0.00     0.039 A 
HETATM   10  C3  UNL     1       6.891  -0.526   0.307  1.00  0.00     0.016 A 
HETATM   11  C2  UNL     1       5.959   0.065   1.128  1.00  0.00    -0.011 A 
HETATM   12  C21 UNL     1       4.652   0.345   0.786  1.00  0.00     0.031 A 
BRANCH  11  13
HETATM   13  C1  UNL     1       6.376   0.426   2.460  1.00  0.00     0.389 C 
HETATM   14  O1  UNL     1       5.806   0.970   3.453  1.00  0.00    -0.405 OA
ENDBRANCH  11  13
ENDBRANCH   1   3
BRANCH   1  15
HETATM   15  C8  UNL     1       0.646   1.077  -0.601  1.00  0.00     0.150 C 
BRANCH  15  16
HETATM   16  C9  UNL     1      -0.229   1.713   0.407  1.00  0.00     0.015 C 
HETATM   17  C10 UNL     1      -1.335   1.701   1.184  1.00  0.00     0.043 C 
HETATM   18 CL1  UNL     1      -1.817   2.982   2.306  1.00  0.00    -0.086 Cl
BRANCH  17  19
HETATM   19  C11 UNL     1      -2.429   0.712   1.354  1.00  0.00     0.214 C 
HETATM   20  F1  UNL     1      -3.613   1.368   1.036  1.00  0.00    -0.243 F 
BRANCH  19  21
HETATM   21  C12 UNL     1      -2.186  -0.447   0.436  1.00  0.00     0.047 C 
BRANCH  21  22
HETATM   22  C13 UNL     1      -3.244  -1.528   0.520  1.00  0.00     0.041 C 
BRANCH  22  23
HETATM   23  C14 UNL     1      -4.598  -1.061   0.187  1.00  0.00    -0.058 A 
HETATM   24  C15 UNL     1      -5.048  -1.104  -1.116  1.00  0.00     0.007 A 
HETATM   25  C16 UNL     1      -6.310  -0.680  -1.473  1.00  0.00     0.001 A 
HETATM   26  C17 UNL     1      -7.187  -0.190  -0.536  1.00  0.00     0.000 A 
HETATM   27  C18 UNL     1      -6.783  -0.128   0.772  1.00  0.00     0.001 A 
HETATM   28  C19 UNL     1      -5.520  -0.558   1.097  1.00  0.00     0.007 A 
ENDBRANCH  22  23
ENDBRANCH  21  22
ENDBRANCH  19  21
ENDBRANCH  17  19
ENDBRANCH  15  16
ENDBRANCH   1  15
TORSDOF 8
