REMARK  4 active torsions:
REMARK  status: ('A' for Active; 'I' for Inactive)
REMARK       I    between atoms: C1_2  and  N1_3 
REMARK       I    between atoms: C1_2  and  N2_5 
REMARK    1  A    between atoms: N2_5  and  C2_6 
REMARK    2  A    between atoms: C7_13  and  C8_14 
REMARK    3  A    between atoms: C12_19  and  C13_20 
REMARK    4  A    between atoms: C13_20  and  C14_21 
ROOT
HETATM    1  C2  UNL     1       3.524   0.854   0.643  1.00  0.00     0.037 A 
HETATM    2  C3  UNL     1       4.288   0.638   1.763  1.00  0.00     0.032 A 
HETATM    3  C4  UNL     1       3.770   0.053   2.898  1.00  0.00     0.035 A 
HETATM    4  C5  UNL     1       2.447  -0.320   2.891  1.00  0.00     0.070 A 
HETATM    5  N3  UNL     1       1.834  -0.850   3.966  1.00  0.00    -0.241 NA
HETATM    6  C6  UNL     1       0.527  -1.163   3.949  1.00  0.00     0.234 A 
HETATM    7  N4  UNL     1      -0.174  -0.945   2.837  1.00  0.00    -0.240 NA
HETATM    8  C7  UNL     1       0.312  -0.428   1.699  1.00  0.00     0.083 A 
HETATM    9  C18 UNL     1       1.638  -0.132   1.799  1.00  0.00     0.025 A 
HETATM   10  C19 UNL     1       2.215   0.456   0.707  1.00  0.00     0.045 A 
ENDROOT
BRANCH   8  11
HETATM   11  C8  UNL     1      -0.653  -0.274   0.649  1.00  0.00     0.015 C 
HETATM   12  C9  UNL     1      -0.446  -0.332  -0.644  1.00  0.00     0.148 C 
HETATM   13  O2  UNL     1      -0.881  -0.274  -1.939  1.00  0.00    -0.358 OA
HETATM   14  C10 UNL     1      -1.584  -1.291  -2.630  1.00  0.00     0.202 C 
HETATM   15  C11 UNL     1      -3.039  -1.301  -2.404  1.00  0.00     0.003 C 
HETATM   16  C12 UNL     1      -3.945  -0.586  -1.688  1.00  0.00    -0.070 C 
HETATM   17  C15 UNL     1      -3.183   0.459  -1.011  1.00  0.00     0.061 C 
HETATM   18  C16 UNL     1      -3.173   0.381   0.442  1.00  0.00    -0.021 C 
HETATM   19  C17 UNL     1      -2.045   0.070   1.054  1.00  0.00     0.012 C 
BRANCH  16  20
HETATM   20  C13 UNL     1      -5.297  -1.052  -1.838  1.00  0.00     0.125 C 
BRANCH  20  21
HETATM   21  C14 UNL     1      -6.583  -1.131  -1.689  1.00  0.00     0.365 C 
HETATM   22  F1  UNL     1      -7.160  -2.120  -2.385  1.00  0.00    -0.461 F 
ENDBRANCH  20  21
ENDBRANCH  16  20
ENDBRANCH   8  11
BRANCH   1  23
HETATM   23  N2  UNL     1       4.030   1.450  -0.538  1.00  0.00    -0.308 N 
HETATM   24  C1  UNL     1       5.321   1.933  -0.837  1.00  0.00     0.335 C 
HETATM   25  O1  UNL     1       6.191   1.841   0.056  1.00  0.00    -0.246 OA
HETATM   26  N1  UNL     1       5.718   2.517  -2.070  1.00  0.00    -0.250 N 
HETATM   27 CL1  UNL     1       7.417   2.979  -2.013  1.00  0.00     0.015 Cl
HETATM   28  H1  UNL     1       4.996   2.599  -2.823  1.00  0.00     0.185 HD
HETATM   29  H2  UNL     1       3.396   1.584  -1.362  1.00  0.00     0.170 HD
ENDBRANCH   1  23
TORSDOF 4
