REMARK  10 active torsions:
REMARK  status: ('A' for Active; 'I' for Inactive)
REMARK    1  A    between atoms: C2_2  and  C3_3 
REMARK    2  A    between atoms: C3_3  and  N4_25 
REMARK    3  A    between atoms: C4_4  and  C5_5 
REMARK    4  A    between atoms: C8_10  and  N3_11 
REMARK    5  A    between atoms: N3_11  and  C9_12 
REMARK    6  A    between atoms: C9_12  and  C12_15 
REMARK    7  A    between atoms: C13_16  and  O1_17 
REMARK    8  A    between atoms: O1_17  and  C14_18 
REMARK    9  A    between atoms: C14_18  and  C15_19 
REMARK   10  A    between atoms: C15_19  and  C16_20 
REMARK       I    between atoms: N4_25  and  C19_26 
REMARK       I    between atoms: C19_26  and  N5_27 
ROOT
HETATM    1  C5  UNL     1      -2.620   0.975  -0.399  1.00  0.00     0.010 A 
HETATM    2  C6  UNL     1      -3.412   1.954  -1.182  1.00  0.00     0.192 A 
HETATM    3  N1  UNL     1      -2.528   2.833  -1.881  1.00  0.00    -0.278 NA
HETATM    4  C7  UNL     1      -1.255   2.802  -1.851  1.00  0.00     0.229 A 
HETATM    5  N2  UNL     1      -0.524   1.855  -1.092  1.00  0.00    -0.224 NA
HETATM    6  C8  UNL     1      -1.162   0.979  -0.395  1.00  0.00     0.137 A 
ENDROOT
BRANCH   6   7
HETATM    7  N3  UNL     1      -0.352   0.059   0.352  1.00  0.00    -0.340 N 
HETATM    8  H7  UNL     1      -0.753  -0.233   1.288  1.00  0.00     0.167 HD
BRANCH   7   9
HETATM    9  C9  UNL     1       0.904  -0.407  -0.166  1.00  0.00     0.038 C 
HETATM   10  C10 UNL     1       1.034  -1.449  -0.969  1.00  0.00    -0.001 C 
HETATM   11  C11 UNL     1      -0.222  -2.166  -1.344  1.00  0.00     0.038 C 
BRANCH   9  12
HETATM   12  C12 UNL     1       2.024   0.403   0.297  1.00  0.00     0.004 A 
HETATM   13  C13 UNL     1       3.396   0.441   0.143  1.00  0.00     0.059 A 
HETATM   14  C18 UNL     1       2.792   1.440   0.977  1.00  0.00     0.108 A 
BRANCH  13  15
HETATM   15  O1  UNL     1       4.706   0.127  -0.268  1.00  0.00    -0.354 OA
BRANCH  15  16
HETATM   16  C14 UNL     1       5.602  -0.520   0.615  1.00  0.00     0.182 C 
BRANCH  16  17
HETATM   17  C15 UNL     1       6.932  -0.721  -0.113  1.00  0.00     0.097 C 
BRANCH  17  18
HETATM   18  C16 UNL     1       7.501   0.602  -0.529  1.00  0.00     0.106 C 
HETATM   19  F1  UNL     1       6.651   1.270  -1.374  1.00  0.00    -0.210 F 
HETATM   20  C17 UNL     1       8.675   1.123  -0.164  1.00  0.00     0.122 C 
HETATM   21 CL1  UNL     1       9.148   2.711  -0.781  1.00  0.00    -0.094 Cl
ENDBRANCH  17  18
ENDBRANCH  16  17
ENDBRANCH  15  16
ENDBRANCH  13  15
ENDBRANCH   9  12
ENDBRANCH   7   9
ENDBRANCH   6   7
BRANCH   1  22
HETATM   22  C4  UNL     1      -3.204   0.037   0.346  1.00  0.00     0.051 C 
HETATM   23  C3  UNL     1      -4.536  -0.372   0.668  1.00  0.00     0.079 C 
BRANCH  23  24
HETATM   24  C2  UNL     1      -5.530   0.314   0.117  1.00  0.00    -0.126 C 
HETATM   25  C1  UNL     1      -6.461   0.830  -0.658  1.00  0.00     0.099 C 
ENDBRANCH  23  24
BRANCH  23  26
HETATM   26  N4  UNL     1      -4.994  -1.424   1.506  1.00  0.00    -0.302 N 
HETATM   27  C19 UNL     1      -6.335  -1.694   1.719  1.00  0.00     0.318 C 
HETATM   28  N5  UNL     1      -6.515  -2.814   2.611  1.00  0.00    -0.352 N 
HETATM   29  O2  UNL     1      -7.240  -1.036   1.192  1.00  0.00    -0.247 OA
HETATM   30  H20 UNL     1      -7.111  -3.565   2.203  1.00  0.00     0.160 HD
HETATM   31  H21 UNL     1      -6.056  -2.784   3.549  1.00  0.00     0.160 HD
HETATM   32  H19 UNL     1      -4.156  -1.935   1.915  1.00  0.00     0.171 HD
ENDBRANCH  23  26
ENDBRANCH   1  22
TORSDOF 10
