REMARK  4 active torsions:
REMARK  status: ('A' for Active; 'I' for Inactive)
REMARK       I    between atoms: N1_1  and  C1_2 
REMARK       I    between atoms: C1_2  and  N2_4 
REMARK    1  A    between atoms: N2_4  and  C2_5 
REMARK    2  A    between atoms: C7_12  and  C8_13 
REMARK    3  A    between atoms: C15_22  and  C16_23 
REMARK    4  A    between atoms: C17_24  and  C18_25 
ROOT
HETATM    1  C2  UNL     1       1.785   1.365  -2.350  1.00  0.00     0.037 A 
HETATM    2  C3  UNL     1       1.137   1.511  -3.580  1.00  0.00     0.032 A 
HETATM    3  C4  UNL     1      -0.017   0.779  -3.820  1.00  0.00     0.035 A 
HETATM    4  C5  UNL     1      -0.569  -0.092  -2.911  1.00  0.00     0.070 A 
HETATM    5  N3  UNL     1      -1.692  -0.797  -3.152  1.00  0.00    -0.241 NA
HETATM    6  C6  UNL     1      -2.110  -1.614  -2.149  1.00  0.00     0.234 A 
HETATM    7  N4  UNL     1      -1.472  -1.741  -0.971  1.00  0.00    -0.245 NA
HETATM    8  C7  UNL     1      -0.335  -1.043  -0.695  1.00  0.00     0.060 A 
HETATM    9  C19 UNL     1       0.091  -0.214  -1.709  1.00  0.00     0.021 A 
HETATM   10  C20 UNL     1       1.235   0.493  -1.435  1.00  0.00     0.045 A 
ENDROOT
BRANCH   8  11
HETATM   11  C8  UNL     1       0.253  -1.288   0.622  1.00  0.00     0.095 C 
HETATM   12  C9  UNL     1       0.195  -2.792   0.811  1.00  0.00     0.010 C 
HETATM   13  C10 UNL     1       0.755  -3.715   1.601  1.00  0.00     0.033 C 
HETATM   14 CL1  UNL     1       0.214  -5.365   1.267  1.00  0.00    -0.087 Cl
HETATM   15  C11 UNL     1       1.739  -3.649   2.702  1.00  0.00     0.225 C 
HETATM   16  O2  UNL     1       1.431  -2.678   3.655  1.00  0.00    -0.358 OA
HETATM   17  C12 UNL     1       0.458  -1.728   3.969  1.00  0.00     0.135 C 
HETATM   18  C13 UNL     1      -0.297  -0.986   3.173  1.00  0.00     0.032 C 
HETATM   19  C14 UNL     1      -0.563  -0.720   1.751  1.00  0.00    -0.043 C 
HETATM   20  C15 UNL     1      -1.575   0.067   1.467  1.00  0.00     0.008 C 
BRANCH  20  21
HETATM   21  C16 UNL     1      -2.593   0.809   2.202  1.00  0.00    -0.001 C 
HETATM   22  C17 UNL     1      -3.516   1.542   1.651  1.00  0.00     0.004 C 
BRANCH  22  23
HETATM   23  C18 UNL     1      -3.764   1.802   0.234  1.00  0.00     0.249 C 
HETATM   24  F1  UNL     1      -5.045   1.372  -0.137  1.00  0.00    -0.251 F 
ENDBRANCH  22  23
ENDBRANCH  20  21
ENDBRANCH   8  11
BRANCH   1  25
HETATM   25  N2  UNL     1       2.963   2.145  -2.170  1.00  0.00    -0.309 N 
HETATM   26  C1  UNL     1       2.812   3.444  -1.610  1.00  0.00     0.318 C 
HETATM   27  N1  UNL     1       4.012   4.178  -1.452  1.00  0.00    -0.352 N 
HETATM   28  O1  UNL     1       1.767   4.002  -1.249  1.00  0.00    -0.247 OA
HETATM   29  H1  UNL     1       4.613   4.190  -0.603  1.00  0.00     0.160 HD
HETATM   30  H2  UNL     1       4.895   4.723  -1.348  1.00  0.00     0.160 HD
HETATM   31  H3  UNL     1       3.890   1.754  -2.447  1.00  0.00     0.170 HD
ENDBRANCH   1  25
TORSDOF 4
