REMARK  4 active torsions:
REMARK  status: ('A' for Active; 'I' for Inactive)
REMARK    1  A    between atoms: C2_2  and  C3_3 
REMARK    2  A    between atoms: C8_9  and  C9_10 
REMARK    3  A    between atoms: C9_10  and  C10_11 
REMARK    4  A    between atoms: C13_15  and  N2_16 
REMARK       I    between atoms: N2_16  and  C14_17 
REMARK       I    between atoms: C14_17  and  N3_18 
ROOT
HETATM    1  C10 UNL     1       0.154   0.647   0.537  1.00  0.00     0.033 C 
HETATM    2  N1  UNL     1       0.561   1.798   0.137  1.00  0.00    -0.290 NA
HETATM    3  C11 UNL     1       1.591   2.343  -0.665  1.00  0.00     0.178 C 
HETATM    4  C12 UNL     1       2.864   1.601  -0.643  1.00  0.00     0.024 C 
HETATM    5  C13 UNL     1       3.135   0.312  -0.495  1.00  0.00     0.034 C 
HETATM    6  C15 UNL     1       2.123  -0.744  -0.305  1.00  0.00     0.031 C 
HETATM    7  C16 UNL     1       0.868  -0.567   0.135  1.00  0.00     0.029 C 
ENDROOT
BRANCH   1   8
HETATM    8  C9  UNL     1      -1.023   0.408   1.419  1.00  0.00     0.098 C 
BRANCH   8   9
HETATM    9  C8  UNL     1      -2.038  -0.477   0.855  1.00  0.00    -0.043 A 
HETATM   10  C3  UNL     1      -2.970  -0.198  -0.100  1.00  0.00    -0.013 A 
HETATM   11  C4  UNL     1      -3.872  -1.134  -0.544  1.00  0.00     0.123 A 
HETATM   12  F1  UNL     1      -4.796  -0.819  -1.507  1.00  0.00    -0.206 F 
HETATM   13  C5  UNL     1      -3.911  -2.414  -0.069  1.00  0.00     0.043 A 
HETATM   14  C6  UNL     1      -2.995  -2.764   0.901  1.00  0.00     0.004 A 
HETATM   15  C7  UNL     1      -2.098  -1.794   1.327  1.00  0.00     0.008 A 
BRANCH  10  16
HETATM   16  C2  UNL     1      -3.012   1.159  -0.675  1.00  0.00     0.038 C 
HETATM   17  C1  UNL     1      -4.203   1.873  -0.059  1.00  0.00     0.010 C 
ENDBRANCH  10  16
ENDBRANCH   8   9
ENDBRANCH   1   8
BRANCH   5  18
HETATM   18  N2  UNL     1       4.505  -0.115  -0.519  1.00  0.00    -0.309 N 
HETATM   19  C14 UNL     1       5.075  -0.778   0.614  1.00  0.00     0.318 C 
HETATM   20  N3  UNL     1       6.451  -1.130   0.407  1.00  0.00    -0.352 N 
HETATM   21  O1  UNL     1       4.422  -1.015   1.662  1.00  0.00    -0.247 OA
HETATM   22  H15 UNL     1       7.171  -1.877   0.401  1.00  0.00     0.160 HD
HETATM   23  H16 UNL     1       7.142  -0.376   0.133  1.00  0.00     0.160 HD
HETATM   24  H14 UNL     1       5.010   0.103  -1.407  1.00  0.00     0.170 HD
ENDBRANCH   5  18
TORSDOF 4
