REMARK  4 active torsions:
REMARK  status: ('A' for Active; 'I' for Inactive)
REMARK    1  A    between atoms: C10_15  and  C11_16 
REMARK    2  A    between atoms: C15_22  and  C16_23 
REMARK    3  A    between atoms: C17_24  and  C18_25 
REMARK    4  A    between atoms: C19_26  and  C20_27 
ROOT
HETATM    1  C1  UNL     1      -3.415  -1.942  -0.903  1.00  0.00     0.050 C 
HETATM    2  C2  UNL     1      -2.452  -0.818  -0.563  1.00  0.00    -0.035 C 
HETATM    3  C3  UNL     1      -3.191   0.297  -0.580  1.00  0.00     0.037 C 
HETATM    4  C4  UNL     1      -4.631   0.266  -0.889  1.00  0.00     0.225 C 
HETATM    5  O1  UNL     1      -5.394   0.969   0.020  1.00  0.00    -0.384 OA
HETATM    6  C5  UNL     1      -4.815   1.334   1.188  1.00  0.00     0.187 C 
HETATM    7  C6  UNL     1      -3.533   2.153   0.957  1.00  0.00     0.149 C 
HETATM    8  N1  UNL     1      -3.191   1.769  -0.427  1.00  0.00    -0.378 N 
HETATM    9  C7  UNL     1      -2.908   2.897  -1.409  1.00  0.00     0.142 C 
HETATM   10  C8  UNL     1      -1.817   3.785  -0.656  1.00  0.00     0.144 C 
HETATM   11  N2  UNL     1      -1.012   2.692  -0.198  1.00  0.00    -0.341 N 
HETATM   12  C9  UNL     1      -0.221   1.670   0.263  1.00  0.00     0.320 C 
HETATM   13  O2  UNL     1       0.472   2.190   1.051  1.00  0.00    -0.247 OA
HETATM   14  N3  UNL     1      -0.070   0.318   0.065  1.00  0.00    -0.309 N 
HETATM   15  C10 UNL     1       0.113  -1.050  -0.091  1.00  0.00     0.037 C 
HETATM   16  C21 UNL     1      -1.155  -1.405  -0.382  1.00  0.00     0.038 C 
HETATM   17  H14 UNL     1      -1.396   2.049  -0.879  1.00  0.00     0.164 HD
HETATM   18  H15 UNL     1      -0.411   0.383  -0.907  1.00  0.00     0.170 HD
ENDROOT
BRANCH  15  19
HETATM   19  C11 UNL     1       1.381  -1.619   0.039  1.00  0.00     0.040 C 
HETATM   20  C12 UNL     1       1.937  -2.799  -0.071  1.00  0.00    -0.007 A 
HETATM   21  C13 UNL     1       1.157  -3.991  -0.431  1.00  0.00     0.191 A 
HETATM   22  C15 UNL     1       3.399  -2.900   0.177  1.00  0.00     0.066 A 
HETATM   23  N4  UNL     1       1.925  -5.210  -0.509  1.00  0.00    -0.278 NA
HETATM   24  C14 UNL     1       3.161  -5.210  -0.283  1.00  0.00     0.227 A 
HETATM   25  N5  UNL     1       3.928  -4.085   0.060  1.00  0.00    -0.242 NA
BRANCH  22  26
HETATM   26  C16 UNL     1       4.159  -1.736   0.528  1.00  0.00     0.032 C 
HETATM   27  C17 UNL     1       4.439  -0.489   0.808  1.00  0.00     0.002 C 
BRANCH  27  28
HETATM   28  C18 UNL     1       5.714   0.141   1.150  1.00  0.00    -0.003 C 
HETATM   29  C19 UNL     1       6.091   1.330   1.433  1.00  0.00    -0.016 C 
BRANCH  29  30
HETATM   30  C20 UNL     1       5.280   2.559   1.511  1.00  0.00     0.112 C 
HETATM   31 BR1  UNL     1       5.424   3.270   3.317  1.00  0.00    -0.092 Br
ENDBRANCH  29  30
ENDBRANCH  27  28
ENDBRANCH  22  26
ENDBRANCH  15  19
TORSDOF 4
