REMARK  3 active torsions:
REMARK  status: ('A' for Active; 'I' for Inactive)
REMARK    1  A    between atoms: C1_2  and  C2_3 
REMARK       I    between atoms: C1_2  and  N2_20 
REMARK    2  A    between atoms: C2_3  and  N1_4 
REMARK    3  A    between atoms: N2_20  and  C15_21 
ROOT
HETATM    1  N1  UNL     1       0.008  -1.005  -0.691  1.00  0.00    -0.379 N 
HETATM    2  C3  UNL     1      -1.086  -0.481  -1.413  1.00  0.00     0.073 C 
HETATM    3  C4  UNL     1      -1.664  -1.230  -2.450  1.00  0.00     0.094 C 
HETATM    4  C5  UNL     1      -2.815  -0.573  -3.089  1.00  0.00     0.005 C 
HETATM    5  C6  UNL     1      -3.679   0.477  -3.144  1.00  0.00     0.138 C 
HETATM    6  O2  UNL     1      -3.004   1.007  -2.044  1.00  0.00    -0.326 OA
HETATM    7  C7  UNL     1      -3.484   0.706  -0.713  1.00  0.00     0.064 A 
HETATM    8  C8  UNL     1      -3.253  -0.229   0.277  1.00  0.00     0.001 A 
HETATM    9  C9  UNL     1      -3.993  -0.186   1.575  1.00  0.00     0.112 A 
HETATM   10  C10 UNL     1      -4.971   0.886   1.694  1.00  0.00     0.095 A 
HETATM   11  F1  UNL     1      -5.666   0.940   2.838  1.00  0.00    -0.211 F 
HETATM   12  C11 UNL     1      -5.131   1.725   0.715  1.00  0.00     0.018 A 
HETATM   13  C12 UNL     1      -4.455   1.805  -0.600  1.00  0.00     0.095 A 
HETATM   14  C13 UNL     1      -2.368  -1.408   0.408  1.00  0.00     0.058 C 
HETATM   15 CL1  UNL     1      -3.025  -2.840   1.191  1.00  0.00    -0.082 Cl
HETATM   16  C14 UNL     1      -1.087  -1.737   0.038  1.00  0.00     0.110 C 
ENDROOT
BRANCH   1  17
HETATM   17  C2  UNL     1       1.380  -1.178  -0.347  1.00  0.00     0.224 C 
BRANCH  17  18
HETATM   18  C1  UNL     1       2.001   0.016   0.255  1.00  0.00     0.236 C 
HETATM   19  O1  UNL     1       1.468   1.132   0.496  1.00  0.00    -0.272 OA
HETATM   20  N2  UNL     1       3.372  -0.172   0.584  1.00  0.00    -0.347 N 
HETATM   21  H13 UNL     1       3.890  -1.061   0.417  1.00  0.00     0.163 HD
BRANCH  20  22
HETATM   22  C15 UNL     1       4.211   0.847   1.189  1.00  0.00     0.149 C 
HETATM   23  C16 UNL     1       5.154   1.264   0.087  1.00  0.00     0.023 C 
HETATM   24  C17 UNL     1       6.305   0.721  -0.309  1.00  0.00     0.116 C 
HETATM   25  N3  UNL     1       6.940  -0.428   0.238  1.00  0.00    -0.254 NA
HETATM   26  C18 UNL     1       6.789  -0.859   1.445  1.00  0.00     0.231 C 
HETATM   27  N4  UNL     1       5.988  -0.335   2.513  1.00  0.00    -0.256 NA
HETATM   28  C19 UNL     1       4.919   0.372   2.379  1.00  0.00     0.120 C 
ENDBRANCH  20  22
ENDBRANCH  17  18
ENDBRANCH   1  17
TORSDOF 3
