REMARK  5 active torsions:
REMARK  status: ('A' for Active; 'I' for Inactive)
REMARK       I    between atoms: C2_2  and  N1_4 
REMARK    1  A    between atoms: N1_4  and  C3_5 
REMARK    2  A    between atoms: C12_16  and  O2_17 
REMARK    3  A    between atoms: O2_17  and  C13_18 
REMARK    4  A    between atoms: C13_18  and  C14_19 
REMARK    5  A    between atoms: N4_29  and  N5_30 
ROOT
HETATM    1  C3  UNL     1      -1.975   0.499   0.065  1.00  0.00    -0.001 C 
HETATM    2  C4  UNL     1      -3.174   0.067   0.327  1.00  0.00     0.062 C 
HETATM    3  C5  UNL     1      -4.122  -0.918   0.762  1.00  0.00     0.094 A 
HETATM    4  C6  UNL     1      -4.925  -1.867   1.171  1.00  0.00     0.103 A 
HETATM    5  N2  UNL     1      -3.598  -2.383   1.234  1.00  0.00    -0.263 NA
HETATM    6  C7  UNL     1      -3.371  -3.434   0.476  1.00  0.00     0.181 C 
HETATM    7  N3  UNL     1      -2.103  -4.086   0.406  1.00  0.00    -0.231 NA
HETATM    8  C8  UNL     1      -1.050  -3.421  -0.023  1.00  0.00     0.141 C 
HETATM    9  C9  UNL     1       0.180  -4.255  -0.031  1.00  0.00     0.052 C 
HETATM   10  C10 UNL     1       1.467  -3.866  -0.097  1.00  0.00     0.006 C 
HETATM   11  C11 UNL     1       1.948  -2.484  -0.324  1.00  0.00     0.035 C 
HETATM   12  C12 UNL     1       1.334  -1.293  -0.194  1.00  0.00     0.076 C 
HETATM   13  C20 UNL     1      -0.096  -1.109   0.242  1.00  0.00     0.100 C 
HETATM   14  C21 UNL     1      -0.133  -1.406   1.704  1.00  0.00     0.048 C 
HETATM   15  C22 UNL     1      -0.523   0.298  -0.057  1.00  0.00     0.092 C 
HETATM   16  N4  UNL     1      -0.954  -2.036  -0.472  1.00  0.00    -0.282 N 
ENDROOT
BRANCH  12  17
HETATM   17  O2  UNL     1       2.027  -0.150  -0.469  1.00  0.00    -0.348 OA
BRANCH  17  18
HETATM   18  C13 UNL     1       3.134   0.290   0.313  1.00  0.00     0.214 C 
BRANCH  18  19
HETATM   19  C14 UNL     1       3.653   1.578  -0.213  1.00  0.00    -0.031 A 
HETATM   20  C15 UNL     1       4.663   1.628  -1.171  1.00  0.00     0.009 A 
HETATM   21  C16 UNL     1       5.174   2.796  -1.698  1.00  0.00     0.004 A 
HETATM   22  C17 UNL     1       4.607   3.942  -1.202  1.00  0.00     0.042 A 
HETATM   23  C18 UNL     1       3.615   4.002  -0.265  1.00  0.00     0.117 A 
HETATM   24  F1  UNL     1       3.063   5.144   0.207  1.00  0.00    -0.206 F 
HETATM   25  C19 UNL     1       3.120   2.796   0.247  1.00  0.00     0.051 A 
ENDBRANCH  18  19
ENDBRANCH  17  18
ENDBRANCH  12  17
BRANCH  16  26
HETATM   26  N5  UNL     1      -1.834  -2.216  -1.543  1.00  0.00    -0.245 NA
HETATM   27  H23 UNL     1      -2.102  -1.314  -1.996  1.00  0.00     0.143 HD
HETATM   28  H24 UNL     1      -1.451  -2.862  -2.264  1.00  0.00     0.143 HD
ENDBRANCH  16  26
BRANCH   1  29
HETATM   29  N1  UNL     1      -2.611   1.705  -0.306  1.00  0.00    -0.334 N 
HETATM   30  C2  UNL     1      -2.123   2.680   0.658  1.00  0.00     0.217 C 
HETATM   31  C1  UNL     1      -2.386   4.146   0.832  1.00  0.00     0.117 C 
HETATM   32  O1  UNL     1      -1.299   2.412   1.620  1.00  0.00    -0.274 OA
HETATM   33  H4  UNL     1      -3.179   2.434  -0.765  1.00  0.00     0.168 HD
ENDBRANCH   1  29
TORSDOF 5
