REMARK  5 active torsions:
REMARK  status: ('A' for Active; 'I' for Inactive)
REMARK       I    between atoms: C2_2  and  N1_4 
REMARK    1  A    between atoms: N1_4  and  C3_5 
REMARK    2  A    between atoms: C8_12  and  N4_13 
REMARK    3  A    between atoms: C11_16  and  O2_17 
REMARK    4  A    between atoms: O2_17  and  C12_18 
REMARK    5  A    between atoms: C12_18  and  C13_19 
ROOT
HETATM    1  N4  UNL     1      -0.655   0.078   0.730  1.00  0.00    -0.314 N 
HETATM    2  C9  UNL     1       0.202   1.221   0.509  1.00  0.00     0.113 C 
HETATM    3  C10 UNL     1       1.018   1.121  -0.533  1.00  0.00     0.029 C 
HETATM    4  C11 UNL     1       1.834   0.097  -0.498  1.00  0.00     0.104 C 
HETATM    5  C19 UNL     1       1.059  -1.152  -0.350  1.00  0.00     0.084 C 
HETATM    6 CL1  UNL     1       1.565  -2.747  -0.910  1.00  0.00    -0.080 Cl
HETATM    7  C20 UNL     1      -0.142  -1.186   0.240  1.00  0.00     0.124 C 
ENDROOT
BRANCH   1   8
HETATM    8  C8  UNL     1      -1.872   0.315   1.413  1.00  0.00     0.147 A 
HETATM    9  N3  UNL     1      -1.621   0.696   2.685  1.00  0.00    -0.223 NA
HETATM   10  C7  UNL     1      -2.658   0.961   3.534  1.00  0.00     0.236 A 
HETATM   11  N2  UNL     1      -3.894   0.819   3.030  1.00  0.00    -0.241 NA
HETATM   12  C6  UNL     1      -4.187   0.443   1.776  1.00  0.00     0.072 A 
HETATM   13  C5  UNL     1      -5.492   0.312   1.343  1.00  0.00     0.035 A 
HETATM   14  C21 UNL     1      -3.144   0.175   0.914  1.00  0.00     0.041 A 
HETATM   15  C4  UNL     1      -5.692  -0.089   0.044  1.00  0.00     0.032 A 
HETATM   16  C3  UNL     1      -4.613  -0.342  -0.772  1.00  0.00     0.035 A 
HETATM   17  C22 UNL     1      -3.297  -0.226  -0.389  1.00  0.00     0.047 A 
BRANCH  16  18
HETATM   18  N1  UNL     1      -4.925  -0.763  -2.092  1.00  0.00    -0.327 N 
HETATM   19  C2  UNL     1      -5.103   0.438  -2.868  1.00  0.00     0.218 C 
HETATM   20  C1  UNL     1      -5.433   0.714  -4.281  1.00  0.00     0.117 C 
HETATM   21  O1  UNL     1      -4.960   1.567  -2.277  1.00  0.00    -0.274 OA
HETATM   22  H4  UNL     1      -5.075  -1.570  -2.744  1.00  0.00     0.169 HD
ENDBRANCH  16  18
ENDBRANCH   1   8
BRANCH   4  23
HETATM   23  O2  UNL     1       3.213  -0.139  -0.560  1.00  0.00    -0.344 OA
BRANCH  23  24
HETATM   24  C12 UNL     1       4.104   0.472   0.352  1.00  0.00     0.214 C 
BRANCH  24  25
HETATM   25  C13 UNL     1       5.486  -0.034   0.288  1.00  0.00    -0.031 A 
HETATM   26  C14 UNL     1       5.802  -1.122   1.112  1.00  0.00     0.009 A 
HETATM   27  C15 UNL     1       7.110  -1.590   1.057  1.00  0.00     0.004 A 
HETATM   28  C16 UNL     1       8.095  -1.063   0.261  1.00  0.00     0.042 A 
HETATM   29  C17 UNL     1       7.774   0.018  -0.555  1.00  0.00     0.117 A 
HETATM   30  F1  UNL     1       8.669   0.615  -1.377  1.00  0.00    -0.206 F 
HETATM   31  C18 UNL     1       6.464   0.505  -0.517  1.00  0.00     0.051 A 
ENDBRANCH  24  25
ENDBRANCH  23  24
ENDBRANCH   4  23
TORSDOF 5
