REMARK  8 active torsions:
REMARK  status: ('A' for Active; 'I' for Inactive)
REMARK       I    between atoms: C2_2  and  N1_4 
REMARK    1  A    between atoms: N1_4  and  C3_5 
REMARK    2  A    between atoms: C5_7  and  N2_8 
REMARK    3  A    between atoms: C8_11  and  O2_12 
REMARK    4  A    between atoms: O2_12  and  C9_13 
REMARK    5  A    between atoms: C9_13  and  C10_14 
REMARK    6  A    between atoms: C18_24  and  N3_26 
REMARK    7  A    between atoms: N3_26  and  C20_27 
REMARK    8  A    between atoms: C20_27  and  N4_28 
ROOT
HETATM    1  N2  UNL     1      -0.884  -0.726   0.494  1.00  0.00    -0.331 N 
HETATM    2  C6  UNL     1      -0.094  -1.321  -0.545  1.00  0.00     0.111 C 
HETATM    3  C7  UNL     1       1.076  -1.796  -0.224  1.00  0.00     0.029 C 
HETATM    4  C8  UNL     1       1.876  -1.059   0.518  1.00  0.00     0.104 C 
HETATM    5  C16 UNL     1       1.171  -0.430   1.649  1.00  0.00     0.084 C 
HETATM    6 CL2  UNL     1       2.010   0.143   3.067  1.00  0.00    -0.080 Cl
HETATM    7  C17 UNL     1      -0.155  -0.266   1.646  1.00  0.00     0.123 C 
ENDROOT
BRANCH   1   8
HETATM    8  C5  UNL     1      -2.315  -0.601   0.383  1.00  0.00     0.047 A 
HETATM    9  C4  UNL     1      -3.198  -0.103   1.178  1.00  0.00     0.029 A 
HETATM   10  C3  UNL     1      -4.300  -0.392   0.300  1.00  0.00     0.146 A 
HETATM   11  C18 UNL     1      -3.278  -0.966  -0.614  1.00  0.00     0.126 A 
HETATM   12  C19 UNL     1      -3.429  -2.476  -0.764  1.00  0.00     0.051 C 
BRANCH  10  13
HETATM   13  N1  UNL     1      -4.925   0.843  -0.153  1.00  0.00    -0.351 N 
HETATM   14  C2  UNL     1      -6.342   1.052  -0.175  1.00  0.00     0.214 C 
HETATM   15  C1  UNL     1      -6.772   2.397  -0.679  1.00  0.00     0.117 C 
HETATM   16  O1  UNL     1      -7.115   0.157   0.205  1.00  0.00    -0.274 OA
HETATM   17  H4  UNL     1      -4.244   1.577  -0.467  1.00  0.00     0.163 HD
ENDBRANCH  10  13
BRANCH  11  18
HETATM   18  N3  UNL     1      -3.227  -0.305  -1.894  1.00  0.00    -0.211 NA
BRANCH  18  19
HETATM   19  C20 UNL     1      -2.478   0.676  -2.161  1.00  0.00     0.089 C 
BRANCH  19  20
HETATM   20  N4  UNL     1      -1.647   1.532  -2.552  1.00  0.00    -0.241 NA
HETATM   21  H18 UNL     1      -0.699   1.534  -2.081  1.00  0.00     0.199 HD
ENDBRANCH  19  20
ENDBRANCH  18  19
ENDBRANCH  11  18
ENDBRANCH   1   8
BRANCH   4  22
HETATM   22  O2  UNL     1       3.226  -0.733   0.487  1.00  0.00    -0.344 OA
BRANCH  22  23
HETATM   23  C9  UNL     1       3.892  -0.478  -0.734  1.00  0.00     0.214 C 
BRANCH  23  24
HETATM   24  C10 UNL     1       5.326  -0.150  -0.524  1.00  0.00    -0.033 A 
HETATM   25  C11 UNL     1       6.353  -1.066  -0.496  1.00  0.00     0.009 A 
HETATM   26  C12 UNL     1       7.620  -0.588  -0.291  1.00  0.00     0.002 A 
HETATM   27  C13 UNL     1       7.908   0.765  -0.112  1.00  0.00     0.024 A 
HETATM   28  C14 UNL     1       6.888   1.691  -0.137  1.00  0.00     0.034 A 
HETATM   29 CL1  UNL     1       7.172   3.402   0.080  1.00  0.00    -0.084 Cl
HETATM   30  C15 UNL     1       5.606   1.203  -0.345  1.00  0.00     0.033 A 
ENDBRANCH  23  24
ENDBRANCH  22  23
ENDBRANCH   4  22
TORSDOF 8
