REMARK  2 active torsions:
REMARK  status: ('A' for Active; 'I' for Inactive)
REMARK    1  A    between atoms: O1_2  and  C2_3 
REMARK    2  A    between atoms: C8_12  and  N3_13 
ROOT
HETATM    1  C2  UNL     1       3.447   0.782  -0.183  1.00  0.00     0.058 A 
HETATM    2  C3  UNL     1       4.392  -0.127  -0.004  1.00  0.00     0.035 A 
HETATM    3  C4  UNL     1       3.780  -1.409  -0.339  1.00  0.00     0.036 A 
HETATM    4  C5  UNL     1       2.497  -1.250  -0.709  1.00  0.00     0.067 A 
HETATM    5  O2  UNL     1       1.697  -2.340  -1.079  1.00  0.00    -0.294 OA
HETATM    6  C6  UNL     1       0.299  -2.372  -0.946  1.00  0.00     0.201 A 
HETATM    7  N1  UNL     1      -0.233  -3.612  -1.162  1.00  0.00    -0.215 NA
HETATM    8  C7  UNL     1      -1.572  -3.762  -1.061  1.00  0.00     0.238 A 
HETATM    9  N2  UNL     1      -2.404  -2.735  -0.753  1.00  0.00    -0.222 NA
HETATM   10  C8  UNL     1      -1.925  -1.482  -0.528  1.00  0.00     0.162 A 
HETATM   11  C14 UNL     1      -0.553  -1.310  -0.629  1.00  0.00     0.128 A 
HETATM   12  N4  UNL     1      -0.206   0.070  -0.378  1.00  0.00    -0.382 N 
HETATM   13  C15 UNL     1       1.016   0.531   0.244  1.00  0.00     0.138 C 
HETATM   14  C16 UNL     1       2.171   0.188  -0.639  1.00  0.00     0.117 A 
HETATM   15  H11 UNL     1      -1.015   0.665  -0.740  1.00  0.00     0.160 HD
ENDROOT
BRANCH  10  16
HETATM   16  N3  UNL     1      -2.829  -0.436  -0.191  1.00  0.00    -0.335 N 
HETATM   17  C9  UNL     1      -3.709  -0.118  -1.268  1.00  0.00     0.120 A 
HETATM   18  C10 UNL     1      -4.610   0.846  -1.163  1.00  0.00     0.087 A 
HETATM   19 CL1  UNL     1      -5.698   1.255  -2.467  1.00  0.00    -0.080 Cl
HETATM   20  C11 UNL     1      -4.762   1.630   0.063  1.00  0.00     0.137 A 
HETATM   21  F1  UNL     1      -5.635   2.626   0.282  1.00  0.00    -0.205 F 
HETATM   22  C12 UNL     1      -3.927   1.288   1.035  1.00  0.00     0.037 A 
HETATM   23  C13 UNL     1      -2.869   0.247   1.094  1.00  0.00     0.160 A 
ENDBRANCH  10  16
BRANCH   1  24
HETATM   24  O1  UNL     1       3.534   2.160   0.005  1.00  0.00    -0.359 OA
HETATM   25  C1  UNL     1       4.745   2.871  -0.134  1.00  0.00     0.209 C 
ENDBRANCH   1  24
TORSDOF 2
