REMARK  7 active torsions:
REMARK  status: ('A' for Active; 'I' for Inactive)
REMARK    1  A    between atoms: C7_8  and  O1_9 
REMARK    2  A    between atoms: O1_9  and  C8_10 
REMARK    3  A    between atoms: N1_15  and  C12_16 
REMARK    4  A    between atoms: C14_19  and  C15_20 
REMARK    5  A    between atoms: C16_21  and  N3_22 
REMARK    6  A    between atoms: N3_22  and  C17_23 
REMARK    7  A    between atoms: C21_28  and  N4_29 
ROOT
HETATM    1  C8  UNL     1       2.262  -0.611  -0.123  1.00  0.00     0.225 C 
HETATM    2  C9  UNL     1       2.209  -2.013  -0.641  1.00  0.00     0.043 C 
HETATM    3 CL1  UNL     1       3.514  -2.877  -1.435  1.00  0.00    -0.086 Cl
HETATM    4  C10 UNL     1       1.015  -2.605  -0.443  1.00  0.00     0.015 C 
HETATM    5  C11 UNL     1      -0.138  -1.901   0.235  1.00  0.00     0.149 C 
HETATM    6  N1  UNL     1      -0.178  -0.569  -0.150  1.00  0.00    -0.369 N 
HETATM    7  C21 UNL     1       1.015   0.061  -0.610  1.00  0.00     0.350 C 
ENDROOT
BRANCH   6   8
HETATM    8  C12 UNL     1      -1.390   0.065  -0.489  1.00  0.00     0.129 A 
HETATM    9  C13 UNL     1      -2.126  -0.569  -1.606  1.00  0.00     0.115 A 
HETATM   10  N2  UNL     1      -3.377  -0.905  -1.830  1.00  0.00    -0.263 NA
HETATM   11  C14 UNL     1      -4.338  -0.625  -0.788  1.00  0.00     0.054 A 
HETATM   12  C18 UNL     1      -3.699  -0.058   0.216  1.00  0.00     0.011 A 
HETATM   13  C19 UNL     1      -2.344   0.373   0.609  1.00  0.00     0.034 A 
HETATM   14  C20 UNL     1      -2.008  -0.405   1.892  1.00  0.00     0.016 C 
BRANCH  11  15
HETATM   15  C15 UNL     1      -5.743  -0.932  -0.874  1.00  0.00     0.048 C 
HETATM   16  C16 UNL     1      -6.663  -0.710   0.024  1.00  0.00     0.092 C 
BRANCH  16  17
HETATM   17  N3  UNL     1      -6.706  -0.146   1.322  1.00  0.00    -0.344 N 
HETATM   18  H15 UNL     1      -6.318  -0.278   2.303  1.00  0.00     0.167 HD
BRANCH  17  19
HETATM   19  C17 UNL     1      -7.519   1.019   1.557  1.00  0.00     0.352 C 
HETATM   20  O2  UNL     1      -8.303   1.807   0.928  1.00  0.00    -0.283 OA
ENDBRANCH  17  19
ENDBRANCH  16  17
ENDBRANCH  11  15
ENDBRANCH   6   8
BRANCH   7  21
HETATM   21  N4  UNL     1       1.074   0.222  -2.029  1.00  0.00     0.104 N 
HETATM   22  H23 UNL     1       0.369   0.916  -2.360  1.00  0.00     0.315 HD
HETATM   23  H24 UNL     1       0.989  -0.657  -2.556  1.00  0.00     0.315 HD
ENDBRANCH   7  21
BRANCH   1  24
HETATM   24  O1  UNL     1       3.364   0.095  -0.643  1.00  0.00    -0.336 OA
BRANCH  24  25
HETATM   25  C7  UNL     1       4.394   0.647   0.059  1.00  0.00     0.078 A 
HETATM   26  C2  UNL     1       5.316   1.274  -0.786  1.00  0.00    -0.028 A 
HETATM   27  C1  UNL     1       5.199   1.340  -2.286  1.00  0.00     0.051 C 
HETATM   28  C3  UNL     1       6.451   1.906  -0.277  1.00  0.00     0.012 A 
HETATM   29  C4  UNL     1       6.688   1.924   1.088  1.00  0.00     0.043 A 
HETATM   30  C5  UNL     1       5.772   1.302   1.914  1.00  0.00     0.119 A 
HETATM   31  F1  UNL     1       5.941   1.281   3.264  1.00  0.00    -0.206 F 
HETATM   32  C6  UNL     1       4.646   0.674   1.416  1.00  0.00     0.079 A 
ENDBRANCH  24  25
ENDBRANCH   1  24
TORSDOF 7
