REMARK  4 active torsions:
REMARK  status: ('A' for Active; 'I' for Inactive)
REMARK    1  A    between atoms: C4_7  and  O2_8 
REMARK    2  A    between atoms: O2_8  and  C5_9 
REMARK    3  A    between atoms: C5_9  and  C6_10 
REMARK    4  A    between atoms: C6_10  and  C7_11 
ROOT
HETATM    1  O1  UNL     1      -2.699   3.125  -0.753  1.00  0.00    -0.245 OA
HETATM    2  C1  UNL     1      -1.926   2.357  -1.363  1.00  0.00     0.343 C 
HETATM    3  N1  UNL     1      -0.906   3.139  -1.800  1.00  0.00    -0.190 NA
HETATM    4  C2  UNL     1       0.213   3.499  -1.630  1.00  0.00     0.208 C 
HETATM    5  N2  UNL     1       0.468   2.673  -0.395  1.00  0.00    -0.382 N 
HETATM    6  C3  UNL     1       1.648   1.775  -0.380  1.00  0.00     0.157 C 
HETATM    7  C4  UNL     1       1.572   0.576  -1.219  1.00  0.00     0.180 C 
HETATM    8  C8  UNL     1       0.743  -0.534  -0.641  1.00  0.00     0.024 A 
HETATM    9 CL1  UNL     1       1.630  -1.449   0.648  1.00  0.00    -0.176 Cl
HETATM   10  C9  UNL     1      -0.210  -1.353  -0.330  1.00  0.00     0.141 A 
HETATM   11  C10 UNL     1      -0.932  -2.479   0.283  1.00  0.00     0.294 C 
HETATM   12  N3  UNL     1      -1.980  -2.155   1.198  1.00  0.00     0.085 N 
HETATM   13  C11 UNL     1      -1.494  -1.556   2.388  1.00  0.00     0.273 C 
HETATM   14  C12 UNL     1      -2.511  -1.334   3.412  1.00  0.00     0.056 C 
HETATM   15  C13 UNL     1      -3.592  -0.371   3.236  1.00  0.00    -0.029 C 
HETATM   16  C14 UNL     1      -3.605   0.255   2.094  1.00  0.00    -0.028 C 
HETATM   17  C15 UNL     1      -3.738   1.011   0.887  1.00  0.00     0.021 C 
HETATM   18  C16 UNL     1      -4.086   1.855  -0.208  1.00  0.00     0.144 C 
HETATM   19  N4  UNL     1      -2.919   1.477  -0.960  1.00  0.00    -0.334 N 
HETATM   20  H2  UNL     1      -0.046   2.604   0.483  1.00  0.00     0.160 HD
HETATM   21  H15 UNL     1      -2.772  -1.742   0.773  1.00  0.00     0.315 HD
HETATM   22  H24 UNL     1      -2.936   0.467  -1.184  1.00  0.00     0.164 HD
ENDROOT
BRANCH   7  23
HETATM   23  O2  UNL     1       2.923   0.069  -1.180  1.00  0.00    -0.379 OA
BRANCH  23  24
HETATM   24  C5  UNL     1       3.405  -0.257  -2.416  1.00  0.00     0.171 C 
BRANCH  24  25
HETATM   25  C6  UNL     1       4.912  -0.574  -2.277  1.00  0.00     0.057 C 
BRANCH  25  26
HETATM   26  C7  UNL     1       5.032  -1.684  -1.279  1.00  0.00     0.224 C 
HETATM   27  F1  UNL     1       4.346  -2.759  -1.730  1.00  0.00    -0.255 F 
ENDBRANCH  25  26
ENDBRANCH  24  25
ENDBRANCH  23  24
ENDBRANCH   7  23
TORSDOF 4
