REMARK  6 active torsions:
REMARK  status: ('A' for Active; 'I' for Inactive)
REMARK    1  A    between atoms: C2_2  and  B1_4 
REMARK    2  A    between atoms: B1_4  and  C3_5 
REMARK    3  A    between atoms: C3_5  and  C4_6 
REMARK    4  A    between atoms: C12_18  and  O2_19 
REMARK    5  A    between atoms: O2_19  and  C13_20 
REMARK    6  A    between atoms: C13_20  and  C14_21 
ROOT
HETATM    1  C4  UNL     1      -2.093  -1.053   0.326  1.00  0.00    -0.042 A 
HETATM    2  C5  UNL     1      -3.158  -1.850   0.214  1.00  0.00     0.014 A 
HETATM    3  C6  UNL     1      -4.494  -1.322   0.615  1.00  0.00     0.193 A 
HETATM    4  N1  UNL     1      -5.520  -2.307   0.429  1.00  0.00    -0.278 NA
HETATM    5  C7  UNL     1      -5.377  -3.493  -0.015  1.00  0.00     0.229 A 
HETATM    6  N2  UNL     1      -4.090  -3.948  -0.381  1.00  0.00    -0.224 NA
HETATM    7  C8  UNL     1      -3.030  -3.201  -0.285  1.00  0.00     0.138 A 
HETATM    8  N3  UNL     1      -1.797  -3.768  -0.683  1.00  0.00    -0.340 N 
HETATM    9  C9  UNL     1      -0.662  -2.926  -0.566  1.00  0.00     0.046 A 
HETATM   10  C10 UNL     1       0.563  -3.436  -0.939  1.00  0.00     0.057 A 
HETATM   11  C11 UNL     1       1.702  -2.664  -0.844  1.00  0.00     0.069 A 
HETATM   12 CL1  UNL     1       3.225  -3.374  -1.335  1.00  0.00    -0.081 Cl
HETATM   13  C12 UNL     1       1.591  -1.374  -0.369  1.00  0.00     0.091 A 
HETATM   14  C20 UNL     1       0.339  -0.917  -0.010  1.00  0.00     0.053 A 
HETATM   15  C21 UNL     1      -0.829  -1.644  -0.085  1.00  0.00    -0.001 A 
HETATM   16  H10 UNL     1      -1.773  -4.748  -1.034  1.00  0.00     0.167 HD
ENDROOT
BRANCH  13  17
HETATM   17  O2  UNL     1       2.731  -0.587  -0.268  1.00  0.00    -0.345 OA
BRANCH  17  18
HETATM   18  C13 UNL     1       2.587   0.732   0.223  1.00  0.00     0.214 C 
BRANCH  18  19
HETATM   19  C14 UNL     1       3.884   1.454   0.276  1.00  0.00    -0.031 A 
HETATM   20  C15 UNL     1       4.365   2.202  -0.783  1.00  0.00     0.009 A 
HETATM   21  C16 UNL     1       5.576   2.852  -0.677  1.00  0.00     0.004 A 
HETATM   22  C17 UNL     1       6.341   2.778   0.478  1.00  0.00     0.042 A 
HETATM   23  C18 UNL     1       5.887   2.045   1.536  1.00  0.00     0.117 A 
HETATM   24  F1  UNL     1       6.605   1.957   2.662  1.00  0.00    -0.206 F 
HETATM   25  C19 UNL     1       4.666   1.397   1.416  1.00  0.00     0.051 A 
ENDBRANCH  18  19
ENDBRANCH  17  18
ENDBRANCH  13  17
BRANCH   1  26
HETATM   26  C3  UNL     1      -2.209   0.324   0.833  1.00  0.00    -0.005 C 
BRANCH  26  27
HETATM   27  B1  UNL     1      -1.738   1.403  -0.234  1.00  0.00     0.245 B 
HETATM   28  H4  UNL     1      -1.290   0.976  -1.262  1.00  0.00    -0.018 HD
BRANCH  27  29
HETATM   29  C2  UNL     1      -2.195   2.885  -0.159  1.00  0.00     0.070 C 
HETATM   30  C1  UNL     1      -3.410   3.646  -0.575  1.00  0.00     0.075 C 
HETATM   31  O1  UNL     1      -1.309   3.535   0.377  1.00  0.00    -0.313 OA
ENDBRANCH  27  29
ENDBRANCH  26  27
ENDBRANCH   1  26
TORSDOF 6
