REMARK  4 active torsions:
REMARK  status: ('A' for Active; 'I' for Inactive)
REMARK    1  A    between atoms: C3_5  and  C4_6 
REMARK    2  A    between atoms: C4_6  and  N1_7 
REMARK    3  A    between atoms: N1_7  and  C5_8 
REMARK    4  A    between atoms: C11_16  and  N4_17 
REMARK       I    between atoms: N4_17  and  C12_18 
ROOT
HETATM    1  B1  UNL     1      -7.256   2.904  -0.223  1.00  0.00     0.198 B 
HETATM    2  C1  UNL     1      -5.779   1.734   0.133  1.00  0.00    -0.214 C 
HETATM    3  C2  UNL     1      -4.675   0.886   0.382  1.00  0.00     0.057 C 
HETATM    4 CL1  UNL     1      -5.042  -0.753   0.862  1.00  0.00    -0.077 Cl
HETATM    5  C3  UNL     1      -3.470   1.372   0.241  1.00  0.00     0.023 C 
ENDROOT
BRANCH   5   6
HETATM    6  C4  UNL     1      -2.259   0.547   0.484  1.00  0.00     0.149 C 
BRANCH   6   7
HETATM    7  N1  UNL     1      -1.481   0.492  -0.737  1.00  0.00    -0.385 N 
HETATM    8  H4  UNL     1      -1.818   1.005  -1.601  1.00  0.00     0.160 HD
BRANCH   7   9
HETATM    9  C5  UNL     1      -0.304  -0.271  -0.626  1.00  0.00     0.054 C 
HETATM   10  C6  UNL     1      -0.915  -1.354  -1.059  1.00  0.00     0.058 C 
HETATM   11  C7  UNL     1      -2.284  -1.609  -1.479  1.00  0.00     0.073 C 
HETATM   12  N2  UNL     1       0.090  -2.283  -1.013  1.00  0.00    -0.245 NA
HETATM   13  C8  UNL     1       0.266  -3.332  -0.327  1.00  0.00     0.232 C 
HETATM   14  N3  UNL     1       1.528  -3.515  -1.013  1.00  0.00    -0.258 NA
HETATM   15  C9  UNL     1       2.437  -2.611  -0.708  1.00  0.00     0.097 C 
HETATM   16  C10 UNL     1       3.127  -1.458  -0.114  1.00  0.00     0.104 C 
HETATM   17  C11 UNL     1       2.253  -0.251  -0.001  1.00  0.00     0.019 C 
HETATM   18  C14 UNL     1       1.015   0.058  -0.219  1.00  0.00     0.056 C 
BRANCH  17  19
HETATM   19  N4  UNL     1       3.169   0.732   0.454  1.00  0.00    -0.331 N 
HETATM   20  C12 UNL     1       3.039   2.119   0.696  1.00  0.00     0.217 C 
HETATM   21  C13 UNL     1       3.917   3.189   1.163  1.00  0.00     0.117 C 
HETATM   22  O1  UNL     1       1.969   2.714   0.509  1.00  0.00    -0.274 OA
HETATM   23  H12 UNL     1       4.173   0.629   0.719  1.00  0.00     0.168 HD
ENDBRANCH  17  19
ENDBRANCH   7   9
ENDBRANCH   6   7
ENDBRANCH   5   6
TORSDOF 4
