REMARK  4 active torsions:
REMARK  status: ('A' for Active; 'I' for Inactive)
REMARK    1  A    between atoms: C5_6  and  C6_7 
REMARK    2  A    between atoms: C6_7  and  N1_8 
REMARK    3  A    between atoms: C9_15  and  N6_16 
REMARK    4  A    between atoms: N6_16  and  C10_17 
ROOT
HETATM    1  N1  UNL     1      -1.123   0.727   0.611  1.00  0.00     0.140 N 
HETATM    2  C7  UNL     1      -2.035   1.487   1.456  1.00  0.00     0.388 C 
HETATM    3  N2  UNL     1      -1.399   1.430   2.792  1.00  0.00    -0.191 NA
HETATM    4  N3  UNL     1      -0.101   1.855   2.381  1.00  0.00    -0.188 N 
HETATM    5  N4  UNL     1       0.837   2.871   2.675  1.00  0.00    -0.152 NA
HETATM    6  C8  UNL     1       1.918   2.940   1.945  1.00  0.00     0.258 A 
HETATM    7  N5  UNL     1       2.153   2.019   0.890  1.00  0.00    -0.223 NA
HETATM    8  C9  UNL     1       1.323   1.053   0.587  1.00  0.00     0.162 A 
HETATM    9  C16 UNL     1       0.113   0.824   1.357  1.00  0.00     0.429 A 
HETATM   10  H8  UNL     1      -1.306   0.412   3.058  1.00  0.00     0.150 HD
ENDROOT
BRANCH   8  11
HETATM   11  N6  UNL     1       1.731   0.246  -0.501  1.00  0.00    -0.341 N 
HETATM   12  H10 UNL     1       0.991  -0.030  -1.196  1.00  0.00     0.167 HD
BRANCH  11  13
HETATM   13  C10 UNL     1       3.051  -0.219  -0.722  1.00  0.00     0.035 A 
HETATM   14  C11 UNL     1       3.362  -0.976  -1.836  1.00  0.00     0.029 A 
HETATM   15  C12 UNL     1       4.625  -1.460  -2.102  1.00  0.00     0.004 A 
HETATM   16  C13 UNL     1       5.669  -1.200  -1.238  1.00  0.00     0.024 A 
HETATM   17  C14 UNL     1       5.410  -0.449  -0.111  1.00  0.00     0.036 A 
HETATM   18 CL2  UNL     1       6.706  -0.097   1.012  1.00  0.00    -0.084 Cl
HETATM   19  C15 UNL     1       4.127   0.008   0.103  1.00  0.00     0.053 A 
ENDBRANCH  11  13
ENDBRANCH   8  11
BRANCH   1  20
HETATM   20  C6  UNL     1      -1.547  -0.654   0.468  1.00  0.00     0.316 C 
BRANCH  20  21
HETATM   21  C5  UNL     1      -2.872  -0.843  -0.105  1.00  0.00    -0.028 A 
HETATM   22  C4  UNL     1      -4.048  -0.996   0.600  1.00  0.00     0.009 A 
HETATM   23  C3  UNL     1      -5.299  -1.164   0.019  1.00  0.00     0.002 A 
HETATM   24  C2  UNL     1      -5.393  -1.182  -1.356  1.00  0.00     0.024 A 
HETATM   25  C1  UNL     1      -4.245  -1.034  -2.110  1.00  0.00     0.034 A 
HETATM   26 CL1  UNL     1      -4.426  -1.066  -3.854  1.00  0.00    -0.084 Cl
HETATM   27  C17 UNL     1      -3.026  -0.870  -1.478  1.00  0.00     0.032 A 
ENDBRANCH  20  21
ENDBRANCH   1  20
TORSDOF 4
