REMARK  7 active torsions:
REMARK  status: ('A' for Active; 'I' for Inactive)
REMARK    1  A    between atoms: C1_2  and  C2_3 
REMARK       I    between atoms: C1_2  and  N4_22 
REMARK    2  A    between atoms: C2_3  and  C3_4 
REMARK    3  A    between atoms: C8_11  and  N3_12 
REMARK    4  A    between atoms: N3_12  and  C9_13 
REMARK    5  A    between atoms: N4_22  and  C17_23 
REMARK    6  A    between atoms: C17_23  and  C18_24 
REMARK    7  A    between atoms: C18_24  and  N5_25 
ROOT
HETATM    1  C3  UNL     1       0.161   1.208  -0.170  1.00  0.00    -0.048 A 
HETATM    2  C4  UNL     1      -0.082   2.367   0.524  1.00  0.00     0.010 A 
HETATM    3  C5  UNL     1       0.844   2.901   1.395  1.00  0.00     0.033 A 
HETATM    4  C6  UNL     1       2.070   2.311   1.626  1.00  0.00     0.072 A 
HETATM    5  N1  UNL     1       2.954   2.874   2.478  1.00  0.00    -0.241 NA
HETATM    6  C7  UNL     1       4.157   2.243   2.652  1.00  0.00     0.236 A 
HETATM    7  N2  UNL     1       4.441   1.091   1.985  1.00  0.00    -0.224 NA
HETATM    8  C8  UNL     1       3.551   0.539   1.139  1.00  0.00     0.142 A 
HETATM    9  C15 UNL     1       2.321   1.150   0.936  1.00  0.00     0.039 A 
HETATM   10  C16 UNL     1       1.399   0.594   0.053  1.00  0.00     0.025 A 
ENDROOT
BRANCH   1  11
HETATM   11  C2  UNL     1      -0.607   0.407  -1.158  1.00  0.00     0.141 C 
BRANCH  11  12
HETATM   12  C1  UNL     1      -1.444  -0.610  -0.506  1.00  0.00     0.221 C 
HETATM   13  O1  UNL     1      -1.185  -0.157   0.658  1.00  0.00    -0.273 OA
HETATM   14  N4  UNL     1      -2.254  -1.700  -0.891  1.00  0.00    -0.359 N 
HETATM   15  H12 UNL     1      -2.114  -1.684  -1.946  1.00  0.00     0.162 HD
BRANCH  14  16
HETATM   16  C17 UNL     1      -2.911  -2.402   0.165  1.00  0.00     0.152 C 
BRANCH  16  17
HETATM   17  C18 UNL     1      -3.905  -1.600   0.958  1.00  0.00     0.292 C 
BRANCH  17  18
HETATM   18  N5  UNL     1      -5.045  -1.125   0.224  1.00  0.00     0.094 N 
HETATM   19  C19 UNL     1      -5.990  -0.469   1.072  1.00  0.00     0.298 C 
HETATM   20  C20 UNL     1      -6.208   0.982   0.737  1.00  0.00     0.198 C 
HETATM   21  O2  UNL     1      -6.553   1.185  -0.573  1.00  0.00    -0.388 OA
HETATM   22  C21 UNL     1      -5.982   0.344  -1.484  1.00  0.00     0.198 C 
HETATM   23  C22 UNL     1      -4.738  -0.313  -0.890  1.00  0.00     0.298 C 
ENDBRANCH  17  18
ENDBRANCH  16  17
ENDBRANCH  14  16
ENDBRANCH  11  12
ENDBRANCH   1  11
BRANCH   8  24
HETATM   24  N3  UNL     1       3.895  -0.678   0.449  1.00  0.00    -0.340 N 
HETATM   25  H6  UNL     1       3.256  -1.506   0.350  1.00  0.00     0.167 HD
BRANCH  24  26
HETATM   26  C9  UNL     1       5.178  -0.811  -0.146  1.00  0.00     0.035 A 
HETATM   27  C10 UNL     1       5.890   0.320  -0.478  1.00  0.00     0.029 A 
HETATM   28  C11 UNL     1       7.161   0.280  -1.063  1.00  0.00     0.004 A 
HETATM   29  C12 UNL     1       7.748  -0.946  -1.329  1.00  0.00     0.019 A 
HETATM   30  C13 UNL     1       7.023  -2.068  -0.990  1.00  0.00     0.013 A 
HETATM   31 BR1  UNL     1       7.855  -3.767  -1.358  1.00  0.00    -0.051 Br
HETATM   32  C14 UNL     1       5.773  -2.033  -0.415  1.00  0.00     0.048 A 
ENDBRANCH  24  26
ENDBRANCH   8  24
TORSDOF 7
