REMARK  7 active torsions:
REMARK  status: ('A' for Active; 'I' for Inactive)
REMARK       I    between atoms: N1_3  and  C2_4 
REMARK       I    between atoms: C2_4  and  N2_6 
REMARK    1  A    between atoms: N2_6  and  C3_7 
REMARK    2  A    between atoms: C3_7  and  C4_8 
REMARK    3  A    between atoms: C3_7  and  C15_22 
REMARK    4  A    between atoms: C4_8  and  C5_9 
REMARK    5  A    between atoms: C8_14  and  N5_15 
REMARK    6  A    between atoms: N5_15  and  C9_16 
REMARK    7  A    between atoms: C15_22  and  C16_23 
ROOT
HETATM    1  B1  UNL     1      -3.819   5.082   3.686  1.00  0.00     0.222 B 
HETATM    2  C1  UNL     1      -3.945   3.357   2.032  1.00  0.00    -0.154 C 
HETATM    3  N1  UNL     1      -3.993   2.375   1.095  1.00  0.00    -0.292 N 
HETATM    4  C2  UNL     1      -2.752   1.746   1.276  1.00  0.00     0.326 C 
HETATM    5  O1  UNL     1      -1.897   2.072   2.124  1.00  0.00    -0.246 OA
HETATM    6  N2  UNL     1      -2.676   0.687   0.315  1.00  0.00    -0.335 N 
HETATM    7  H1  UNL     1      -4.885   2.444   0.619  1.00  0.00     0.178 HD
HETATM    8  H2  UNL     1      -3.449   0.470  -0.380  1.00  0.00     0.165 HD
ENDROOT
BRANCH   6   9
HETATM    9  C3  UNL     1      -1.582  -0.242   0.122  1.00  0.00     0.110 C 
BRANCH   9  10
HETATM   10  C4  UNL     1      -0.914  -0.136  -1.163  1.00  0.00     0.011 C 
BRANCH  10  11
HETATM   11  C5  UNL     1      -0.028   0.066  -2.117  1.00  0.00     0.006 A 
HETATM   12  C6  UNL     1      -0.286  -0.138  -3.590  1.00  0.00     0.192 A 
HETATM   13  N3  UNL     1       0.867   0.147  -4.323  1.00  0.00    -0.278 NA
HETATM   14  C7  UNL     1       2.028   0.533  -4.003  1.00  0.00     0.229 A 
HETATM   15  N4  UNL     1       2.310   0.749  -2.627  1.00  0.00    -0.224 NA
HETATM   16  C8  UNL     1       1.341   0.526  -1.786  1.00  0.00     0.137 A 
BRANCH  16  17
HETATM   17  N5  UNL     1       1.713   0.776  -0.414  1.00  0.00    -0.341 N 
HETATM   18  H8  UNL     1       0.929   1.163   0.195  1.00  0.00     0.167 HD
BRANCH  17  19
HETATM   19  C9  UNL     1       3.047   0.512   0.038  1.00  0.00     0.033 A 
HETATM   20  C10 UNL     1       3.426  -0.774   0.443  1.00  0.00     0.029 A 
HETATM   21  C11 UNL     1       4.707  -1.073   0.895  1.00  0.00     0.002 A 
HETATM   22  C12 UNL     1       5.650  -0.080   0.953  1.00  0.00     0.000 A 
HETATM   23  C13 UNL     1       5.261   1.173   0.552  1.00  0.00     0.002 A 
HETATM   24  C14 UNL     1       4.000   1.528   0.093  1.00  0.00     0.029 A 
ENDBRANCH  17  19
ENDBRANCH  16  17
ENDBRANCH  10  11
ENDBRANCH   9  10
BRANCH   9  25
HETATM   25  C15 UNL     1      -2.146  -1.639   0.420  1.00  0.00     0.029 C 
BRANCH  25  26
HETATM   26  C16 UNL     1      -2.645  -1.669   1.847  1.00  0.00    -0.002 C 
HETATM   27  C17 UNL     1      -3.216  -3.026   2.203  1.00  0.00     0.005 C 
ENDBRANCH  25  26
ENDBRANCH   9  25
ENDBRANCH   6   9
TORSDOF 7
