REMARK  0 active torsions:
REMARK  status: ('A' for Active; 'I' for Inactive)
ROOT
HETATM    1  O1  UNL     1       0.133  -1.901  -1.108  1.00  0.00    -0.247 OA
HETATM    2  C1  UNL     1      -0.208  -2.125   0.060  1.00  0.00     0.320 C 
HETATM    3  N1  UNL     1      -1.443  -2.305   0.851  1.00  0.00    -0.341 N 
HETATM    4  C2  UNL     1      -2.525  -2.261  -0.112  1.00  0.00     0.164 C 
HETATM    5  C3  UNL     1      -2.774  -1.056  -0.914  1.00  0.00     0.286 C 
HETATM    6  N2  UNL     1      -4.169  -1.169  -1.396  1.00  0.00     0.096 N 
HETATM    7  C4  UNL     1      -4.809   0.105  -1.519  1.00  0.00     0.296 C 
HETATM    8  C5  UNL     1      -4.688   0.959  -0.304  1.00  0.00     0.200 C 
HETATM    9  O2  UNL     1      -3.478   0.892   0.365  1.00  0.00    -0.363 OA
HETATM   10  C6  UNL     1      -2.453   0.281  -0.357  1.00  0.00     0.255 C 
HETATM   11  N3  UNL     1      -1.983   1.206  -1.405  1.00  0.00    -0.372 N 
HETATM   12  C7  UNL     1      -2.203   2.624  -1.489  1.00  0.00     0.082 C 
HETATM   13  C8  UNL     1      -1.154   3.107  -0.901  1.00  0.00    -0.004 C 
HETATM   14  C9  UNL     1      -0.048   3.790  -0.275  1.00  0.00     0.045 C 
HETATM   15  C10 UNL     1       0.600   2.559  -0.006  1.00  0.00    -0.014 C 
HETATM   16  C11 UNL     1       1.827   3.277   0.665  1.00  0.00     0.032 C 
HETATM   17  C12 UNL     1       2.888   2.621   1.123  1.00  0.00     0.027 C 
HETATM   18  C13 UNL     1       3.960   1.696   1.559  1.00  0.00     0.033 C 
HETATM   19  N4  UNL     1       5.110   1.193   2.056  1.00  0.00    -0.247 NA
HETATM   20  C14 UNL     1       5.082  -0.276   1.972  1.00  0.00     0.227 C 
HETATM   21  N5  UNL     1       4.961  -1.084   1.004  1.00  0.00    -0.279 NA
HETATM   22  C15 UNL     1       4.920  -2.498   0.925  1.00  0.00     0.179 C 
HETATM   23  C16 UNL     1       3.545  -2.967   0.439  1.00  0.00     0.020 C 
HETATM   24  C17 UNL     1       2.646  -2.080   0.292  1.00  0.00     0.016 C 
HETATM   25  C18 UNL     1       2.516  -0.543   0.507  1.00  0.00     0.050 C 
HETATM   26  C19 UNL     1       3.159   0.539   0.990  1.00  0.00     0.041 C 
HETATM   27  N6  UNL     1       1.255  -2.115   0.216  1.00  0.00    -0.313 N 
HETATM   28  H1  UNL     1      -0.717  -2.333   1.487  1.00  0.00     0.164 HD
HETATM   29  H5  UNL     1      -4.698  -1.760  -0.703  1.00  0.00     0.316 HD
HETATM   30  H11 UNL     1      -1.420   0.928  -2.235  1.00  0.00     0.161 HD
HETATM   31  H24 UNL     1       1.114  -2.535   1.192  1.00  0.00     0.170 HD
ENDROOT
TORSDOF 0
