REMARK  5 active torsions:
REMARK  status: ('A' for Active; 'I' for Inactive)
REMARK       I    between atoms: C1_2  and  N1_3 
REMARK       I    between atoms: C1_2  and  N3_12 
REMARK    1  A    between atoms: N1_3  and  C2_4 
REMARK    2  A    between atoms: C2_4  and  C3_5 
REMARK    3  A    between atoms: C3_5  and  N2_6 
REMARK    4  A    between atoms: N3_12  and  C8_13 
REMARK    5  A    between atoms: C13_20  and  C14_21 
ROOT
HETATM    1  C8  UNL     1       1.418   0.299   1.936  1.00  0.00     0.037 A 
HETATM    2  C9  UNL     1       1.583   0.950   3.164  1.00  0.00     0.032 A 
HETATM    3  C10 UNL     1       2.864   1.312   3.559  1.00  0.00     0.035 A 
HETATM    4  C11 UNL     1       3.992   1.054   2.786  1.00  0.00     0.070 A 
HETATM    5  N4  UNL     1       5.236   1.401   3.144  1.00  0.00    -0.241 NA
HETATM    6  C12 UNL     1       6.241   1.091   2.283  1.00  0.00     0.234 A 
HETATM    7  N5  UNL     1       6.014   0.464   1.119  1.00  0.00    -0.240 NA
HETATM    8  C13 UNL     1       4.782   0.099   0.725  1.00  0.00     0.081 A 
HETATM    9  C20 UNL     1       3.739   0.411   1.596  1.00  0.00     0.025 A 
HETATM   10  C21 UNL     1       2.501   0.022   1.136  1.00  0.00     0.045 A 
ENDROOT
BRANCH   1  11
HETATM   11  N3  UNL     1       0.080  -0.043   1.603  1.00  0.00    -0.309 N 
HETATM   12  C1  UNL     1      -0.876   0.720   0.901  1.00  0.00     0.320 C 
HETATM   13  O1  UNL     1      -0.434   1.867   0.535  1.00  0.00    -0.247 OA
HETATM   14  N1  UNL     1      -2.232   0.336   0.580  1.00  0.00    -0.341 N 
HETATM   15  H1  UNL     1      -2.356  -0.614   0.984  1.00  0.00     0.164 HD
HETATM   16  H14 UNL     1      -0.235  -0.984   1.920  1.00  0.00     0.170 HD
BRANCH  14  17
HETATM   17  C2  UNL     1      -2.823   1.416  -0.135  1.00  0.00     0.154 C 
BRANCH  17  18
HETATM   18  C3  UNL     1      -4.229   1.242  -0.599  1.00  0.00     0.292 C 
BRANCH  18  19
HETATM   19  N2  UNL     1      -4.458   0.212  -1.544  1.00  0.00     0.094 N 
HETATM   20  C4  UNL     1      -4.317  -1.142  -1.123  1.00  0.00     0.298 C 
HETATM   21  C5  UNL     1      -5.297  -1.474  -0.003  1.00  0.00     0.198 C 
HETATM   22  O2  UNL     1      -6.430  -0.648  -0.128  1.00  0.00    -0.388 OA
HETATM   23  C6  UNL     1      -6.741  -0.581  -1.481  1.00  0.00     0.198 C 
HETATM   24  C7  UNL     1      -5.789   0.354  -2.164  1.00  0.00     0.298 C 
ENDBRANCH  18  19
ENDBRANCH  17  18
ENDBRANCH  14  17
ENDBRANCH   1  11
BRANCH   8  25
HETATM   25  C14 UNL     1       4.755  -0.565  -0.568  1.00  0.00    -0.005 A 
HETATM   26  C15 UNL     1       4.163  -1.756  -0.925  1.00  0.00     0.014 A 
HETATM   27  C16 UNL     1       4.219  -2.229  -2.221  1.00  0.00     0.002 A 
HETATM   28  C17 UNL     1       4.875  -1.513  -3.190  1.00  0.00     0.019 A 
HETATM   29  C18 UNL     1       5.492  -0.313  -2.906  1.00  0.00     0.011 A 
HETATM   30 BR1  UNL     1       6.403   0.683  -4.242  1.00  0.00    -0.051 Br
HETATM   31  C19 UNL     1       5.411   0.124  -1.594  1.00  0.00     0.032 A 
ENDBRANCH   8  25
TORSDOF 5
