REMARK  7 active torsions:
REMARK  status: ('A' for Active; 'I' for Inactive)
REMARK    1  A    between atoms: C4_6  and  N3_7 
REMARK    2  A    between atoms: N3_7  and  C5_8 
REMARK    3  A    between atoms: C11_15  and  C12_16 
REMARK    4  A    between atoms: C12_16  and  N4_17 
REMARK       I    between atoms: N4_17  and  C13_18 
REMARK       I    between atoms: C13_18  and  N5_20 
REMARK    5  A    between atoms: N5_20  and  C14_21 
REMARK    6  A    between atoms: C14_21  and  C15_22 
REMARK    7  A    between atoms: C15_22  and  N6_23 
ROOT
HETATM    1  C1  UNL     1       1.883  -3.705   0.398  1.00  0.00     0.071 C 
HETATM    2  C2  UNL     1       2.439  -2.708  -0.545  1.00  0.00     0.043 A 
HETATM    3  N1  UNL     1       2.965  -3.090  -1.718  1.00  0.00    -0.246 NA
HETATM    4  C3  UNL     1       3.516  -2.220  -2.583  1.00  0.00     0.235 A 
HETATM    5  N2  UNL     1       3.526  -0.924  -2.232  1.00  0.00    -0.224 NA
HETATM    6  C4  UNL     1       2.995  -0.519  -1.044  1.00  0.00     0.139 A 
HETATM    7  C11 UNL     1       2.414  -1.405  -0.124  1.00  0.00     0.030 A 
ENDROOT
BRANCH   7   8
HETATM    8  C12 UNL     1       1.890  -0.702   1.040  1.00  0.00     0.169 C 
BRANCH   8   9
HETATM    9  N4  UNL     1       0.507  -0.360   0.902  1.00  0.00    -0.339 N 
HETATM   10  C13 UNL     1      -0.780  -0.894   0.720  1.00  0.00     0.316 C 
HETATM   11  O1  UNL     1      -0.803  -2.154   0.633  1.00  0.00    -0.247 OA
HETATM   12  N5  UNL     1      -2.059  -0.282   0.617  1.00  0.00    -0.341 N 
HETATM   13  H13 UNL     1      -1.904   0.748   0.724  1.00  0.00     0.164 HD
HETATM   14  H12 UNL     1       0.399   0.706   0.954  1.00  0.00     0.164 HD
BRANCH  12  15
HETATM   15  C14 UNL     1      -2.992  -1.347   0.425  1.00  0.00     0.154 C 
BRANCH  15  16
HETATM   16  C15 UNL     1      -4.424  -0.959   0.276  1.00  0.00     0.292 C 
BRANCH  16  17
HETATM   17  N6  UNL     1      -4.802  -0.161  -0.838  1.00  0.00     0.094 N 
HETATM   18  C16 UNL     1      -6.226   0.121  -0.844  1.00  0.00     0.298 C 
HETATM   19  C17 UNL     1      -6.584   1.441  -0.262  1.00  0.00     0.198 C 
HETATM   20  O2  UNL     1      -5.617   2.401  -0.271  1.00  0.00    -0.388 OA
HETATM   21  C18 UNL     1      -4.318   1.999  -0.079  1.00  0.00     0.198 C 
HETATM   22  C19 UNL     1      -4.016   0.967  -1.170  1.00  0.00     0.298 C 
ENDBRANCH  16  17
ENDBRANCH  15  16
ENDBRANCH  12  15
ENDBRANCH   8   9
ENDBRANCH   7   8
BRANCH   6  23
HETATM   23  N3  UNL     1       3.152   0.915  -0.963  1.00  0.00    -0.340 N 
HETATM   24  H5  UNL     1       2.413   1.482  -1.405  1.00  0.00     0.167 HD
BRANCH  23  25
HETATM   25  C5  UNL     1       4.253   1.538  -0.318  1.00  0.00     0.035 A 
HETATM   26  C6  UNL     1       4.431   2.923  -0.326  1.00  0.00     0.029 A 
HETATM   27  C7  UNL     1       5.489   3.534   0.302  1.00  0.00     0.004 A 
HETATM   28  C8  UNL     1       6.365   2.681   0.941  1.00  0.00     0.019 A 
HETATM   29  C9  UNL     1       6.266   1.311   0.998  1.00  0.00     0.013 A 
HETATM   30 BR1  UNL     1       7.502   0.180   1.899  1.00  0.00    -0.051 Br
HETATM   31  C10 UNL     1       5.177   0.726   0.349  1.00  0.00     0.048 A 
ENDBRANCH  23  25
ENDBRANCH   6  23
TORSDOF 7
