REMARK  1 active torsions:
REMARK  status: ('A' for Active; 'I' for Inactive)
REMARK    1  A    between atoms: O1_2  and  C2_3 
ROOT
HETATM    1  C2  UNL     1       2.952  -0.227  -1.060  1.00  0.00     0.069 A 
HETATM    2  C3  UNL     1       3.208  -1.588  -1.168  1.00  0.00     0.039 A 
HETATM    3  C4  UNL     1       2.301  -2.540  -0.720  1.00  0.00     0.041 A 
HETATM    4  C5  UNL     1       1.121  -2.098  -0.155  1.00  0.00     0.089 A 
HETATM    5  C6  UNL     1       0.810  -0.739  -0.021  1.00  0.00     0.032 A 
HETATM    6  C7  UNL     1       1.749   0.180  -0.484  1.00  0.00     0.053 A 
HETATM    7  C8  UNL     1      -0.386  -0.092   0.552  1.00  0.00     0.101 C 
HETATM    8  C9  UNL     1      -1.291  -0.691   1.336  1.00  0.00     0.103 C 
HETATM    9  N1  UNL     1      -1.258  -2.030   1.744  1.00  0.00    -0.236 NA
HETATM   10  C10 UNL     1      -0.618  -3.056   1.319  1.00  0.00     0.259 C 
HETATM   11  O2  UNL     1       0.298  -3.166   0.254  1.00  0.00    -0.303 OA
HETATM   12  C11 UNL     1      -2.449   0.027   1.874  1.00  0.00     0.247 C 
HETATM   13  F1  UNL     1      -2.927  -0.722   2.966  1.00  0.00    -0.238 F 
HETATM   14  C12 UNL     1      -3.507   0.069   0.864  1.00  0.00     0.014 C 
HETATM   15  C13 UNL     1      -3.905   1.055   0.084  1.00  0.00    -0.008 C 
HETATM   16  C14 UNL     1      -3.437   2.427  -0.043  1.00  0.00     0.149 C 
HETATM   17  N2  UNL     1      -2.336   2.783   0.806  1.00  0.00    -0.362 N 
HETATM   18  C15 UNL     1      -1.207   2.067   0.345  1.00  0.00     0.197 C 
HETATM   19 CL1  UNL     1      -0.473   3.400  -0.570  1.00  0.00    -0.043 Cl
HETATM   20  N3  UNL     1      -0.292   1.230   0.056  1.00  0.00    -0.217 NA
HETATM   21  H13 UNL     1      -2.185   3.416   1.647  1.00  0.00     0.162 HD
ENDROOT
BRANCH   1  22
HETATM   22  O1  UNL     1       3.825   0.762  -1.492  1.00  0.00    -0.356 OA
HETATM   23  C1  UNL     1       5.043   0.364  -2.074  1.00  0.00     0.210 C 
ENDBRANCH   1  22
TORSDOF 1
