REMARK  6 active torsions:
REMARK  status: ('A' for Active; 'I' for Inactive)
REMARK    1  A    between atoms: O1_1  and  C1_2 
REMARK    2  A    between atoms: N3_19  and  C15_20 
REMARK    3  A    between atoms: C15_20  and  N4_21 
REMARK    4  A    between atoms: N4_21  and  C16_22 
REMARK    5  A    between atoms: C16_22  and  C17_23 
REMARK    6  A    between atoms: C17_23  and  N5_24 
ROOT
HETATM    1  C1  UNL     1      -0.827  -0.228  -0.760  1.00  0.00     0.363 C 
HETATM    2  C2  UNL     1      -0.570   1.192  -0.335  1.00  0.00     0.105 C 
HETATM    3  C3  UNL     1      -1.743   1.897   0.214  1.00  0.00    -0.027 A 
HETATM    4  C4  UNL     1      -1.674   3.269   0.111  1.00  0.00     0.011 A 
HETATM    5  C5  UNL     1      -2.623   4.165   0.542  1.00  0.00     0.020 A 
HETATM    6  C6  UNL     1      -3.768   3.676   1.141  1.00  0.00     0.013 A 
HETATM    7 BR1  UNL     1      -5.136   4.837   1.769  1.00  0.00    -0.051 Br
HETATM    8  C7  UNL     1      -3.842   2.300   1.247  1.00  0.00     0.049 A 
HETATM    9  C8  UNL     1      -2.887   1.419   0.811  1.00  0.00     0.041 A 
HETATM   10  N1  UNL     1      -3.263   0.049   1.069  1.00  0.00    -0.340 N 
HETATM   11  C9  UNL     1      -3.574  -0.987   0.147  1.00  0.00     0.130 A 
HETATM   12  N2  UNL     1      -4.737  -0.603  -0.071  1.00  0.00    -0.272 NA
HETATM   13  C10 UNL     1      -5.665  -1.228  -0.948  1.00  0.00     0.155 A 
HETATM   14  C11 UNL     1      -5.092  -2.409  -1.663  1.00  0.00     0.049 A 
HETATM   15  C12 UNL     1      -3.715  -2.674  -1.251  1.00  0.00    -0.012 A 
HETATM   16  C13 UNL     1      -2.865  -2.117  -0.427  1.00  0.00     0.012 A 
HETATM   17  C14 UNL     1      -1.473  -2.458  -0.063  1.00  0.00     0.320 C 
HETATM   18  N3  UNL     1      -0.855  -1.185   0.308  1.00  0.00     0.138 NA
HETATM   19  H8  UNL     1      -3.280  -0.088   2.104  1.00  0.00     0.167 HD
ENDROOT
BRANCH  18  20
HETATM   20  C15 UNL     1       0.507  -1.455   0.803  1.00  0.00     0.394 C 
BRANCH  20  21
HETATM   21  N4  UNL     1       1.313  -2.210  -0.057  1.00  0.00    -0.396 N 
HETATM   22  H18 UNL     1       1.004  -2.322  -1.045  1.00  0.00     0.154 HD
BRANCH  21  23
HETATM   23  C16 UNL     1       2.644  -2.502   0.221  1.00  0.00     0.135 C 
BRANCH  23  24
HETATM   24  C17 UNL     1       3.755  -1.552   0.074  1.00  0.00     0.136 C 
BRANCH  24  25
HETATM   25  N5  UNL     1       3.815  -0.314   0.688  1.00  0.00    -0.411 N 
HETATM   26  C18 UNL     1       3.044   0.775   0.269  1.00  0.00     0.117 C 
HETATM   27  C19 UNL     1       3.793   1.879  -0.471  1.00  0.00     0.019 C 
HETATM   28  C20 UNL     1       5.113   2.178   0.152  1.00  0.00     0.003 C 
HETATM   29  C21 UNL     1       5.908   0.893   0.263  1.00  0.00     0.019 C 
HETATM   30  C22 UNL     1       5.088   0.012   1.215  1.00  0.00     0.117 C 
ENDBRANCH  24  25
ENDBRANCH  23  24
ENDBRANCH  21  23
ENDBRANCH  20  21
ENDBRANCH  18  20
BRANCH   1  31
HETATM   31  O1  UNL     1      -1.799  -0.306  -1.713  1.00  0.00    -0.367 OA
HETATM   32  H1  UNL     1      -1.468  -0.302  -2.646  1.00  0.00     0.212 HD
ENDBRANCH   1  31
TORSDOF 6
