REMARK  4 active torsions:
REMARK  status: ('A' for Active; 'I' for Inactive)
REMARK    1  A    between atoms: N1_1  and  C1_2 
REMARK    2  A    between atoms: C1_2  and  C2_3 
REMARK    3  A    between atoms: C7_10  and  N4_11 
REMARK    4  A    between atoms: N4_11  and  C8_12 
ROOT
HETATM    1  C2  UNL     1       2.579  -0.364  -0.220  1.00  0.00    -0.030 A 
HETATM    2  C3  UNL     1       3.445   0.699  -0.363  1.00  0.00     0.011 A 
HETATM    3  C4  UNL     1       3.073   2.006  -0.127  1.00  0.00     0.033 A 
HETATM    4  C5  UNL     1       1.767   2.268   0.274  1.00  0.00     0.072 A 
HETATM    5  N2  UNL     1       1.362   3.536   0.525  1.00  0.00    -0.241 NA
HETATM    6  C6  UNL     1       0.078   3.752   0.924  1.00  0.00     0.236 A 
HETATM    7  N3  UNL     1      -0.824   2.750   1.082  1.00  0.00    -0.224 NA
HETATM    8  C7  UNL     1      -0.434   1.468   0.833  1.00  0.00     0.142 A 
HETATM    9  C14 UNL     1       0.876   1.198   0.422  1.00  0.00     0.039 A 
HETATM   10  C15 UNL     1       1.257  -0.117   0.183  1.00  0.00     0.026 A 
ENDROOT
BRANCH   8  11
HETATM   11  N4  UNL     1      -1.247   0.313   0.967  1.00  0.00    -0.340 N 
HETATM   12  H8  UNL     1      -0.900  -0.176   1.818  1.00  0.00     0.167 HD
BRANCH  11  13
HETATM   13  C8  UNL     1      -2.331  -0.171   0.176  1.00  0.00     0.035 A 
HETATM   14  C9  UNL     1      -2.988   0.603  -0.761  1.00  0.00     0.029 A 
HETATM   15  C10 UNL     1      -4.036   0.034  -1.492  1.00  0.00     0.004 A 
HETATM   16  C11 UNL     1      -4.368  -1.280  -1.244  1.00  0.00     0.019 A 
HETATM   17  C12 UNL     1      -3.722  -2.048  -0.320  1.00  0.00     0.013 A 
HETATM   18 BR1  UNL     1      -4.181  -3.868   0.014  1.00  0.00    -0.051 Br
HETATM   19  C13 UNL     1      -2.680  -1.500   0.414  1.00  0.00     0.048 A 
ENDBRANCH  11  13
ENDBRANCH   8  11
BRANCH   1  20
HETATM   20  C1  UNL     1       2.910  -1.792  -0.445  1.00  0.00     0.305 C 
BRANCH  20  21
HETATM   21  N1  UNL     1       3.372  -2.430   0.776  1.00  0.00     0.082 N 
HETATM   22  H1  UNL     1       4.407  -2.667   0.728  1.00  0.00     0.313 HD
HETATM   23  H2  UNL     1       2.872  -3.358   0.928  1.00  0.00     0.313 HD
ENDBRANCH  20  21
ENDBRANCH   1  20
TORSDOF 4
