REMARK  2 active torsions:
REMARK  status: ('A' for Active; 'I' for Inactive)
REMARK    1  A    between atoms: C7_10  and  N3_11 
REMARK    2  A    between atoms: N3_11  and  C8_12 
ROOT
HETATM    1  O1  UNL     1       4.903  -3.350   2.251  1.00  0.00    -0.269 OA
HETATM    2  C1  UNL     1       3.735  -3.162   1.794  1.00  0.00     0.241 C 
HETATM    3  C2  UNL     1       2.534  -3.982   1.900  1.00  0.00     0.074 C 
HETATM    4  C3  UNL     1       1.338  -3.804   1.484  1.00  0.00     0.007 C 
HETATM    5  C4  UNL     1       0.332  -3.053   0.822  1.00  0.00     0.028 C 
HETATM    6  C5  UNL     1      -0.710  -2.520   0.256  1.00  0.00     0.048 A 
HETATM    7  N1  UNL     1      -1.508  -3.529   0.509  1.00  0.00    -0.246 NA
HETATM    8  C6  UNL     1      -2.795  -3.534   0.116  1.00  0.00     0.235 A 
HETATM    9  N2  UNL     1      -3.236  -2.455  -0.551  1.00  0.00    -0.228 NA
HETATM   10  C7  UNL     1      -2.283  -1.446  -0.754  1.00  0.00     0.113 A 
HETATM   11  C14 UNL     1      -0.901  -1.366  -0.370  1.00  0.00     0.059 A 
HETATM   12  C15 UNL     1      -1.019  -0.190  -0.954  1.00  0.00     0.090 C 
HETATM   13  C16 UNL     1      -0.403   1.062  -1.038  1.00  0.00    -0.003 C 
HETATM   14  C17 UNL     1       0.403   2.003  -0.840  1.00  0.00     0.079 C 
HETATM   15  N4  UNL     1       1.184   3.089  -0.725  1.00  0.00    -0.399 N 
HETATM   16  C18 UNL     1       2.111   3.882  -0.026  1.00  0.00     0.120 C 
HETATM   17  C19 UNL     1       3.521   3.378   0.125  1.00  0.00     0.049 C 
HETATM   18  C20 UNL     1       3.573   2.039   0.797  1.00  0.00     0.271 C 
HETATM   19  N5  UNL     1       4.967   1.651   1.005  1.00  0.00     0.085 N 
HETATM   20  C21 UNL     1       4.985   0.327   1.649  1.00  0.00     0.289 C 
HETATM   21  C22 UNL     1       4.544  -0.686   0.627  1.00  0.00     0.152 C 
HETATM   22  N6  UNL     1       4.133  -1.928   1.211  1.00  0.00    -0.356 N 
HETATM   23  H15 UNL     1       0.795   3.330  -1.670  1.00  0.00     0.158 HD
HETATM   24  H22 UNL     1       5.346   2.365   1.689  1.00  0.00     0.315 HD
HETATM   25  H27 UNL     1       3.148  -1.915   0.900  1.00  0.00     0.162 HD
ENDROOT
BRANCH  10  26
HETATM   26  N3  UNL     1      -2.891  -0.302  -1.411  1.00  0.00    -0.369 N 
HETATM   27  H5  UNL     1      -2.753   0.637  -1.823  1.00  0.00     0.161 HD
BRANCH  26  28
HETATM   28  C8  UNL     1      -4.295  -0.369  -1.657  1.00  0.00     0.110 A 
HETATM   29  C9  UNL     1      -4.829   0.706  -2.533  1.00  0.00     0.056 A 
HETATM   30  C10 UNL     1      -5.900   1.511  -1.929  1.00  0.00    -0.023 A 
HETATM   31  C11 UNL     1      -6.498   1.487  -0.742  1.00  0.00     0.015 A 
HETATM   32  C12 UNL     1      -5.948   0.422   0.112  1.00  0.00     0.009 A 
HETATM   33 BR1  UNL     1      -6.758   0.322   1.855  1.00  0.00    -0.051 Br
HETATM   34  C13 UNL     1      -4.987  -0.372  -0.310  1.00  0.00     0.017 A 
ENDBRANCH  26  28
ENDBRANCH  10  26
TORSDOF 2
