REMARK  5 active torsions:
REMARK  status: ('A' for Active; 'I' for Inactive)
REMARK    1  A    between atoms: N1_4  and  C3_5 
REMARK    2  A    between atoms: C5_8  and  N2_9 
REMARK    3  A    between atoms: N2_9  and  C6_10 
REMARK    4  A    between atoms: C6_10  and  C7_11 
REMARK    5  A    between atoms: C7_11  and  N3_12 
ROOT
HETATM    1  C3  UNL     1      -2.976  -0.150   0.351  1.00  0.00     0.022 C 
HETATM    2  P1  UNL     1      -1.710   0.797  -0.137  1.00  0.00    -0.031 P 
HETATM    3  C4  UNL     1       0.125   0.443   0.100  1.00  0.00     0.102 C 
HETATM    4  C5  UNL     1       0.338  -1.029   0.147  1.00  0.00     0.320 C 
HETATM    5  N4  UNL     1      -0.938  -1.712  -0.102  1.00  0.00     0.106 N 
HETATM    6  C11 UNL     1      -1.622  -2.055   1.130  1.00  0.00     0.278 C 
HETATM    7  C12 UNL     1      -3.004  -1.444   1.059  1.00  0.00     0.088 C 
HETATM    8  H16 UNL     1      -0.810  -2.550  -0.712  1.00  0.00     0.318 HD
ENDROOT
BRANCH   4   9
HETATM    9  N2  UNL     1       1.357  -1.515  -0.692  1.00  0.00    -0.392 N 
HETATM   10  H5  UNL     1       1.158  -2.364  -1.255  1.00  0.00     0.155 HD
BRANCH   9  11
HETATM   11  C6  UNL     1       2.709  -1.308  -0.343  1.00  0.00     0.135 C 
BRANCH  11  12
HETATM   12  C7  UNL     1       3.126   0.114  -0.425  1.00  0.00     0.137 C 
BRANCH  12  13
HETATM   13  N3  UNL     1       4.499   0.348  -0.120  1.00  0.00    -0.399 N 
HETATM   14  C8  UNL     1       4.953   1.677  -0.167  1.00  0.00     0.145 C 
HETATM   15  C9  UNL     1       6.283   1.858  -0.862  1.00  0.00     0.204 C 
HETATM   16  O1  UNL     1       7.330   1.216  -0.249  1.00  0.00    -0.317 OA
HETATM   17  S1  UNL     1       6.988  -0.329   0.352  1.00  0.00     0.007 SA
HETATM   18  C10 UNL     1       5.210  -0.609   0.619  1.00  0.00     0.222 C 
ENDBRANCH  12  13
ENDBRANCH  11  12
ENDBRANCH   9  11
ENDBRANCH   4   9
BRANCH   1  19
HETATM   19  N1  UNL     1      -4.257   0.377   0.032  1.00  0.00    -0.354 N 
HETATM   20  C2  UNL     1      -4.388   1.609  -0.663  1.00  0.00     0.110 A 
HETATM   21  C1  UNL     1      -5.505   2.212  -1.030  1.00  0.00     0.026 A 
HETATM   22 BR1  UNL     1      -5.577   3.871  -1.963  1.00  0.00    -0.050 Br
HETATM   23  C15 UNL     1      -6.765   1.561  -0.692  1.00  0.00     0.018 A 
HETATM   24  C14 UNL     1      -6.656   0.419  -0.045  1.00  0.00    -0.005 A 
HETATM   25  C13 UNL     1      -5.456  -0.312   0.396  1.00  0.00     0.155 A 
ENDBRANCH   1  19
TORSDOF 5
