REMARK  6 active torsions:
REMARK  status: ('A' for Active; 'I' for Inactive)
REMARK    1  A    between atoms: O1_2  and  C2_3 
REMARK    2  A    between atoms: C5_6  and  N1_7 
REMARK    3  A    between atoms: N1_7  and  C6_8 
REMARK    4  A    between atoms: C9_13  and  N4_14 
REMARK    5  A    between atoms: N4_14  and  C10_15 
REMARK    6  A    between atoms: C16_22  and  O2_23 
ROOT
HETATM    1  C6  UNL     1      -0.405  -1.324   0.635  1.00  0.00     0.097 A 
HETATM    2  C7  UNL     1       0.401  -1.764   1.678  1.00  0.00     0.151 A 
HETATM    3  N2  UNL     1      -0.248  -2.396   2.686  1.00  0.00    -0.252 NA
HETATM    4  C8  UNL     1      -1.569  -2.553   2.628  1.00  0.00     0.235 A 
HETATM    5  N3  UNL     1      -2.344  -2.111   1.590  1.00  0.00    -0.222 NA
HETATM    6  C9  UNL     1      -1.758  -1.471   0.549  1.00  0.00     0.157 A 
ENDROOT
BRANCH   1   7
HETATM    7  N1  UNL     1       0.306  -0.680  -0.425  1.00  0.00    -0.350 N 
HETATM    8  H6  UNL     1      -0.210  -0.290  -1.244  1.00  0.00     0.166 HD
BRANCH   7   9
HETATM    9  C5  UNL     1       1.724  -0.563  -0.392  1.00  0.00     0.066 A 
HETATM   10  C4  UNL     1       2.064   0.801  -0.352  1.00  0.00     0.035 A 
HETATM   11  C3  UNL     1       3.407   1.198  -0.313  1.00  0.00     0.039 A 
HETATM   12  C2  UNL     1       4.378   0.189  -0.315  1.00  0.00     0.070 A 
HETATM   13  C17 UNL     1       4.033  -1.135  -0.356  1.00  0.00     0.075 A 
HETATM   14  C16 UNL     1       2.723  -1.525  -0.395  1.00  0.00     0.095 A 
BRANCH  12  15
HETATM   15  O1  UNL     1       5.709   0.668  -0.274  1.00  0.00    -0.356 OA
HETATM   16  C1  UNL     1       5.963   2.061  -0.231  1.00  0.00     0.210 C 
ENDBRANCH  12  15
BRANCH  14  17
HETATM   17  O2  UNL     1       2.252  -2.820  -0.446  1.00  0.00    -0.358 OA
HETATM   18  H14 UNL     1       1.773  -3.160  -1.272  1.00  0.00     0.217 HD
ENDBRANCH  14  17
ENDBRANCH   7   9
ENDBRANCH   1   7
BRANCH   6  19
HETATM   19  N4  UNL     1      -2.567  -1.000  -0.498  1.00  0.00    -0.339 N 
HETATM   20  H9  UNL     1      -2.483  -1.508  -1.426  1.00  0.00     0.167 HD
BRANCH  19  21
HETATM   21  C10 UNL     1      -3.490   0.097  -0.420  1.00  0.00     0.035 A 
HETATM   22  C11 UNL     1      -4.310   0.414  -1.485  1.00  0.00     0.029 A 
HETATM   23  C12 UNL     1      -5.231   1.428  -1.477  1.00  0.00     0.004 A 
HETATM   24  C13 UNL     1      -5.344   2.190  -0.310  1.00  0.00     0.019 A 
HETATM   25  C14 UNL     1      -4.531   1.889   0.771  1.00  0.00     0.013 A 
HETATM   26 BR1  UNL     1      -4.758   2.989   2.329  1.00  0.00    -0.051 Br
HETATM   27  C15 UNL     1      -3.596   0.846   0.738  1.00  0.00     0.048 A 
ENDBRANCH  19  21
ENDBRANCH   6  19
TORSDOF 6
