REMARK  7 active torsions:
REMARK  status: ('A' for Active; 'I' for Inactive)
REMARK    1  A    between atoms: N1_1  and  C1_2 
REMARK    2  A    between atoms: C6_9  and  N4_10 
REMARK    3  A    between atoms: N4_10  and  C7_11 
REMARK    4  A    between atoms: C12_18  and  C13_19 
REMARK       I    between atoms: C13_19  and  N5_21 
REMARK    5  A    between atoms: N5_21  and  C14_22 
REMARK    6  A    between atoms: C14_22  and  C15_23 
REMARK    7  A    between atoms: C15_23  and  N6_24 
ROOT
HETATM    1  C7  UNL     1      -1.867  -0.582  -1.280  1.00  0.00     0.051 A 
HETATM    2  C8  UNL     1      -2.988  -0.705  -2.070  1.00  0.00     0.034 A 
HETATM    3  C9  UNL     1      -2.984  -0.450  -3.419  1.00  0.00     0.046 A 
HETATM    4  C10 UNL     1      -1.788  -0.057  -3.970  1.00  0.00     0.139 A 
HETATM    5  F1  UNL     1      -1.758   0.200  -5.299  1.00  0.00    -0.204 F 
HETATM    6  C11 UNL     1      -0.678   0.062  -3.169  1.00  0.00     0.090 A 
HETATM    7 CL1  UNL     1       0.770   0.571  -3.994  1.00  0.00    -0.080 Cl
HETATM    8  C12 UNL     1      -0.674  -0.190  -1.824  1.00  0.00     0.083 A 
ENDROOT
BRANCH   1   9
HETATM    9  N4  UNL     1      -2.146  -0.914   0.070  1.00  0.00    -0.339 N 
HETATM   10  H6  UNL     1      -1.704  -0.986   1.002  1.00  0.00     0.167 HD
BRANCH   9  11
HETATM   11  C6  UNL     1      -3.426  -1.321   0.544  1.00  0.00     0.142 A 
HETATM   12  N3  UNL     1      -3.726  -2.637   0.426  1.00  0.00    -0.224 NA
HETATM   13  C5  UNL     1      -4.929  -3.069   0.859  1.00  0.00     0.236 A 
HETATM   14  N2  UNL     1      -5.845  -2.245   1.404  1.00  0.00    -0.241 NA
HETATM   15  C4  UNL     1      -5.597  -0.931   1.543  1.00  0.00     0.072 A 
HETATM   16  C3  UNL     1      -6.520  -0.069   2.100  1.00  0.00     0.035 A 
HETATM   17  C20 UNL     1      -4.367  -0.463   1.106  1.00  0.00     0.041 A 
HETATM   18  C2  UNL     1      -6.204   1.268   2.217  1.00  0.00     0.031 A 
HETATM   19  C1  UNL     1      -4.973   1.714   1.775  1.00  0.00     0.026 A 
HETATM   20  C21 UNL     1      -4.016   0.878   1.209  1.00  0.00     0.046 A 
BRANCH  19  21
HETATM   21  N1  UNL     1      -4.729   3.105   1.934  1.00  0.00    -0.399 N 
HETATM   22  H1  UNL     1      -4.922   3.705   2.783  1.00  0.00     0.156 HD
HETATM   23  H2  UNL     1      -4.349   3.903   1.397  1.00  0.00     0.156 HD
ENDBRANCH  19  21
ENDBRANCH   9  11
ENDBRANCH   1   9
BRANCH   8  24
HETATM   24  C13 UNL     1       0.442  -0.083  -0.915  1.00  0.00     0.255 C 
HETATM   25  O1  UNL     1       0.303  -0.290   0.294  1.00  0.00    -0.268 OA
HETATM   26  N5  UNL     1       1.805   0.232  -1.065  1.00  0.00    -0.355 N 
HETATM   27  H9  UNL     1       2.101   0.434  -2.040  1.00  0.00     0.162 HD
BRANCH  26  28
HETATM   28  C14 UNL     1       2.538   0.212   0.184  1.00  0.00     0.153 C 
BRANCH  28  29
HETATM   29  C15 UNL     1       3.962   0.553  -0.119  1.00  0.00     0.292 C 
BRANCH  29  30
HETATM   30  N6  UNL     1       4.825   0.575   1.013  1.00  0.00     0.094 N 
HETATM   31  C16 UNL     1       5.055  -0.716   1.610  1.00  0.00     0.298 C 
HETATM   32  C17 UNL     1       6.469  -0.884   2.064  1.00  0.00     0.198 C 
HETATM   33  O2  UNL     1       7.415  -0.609   1.088  1.00  0.00    -0.388 OA
HETATM   34  C18 UNL     1       6.987   0.314   0.157  1.00  0.00     0.198 C 
HETATM   35  C19 UNL     1       6.040   1.325   0.825  1.00  0.00     0.298 C 
ENDBRANCH  29  30
ENDBRANCH  28  29
ENDBRANCH  26  28
ENDBRANCH   8  24
TORSDOF 7
