REMARK  4 active torsions:
REMARK  status: ('A' for Active; 'I' for Inactive)
REMARK    1  A    between atoms: C5_7  and  N2_8 
REMARK       I    between atoms: N2_8  and  C6_9 
REMARK       I    between atoms: C6_9  and  N3_11 
REMARK    2  A    between atoms: N3_11  and  C7_12 
REMARK    3  A    between atoms: C12_19  and  N6_20 
REMARK    4  A    between atoms: N6_20  and  C13_21 
ROOT
HETATM    1  C7  UNL     1      -0.220   0.637   1.962  1.00  0.00     0.037 A 
HETATM    2  C8  UNL     1      -0.328   0.472   3.325  1.00  0.00     0.032 A 
HETATM    3  C9  UNL     1       0.807   0.202   4.035  1.00  0.00     0.035 A 
HETATM    4  C10 UNL     1       2.015   0.102   3.383  1.00  0.00     0.072 A 
HETATM    5  N4  UNL     1       3.115  -0.169   4.146  1.00  0.00    -0.241 NA
HETATM    6  C11 UNL     1       4.322  -0.278   3.564  1.00  0.00     0.236 A 
HETATM    7  N5  UNL     1       4.444  -0.121   2.245  1.00  0.00    -0.224 NA
HETATM    8  C12 UNL     1       3.417   0.145   1.438  1.00  0.00     0.142 A 
HETATM    9  C19 UNL     1       2.196   0.255   2.025  1.00  0.00     0.041 A 
HETATM   10  C20 UNL     1       1.023   0.523   1.375  1.00  0.00     0.047 A 
ENDROOT
BRANCH   1  11
HETATM   11  N3  UNL     1      -1.414   0.917   1.244  1.00  0.00    -0.309 N 
HETATM   12  C6  UNL     1      -2.261  -0.094   0.686  1.00  0.00     0.322 C 
HETATM   13  N2  UNL     1      -3.445   0.252  -0.023  1.00  0.00    -0.311 N 
HETATM   14  O2  UNL     1      -1.893  -1.279   0.863  1.00  0.00    -0.247 OA
HETATM   15  H11 UNL     1      -3.704   1.255  -0.140  1.00  0.00     0.166 HD
HETATM   16  H12 UNL     1      -1.647   1.932   1.142  1.00  0.00     0.170 HD
BRANCH  13  17
HETATM   17  C5  UNL     1      -4.252  -0.828  -0.559  1.00  0.00     0.349 C 
HETATM   18  N1  UNL     1      -4.446  -0.683  -1.978  1.00  0.00     0.111 N 
HETATM   19  C1  UNL     1      -3.186  -0.260  -2.568  1.00  0.00     0.312 C 
HETATM   20  C2  UNL     1      -5.457   0.357  -2.166  1.00  0.00     0.300 C 
HETATM   21  C3  UNL     1      -6.780  -0.221  -1.708  1.00  0.00     0.198 C 
HETATM   22  O1  UNL     1      -6.636  -1.124  -0.657  1.00  0.00    -0.386 OA
HETATM   23  C4  UNL     1      -5.592  -0.737   0.180  1.00  0.00     0.225 C 
ENDBRANCH  13  17
ENDBRANCH   1  11
BRANCH   8  24
HETATM   24  N6  UNL     1       3.533   0.312   0.051  1.00  0.00    -0.340 N 
HETATM   25  H16 UNL     1       2.704   0.511  -0.540  1.00  0.00     0.167 HD
BRANCH  24  26
HETATM   26  C13 UNL     1       4.654   0.260  -0.789  1.00  0.00     0.035 A 
HETATM   27  C14 UNL     1       4.646   0.393  -2.183  1.00  0.00     0.032 A 
HETATM   28  C15 UNL     1       5.772   0.338  -2.966  1.00  0.00     0.046 A 
HETATM   29  C16 UNL     1       7.014   0.142  -2.406  1.00  0.00     0.138 A 
HETATM   30  F1  UNL     1       8.043   0.105  -3.272  1.00  0.00    -0.204 F 
HETATM   31  C17 UNL     1       7.068   0.007  -1.052  1.00  0.00     0.074 A 
HETATM   32 CL1  UNL     1       8.675  -0.240  -0.388  1.00  0.00    -0.081 Cl
HETATM   33  C18 UNL     1       5.921   0.067  -0.283  1.00  0.00     0.056 A 
ENDBRANCH  24  26
ENDBRANCH   8  24
TORSDOF 4
