REMARK  6 active torsions:
REMARK  status: ('A' for Active; 'I' for Inactive)
REMARK       I    between atoms: C1_2  and  N1_3 
REMARK       I    between atoms: C1_2  and  N5_22 
REMARK    1  A    between atoms: N1_3  and  C2_4 
REMARK    2  A    between atoms: C3_5  and  C4_6 
REMARK    3  A    between atoms: C4_6  and  C5_7 
REMARK    4  A    between atoms: N5_22  and  C16_23 
REMARK    5  A    between atoms: C16_23  and  C17_24 
REMARK    6  A    between atoms: C17_24  and  N6_25 
ROOT
HETATM    1  C4  UNL     1      -2.961   1.061   1.225  1.00  0.00     0.034 C 
ENDROOT
BRANCH   1   2
HETATM    2  C3  UNL     1      -1.705   1.359   1.912  1.00  0.00     0.019 C 
HETATM    3  C2  UNL     1      -0.549   0.787   1.803  1.00  0.00     0.093 C 
BRANCH   3   4
HETATM    4  N1  UNL     1       0.338  -0.193   1.248  1.00  0.00    -0.319 N 
HETATM    5  C1  UNL     1       1.469   0.111   0.409  1.00  0.00     0.320 C 
HETATM    6  O1  UNL     1       1.588   1.350   0.239  1.00  0.00    -0.247 OA
HETATM    7  N5  UNL     1       2.306  -0.894  -0.131  1.00  0.00    -0.341 N 
HETATM    8  H13 UNL     1       2.004  -1.852   0.143  1.00  0.00     0.164 HD
HETATM    9  H1  UNL     1       0.183  -1.225   1.473  1.00  0.00     0.170 HD
BRANCH   7  10
HETATM   10  C16 UNL     1       3.459  -0.561  -0.982  1.00  0.00     0.154 C 
BRANCH  10  11
HETATM   11  C17 UNL     1       4.399   0.277  -0.168  1.00  0.00     0.292 C 
BRANCH  11  12
HETATM   12  N6  UNL     1       5.546   0.658  -0.937  1.00  0.00     0.090 N 
HETATM   13  C18 UNL     1       6.453   1.478  -0.128  1.00  0.00     0.272 C 
HETATM   14  C19 UNL     1       7.152   0.616   0.903  1.00  0.00     0.030 C 
HETATM   15  C20 UNL     1       7.964  -0.431   0.183  1.00  0.00     0.003 C 
HETATM   16  C21 UNL     1       7.000  -1.285  -0.623  1.00  0.00     0.030 C 
HETATM   17  C22 UNL     1       6.246  -0.399  -1.593  1.00  0.00     0.272 C 
ENDBRANCH  11  12
ENDBRANCH  10  11
ENDBRANCH   7  10
ENDBRANCH   3   4
ENDBRANCH   1   2
BRANCH   1  18
HETATM   18  C5  UNL     1      -3.111   0.131   0.336  1.00  0.00     0.072 A 
HETATM   19  N2  UNL     1      -2.013  -0.563   0.069  1.00  0.00    -0.241 NA
HETATM   20  C6  UNL     1      -1.906  -1.559  -0.806  1.00  0.00     0.235 A 
HETATM   21  N3  UNL     1      -3.048  -1.860  -1.465  1.00  0.00    -0.224 NA
HETATM   22  C7  UNL     1      -4.189  -1.175  -1.222  1.00  0.00     0.138 A 
HETATM   23  C8  UNL     1      -4.266  -0.161  -0.319  1.00  0.00     0.043 A 
HETATM   24  N4  UNL     1      -5.445  -1.386  -1.835  1.00  0.00    -0.362 N 
HETATM   25  C9  UNL     1      -5.501   0.293  -0.278  1.00  0.00    -0.034 A 
HETATM   26  C10 UNL     1      -5.851   1.352   0.635  1.00  0.00     0.065 C 
HETATM   27  C15 UNL     1      -6.337  -0.416  -1.255  1.00  0.00     0.138 A 
HETATM   28  C11 UNL     1      -7.351   1.559   0.737  1.00  0.00    -0.021 C 
HETATM   29  C12 UNL     1      -8.428   0.819   0.535  1.00  0.00     0.015 C 
HETATM   30  C13 UNL     1      -8.455  -0.573   0.102  1.00  0.00     0.009 C 
HETATM   31 BR1  UNL     1      -9.911  -1.610   0.725  1.00  0.00    -0.051 Br
HETATM   32  C14 UNL     1      -7.516  -1.110  -0.696  1.00  0.00     0.021 C 
HETATM   33  H12 UNL     1      -5.793  -2.051  -2.556  1.00  0.00     0.162 HD
ENDBRANCH   1  18
TORSDOF 6
