REMARK  0 active torsions:
REMARK  status: ('A' for Active; 'I' for Inactive)
ROOT
HETATM    1  F1  UNL     1       0.122  -2.496   1.704  1.00  0.00    -0.206 F 
HETATM    2  C1  UNL     1      -0.917  -1.990   1.039  1.00  0.00     0.120 C 
HETATM    3  C2  UNL     1      -2.101  -1.737   1.577  1.00  0.00     0.035 C 
HETATM    4  C3  UNL     1      -3.407  -1.314   1.014  1.00  0.00     0.148 C 
HETATM    5  N1  UNL     1      -3.356  -0.729  -0.280  1.00  0.00    -0.397 N 
HETATM    6  C4  UNL     1      -2.915  -1.610  -1.326  1.00  0.00     0.146 C 
HETATM    7  C5  UNL     1      -1.439  -1.761  -1.364  1.00  0.00     0.003 C 
HETATM    8  C6  UNL     1      -0.521  -1.780  -0.347  1.00  0.00    -0.016 C 
HETATM    9  C7  UNL     1       0.830  -1.594  -0.827  1.00  0.00     0.041 C 
HETATM   10  C8  UNL     1       1.943  -2.016   0.064  1.00  0.00     0.037 C 
HETATM   11  C9  UNL     1       3.276  -1.721  -0.539  1.00  0.00     0.168 C 
HETATM   12  O1  UNL     1       3.800  -0.520  -0.640  1.00  0.00    -0.389 OA
HETATM   13  C10 UNL     1       4.265   0.306   0.261  1.00  0.00     0.197 C 
HETATM   14  C11 UNL     1       3.535   0.937   1.389  1.00  0.00     0.298 C 
HETATM   15  N2  UNL     1       2.469   1.818   1.193  1.00  0.00     0.108 NA
HETATM   16  C12 UNL     1       1.207   1.248   0.679  1.00  0.00     0.319 C 
HETATM   17  C13 UNL     1       0.242   2.399   0.655  1.00  0.00     0.096 C 
HETATM   18  C14 UNL     1      -1.156   2.067   0.354  1.00  0.00    -0.039 C 
HETATM   19  C15 UNL     1      -1.882   1.004   0.639  1.00  0.00     0.008 C 
HETATM   20  C16 UNL     1      -2.843   0.588  -0.378  1.00  0.00     0.123 C 
HETATM   21  C17 UNL     1      -3.889   1.687  -0.480  1.00  0.00     0.177 C 
HETATM   22  N3  UNL     1      -3.197   2.965  -0.683  1.00  0.00    -0.299 NA
HETATM   23  C18 UNL     1      -1.942   3.095  -0.369  1.00  0.00     0.117 C 
HETATM   24  N4  UNL     1       1.571   0.725  -0.546  1.00  0.00    -0.393 N 
HETATM   25  C19 UNL     1       0.949  -0.171  -1.365  1.00  0.00     0.125 C 
HETATM   26  H16 UNL     1       2.703   2.668   0.633  1.00  0.00     0.318 HD
HETATM   27  H25 UNL     1       2.071   1.494  -1.096  1.00  0.00     0.155 HD
ENDROOT
TORSDOF 0
