REMARK  6 active torsions:
REMARK  status: ('A' for Active; 'I' for Inactive)
REMARK    1  A    between atoms: O1_2  and  C2_3 
REMARK    2  A    between atoms: C5_6  and  C6_7 
REMARK    3  A    between atoms: C6_7  and  N1_8 
REMARK    4  A    between atoms: N1_8  and  C7_9 
REMARK    5  A    between atoms: C7_9  and  C8_10 
REMARK    6  A    between atoms: C16_22  and  N4_23 
ROOT
HETATM    1  N1  UNL     1      -0.557  -0.247  -0.366  1.00  0.00     0.151 N 
HETATM    2  H8  UNL     1      -0.375   0.064   0.615  1.00  0.00     0.323 HD
ENDROOT
BRANCH   1   3
HETATM    3  C6  UNL     1       0.495  -1.100  -0.873  1.00  0.00     0.317 C 
BRANCH   3   4
HETATM    4  C5  UNL     1       1.766  -0.324  -0.650  1.00  0.00    -0.009 A 
HETATM    5  C4  UNL     1       2.528   0.363  -1.569  1.00  0.00     0.013 A 
HETATM    6  C3  UNL     1       3.663   1.020  -1.175  1.00  0.00     0.037 A 
HETATM    7  C2  UNL     1       4.024   0.980   0.149  1.00  0.00     0.070 A 
HETATM    8  C17 UNL     1       3.279   0.295   1.110  1.00  0.00     0.060 A 
HETATM    9  C16 UNL     1       2.130  -0.364   0.679  1.00  0.00     0.016 A 
BRANCH   7  10
HETATM   10  O1  UNL     1       5.186   1.649   0.573  1.00  0.00    -0.356 OA
HETATM   11  C1  UNL     1       5.928   2.337  -0.404  1.00  0.00     0.210 C 
ENDBRANCH   7  10
BRANCH   9  12
HETATM   12  N4  UNL     1       1.454  -1.029   1.750  1.00  0.00    -0.302 NA
HETATM   13  H15 UNL     1       1.428  -2.074   1.615  1.00  0.00     0.124 HD
HETATM   14  H16 UNL     1       1.532  -2.012   1.445  1.00  0.00     0.124 HD
ENDBRANCH   9  12
ENDBRANCH   3   4
ENDBRANCH   1   3
BRANCH   1  15
HETATM   15  C7  UNL     1      -1.883  -0.828  -0.484  1.00  0.00     0.394 A 
HETATM   16  N2  UNL     1      -1.926  -2.029   0.295  1.00  0.00    -0.211 NA
HETATM   17  C14 UNL     1      -2.205  -3.209  -0.098  1.00  0.00     0.234 A 
HETATM   18  N3  UNL     1      -2.516  -3.399  -1.454  1.00  0.00    -0.231 NA
HETATM   19  C15 UNL     1      -2.503  -2.384  -2.225  1.00  0.00     0.258 A 
HETATM   20  O2  UNL     1      -2.203  -1.101  -1.819  1.00  0.00    -0.282 OA
BRANCH  15  21
HETATM   21  C8  UNL     1      -2.812   0.214   0.087  1.00  0.00     0.033 A 
HETATM   22  C9  UNL     1      -4.126  -0.261   0.162  1.00  0.00     0.014 A 
HETATM   23  C10 UNL     1      -5.115   0.562   0.660  1.00  0.00     0.002 A 
HETATM   24  C11 UNL     1      -4.836   1.854   1.090  1.00  0.00     0.019 A 
HETATM   25  C12 UNL     1      -3.539   2.280   0.999  1.00  0.00     0.011 A 
HETATM   26 BR1  UNL     1      -2.951   4.032   1.540  1.00  0.00    -0.051 Br
HETATM   27  C13 UNL     1      -2.541   1.497   0.514  1.00  0.00     0.033 A 
ENDBRANCH  15  21
ENDBRANCH   1  15
TORSDOF 6
