REMARK  4 active torsions:
REMARK  status: ('A' for Active; 'I' for Inactive)
REMARK       I    between atoms: C1_2  and  N1_3 
REMARK       I    between atoms: C1_2  and  N3_12 
REMARK    1  A    between atoms: N1_3  and  C2_4 
REMARK    2  A    between atoms: C2_4  and  C3_5 
REMARK    3  A    between atoms: C3_5  and  N2_6 
REMARK    4  A    between atoms: N3_12  and  C8_13 
ROOT
HETATM    1  O1  UNL     1       1.123  -1.071   0.645  1.00  0.00    -0.247 OA
HETATM    2  C1  UNL     1       0.498  -0.524  -0.332  1.00  0.00     0.320 C 
HETATM    3  N1  UNL     1      -0.946  -0.504  -0.369  1.00  0.00    -0.341 N 
HETATM    4  N3  UNL     1       1.410   0.020  -1.305  1.00  0.00    -0.309 N 
HETATM    5  H1  UNL     1      -1.186  -0.014  -1.241  1.00  0.00     0.164 HD
HETATM    6  H14 UNL     1       0.920   0.477  -2.119  1.00  0.00     0.170 HD
ENDROOT
BRANCH   3   7
HETATM    7  C2  UNL     1      -1.408  -1.172   0.813  1.00  0.00     0.154 C 
BRANCH   7   8
HETATM    8  C3  UNL     1      -2.877  -1.277   0.995  1.00  0.00     0.292 C 
BRANCH   8   9
HETATM    9  N2  UNL     1      -3.508  -0.024   1.072  1.00  0.00     0.094 N 
HETATM   10  C4  UNL     1      -3.558   0.689  -0.149  1.00  0.00     0.298 C 
HETATM   11  C5  UNL     1      -4.909   1.427  -0.306  1.00  0.00     0.198 C 
HETATM   12  O2  UNL     1      -5.953   0.515  -0.248  1.00  0.00    -0.388 OA
HETATM   13  C6  UNL     1      -5.871  -0.400   0.771  1.00  0.00     0.198 C 
HETATM   14  C7  UNL     1      -4.786  -0.021   1.736  1.00  0.00     0.298 C 
ENDBRANCH   8   9
ENDBRANCH   7   8
ENDBRANCH   3   7
BRANCH   4  15
HETATM   15  C8  UNL     1       2.838  -0.090  -1.105  1.00  0.00     0.037 A 
HETATM   16  C9  UNL     1       3.401  -1.264  -1.618  1.00  0.00     0.032 A 
HETATM   17  C10 UNL     1       4.780  -1.420  -1.447  1.00  0.00     0.035 A 
HETATM   18  C11 UNL     1       5.570  -0.486  -0.812  1.00  0.00     0.070 A 
HETATM   19  N4  UNL     1       6.907  -0.671  -0.663  1.00  0.00    -0.241 NA
HETATM   20  C14 UNL     1       4.945   0.652  -0.329  1.00  0.00     0.012 A 
HETATM   21  C12 UNL     1       7.630   0.292  -0.025  1.00  0.00     0.233 A 
HETATM   22  N5  UNL     1       7.094   1.404   0.460  1.00  0.00    -0.253 NA
HETATM   23  C13 UNL     1       5.759   1.595   0.315  1.00  0.00     0.132 A 
HETATM   24  C15 UNL     1       3.580   0.866  -0.467  1.00  0.00     0.044 A 
ENDBRANCH   4  15
TORSDOF 4
