REMARK  4 active torsions:
REMARK  status: ('A' for Active; 'I' for Inactive)
REMARK    1  A    between atoms: C4_4  and  C5_6 
REMARK    2  A    between atoms: C6_7  and  C7_8 
REMARK    3  A    between atoms: C7_8  and  N1_9 
REMARK    4  A    between atoms: N1_9  and  C8_10 
ROOT
HETATM    1  C1  UNL     1       5.196   2.789  -0.805  1.00  0.00     0.017 C 
HETATM    2  C2  UNL     1       5.043   1.574  -0.860  1.00  0.00    -0.086 C 
HETATM    3  C3  UNL     1       4.846   0.154  -0.925  1.00  0.00     0.105 C 
HETATM    4  C4  UNL     1       3.588  -0.229  -1.071  1.00  0.00     0.124 C 
HETATM    5  F1  UNL     1       3.276   1.088  -1.063  1.00  0.00    -0.206 F 
ENDROOT
BRANCH   4   6
HETATM    6  C5  UNL     1       3.002  -1.545  -1.174  1.00  0.00     0.040 C 
HETATM    7  C6  UNL     1       1.734  -1.844  -1.318  1.00  0.00    -0.004 C 
BRANCH   7   8
HETATM    8  C7  UNL     1       0.715  -0.771  -1.393  1.00  0.00     0.148 C 
BRANCH   8   9
HETATM    9  N1  UNL     1      -0.217  -0.954  -0.297  1.00  0.00    -0.371 N 
HETATM   10  H7  UNL     1      -0.077  -1.747   0.359  1.00  0.00     0.161 HD
BRANCH   9  11
HETATM   11  C8  UNL     1      -1.281  -0.003  -0.206  1.00  0.00     0.137 A 
HETATM   12  N2  UNL     1      -1.411   1.002  -1.082  1.00  0.00    -0.224 NA
HETATM   13  C9  UNL     1      -2.401   1.905  -1.016  1.00  0.00     0.235 A 
HETATM   14  N3  UNL     1      -3.359   1.871  -0.044  1.00  0.00    -0.241 NA
HETATM   15  C10 UNL     1      -3.284   0.882   0.871  1.00  0.00     0.072 A 
HETATM   16  C11 UNL     1      -4.235   0.814   1.870  1.00  0.00     0.034 A 
HETATM   17  C15 UNL     1      -2.249  -0.020   0.759  1.00  0.00     0.040 A 
HETATM   18  C12 UNL     1      -4.183  -0.191   2.824  1.00  0.00     0.026 A 
HETATM   19  C13 UNL     1      -3.160  -1.114   2.744  1.00  0.00     0.035 A 
HETATM   20 CL1  UNL     1      -3.118  -2.363   3.952  1.00  0.00    -0.084 Cl
HETATM   21  C14 UNL     1      -2.236  -1.001   1.727  1.00  0.00     0.041 A 
ENDBRANCH   9  11
ENDBRANCH   8   9
ENDBRANCH   7   8
ENDBRANCH   4   6
TORSDOF 4
