REMARK  2 active torsions:
REMARK  status: ('A' for Active; 'I' for Inactive)
REMARK    1  A    between atoms: C4_5  and  N1_6 
REMARK    2  A    between atoms: N1_6  and  C5_7 
ROOT
HETATM    1  C5  UNL     1       3.005   1.035   0.485  1.00  0.00     0.109 C 
HETATM    2  N2  UNL     1       2.545  -0.168   0.220  1.00  0.00    -0.229 NA
HETATM    3  C6  UNL     1       1.208  -0.471   0.567  1.00  0.00     0.228 C 
HETATM    4  N3  UNL     1       0.178  -1.069   0.155  1.00  0.00    -0.283 NA
HETATM    5  C7  UNL     1       0.038  -1.792  -1.094  1.00  0.00     0.152 C 
HETATM    6  C8  UNL     1      -0.836  -3.027  -0.869  1.00  0.00     0.048 C 
HETATM    7  C9  UNL     1      -2.206  -2.520  -0.358  1.00  0.00     0.169 C 
HETATM    8  O1  UNL     1      -2.968  -3.585  -0.030  1.00  0.00    -0.389 OA
HETATM    9  C10 UNL     1      -4.249  -3.355   0.391  1.00  0.00     0.197 C 
HETATM   10  C11 UNL     1      -4.347  -2.398   1.527  1.00  0.00     0.295 C 
HETATM   11  N4  UNL     1      -3.902  -1.062   1.159  1.00  0.00     0.087 N 
HETATM   12  C12 UNL     1      -4.926  -0.524   0.297  1.00  0.00     0.299 C 
HETATM   13  C13 UNL     1      -4.597   0.839  -0.182  1.00  0.00     0.301 C 
HETATM   14  N5  UNL     1      -3.418   0.852  -1.057  1.00  0.00     0.102 N 
HETATM   15  C14 UNL     1      -3.261   2.207  -1.570  1.00  0.00     0.392 C 
HETATM   16  N6  UNL     1      -2.866   3.162  -0.571  1.00  0.00    -0.375 N 
HETATM   17  C15 UNL     1      -1.478   3.001  -0.204  1.00  0.00     0.084 C 
HETATM   18  C16 UNL     1      -0.359   3.653  -0.515  1.00  0.00     0.016 C 
HETATM   19  C17 UNL     1       1.075   3.892  -0.452  1.00  0.00    -0.002 C 
HETATM   20  C18 UNL     1       1.961   3.194   0.235  1.00  0.00    -0.019 C 
HETATM   21  C19 UNL     1       2.098   2.052   1.137  1.00  0.00     0.105 C 
HETATM   22  H15 UNL     1      -3.893  -0.487   2.037  1.00  0.00     0.316 HD
HETATM   23  H20 UNL     1      -3.660   0.190  -1.827  1.00  0.00     0.318 HD
HETATM   24  H23 UNL     1      -2.863   3.934   0.121  1.00  0.00     0.160 HD
ENDROOT
BRANCH   1  25
HETATM   25  N1  UNL     1       4.329   1.255   0.112  1.00  0.00    -0.344 N 
HETATM   26  H3  UNL     1       4.526   2.221  -0.231  1.00  0.00     0.167 HD
BRANCH  25  27
HETATM   27  C4  UNL     1       5.340   0.266   0.189  1.00  0.00     0.035 A 
HETATM   28  C3  UNL     1       6.585   0.636  -0.323  1.00  0.00     0.032 A 
HETATM   29  C2  UNL     1       7.738  -0.153  -0.354  1.00  0.00     0.046 A 
HETATM   30  C1  UNL     1       7.593  -1.433   0.190  1.00  0.00     0.138 A 
HETATM   31  F1  UNL     1       8.683  -2.238   0.181  1.00  0.00    -0.204 F 
HETATM   32  C21 UNL     1       6.385  -1.829   0.701  1.00  0.00     0.074 A 
HETATM   33  C20 UNL     1       5.292  -1.002   0.700  1.00  0.00     0.056 A 
HETATM   34 CL1  UNL     1       6.212  -3.445   1.386  1.00  0.00    -0.081 Cl
ENDBRANCH  25  27
ENDBRANCH   1  25
TORSDOF 2
