REMARK  7 active torsions:
REMARK  status: ('A' for Active; 'I' for Inactive)
REMARK    1  A    between atoms: C2_2  and  N1_3 
REMARK    2  A    between atoms: C2_2  and  N2_7 
REMARK    3  A    between atoms: N1_3  and  C3_4 
REMARK    4  A    between atoms: C3_4  and  C4_5 
REMARK    5  A    between atoms: N2_7  and  C5_8 
REMARK    6  A    between atoms: C10_14  and  N4_15 
REMARK    7  A    between atoms: N4_15  and  C11_16 
ROOT
HETATM    1  C5  UNL     1       0.799  -0.656  -0.837  1.00  0.00     0.022 A 
HETATM    2  C6  UNL     1       0.763  -1.935  -1.270  1.00  0.00     0.026 A 
HETATM    3  C7  UNL     1      -0.319  -2.182  -2.249  1.00  0.00     0.008 A 
HETATM    4  C8  UNL     1      -0.936  -1.011  -2.391  1.00  0.00    -0.043 A 
HETATM    5  C9  UNL     1      -1.944  -0.012  -2.915  1.00  0.00     0.186 C 
HETATM    6  N3  UNL     1      -2.467   0.419  -1.601  1.00  0.00    -0.271 NA
HETATM    7  C10 UNL     1      -1.454   0.448  -0.749  1.00  0.00     0.113 C 
HETATM    8  C17 UNL     1      -0.269   0.043  -1.535  1.00  0.00     0.135 A 
ENDROOT
BRANCH   7   9
HETATM    9  N4  UNL     1      -1.744   0.846   0.611  1.00  0.00    -0.344 N 
HETATM   10  H15 UNL     1      -0.865   1.200   1.085  1.00  0.00     0.167 HD
BRANCH   9  11
HETATM   11  C11 UNL     1      -3.084   0.722   1.110  1.00  0.00     0.035 A 
HETATM   12  C12 UNL     1      -4.020   1.721   0.897  1.00  0.00     0.032 A 
HETATM   13  C13 UNL     1      -5.322   1.652   1.351  1.00  0.00     0.046 A 
HETATM   14  C14 UNL     1      -5.735   0.526   2.063  1.00  0.00     0.138 A 
HETATM   15  F1  UNL     1      -7.003   0.429   2.517  1.00  0.00    -0.204 F 
HETATM   16  C15 UNL     1      -4.827  -0.485   2.290  1.00  0.00     0.074 A 
HETATM   17 CL2  UNL     1      -5.339  -1.912   3.193  1.00  0.00    -0.081 Cl
HETATM   18  C16 UNL     1      -3.549  -0.362   1.817  1.00  0.00     0.056 A 
ENDBRANCH   9  11
ENDBRANCH   7   9
BRANCH   1  19
HETATM   19  N2  UNL     1       1.893  -0.557   0.104  1.00  0.00    -0.372 N 
HETATM   20  H10 UNL     1       1.347  -0.538   1.007  1.00  0.00     0.161 HD
BRANCH  19  21
HETATM   21  C2  UNL     1       3.198  -0.527  -0.523  1.00  0.00     0.172 C 
HETATM   22  C1  UNL     1       3.380   0.672  -1.448  1.00  0.00     0.055 C 
BRANCH  21  23
HETATM   23  N1  UNL     1       4.307  -0.784   0.313  1.00  0.00    -0.401 N 
HETATM   24  H5  UNL     1       4.975  -1.509   0.032  1.00  0.00     0.155 HD
BRANCH  23  25
HETATM   25  C3  UNL     1       4.842   0.286   1.078  1.00  0.00     0.131 C 
BRANCH  25  26
HETATM   26  C4  UNL     1       3.890   0.738   2.159  1.00  0.00     0.134 C 
HETATM   27 CL1  UNL     1       4.626   2.087   3.090  1.00  0.00    -0.129 Cl
ENDBRANCH  25  26
ENDBRANCH  23  25
ENDBRANCH  21  23
ENDBRANCH  19  21
ENDBRANCH   1  19
TORSDOF 7
