REMARK  6 active torsions:
REMARK  status: ('A' for Active; 'I' for Inactive)
REMARK       I    between atoms: C1_2  and  N1_3 
REMARK       I    between atoms: C1_2  and  N3_12 
REMARK    1  A    between atoms: N1_3  and  C2_4 
REMARK    2  A    between atoms: C2_4  and  C3_5 
REMARK    3  A    between atoms: C3_5  and  N2_6 
REMARK    4  A    between atoms: N3_12  and  C9_13 
REMARK    5  A    between atoms: C14_20  and  N6_21 
REMARK    6  A    between atoms: N6_21  and  C15_22 
ROOT
HETATM    1  C9  UNL     1       1.724  -0.805   1.721  1.00  0.00     0.037 A 
HETATM    2  C10 UNL     1       1.803  -0.978   3.098  1.00  0.00     0.032 A 
HETATM    3  C11 UNL     1       2.790  -0.318   3.795  1.00  0.00     0.035 A 
HETATM    4  C12 UNL     1       3.709   0.513   3.185  1.00  0.00     0.072 A 
HETATM    5  N4  UNL     1       4.656   1.146   3.867  1.00  0.00    -0.241 NA
HETATM    6  C13 UNL     1       5.538   1.955   3.216  1.00  0.00     0.236 A 
HETATM    7  N5  UNL     1       5.482   2.139   1.883  1.00  0.00    -0.224 NA
HETATM    8  C14 UNL     1       4.546   1.528   1.128  1.00  0.00     0.142 A 
HETATM    9  C21 UNL     1       3.657   0.708   1.805  1.00  0.00     0.041 A 
HETATM   10  C22 UNL     1       2.656   0.031   1.140  1.00  0.00     0.047 A 
ENDROOT
BRANCH   1  11
HETATM   11  N3  UNL     1       0.751  -1.421   0.847  1.00  0.00    -0.309 N 
HETATM   12  C1  UNL     1      -0.396  -0.622   0.706  1.00  0.00     0.320 C 
HETATM   13  O1  UNL     1      -0.334   0.466   1.372  1.00  0.00    -0.247 OA
HETATM   14  N1  UNL     1      -1.536  -0.936  -0.080  1.00  0.00    -0.341 N 
HETATM   15  H1  UNL     1      -1.435  -1.867  -0.568  1.00  0.00     0.164 HD
HETATM   16  H16 UNL     1       0.774  -2.345   0.322  1.00  0.00     0.170 HD
BRANCH  14  17
HETATM   17  C2  UNL     1      -2.692  -0.038  -0.170  1.00  0.00     0.154 C 
BRANCH  17  18
HETATM   18  C3  UNL     1      -3.760  -0.584  -1.053  1.00  0.00     0.292 C 
BRANCH  18  19
HETATM   19  N2  UNL     1      -4.855   0.360  -1.085  1.00  0.00     0.090 N 
HETATM   20  C4  UNL     1      -5.945  -0.065  -1.911  1.00  0.00     0.272 C 
HETATM   21  C5  UNL     1      -6.946  -0.923  -1.184  1.00  0.00     0.030 C 
HETATM   22  C6  UNL     1      -7.486  -0.159  -0.005  1.00  0.00     0.003 C 
HETATM   23  C7  UNL     1      -6.696   1.127   0.202  1.00  0.00     0.030 C 
HETATM   24  C8  UNL     1      -5.226   0.756   0.236  1.00  0.00     0.272 C 
ENDBRANCH  18  19
ENDBRANCH  17  18
ENDBRANCH  14  17
ENDBRANCH   1  11
BRANCH   8  25
HETATM   25  N6  UNL     1       4.401   1.656  -0.283  1.00  0.00    -0.340 N 
HETATM   26  H20 UNL     1       3.828   2.334  -0.801  1.00  0.00     0.167 HD
BRANCH  25  27
HETATM   27  C15 UNL     1       5.161   0.704  -1.023  1.00  0.00     0.035 A 
HETATM   28  C16 UNL     1       5.962  -0.236  -0.420  1.00  0.00     0.032 A 
HETATM   29  C17 UNL     1       6.714  -1.175  -1.111  1.00  0.00     0.046 A 
HETATM   30  C18 UNL     1       6.639  -1.143  -2.476  1.00  0.00     0.138 A 
HETATM   31  F1  UNL     1       7.335  -2.017  -3.268  1.00  0.00    -0.204 F 
HETATM   32  C19 UNL     1       5.854  -0.225  -3.182  1.00  0.00     0.074 A 
HETATM   33 CL1  UNL     1       5.790  -0.223  -4.928  1.00  0.00    -0.081 Cl
HETATM   34  C20 UNL     1       5.134   0.677  -2.418  1.00  0.00     0.056 A 
ENDBRANCH  25  27
ENDBRANCH   8  25
TORSDOF 6
