REMARK  3 active torsions:
REMARK  status: ('A' for Active; 'I' for Inactive)
REMARK    1  A    between atoms: N1_2  and  C2_3 
REMARK    2  A    between atoms: C14_19  and  C15_20 
REMARK    3  A    between atoms: C15_20  and  N4_21 
ROOT
HETATM    1  C2  UNL     1       0.824  -1.595  -1.662  1.00  0.00     0.122 C 
HETATM    2  C3  UNL     1       1.780  -1.352  -0.867  1.00  0.00     0.126 C 
HETATM    3  C4  UNL     1       1.926  -1.300   0.507  1.00  0.00     0.028 C 
HETATM    4  C5  UNL     1       2.748  -1.053   1.460  1.00  0.00     0.036 C 
HETATM    5  C6  UNL     1       3.822  -0.703   0.471  1.00  0.00     0.079 C 
HETATM    6  C7  UNL     1       3.206   0.607  -0.082  1.00  0.00     0.126 C 
HETATM    7  N2  UNL     1       2.101   0.945   0.851  1.00  0.00    -0.390 N 
HETATM    8  C8  UNL     1       1.299   1.964   0.261  1.00  0.00     0.029 C 
HETATM    9  C9  UNL     1       1.875   3.016   0.658  1.00  0.00     0.033 C 
HETATM   10  C10 UNL     1       2.987   3.026   1.472  1.00  0.00     0.051 C 
HETATM   11  C11 UNL     1       4.002   2.954   2.219  1.00  0.00     0.149 A 
HETATM   12  F1  UNL     1       5.071   2.940   3.003  1.00  0.00    -0.290 F 
HETATM   13  S1  UNL     1       4.802   1.746   3.227  1.00  0.00     0.028 SA
HETATM   14  C12 UNL     1       4.094   0.121   3.073  1.00  0.00     0.188 C 
HETATM   15  N3  UNL     1       3.433  -0.842   2.542  1.00  0.00    -0.257 NA
HETATM   16  C13 UNL     1       0.270   1.260  -0.452  1.00  0.00     0.055 C 
HETATM   17  C14 UNL     1      -0.427   0.244  -0.926  1.00  0.00     0.027 C 
HETATM   18  N5  UNL     1      -0.276  -1.217  -0.775  1.00  0.00    -0.365 N 
HETATM   19  H9  UNL     1       1.656   0.732   1.786  1.00  0.00     0.159 HD
HETATM   20  H24 UNL     1      -1.050  -1.415  -0.060  1.00  0.00     0.162 HD
ENDROOT
BRANCH  17  21
HETATM   21  C15 UNL     1      -1.633   0.505  -1.770  1.00  0.00     0.182 C 
BRANCH  21  22
HETATM   22  N4  UNL     1      -2.863  -0.020  -1.211  1.00  0.00    -0.347 N 
HETATM   23  C16 UNL     1      -3.625  -1.254  -1.296  1.00  0.00     0.126 C 
HETATM   24  C17 UNL     1      -4.027  -1.678   0.107  1.00  0.00     0.020 C 
HETATM   25  C18 UNL     1      -5.151  -0.774   0.542  1.00  0.00     0.011 C 
HETATM   26  C19 UNL     1      -4.820   0.686   0.345  1.00  0.00     0.103 C 
HETATM   27  C20 UNL     1      -3.539   0.927  -0.342  1.00  0.00     0.220 C 
HETATM   28  O1  UNL     1      -3.054   2.069  -0.106  1.00  0.00    -0.273 OA
ENDBRANCH  21  22
ENDBRANCH  17  21
BRANCH   1  29
HETATM   29  N1  UNL     1      -0.299  -1.877  -2.464  1.00  0.00    -0.282 NA
HETATM   30  C1  UNL     1      -0.591  -3.031  -2.948  1.00  0.00     0.145 C 
ENDBRANCH   1  29
TORSDOF 3
