REMARK  8 active torsions:
REMARK  status: ('A' for Active; 'I' for Inactive)
REMARK    1  A    between atoms: C6_7  and  C7_8 
REMARK    2  A    between atoms: C7_8  and  N2_9 
REMARK       I    between atoms: N2_9  and  C8_10 
REMARK       I    between atoms: C8_10  and  N3_12 
REMARK    3  A    between atoms: N3_12  and  C9_13 
REMARK    4  A    between atoms: C9_13  and  C10_14 
REMARK    5  A    between atoms: C9_13  and  C21_29 
REMARK    6  A    between atoms: C10_14  and  C11_15 
REMARK    7  A    between atoms: C14_20  and  C15_21 
REMARK    8  A    between atoms: C21_29  and  N6_30 
ROOT
HETATM    1  C9  UNL     1      -1.130  -1.482  -1.001  1.00  0.00     0.137 C 
ENDROOT
BRANCH   1   2
HETATM    2  N3  UNL     1       0.137  -0.902  -0.558  1.00  0.00    -0.334 N 
HETATM    3  C8  UNL     1       1.097  -1.442   0.342  1.00  0.00     0.316 C 
HETATM    4  N2  UNL     1       2.230  -0.601   0.552  1.00  0.00    -0.341 N 
HETATM    5  O1  UNL     1       0.923  -2.565   0.883  1.00  0.00    -0.247 OA
HETATM    6  H13 UNL     1       2.354   0.316   0.100  1.00  0.00     0.164 HD
HETATM    7  H14 UNL     1       0.178   0.013  -1.060  1.00  0.00     0.165 HD
BRANCH   4   8
HETATM    8  C7  UNL     1       3.273  -1.048   1.450  1.00  0.00     0.164 C 
BRANCH   8   9
HETATM    9  C6  UNL     1       4.394  -0.038   1.556  1.00  0.00     0.266 C 
HETATM   10  C2  UNL     1       5.018   0.200   0.225  1.00  0.00    -0.055 C 
HETATM   11  C1  UNL     1       5.505  -0.843  -0.457  1.00  0.00     0.016 C 
HETATM   12  C3  UNL     1       5.055   1.601  -0.259  1.00  0.00     0.037 C 
HETATM   13  C4  UNL     1       5.690   2.446   0.826  1.00  0.00     0.034 C 
HETATM   14  C5  UNL     1       5.129   2.083   2.162  1.00  0.00     0.271 C 
HETATM   15  N1  UNL     1       3.931   1.245   2.028  1.00  0.00     0.093 N 
HETATM   16  H9  UNL     1       3.567   1.110   3.001  1.00  0.00     0.316 HD
ENDBRANCH   8   9
ENDBRANCH   4   8
ENDBRANCH   1   2
BRANCH   1  17
HETATM   17  C10 UNL     1      -2.332  -0.726  -0.606  1.00  0.00     0.011 C 
BRANCH  17  18
HETATM   18  C11 UNL     1      -3.261  -1.185   0.195  1.00  0.00    -0.010 A 
HETATM   19  C12 UNL     1      -2.995  -2.533   0.669  1.00  0.00     0.191 A 
HETATM   20  N4  UNL     1      -4.036  -2.944   1.591  1.00  0.00    -0.278 NA
HETATM   21  C13 UNL     1      -4.992  -2.146   1.841  1.00  0.00     0.227 A 
HETATM   22  N5  UNL     1      -5.214  -0.851   1.338  1.00  0.00    -0.241 NA
HETATM   23  C14 UNL     1      -4.382  -0.326   0.512  1.00  0.00     0.076 A 
BRANCH  23  24
HETATM   24  C15 UNL     1      -4.689   1.003   0.046  1.00  0.00    -0.005 A 
HETATM   25  C16 UNL     1      -5.857   1.563   0.579  1.00  0.00     0.017 A 
HETATM   26  C17 UNL     1      -6.325   2.814   0.259  1.00  0.00     0.045 A 
HETATM   27  C18 UNL     1      -5.646   3.605  -0.632  1.00  0.00     0.138 A 
HETATM   28  F1  UNL     1      -6.105   4.836  -0.949  1.00  0.00    -0.204 F 
HETATM   29  C19 UNL     1      -4.500   3.135  -1.197  1.00  0.00     0.073 A 
HETATM   30 CL1  UNL     1      -3.566   4.066  -2.341  1.00  0.00    -0.081 Cl
HETATM   31  C20 UNL     1      -4.112   1.884  -0.820  1.00  0.00     0.041 A 
ENDBRANCH  23  24
ENDBRANCH  17  18
ENDBRANCH   1  17
BRANCH   1  32
HETATM   32  C21 UNL     1      -1.098  -1.902  -2.458  1.00  0.00     0.295 C 
BRANCH  32  33
HETATM   33  N6  UNL     1      -0.067  -2.899  -2.678  1.00  0.00     0.080 N 
HETATM   34  H25 UNL     1      -0.266  -3.680  -1.987  1.00  0.00     0.312 HD
HETATM   35  H26 UNL     1      -0.243  -3.311  -3.624  1.00  0.00     0.312 HD
ENDBRANCH  32  33
ENDBRANCH   1  32
TORSDOF 8
