REMARK  6 active torsions:
REMARK  status: ('A' for Active; 'I' for Inactive)
REMARK    1  A    between atoms: N1_1  and  C1_2 
REMARK    2  A    between atoms: N2_7  and  C6_8 
REMARK    3  A    between atoms: C6_8  and  N3_9 
REMARK       I    between atoms: N3_9  and  C7_10 
REMARK    4  A    between atoms: C7_10  and  C8_12 
REMARK    5  A    between atoms: C13_19  and  N6_20 
REMARK    6  A    between atoms: N6_20  and  C14_21 
ROOT
HETATM    1  C8  UNL     1       0.256  -0.839   0.630  1.00  0.00     0.033 A 
HETATM    2  C9  UNL     1      -0.268  -0.609   1.893  1.00  0.00     0.019 A 
HETATM    3  C10 UNL     1       0.358   0.240   2.777  1.00  0.00     0.034 A 
HETATM    4  C11 UNL     1       1.518   0.841   2.342  1.00  0.00     0.072 A 
HETATM    5  N4  UNL     1       2.151   1.677   3.184  1.00  0.00    -0.241 NA
HETATM    6  C12 UNL     1       3.294   2.270   2.748  1.00  0.00     0.236 A 
HETATM    7  N5  UNL     1       3.860   2.085   1.510  1.00  0.00    -0.224 NA
HETATM    8  C13 UNL     1       3.236   1.240   0.637  1.00  0.00     0.142 A 
HETATM    9  C20 UNL     1       2.062   0.628   1.082  1.00  0.00     0.040 A 
HETATM   10  C21 UNL     1       1.415  -0.239   0.196  1.00  0.00     0.034 A 
ENDROOT
BRANCH   1  11
HETATM   11  C7  UNL     1      -0.518  -1.715  -0.273  1.00  0.00     0.253 C 
HETATM   12  N3  UNL     1      -1.946  -1.515  -0.227  1.00  0.00    -0.331 N 
HETATM   13  H14 UNL     1      -2.241  -0.745   0.445  1.00  0.00     0.164 HD
HETATM   14  O1  UNL     1      -0.215  -2.616  -1.103  1.00  0.00    -0.268 OA
BRANCH  12  15
HETATM   15  C6  UNL     1      -3.104  -2.079  -0.877  1.00  0.00     0.400 C 
BRANCH  15  16
HETATM   16  N2  UNL     1      -4.344  -1.414  -0.536  1.00  0.00     0.139 N 
HETATM   17  C1  UNL     1      -4.443  -0.118  -1.177  1.00  0.00     0.453 C 
HETATM   18  C2  UNL     1      -4.523   1.037  -0.234  1.00  0.00     0.068 C 
HETATM   19  C3  UNL     1      -5.755   0.845   0.621  1.00  0.00     0.006 C 
HETATM   20  C4  UNL     1      -5.875  -0.564   1.143  1.00  0.00     0.030 C 
HETATM   21  C5  UNL     1      -4.685  -1.412   0.838  1.00  0.00     0.277 C 
BRANCH  17  22
HETATM   22  N1  UNL     1      -3.331   0.059  -2.109  1.00  0.00     0.112 N 
HETATM   23  H1  UNL     1      -3.614  -0.422  -3.008  1.00  0.00     0.315 HD
HETATM   24  H2  UNL     1      -3.325   1.082  -2.326  1.00  0.00     0.315 HD
ENDBRANCH  17  22
ENDBRANCH  15  16
ENDBRANCH  12  15
ENDBRANCH   1  11
BRANCH   8  25
HETATM   25  N6  UNL     1       3.617   0.874  -0.709  1.00  0.00    -0.340 N 
HETATM   26  H18 UNL     1       2.921   0.906  -1.491  1.00  0.00     0.167 HD
BRANCH  25  27
HETATM   27  C14 UNL     1       4.988   0.524  -0.736  1.00  0.00     0.035 A 
HETATM   28  C15 UNL     1       5.498  -0.744  -1.002  1.00  0.00     0.032 A 
HETATM   29  C16 UNL     1       6.856  -0.942  -1.015  1.00  0.00     0.046 A 
HETATM   30  C17 UNL     1       7.715   0.096  -0.771  1.00  0.00     0.138 A 
HETATM   31  F1  UNL     1       9.057  -0.173  -0.799  1.00  0.00    -0.204 F 
HETATM   32  C18 UNL     1       7.220   1.371  -0.505  1.00  0.00     0.074 A 
HETATM   33 CL1  UNL     1       8.349   2.685  -0.197  1.00  0.00    -0.081 Cl
HETATM   34  C19 UNL     1       5.855   1.557  -0.494  1.00  0.00     0.056 A 
ENDBRANCH  25  27
ENDBRANCH   8  25
TORSDOF 6
