REMARK  5 active torsions:
REMARK  status: ('A' for Active; 'I' for Inactive)
REMARK    1  A    between atoms: C4_4  and  C5_5 
REMARK    2  A    between atoms: C6_6  and  N1_7 
REMARK       I    between atoms: N1_7  and  C7_8 
REMARK       I    between atoms: C7_8  and  N2_10 
REMARK    3  A    between atoms: N2_10  and  C8_11 
REMARK    4  A    between atoms: C8_11  and  C9_12 
REMARK    5  A    between atoms: C9_12  and  C10_13 
ROOT
HETATM    1  N1  UNL     1      -1.116   0.202  -1.130  1.00  0.00    -0.319 N 
HETATM    2  C7  UNL     1       0.057  -0.263  -0.433  1.00  0.00     0.320 C 
HETATM    3  O1  UNL     1       0.280  -1.520  -0.472  1.00  0.00    -0.247 OA
HETATM    4  N2  UNL     1       0.979   0.578   0.291  1.00  0.00    -0.343 N 
HETATM    5  H6  UNL     1      -1.202   1.253  -1.033  1.00  0.00     0.170 HD
HETATM    6  H7  UNL     1       0.749   1.599   0.290  1.00  0.00     0.164 HD
ENDROOT
BRANCH   1   7
HETATM    7  C6  UNL     1      -1.839  -0.841  -1.754  1.00  0.00     0.095 C 
HETATM    8  C5  UNL     1      -3.099  -1.077  -1.421  1.00  0.00     0.049 C 
BRANCH   8   9
HETATM    9  C4  UNL     1      -3.773  -0.277  -0.410  1.00  0.00     0.061 A 
HETATM   10  C3  UNL     1      -5.045  -0.509  -0.067  1.00  0.00     0.060 A 
HETATM   11  C2  UNL     1      -5.777   0.256   0.937  1.00  0.00     0.025 A 
HETATM   12  C1  UNL     1      -7.026  -0.010   1.240  1.00  0.00     0.043 C 
HETATM   13  N5  UNL     1      -5.067   1.310   1.577  1.00  0.00    -0.351 N 
HETATM   14  C13 UNL     1      -3.707   1.513   1.171  1.00  0.00     0.208 A 
HETATM   15  H19 UNL     1      -5.520   1.909   2.311  1.00  0.00     0.166 HD
HETATM   16  N4  UNL     1      -3.137   0.789   0.273  1.00  0.00    -0.244 NA
ENDBRANCH   8   9
ENDBRANCH   1   7
BRANCH   4  17
HETATM   17  C8  UNL     1       2.117   0.025   0.951  1.00  0.00     0.127 C 
BRANCH  17  18
HETATM   18  C9  UNL     1       3.078  -0.697   0.057  1.00  0.00     0.055 C 
BRANCH  18  19
HETATM   19  C10 UNL     1       3.673   0.122  -1.019  1.00  0.00     0.162 C 
HETATM   20  C11 UNL     1       4.476   1.321  -0.650  1.00  0.00     0.154 C 
HETATM   21  N3  UNL     1       5.674   0.571  -0.962  1.00  0.00    -0.198 NA
HETATM   22  C12 UNL     1       6.406   0.181   0.203  1.00  0.00     0.143 C 
HETATM   23  O2  UNL     1       4.881  -0.380  -1.507  1.00  0.00    -0.297 OA
ENDBRANCH  18  19
ENDBRANCH  17  18
ENDBRANCH   4  17
TORSDOF 5
