REMARK  7 active torsions:
REMARK  status: ('A' for Active; 'I' for Inactive)
REMARK    1  A    between atoms: O1_2  and  C2_3 
REMARK    2  A    between atoms: C6_9  and  N3_10 
REMARK    3  A    between atoms: N3_10  and  C7_11 
REMARK    4  A    between atoms: C15_21  and  O2_22 
REMARK    5  A    between atoms: O2_22  and  C16_23 
REMARK    6  A    between atoms: C16_23  and  C17_24 
REMARK    7  A    between atoms: C17_24  and  N4_25 
ROOT
HETATM    1  C2  UNL     1      -0.472  -2.706  -0.262  1.00  0.00     0.103 A 
HETATM    2  C3  UNL     1       0.536  -3.047  -1.169  1.00  0.00     0.072 A 
HETATM    3  C4  UNL     1       1.601  -2.190  -1.281  1.00  0.00     0.075 A 
HETATM    4  N1  UNL     1       2.562  -2.534  -2.141  1.00  0.00    -0.241 NA
HETATM    5  C5  UNL     1       3.640  -1.760  -2.300  1.00  0.00     0.236 A 
HETATM    6  N2  UNL     1       3.715  -0.649  -1.575  1.00  0.00    -0.224 NA
HETATM    7  C6  UNL     1       2.821  -0.203  -0.688  1.00  0.00     0.142 A 
HETATM    8  C13 UNL     1       1.755  -1.023  -0.571  1.00  0.00     0.042 A 
HETATM    9  C14 UNL     1       0.710  -0.786   0.288  1.00  0.00     0.057 A 
HETATM   10  C15 UNL     1      -0.425  -1.541   0.517  1.00  0.00     0.103 A 
ENDROOT
BRANCH   7  11
HETATM   11  N3  UNL     1       2.945   0.969   0.096  1.00  0.00    -0.340 N 
HETATM   12  H6  UNL     1       2.197   1.345   0.676  1.00  0.00     0.167 HD
BRANCH  11  13
HETATM   13  C7  UNL     1       4.094   1.801   0.205  1.00  0.00     0.035 A 
HETATM   14  C8  UNL     1       4.096   3.109   0.709  1.00  0.00     0.032 A 
HETATM   15  C9  UNL     1       5.226   3.858   0.810  1.00  0.00     0.046 A 
HETATM   16  C10 UNL     1       6.457   3.361   0.416  1.00  0.00     0.138 A 
HETATM   17  F1  UNL     1       7.596   4.095   0.512  1.00  0.00    -0.204 F 
HETATM   18  C11 UNL     1       6.539   2.061  -0.098  1.00  0.00     0.074 A 
HETATM   19 CL1  UNL     1       8.091   1.413  -0.607  1.00  0.00    -0.081 Cl
HETATM   20  C12 UNL     1       5.340   1.360  -0.170  1.00  0.00     0.056 A 
ENDBRANCH  11  13
ENDBRANCH   7  11
BRANCH  10  21
HETATM   21  O2  UNL     1      -1.399  -1.362   1.287  1.00  0.00    -0.347 OA
BRANCH  21  22
HETATM   22  C16 UNL     1      -2.416  -1.173   2.090  1.00  0.00     0.206 C 
BRANCH  22  23
HETATM   23  C17 UNL     1      -3.310   0.034   1.955  1.00  0.00     0.299 C 
BRANCH  23  24
HETATM   24  N4  UNL     1      -3.998   0.224   0.748  1.00  0.00     0.094 N 
HETATM   25  C18 UNL     1      -3.206   0.627  -0.354  1.00  0.00     0.298 C 
HETATM   26  C19 UNL     1      -3.490   2.074  -0.754  1.00  0.00     0.198 C 
HETATM   27  O3  UNL     1      -4.803   2.331  -1.031  1.00  0.00    -0.388 OA
HETATM   28  C20 UNL     1      -5.726   1.529  -0.395  1.00  0.00     0.198 C 
HETATM   29  C21 UNL     1      -5.169   1.024   0.908  1.00  0.00     0.298 C 
ENDBRANCH  23  24
ENDBRANCH  22  23
ENDBRANCH  21  22
ENDBRANCH  10  21
BRANCH   1  30
HETATM   30  O1  UNL     1      -1.536  -3.610  -0.184  1.00  0.00    -0.353 OA
HETATM   31  C1  UNL     1      -1.614  -4.770  -0.948  1.00  0.00     0.210 C 
ENDBRANCH   1  30
TORSDOF 7
