REMARK  8 active torsions:
REMARK  status: ('A' for Active; 'I' for Inactive)
REMARK    1  A    between atoms: O1_2  and  C2_3 
REMARK    2  A    between atoms: C6_9  and  N3_10 
REMARK    3  A    between atoms: N3_10  and  C7_11 
REMARK    4  A    between atoms: N4_21  and  O2_22 
REMARK    5  A    between atoms: O2_22  and  C15_23 
REMARK    6  A    between atoms: C15_23  and  C16_24 
REMARK    7  A    between atoms: C16_24  and  C17_25 
REMARK    8  A    between atoms: C17_25  and  N5_26 
ROOT
HETATM    1  C2  UNL     1      -0.098  -1.791  -1.550  1.00  0.00     0.166 A 
HETATM    2  C3  UNL     1       0.922  -2.085  -2.339  1.00  0.00     0.090 A 
HETATM    3  C4  UNL     1       2.264  -1.615  -2.029  1.00  0.00     0.074 A 
HETATM    4  N1  UNL     1       3.243  -1.959  -2.885  1.00  0.00    -0.241 NA
HETATM    5  C5  UNL     1       4.516  -1.573  -2.685  1.00  0.00     0.235 A 
HETATM    6  N2  UNL     1       4.774  -0.832  -1.599  1.00  0.00    -0.224 NA
HETATM    7  C6  UNL     1       3.868  -0.443  -0.696  1.00  0.00     0.139 A 
HETATM    8  C13 UNL     1       2.573  -0.852  -0.925  1.00  0.00     0.037 A 
HETATM    9  C14 UNL     1       1.509  -0.477   0.008  1.00  0.00     0.203 A 
HETATM   10  N4  UNL     1       0.229  -1.005  -0.415  1.00  0.00    -0.232 N 
ENDROOT
BRANCH   7  11
HETATM   11  N3  UNL     1       4.133   0.340   0.455  1.00  0.00    -0.340 N 
HETATM   12  H6  UNL     1       3.321   0.580   1.094  1.00  0.00     0.167 HD
BRANCH  11  13
HETATM   13  C7  UNL     1       5.362   0.879   0.906  1.00  0.00     0.035 A 
HETATM   14  C8  UNL     1       5.461   1.643   2.074  1.00  0.00     0.032 A 
HETATM   15  C9  UNL     1       6.644   2.171   2.523  1.00  0.00     0.046 A 
HETATM   16  C10 UNL     1       7.817   1.969   1.831  1.00  0.00     0.138 A 
HETATM   17  F1  UNL     1       8.948   2.514   2.324  1.00  0.00    -0.204 F 
HETATM   18  C11 UNL     1       7.784   1.223   0.672  1.00  0.00     0.074 A 
HETATM   19 CL1  UNL     1       9.274   0.969  -0.204  1.00  0.00    -0.081 Cl
HETATM   20  C12 UNL     1       6.569   0.717   0.266  1.00  0.00     0.056 A 
ENDBRANCH  11  13
ENDBRANCH   7  11
BRANCH  10  21
HETATM   21  O2  UNL     1      -0.805  -0.681   0.428  1.00  0.00    -0.276 OA
BRANCH  21  22
HETATM   22  C15 UNL     1      -1.260   0.570   0.094  1.00  0.00     0.203 C 
BRANCH  22  23
HETATM   23  C16 UNL     1      -2.412   1.034   0.960  1.00  0.00     0.059 C 
BRANCH  23  24
HETATM   24  C17 UNL     1      -3.550   0.056   0.794  1.00  0.00     0.275 C 
BRANCH  24  25
HETATM   25  N5  UNL     1      -4.716   0.395   1.577  1.00  0.00     0.092 N 
HETATM   26  C18 UNL     1      -5.711  -0.608   1.328  1.00  0.00     0.298 C 
HETATM   27  C19 UNL     1      -7.106  -0.046   1.159  1.00  0.00     0.198 C 
HETATM   28  O3  UNL     1      -7.273   0.914   2.142  1.00  0.00    -0.388 OA
HETATM   29  C20 UNL     1      -6.512   2.021   1.863  1.00  0.00     0.198 C 
HETATM   30  C21 UNL     1      -5.134   1.743   1.352  1.00  0.00     0.298 C 
ENDBRANCH  24  25
ENDBRANCH  23  24
ENDBRANCH  22  23
ENDBRANCH  21  22
ENDBRANCH  10  21
BRANCH   1  31
HETATM   31  O1  UNL     1      -1.408  -2.194  -1.765  1.00  0.00    -0.339 OA
HETATM   32  C1  UNL     1      -1.662  -3.353  -2.574  1.00  0.00     0.211 C 
ENDBRANCH   1  31
TORSDOF 8
