REMARK  5 active torsions:
REMARK  status: ('A' for Active; 'I' for Inactive)
REMARK    1  A    between atoms: C2_2  and  C3_3 
REMARK    2  A    between atoms: C3_3  and  C4_4 
REMARK    3  A    between atoms: C4_4  and  C5_6 
REMARK    4  A    between atoms: C15_19  and  N2_20 
REMARK    5  A    between atoms: N2_20  and  C16_21 
ROOT
HETATM    1  C5  UNL     1       2.174  -0.381  -1.316  1.00  0.00     0.051 C 
HETATM    2  C6  UNL     1       1.674   0.724  -2.163  1.00  0.00     0.087 C 
HETATM    3  C7  UNL     1       0.456   1.413  -1.579  1.00  0.00     0.182 C 
HETATM    4  O1  UNL     1       0.786   1.949  -0.336  1.00  0.00    -0.347 OA
HETATM    5  C8  UNL     1      -0.046   2.810   0.410  1.00  0.00     0.117 A 
HETATM    6  C9  UNL     1      -1.251   2.862   1.008  1.00  0.00     0.065 A 
HETATM    7  C10 UNL     1      -0.987   4.254   1.445  1.00  0.00     0.058 A 
HETATM    8  C11 UNL     1       0.219   4.205   0.847  1.00  0.00     0.071 A 
HETATM    9 CL1  UNL     1       1.364   5.549   0.843  1.00  0.00    -0.081 Cl
HETATM   10  N1  UNL     1      -2.224   1.794   1.042  1.00  0.00    -0.384 N 
HETATM   11  C12 UNL     1      -1.799   0.490   1.519  1.00  0.00     0.147 C 
HETATM   12  C13 UNL     1      -2.878  -0.516   1.513  1.00  0.00    -0.005 C 
HETATM   13  C14 UNL     1      -3.453  -1.627   1.171  1.00  0.00     0.028 C 
HETATM   14  C15 UNL     1      -2.946  -2.664   0.287  1.00  0.00     0.051 C 
HETATM   15  C17 UNL     1      -1.760  -2.508  -0.260  1.00  0.00     0.147 C 
HETATM   16  N3  UNL     1      -0.503  -2.088  -0.688  1.00  0.00    -0.254 NA
HETATM   17  C18 UNL     1       0.588  -2.076   0.043  1.00  0.00     0.207 C 
HETATM   18  N4  UNL     1       1.473  -1.560  -0.944  1.00  0.00    -0.352 N 
HETATM   19  H9  UNL     1      -3.216   1.988   0.721  1.00  0.00     0.160 HD
HETATM   20  H18 UNL     1       1.853  -2.100  -1.770  1.00  0.00     0.166 HD
ENDROOT
BRANCH   1  21
HETATM   21  C4  UNL     1       3.422  -0.321  -0.822  1.00  0.00     0.146 C 
HETATM   22  F1  UNL     1       4.000  -1.248  -0.045  1.00  0.00    -0.203 F 
BRANCH  21  23
HETATM   23  C3  UNL     1       4.404   0.726  -1.008  1.00  0.00     0.095 C 
BRANCH  23  24
HETATM   24  C2  UNL     1       4.830   1.409   0.021  1.00  0.00    -0.152 C 
HETATM   25  C1  UNL     1       5.181   1.884   1.200  1.00  0.00     0.096 C 
ENDBRANCH  23  24
ENDBRANCH  21  23
ENDBRANCH   1  21
BRANCH  14  26
HETATM   26  N2  UNL     1      -3.747  -3.792   0.056  1.00  0.00    -0.333 N 
HETATM   27  H14 UNL     1      -4.690  -3.875   0.505  1.00  0.00     0.168 HD
BRANCH  26  28
HETATM   28  C16 UNL     1      -3.552  -4.939  -0.711  1.00  0.00     0.353 C 
HETATM   29  O2  UNL     1      -2.482  -5.044  -1.336  1.00  0.00    -0.283 OA
ENDBRANCH  26  28
ENDBRANCH  14  26
TORSDOF 5
