REMARK  2 active torsions:
REMARK  status: ('A' for Active; 'I' for Inactive)
REMARK    1  A    between atoms: O1_2  and  C2_3 
REMARK    2  A    between atoms: C15_21  and  N4_22 
ROOT
HETATM    1  C2  UNL     1       1.031   1.658   0.795  1.00  0.00     0.079 C 
HETATM    2  C3  UNL     1       0.391   2.698   0.299  1.00  0.00     0.036 C 
HETATM    3  C4  UNL     1      -0.692   2.974  -0.644  1.00  0.00     0.027 C 
HETATM    4  C5  UNL     1      -1.550   2.360  -1.445  1.00  0.00     0.065 C 
HETATM    5 CL1  UNL     1      -2.764   3.077  -2.476  1.00  0.00    -0.084 Cl
HETATM    6  C6  UNL     1      -1.936   0.985  -1.839  1.00  0.00     0.316 C 
HETATM    7  F1  UNL     1      -2.067   0.902  -3.203  1.00  0.00    -0.221 F 
HETATM    8  N1  UNL     1      -3.174   0.620  -1.210  1.00  0.00    -0.339 N 
HETATM    9  C7  UNL     1      -3.833  -0.634  -1.188  1.00  0.00     0.139 A 
HETATM   10  N2  UNL     1      -4.910  -1.088  -1.851  1.00  0.00    -0.224 NA
HETATM   11  C8  UNL     1      -5.359  -2.358  -1.654  1.00  0.00     0.234 A 
HETATM   12  N3  UNL     1      -4.834  -3.281  -0.831  1.00  0.00    -0.253 NA
HETATM   13  C9  UNL     1      -3.737  -2.893  -0.123  1.00  0.00     0.133 A 
HETATM   14  C10 UNL     1      -3.301  -1.605  -0.337  1.00  0.00     0.027 A 
HETATM   15  C11 UNL     1      -2.141  -1.222   0.457  1.00  0.00     0.013 C 
HETATM   16  C12 UNL     1      -1.629  -0.531   1.444  1.00  0.00    -0.026 C 
HETATM   17  C13 UNL     1      -0.738   0.068   2.424  1.00  0.00     0.029 C 
HETATM   18  C14 UNL     1       0.709  -0.320   2.160  1.00  0.00     0.046 C 
HETATM   19  C15 UNL     1       1.140   0.201   0.781  1.00  0.00     0.279 C 
HETATM   20  H7  UNL     1      -3.901   1.096  -0.636  1.00  0.00     0.164 HD
ENDROOT
BRANCH  19  21
HETATM   21  N4  UNL     1       2.447  -0.342   0.530  1.00  0.00     0.103 N 
HETATM   22  C16 UNL     1       2.400  -1.786   0.548  1.00  0.00     0.299 C 
HETATM   23  C17 UNL     1       3.490  -2.341  -0.337  1.00  0.00     0.198 C 
HETATM   24  O2  UNL     1       3.117  -2.027  -1.644  1.00  0.00    -0.388 OA
HETATM   25  C18 UNL     1       3.010  -0.681  -1.858  1.00  0.00     0.198 C 
HETATM   26  C19 UNL     1       3.084   0.186  -0.640  1.00  0.00     0.299 C 
ENDBRANCH  19  21
BRANCH   1  27
HETATM   27  O1  UNL     1       2.045   1.887   1.719  1.00  0.00    -0.358 OA
HETATM   28  C1  UNL     1       3.053   2.867   1.581  1.00  0.00     0.209 C 
ENDBRANCH   1  27
TORSDOF 2
