REMARK  7 active torsions:
REMARK  status: ('A' for Active; 'I' for Inactive)
REMARK    1  A    between atoms: N1_7  and  C6_8 
REMARK    2  A    between atoms: C6_8  and  C7_9 
REMARK    3  A    between atoms: C7_9  and  C8_10 
REMARK    4  A    between atoms: C8_10  and  C9_11 
REMARK    5  A    between atoms: C14_16  and  N2_17 
REMARK    6  A    between atoms: N2_17  and  O2_18 
REMARK    7  A    between atoms: N5_22  and  C16_23 
ROOT
HETATM    1  C9  UNL     1       0.270   1.251  -0.512  1.00  0.00    -0.029 A 
HETATM    2  C10 UNL     1       1.501   0.583  -0.574  1.00  0.00     0.024 A 
HETATM    3  C11 UNL     1       2.459   0.687   0.407  1.00  0.00     0.011 A 
HETATM    4  C12 UNL     1       2.257   1.468   1.524  1.00  0.00     0.072 A 
HETATM    5  C13 UNL     1       1.063   2.148   1.634  1.00  0.00     0.064 A 
HETATM    6  C14 UNL     1       0.158   2.005   0.632  1.00  0.00     0.062 A 
HETATM    7  N3  UNL     1       3.039   1.670   2.525  1.00  0.00    -0.239 NA
HETATM    8  C15 UNL     1       4.351   1.162   2.804  1.00  0.00     0.256 A 
HETATM    9  N4  UNL     1       5.046   0.357   2.065  1.00  0.00    -0.161 NA
HETATM   10  N5  UNL     1       4.717  -0.211   0.839  1.00  0.00    -0.245 N 
HETATM   11  C21 UNL     1       3.515  -0.068   0.059  1.00  0.00     0.132 A 
ENDROOT
BRANCH   1  12
HETATM   12  C8  UNL     1      -0.694   1.042  -1.578  1.00  0.00     0.042 C 
BRANCH  12  13
HETATM   13  C7  UNL     1      -1.728  -0.022  -1.322  1.00  0.00     0.035 C 
BRANCH  13  14
HETATM   14  C6  UNL     1      -2.593   0.178  -0.127  1.00  0.00     0.273 C 
BRANCH  14  15
HETATM   15  N1  UNL     1      -3.549  -0.856   0.084  1.00  0.00     0.097 N 
HETATM   16  C2  UNL     1      -4.356  -1.272  -1.001  1.00  0.00     0.242 C 
HETATM   17  C1  UNL     1      -4.983  -2.640  -0.652  1.00  0.00     0.045 C 
HETATM   18  C3  UNL     1      -5.555  -0.364  -1.229  1.00  0.00     0.203 C 
HETATM   19  O1  UNL     1      -6.246  -0.154  -0.029  1.00  0.00    -0.387 OA
HETATM   20  C4  UNL     1      -5.414   0.381   0.949  1.00  0.00     0.198 C 
HETATM   21  C5  UNL     1      -4.339  -0.597   1.277  1.00  0.00     0.299 C 
ENDBRANCH  14  15
ENDBRANCH  13  14
ENDBRANCH  12  13
ENDBRANCH   1  12
BRANCH   6  22
HETATM   22  N2  UNL     1      -1.028   2.769   0.796  1.00  0.00    -0.269 N 
HETATM   23  H19 UNL     1      -1.949   3.125   0.519  1.00  0.00     0.194 HD
BRANCH  22  24
HETATM   24  O2  UNL     1      -1.558   3.610   1.713  1.00  0.00    -0.289 OA
HETATM   25  H20 UNL     1      -1.013   3.493   2.542  1.00  0.00     0.244 HD
ENDBRANCH  22  24
ENDBRANCH   6  22
BRANCH  10  26
HETATM   26  C16 UNL     1       5.629  -1.071   0.182  1.00  0.00     0.061 A 
HETATM   27  C17 UNL     1       6.030  -2.321   0.444  1.00  0.00     0.032 A 
HETATM   28  C18 UNL     1       6.992  -2.674  -0.601  1.00  0.00     0.042 A 
HETATM   29  C19 UNL     1       7.151  -1.666  -1.446  1.00  0.00     0.118 A 
HETATM   30  F1  UNL     1       7.975  -1.681  -2.522  1.00  0.00    -0.209 F 
HETATM   31  C20 UNL     1       6.291  -0.516  -1.041  1.00  0.00     0.196 A 
HETATM   32 CL1  UNL     1       7.234   0.903  -0.546  1.00  0.00    -0.111 Cl
ENDBRANCH  10  26
TORSDOF 7
