REMARK  7 active torsions:
REMARK  status: ('A' for Active; 'I' for Inactive)
REMARK    1  A    between atoms: C8_11  and  C9_12 
REMARK    2  A    between atoms: C9_12  and  C10_13 
REMARK    3  A    between atoms: C10_13  and  C11_14 
REMARK    4  A    between atoms: C16_20  and  C17_21 
REMARK    5  A    between atoms: C17_21  and  O1_22 
REMARK    6  A    between atoms: O1_22  and  C18_23 
REMARK    7  A    between atoms: C18_23  and  C20_25 
ROOT
HETATM    1  C11 UNL     1       0.961  -0.785  -0.648  1.00  0.00    -0.046 A 
HETATM    2  C12 UNL     1       0.609  -1.286  -1.877  1.00  0.00     0.011 A 
HETATM    3  C13 UNL     1       1.094  -2.525  -2.236  1.00  0.00     0.043 A 
HETATM    4  C14 UNL     1       1.908  -3.223  -1.373  1.00  0.00     0.117 A 
HETATM    5  F1  UNL     1       2.342  -4.428  -1.795  1.00  0.00    -0.206 F 
HETATM    6  C15 UNL     1       2.215  -2.645  -0.155  1.00  0.00     0.052 A 
HETATM    7  C16 UNL     1       1.763  -1.405   0.268  1.00  0.00    -0.025 A 
ENDROOT
BRANCH   1   8
HETATM    8  C10 UNL     1       0.314   0.493  -0.255  1.00  0.00     0.068 C 
BRANCH   8   9
HETATM    9  C9  UNL     1      -0.901   0.048   0.547  1.00  0.00     0.008 C 
BRANCH   9  10
HETATM   10  C8  UNL     1      -2.177   0.240   0.328  1.00  0.00     0.035 C 
HETATM   11  C2  UNL     1      -3.284  -0.219   1.139  1.00  0.00    -0.035 C 
HETATM   12  C1  UNL     1      -2.701  -0.935   2.319  1.00  0.00     0.050 C 
HETATM   13  C3  UNL     1      -4.532  -0.004   0.871  1.00  0.00     0.010 C 
HETATM   14  C4  UNL     1      -5.808   0.357   0.355  1.00  0.00     0.020 C 
HETATM   15  C5  UNL     1      -6.015   1.003  -0.757  1.00  0.00     0.118 C 
HETATM   16  N1  UNL     1      -4.888   1.381  -1.526  1.00  0.00    -0.254 NA
HETATM   17  C6  UNL     1      -4.397   0.450  -2.302  1.00  0.00     0.233 C 
HETATM   18  N2  UNL     1      -3.389   1.286  -2.786  1.00  0.00    -0.237 NA
HETATM   19  C7  UNL     1      -2.331   1.592  -2.128  1.00  0.00     0.208 C 
HETATM   20  N3  UNL     1      -2.278   0.997  -0.848  1.00  0.00    -0.351 N 
HETATM   21  H9  UNL     1      -2.535   1.893  -0.332  1.00  0.00     0.166 HD
ENDBRANCH   9  10
ENDBRANCH   8   9
ENDBRANCH   1   8
BRANCH   7  22
HETATM   22  C17 UNL     1       2.340  -1.008   1.542  1.00  0.00     0.207 C 
BRANCH  22  23
HETATM   23  O1  UNL     1       3.537  -0.411   1.574  1.00  0.00    -0.376 OA
BRANCH  23  24
HETATM   24  C18 UNL     1       3.881   0.729   0.978  1.00  0.00     0.161 C 
HETATM   25  C19 UNL     1       5.103   0.368   0.072  1.00  0.00     0.045 C 
BRANCH  24  26
HETATM   26  C20 UNL     1       4.496   1.722   1.961  1.00  0.00     0.052 A 
HETATM   27 CL1  UNL     1       5.212   2.894   3.079  1.00  0.00    -0.144 Cl
HETATM   28  C21 UNL     1       4.806   2.911   1.407  1.00  0.00     0.513 A 
HETATM   29  F2  UNL     1       4.507   2.983   0.094  1.00  0.00    -0.442 F 
ENDBRANCH  24  26
ENDBRANCH  23  24
ENDBRANCH  22  23
ENDBRANCH   7  22
TORSDOF 7
