REMARK  4 active torsions:
REMARK  status: ('A' for Active; 'I' for Inactive)
REMARK    1  A    between atoms: C13_17  and  C14_18 
REMARK    2  A    between atoms: C14_18  and  O3_19 
REMARK    3  A    between atoms: O3_19  and  C15_20 
REMARK    4  A    between atoms: C15_20  and  C16_21 
ROOT
HETATM    1  O1  UNL     1      -4.982   2.474  -1.711  1.00  0.00    -0.269 OA
HETATM    2  C1  UNL     1      -4.176   2.487  -0.753  1.00  0.00     0.241 C 
HETATM    3  C2  UNL     1      -3.988   3.148   0.554  1.00  0.00     0.076 C 
HETATM    4  C3  UNL     1      -2.972   2.901   1.357  1.00  0.00     0.037 C 
HETATM    5  C4  UNL     1      -1.821   2.022   1.288  1.00  0.00     0.054 C 
HETATM    6  C5  UNL     1      -1.509   0.772   1.612  1.00  0.00     0.036 C 
HETATM    7  C6  UNL     1      -0.782  -0.122   0.628  1.00  0.00     0.060 C 
HETATM    8  C7  UNL     1      -0.445  -1.352   1.489  1.00  0.00     0.062 C 
HETATM    9  C8  UNL     1      -1.693  -1.892   2.185  1.00  0.00     0.170 C 
HETATM   10  O2  UNL     1      -2.211  -2.978   1.486  1.00  0.00    -0.389 OA
HETATM   11  C9  UNL     1      -2.377  -2.718   0.140  1.00  0.00     0.187 C 
HETATM   12  C10 UNL     1      -2.732  -1.280  -0.143  1.00  0.00     0.144 C 
HETATM   13  N1  UNL     1      -1.558  -0.542  -0.461  1.00  0.00    -0.396 N 
HETATM   14  C11 UNL     1      -1.485   0.043  -1.728  1.00  0.00     0.137 C 
HETATM   15  C12 UNL     1      -2.784   0.550  -2.336  1.00  0.00     0.142 C 
HETATM   16  N2  UNL     1      -3.483   1.525  -1.537  1.00  0.00    -0.356 N 
HETATM   17  C13 UNL     1       0.491   0.554   0.310  1.00  0.00     0.082 C 
HETATM   18  C22 UNL     1       0.423   2.051   0.524  1.00  0.00     0.099 C 
HETATM   19  N3  UNL     1      -0.717   2.687   0.690  1.00  0.00    -0.265 NA
HETATM   20  H16 UNL     1      -2.796   1.537  -0.782  1.00  0.00     0.162 HD
ENDROOT
BRANCH  17  21
HETATM   21  C14 UNL     1       1.692   0.123   1.125  1.00  0.00     0.180 C 
BRANCH  21  22
HETATM   22  O3  UNL     1       2.050  -1.186   1.004  1.00  0.00    -0.386 OA
BRANCH  22  23
HETATM   23  C15 UNL     1       2.474  -1.596  -0.242  1.00  0.00     0.206 C 
BRANCH  23  24
HETATM   24  C16 UNL     1       3.699  -0.906  -0.718  1.00  0.00    -0.032 A 
HETATM   25  C17 UNL     1       4.922  -1.489  -0.355  1.00  0.00     0.009 A 
HETATM   26  C18 UNL     1       6.175  -1.019  -0.691  1.00  0.00     0.004 A 
HETATM   27  C19 UNL     1       6.243   0.127  -1.450  1.00  0.00     0.042 A 
HETATM   28  C20 UNL     1       5.065   0.731  -1.828  1.00  0.00     0.117 A 
HETATM   29  F1  UNL     1       5.058   1.864  -2.578  1.00  0.00    -0.206 F 
HETATM   30  C21 UNL     1       3.842   0.236  -1.477  1.00  0.00     0.051 A 
ENDBRANCH  23  24
ENDBRANCH  22  23
ENDBRANCH  21  22
ENDBRANCH  17  21
TORSDOF 4
