REMARK  6 active torsions:
REMARK  status: ('A' for Active; 'I' for Inactive)
REMARK    1  A    between atoms: C2_2  and  C3_3 
REMARK    2  A    between atoms: C5_7  and  N3_8 
REMARK    3  A    between atoms: N3_8  and  C6_9 
REMARK    4  A    between atoms: C12_17  and  C13_18 
REMARK    5  A    between atoms: C13_18  and  C14_19 
REMARK    6  A    between atoms: C14_19  and  N4_20 
ROOT
HETATM    1  C3  UNL     1       1.048   2.121   1.543  1.00  0.00     0.068 A 
HETATM    2  N1  UNL     1       2.270   2.519   1.942  1.00  0.00    -0.241 NA
HETATM    3  C4  UNL     1       3.404   1.933   1.543  1.00  0.00     0.235 A 
HETATM    4  N2  UNL     1       3.311   0.881   0.689  1.00  0.00    -0.224 NA
HETATM    5  C5  UNL     1       2.092   0.456   0.268  1.00  0.00     0.141 A 
HETATM    6  C12 UNL     1       0.922   1.048   0.669  1.00  0.00     0.036 A 
ENDROOT
BRANCH   6   7
HETATM    7  C13 UNL     1      -0.255   0.660   0.271  1.00  0.00     0.010 C 
BRANCH   7   8
HETATM    8  C14 UNL     1      -0.792  -0.379  -0.604  1.00  0.00     0.155 C 
BRANCH   8   9
HETATM    9  N4  UNL     1      -2.248  -0.338  -0.546  1.00  0.00    -0.332 N 
HETATM   10  C15 UNL     1      -2.870  -1.166  -1.604  1.00  0.00     0.174 C 
HETATM   11  S1  UNL     1      -2.495  -2.173  -2.802  1.00  0.00    -0.041 SA
HETATM   12  N5  UNL     1      -4.221  -0.873  -1.278  1.00  0.00    -0.353 N 
HETATM   13  C16 UNL     1      -5.583  -1.366  -0.976  1.00  0.00     0.144 C 
HETATM   14  C19 UNL     1      -4.212   0.596  -0.982  1.00  0.00     0.171 C 
HETATM   15  C17 UNL     1      -5.413  -1.066   0.579  1.00  0.00     0.135 C 
HETATM   16  N6  UNL     1      -4.067  -0.760   0.919  1.00  0.00    -0.398 N 
HETATM   17  C18 UNL     1      -3.337   0.277   0.289  1.00  0.00     0.200 C 
HETATM   18  H17 UNL     1      -3.512  -1.532   1.324  1.00  0.00     0.155 HD
ENDBRANCH   8   9
ENDBRANCH   7   8
ENDBRANCH   6   7
BRANCH   1  19
HETATM   19  C2  UNL     1       0.013   2.831   2.018  1.00  0.00     0.002 C 
HETATM   20  C1  UNL     1       0.342   3.974   2.925  1.00  0.00     0.038 C 
ENDBRANCH   1  19
BRANCH   5  21
HETATM   21  N3  UNL     1       2.140  -0.663  -0.600  1.00  0.00    -0.340 N 
HETATM   22  H6  UNL     1       1.623  -1.307  -1.196  1.00  0.00     0.167 HD
BRANCH  21  23
HETATM   23  C6  UNL     1       3.428  -1.242  -0.853  1.00  0.00     0.035 A 
HETATM   24  C7  UNL     1       4.439  -0.426  -1.331  1.00  0.00     0.032 A 
HETATM   25  C8  UNL     1       5.699  -0.933  -1.552  1.00  0.00     0.046 A 
HETATM   26  C9  UNL     1       6.012  -2.275  -1.308  1.00  0.00     0.138 A 
HETATM   27  F1  UNL     1       7.239  -2.827  -1.503  1.00  0.00    -0.204 F 
HETATM   28  C10 UNL     1       5.024  -3.133  -0.825  1.00  0.00     0.074 A 
HETATM   29 CL1  UNL     1       5.288  -4.827  -0.478  1.00  0.00    -0.081 Cl
HETATM   30  C11 UNL     1       3.785  -2.580  -0.622  1.00  0.00     0.056 A 
ENDBRANCH  21  23
ENDBRANCH   5  21
TORSDOF 6
