REMARK  8 active torsions:
REMARK  status: ('A' for Active; 'I' for Inactive)
REMARK    1  A    between atoms: C4_5  and  N1_6 
REMARK    2  A    between atoms: N1_6  and  C5_7 
REMARK    3  A    between atoms: C6_8  and  C19_26 
REMARK    4  A    between atoms: N3_13  and  C10_14 
REMARK    5  A    between atoms: C10_14  and  C11_16 
REMARK    6  A    between atoms: C11_16  and  C12_17 
REMARK    7  A    between atoms: C12_17  and  N4_18 
REMARK    8  A    between atoms: C18_25  and  C19_26 
ROOT
HETATM    1  C5  UNL     1       3.152  -0.010  -0.453  1.00  0.00     0.100 A 
HETATM    2  C6  UNL     1       3.681  -0.028  -1.836  1.00  0.00     0.022 A 
HETATM    3  N2  UNL     1       2.604   0.549  -1.351  1.00  0.00     0.000 N 
HETATM    4  C7  UNL     1       1.473   1.355  -1.678  1.00  0.00     0.011 A 
HETATM    5  C8  UNL     1       0.340   1.951  -1.128  1.00  0.00     0.015 A 
HETATM    6  C9  UNL     1       0.131   1.760   0.219  1.00  0.00     0.027 A 
HETATM    7  N3  UNL     1      -0.889   2.240   0.968  1.00  0.00    -0.351 N 
HETATM    8  C17 UNL     1       1.293   0.967   0.402  1.00  0.00     0.016 A 
HETATM    9  C18 UNL     1       1.920   0.857  -0.808  1.00  0.00     0.018 A 
HETATM   10  C19 UNL     1       2.421   0.889  -2.275  1.00  0.00     0.022 A 
HETATM   11  H7  UNL     1      -0.453   3.111   1.244  1.00  0.00     0.166 HD
ENDROOT
BRANCH   7  12
HETATM   12  C10 UNL     1      -1.853   1.229   0.866  1.00  0.00     0.079 C 
HETATM   13  S1  UNL     1      -2.804   2.168   1.841  1.00  0.00    -0.065 SA
BRANCH  12  14
HETATM   14  C11 UNL     1      -2.852   0.185   0.762  1.00  0.00     0.100 C 
BRANCH  14  15
HETATM   15  C12 UNL     1      -4.157   0.610   0.118  1.00  0.00     0.279 C 
BRANCH  15  16
HETATM   16  N4  UNL     1      -5.070  -0.502   0.105  1.00  0.00     0.092 N 
HETATM   17  C13 UNL     1      -6.300   0.003  -0.525  1.00  0.00     0.298 C 
HETATM   18  C14 UNL     1      -7.297  -1.103  -0.705  1.00  0.00     0.198 C 
HETATM   19  O1  UNL     1      -6.730  -2.011  -1.614  1.00  0.00    -0.388 OA
HETATM   20  C15 UNL     1      -5.644  -2.571  -0.968  1.00  0.00     0.198 C 
HETATM   21  C16 UNL     1      -4.546  -1.531  -0.765  1.00  0.00     0.298 C 
ENDBRANCH  15  16
ENDBRANCH  14  15
ENDBRANCH  12  14
ENDBRANCH   7  12
BRANCH   1  22
HETATM   22  N1  UNL     1       3.990   0.580   0.533  1.00  0.00    -0.384 N 
HETATM   23  H3  UNL     1       3.682   1.412   1.080  1.00  0.00     0.160 HD
BRANCH  22  24
HETATM   24  C4  UNL     1       5.272   0.025   0.778  1.00  0.00     0.030 A 
HETATM   25  C3  UNL     1       5.755  -1.074   0.101  1.00  0.00     0.032 A 
HETATM   26  C2  UNL     1       7.001  -1.622   0.335  1.00  0.00     0.046 A 
HETATM   27  C1  UNL     1       7.813  -1.046   1.295  1.00  0.00     0.138 A 
HETATM   28  F1  UNL     1       9.030  -1.579   1.526  1.00  0.00    -0.204 F 
HETATM   29  C21 UNL     1       7.362   0.070   2.004  1.00  0.00     0.074 A 
HETATM   30  C20 UNL     1       6.105   0.583   1.735  1.00  0.00     0.056 A 
HETATM   31 CL1  UNL     1       8.383   0.798   3.214  1.00  0.00    -0.081 Cl
ENDBRANCH  22  24
ENDBRANCH   1  22
TORSDOF 8
