REMARK  5 active torsions:
REMARK  status: ('A' for Active; 'I' for Inactive)
REMARK    1  A    between atoms: C7_7  and  O1_8 
REMARK    2  A    between atoms: O1_8  and  C8_9 
REMARK    3  A    between atoms: C8_9  and  C9_10 
REMARK    4  A    between atoms: C9_10  and  C10_11 
REMARK    5  A    between atoms: C10_11  and  N1_12 
ROOT
HETATM    1  C1  UNL     1       0.435  -0.227   3.628  1.00  0.00     0.051 C 
HETATM    2  C2  UNL     1       1.138  -0.528   2.328  1.00  0.00    -0.025 A 
HETATM    3  C3  UNL     1       2.496  -0.593   2.417  1.00  0.00     0.055 A 
HETATM    4  C4  UNL     1       3.218  -0.862   1.272  1.00  0.00     0.120 A 
HETATM    5  C5  UNL     1       2.577  -1.054   0.095  1.00  0.00     0.023 A 
HETATM    6  C6  UNL     1       1.174  -0.971   0.086  1.00  0.00     0.053 A 
HETATM    7  C7  UNL     1       0.397  -0.706   1.191  1.00  0.00     0.075 A 
HETATM    8  C15 UNL     1       2.842  -1.299  -1.161  1.00  0.00     0.103 C 
HETATM    9  N2  UNL     1       3.809  -1.523  -2.161  1.00  0.00    -0.365 N 
HETATM   10  C16 UNL     1       4.650  -0.428  -1.653  1.00  0.00     0.035 A 
HETATM   11  C17 UNL     1       4.663   0.877  -2.115  1.00  0.00     0.056 A 
HETATM   12  C18 UNL     1       5.380   1.872  -1.460  1.00  0.00     0.077 A 
HETATM   13 CL1  UNL     1       5.334   3.479  -2.126  1.00  0.00    -0.081 Cl
HETATM   14  C19 UNL     1       6.098   1.556  -0.316  1.00  0.00     0.166 A 
HETATM   15  F1  UNL     1       6.810   2.463   0.373  1.00  0.00    -0.202 F 
HETATM   16  C20 UNL     1       6.022   0.239   0.061  1.00  0.00     0.101 A 
HETATM   17  C21 UNL     1       5.357  -0.822  -0.513  1.00  0.00     0.064 A 
HETATM   18  N3  UNL     1       6.516  -0.241   1.357  1.00  0.00    -0.227 NA
HETATM   19  C22 UNL     1       5.577  -0.879   2.117  1.00  0.00     0.300 C 
HETATM   20  N4  UNL     1       4.414  -0.913   1.474  1.00  0.00    -0.398 NA
HETATM   21  H21 UNL     1       4.519  -1.607  -2.810  1.00  0.00     0.165 HD
ENDROOT
BRANCH   7  22
HETATM   22  O1  UNL     1      -0.936  -0.593   1.365  1.00  0.00    -0.351 OA
BRANCH  22  23
HETATM   23  C8  UNL     1      -1.998  -0.683   0.497  1.00  0.00     0.177 C 
BRANCH  23  24
HETATM   24  C9  UNL     1      -2.057   0.334  -0.613  1.00  0.00     0.057 C 
BRANCH  24  25
HETATM   25  C10 UNL     1      -3.309   0.013  -1.423  1.00  0.00     0.274 C 
BRANCH  25  26
HETATM   26  N1  UNL     1      -4.506   0.099  -0.625  1.00  0.00     0.092 N 
HETATM   27  C11 UNL     1      -5.694  -0.218  -1.420  1.00  0.00     0.298 C 
HETATM   28  C12 UNL     1      -6.914  -0.320  -0.492  1.00  0.00     0.198 C 
HETATM   29  O2  UNL     1      -6.772   0.584   0.569  1.00  0.00    -0.388 OA
HETATM   30  C13 UNL     1      -6.094   1.727   0.131  1.00  0.00     0.198 C 
HETATM   31  C14 UNL     1      -4.634   1.412  -0.070  1.00  0.00     0.298 C 
ENDBRANCH  25  26
ENDBRANCH  24  25
ENDBRANCH  23  24
ENDBRANCH  22  23
ENDBRANCH   7  22
TORSDOF 5
