REMARK  4 active torsions:
REMARK  status: ('A' for Active; 'I' for Inactive)
REMARK    1  A    between atoms: O2_18  and  C13_19 
REMARK    2  A    between atoms: C13_19  and  C14_20 
REMARK    3  A    between atoms: C14_20  and  C15_21 
REMARK    4  A    between atoms: C15_21  and  N3_22 
ROOT
HETATM    1  F1  UNL     1      -3.347  -0.702   0.649  1.00  0.00    -0.341 F 
HETATM    2  C1  UNL     1      -2.838   0.419   0.380  1.00  0.00     0.073 A 
HETATM    3  C2  UNL     1      -3.567  -0.692   0.836  1.00  0.00     0.068 A 
HETATM    4  C3  UNL     1      -3.597  -2.118   0.640  1.00  0.00     0.197 A 
HETATM    5 CL1  UNL     1      -4.865  -2.860   1.637  1.00  0.00    -0.078 Cl
HETATM    6  C4  UNL     1      -3.104  -3.217   0.030  1.00  0.00     0.213 C 
HETATM    7  O1  UNL     1      -2.043  -3.541  -0.968  1.00  0.00    -0.362 OA
HETATM    8  C5  UNL     1      -1.187  -2.419  -1.083  1.00  0.00     0.115 A 
HETATM    9  C6  UNL     1      -2.294  -1.793  -1.764  1.00  0.00     0.085 A 
HETATM   10  C7  UNL     1      -2.821  -0.636  -2.419  1.00  0.00     0.125 A 
HETATM   11  N1  UNL     1      -4.010  -0.361  -2.836  1.00  0.00    -0.266 NA
HETATM   12  C8  UNL     1      -4.480   0.858  -3.122  1.00  0.00     0.225 A 
HETATM   13  N2  UNL     1      -3.361   1.622  -2.822  1.00  0.00    -0.247 NA
HETATM   14  C9  UNL     1      -2.345   0.808  -2.414  1.00  0.00     0.166 A 
HETATM   15  C10 UNL     1      -1.641  -0.310  -2.086  1.00  0.00     0.062 A 
HETATM   16  C11 UNL     1      -0.344  -0.096  -1.665  1.00  0.00    -0.021 A 
HETATM   17  C12 UNL     1      -0.658  -1.268  -1.328  1.00  0.00     0.037 A 
HETATM   18  O2  UNL     1       0.171  -2.096  -0.695  1.00  0.00     0.000 OA
HETATM   19  N4  UNL     1      -1.668   1.683  -1.429  1.00  0.00    -0.386 N 
HETATM   20  C20 UNL     1      -2.293   1.666  -0.070  1.00  0.00     0.183 C 
HETATM   21  H20 UNL     1      -0.838   2.285  -1.608  1.00  0.00     0.156 HD
ENDROOT
BRANCH  18  22
HETATM   22  C13 UNL     1       1.407  -2.085  -0.239  1.00  0.00     0.002 C 
BRANCH  22  23
HETATM   23  C14 UNL     1       1.987  -1.227   0.795  1.00  0.00     0.030 C 
BRANCH  23  24
HETATM   24  C15 UNL     1       2.008   0.228   0.590  1.00  0.00     0.272 C 
BRANCH  24  25
HETATM   25  N3  UNL     1       2.619   0.994   1.659  1.00  0.00     0.092 N 
HETATM   26  C16 UNL     1       2.654   2.402   1.363  1.00  0.00     0.298 C 
HETATM   27  C17 UNL     1       4.034   2.959   1.456  1.00  0.00     0.198 C 
HETATM   28  O3  UNL     1       5.012   2.229   0.835  1.00  0.00    -0.388 OA
HETATM   29  C18 UNL     1       4.920   0.872   1.066  1.00  0.00     0.198 C 
HETATM   30  C19 UNL     1       3.873   0.551   2.125  1.00  0.00     0.298 C 
ENDBRANCH  24  25
ENDBRANCH  23  24
ENDBRANCH  22  23
ENDBRANCH  18  22
TORSDOF 4
