REMARK  3 active torsions:
REMARK  status: ('A' for Active; 'I' for Inactive)
REMARK    1  A    between atoms: B1_1  and  C1_2 
REMARK    2  A    between atoms: C7_9  and  N2_10 
REMARK    3  A    between atoms: N2_10  and  C8_11 
ROOT
HETATM    1  C1  UNL     1      -4.401   1.978   0.285  1.00  0.00     0.009 C 
HETATM    2  N1  UNL     1      -3.460   3.028   0.368  1.00  0.00    -0.367 N 
HETATM    3  C2  UNL     1      -2.604   4.034  -0.130  1.00  0.00     0.088 C 
HETATM    4  C3  UNL     1      -1.334   4.156  -0.130  1.00  0.00     0.019 C 
HETATM    5  C4  UNL     1      -0.006   3.760   0.152  1.00  0.00     0.029 C 
HETATM    6  C5  UNL     1       0.549   2.687   0.743  1.00  0.00     0.044 C 
HETATM    7  C6  UNL     1       2.023   2.625   0.870  1.00  0.00     0.137 C 
HETATM    8  C7  UNL     1       2.497   1.443   0.097  1.00  0.00     0.112 C 
HETATM    9  N3  UNL     1       1.740   0.405  -0.096  1.00  0.00    -0.213 NA
HETATM   10  C14 UNL     1       0.448   0.409   0.570  1.00  0.00     0.178 C 
HETATM   11  N4  UNL     1       0.112   1.442   1.324  1.00  0.00    -0.232 NA
HETATM   12  C15 UNL     1      -0.336  -0.819   0.286  1.00  0.00     0.104 C 
HETATM   13  N5  UNL     1      -1.631  -0.795   0.095  1.00  0.00    -0.178 NA
HETATM   14  N6  UNL     1      -2.616  -1.779   0.198  1.00  0.00    -0.301 N 
HETATM   15  C16 UNL     1      -3.728  -1.588  -0.711  1.00  0.00     0.164 C 
HETATM   16  C17 UNL     1      -3.946  -0.107  -0.986  1.00  0.00     0.141 C 
HETATM   17  N7  UNL     1      -4.219   0.594   0.275  1.00  0.00    -0.389 N 
HETATM   18  C18 UNL     1      -2.919  -2.982   0.946  1.00  0.00     0.171 C 
HETATM   19  C19 UNL     1      -1.970  -4.067   0.491  1.00  0.00     0.189 C 
HETATM   20  O1  UNL     1      -0.648  -3.769   0.797  1.00  0.00    -0.389 OA
HETATM   21  C20 UNL     1       0.035  -3.170  -0.265  1.00  0.00     0.173 C 
HETATM   22  C21 UNL     1       0.696  -1.918   0.284  1.00  0.00     0.091 C 
HETATM   23  H2  UNL     1      -3.560   2.864   1.418  1.00  0.00     0.165 HD
HETATM   24  H16 UNL     1      -4.383   0.691   1.283  1.00  0.00     0.159 HD
ENDROOT
BRANCH   8  25
HETATM   25  N2  UNL     1       3.814   1.531  -0.402  1.00  0.00    -0.344 N 
HETATM   26  H8  UNL     1       4.250   2.436  -0.743  1.00  0.00     0.167 HD
BRANCH  25  27
HETATM   27  C8  UNL     1       4.671   0.409  -0.488  1.00  0.00     0.035 A 
HETATM   28  C9  UNL     1       5.149  -0.175   0.695  1.00  0.00     0.032 A 
HETATM   29  C10 UNL     1       6.027  -1.241   0.700  1.00  0.00     0.046 A 
HETATM   30  C11 UNL     1       6.465  -1.769  -0.522  1.00  0.00     0.138 A 
HETATM   31  F1  UNL     1       7.324  -2.801  -0.512  1.00  0.00    -0.204 F 
HETATM   32  C12 UNL     1       5.958  -1.151  -1.627  1.00  0.00     0.074 A 
HETATM   33 CL1  UNL     1       6.518  -1.807  -3.168  1.00  0.00    -0.081 Cl
HETATM   34  C13 UNL     1       5.087  -0.095  -1.734  1.00  0.00     0.056 A 
ENDBRANCH  25  27
ENDBRANCH   8  25
BRANCH   1  35
HETATM   35  B1  UNL     1      -6.057   2.780   0.184  1.00  0.00     0.204 B 
HETATM   36  H1  UNL     1      -7.491   3.075   0.088  1.00  0.00    -0.027 HD
ENDBRANCH   1  35
TORSDOF 3
