REMARK  2 active torsions:
REMARK  status: ('A' for Active; 'I' for Inactive)
REMARK       I    between atoms: C10_14  and  N3_15 
REMARK    1  A    between atoms: N3_15  and  C11_16 
REMARK    2  A    between atoms: C16_22  and  O3_23 
ROOT
HETATM    1  C1  UNL     1      -5.465   2.548   0.319  1.00  0.00     0.048 C 
HETATM    2  C2  UNL     1      -4.257   1.790  -0.049  1.00  0.00    -0.059 A 
HETATM    3  C3  UNL     1      -3.138   2.547  -0.342  1.00  0.00     0.007 A 
HETATM    4  C4  UNL     1      -1.997   1.853  -0.688  1.00  0.00     0.012 A 
HETATM    5  C5  UNL     1      -1.873   0.486  -0.768  1.00  0.00    -0.007 A 
HETATM    6  C6  UNL     1      -2.980  -0.281  -0.479  1.00  0.00     0.080 A 
HETATM    7  C7  UNL     1      -4.155   0.394  -0.123  1.00  0.00     0.044 A 
HETATM    8  O1  UNL     1      -3.256  -1.629  -0.444  1.00  0.00    -0.323 OA
HETATM    9  C8  UNL     1      -2.370  -2.695  -0.372  1.00  0.00     0.377 C 
HETATM   10  O2  UNL     1      -1.555  -2.691   0.762  1.00  0.00    -0.253 OA
HETATM   11  N1  UNL     1      -0.700  -3.738   0.798  1.00  0.00    -0.258 N 
HETATM   12  C9  UNL     1       0.615  -3.162   0.965  1.00  0.00     0.228 C 
HETATM   13  N2  UNL     1       1.589  -2.320   0.700  1.00  0.00    -0.238 NA
HETATM   14  C10 UNL     1       1.261  -1.379  -0.357  1.00  0.00     0.311 C 
HETATM   15  N3  UNL     1       2.347  -0.605  -0.841  1.00  0.00    -0.349 N 
HETATM   16  N4  UNL     1       0.059  -0.708  -0.024  1.00  0.00    -0.375 N 
HETATM   17  C17 UNL     1       0.038   0.075   1.159  1.00  0.00     0.147 C 
HETATM   18  C18 UNL     1      -0.588  -0.121  -1.151  1.00  0.00     0.162 C 
HETATM   19  H9  UNL     1      -0.573  -4.780   0.759  1.00  0.00     0.195 HD
HETATM   20  H12 UNL     1       2.517  -0.553  -1.895  1.00  0.00     0.163 HD
ENDROOT
BRANCH  15  21
HETATM   21  C11 UNL     1       3.336   0.180  -0.185  1.00  0.00     0.066 A 
HETATM   22  C12 UNL     1       3.418   0.204   1.203  1.00  0.00     0.032 A 
HETATM   23  C13 UNL     1       4.348   0.916   1.926  1.00  0.00     0.004 A 
HETATM   24  C14 UNL     1       5.284   1.675   1.257  1.00  0.00     0.022 A 
HETATM   25  C15 UNL     1       5.236   1.676  -0.104  1.00  0.00     0.046 A 
HETATM   26 BR1  UNL     1       6.478   2.686  -1.125  1.00  0.00    -0.048 Br
HETATM   27  C16 UNL     1       4.307   0.964  -0.819  1.00  0.00     0.109 A 
BRANCH  27  28
HETATM   28  O3  UNL     1       4.276   0.980  -2.218  1.00  0.00    -0.357 OA
HETATM   29  H16 UNL     1       4.330   0.085  -2.682  1.00  0.00     0.217 HD
ENDBRANCH  27  28
ENDBRANCH  15  21
TORSDOF 2
