REMARK  3 active torsions:
REMARK  status: ('A' for Active; 'I' for Inactive)
REMARK    1  A    between atoms: O1_2  and  C2_3 
REMARK    2  A    between atoms: C7_8  and  N1_9 
REMARK    3  A    between atoms: N1_9  and  C8_10 
ROOT
HETATM    1  C2  UNL     1       4.291  -0.026   0.500  1.00  0.00     0.147 C 
HETATM    2  C3  UNL     1       3.002  -0.280   0.667  1.00  0.00     0.015 A 
HETATM    3  C4  UNL     1       2.412  -1.141   1.686  1.00  0.00     0.017 A 
HETATM    4  C5  UNL     1       1.105  -1.105   1.484  1.00  0.00     0.018 A 
HETATM    5  C6  UNL     1       0.742  -0.237   0.343  1.00  0.00     0.040 A 
HETATM    6  C7  UNL     1      -0.483   0.078  -0.202  1.00  0.00     0.142 A 
HETATM    7  N2  UNL     1      -0.397   0.910  -1.245  1.00  0.00    -0.224 NA
HETATM    8  C14 UNL     1       0.729   1.421  -1.758  1.00  0.00     0.236 A 
HETATM    9  N3  UNL     1       1.899   1.083  -1.190  1.00  0.00    -0.240 NA
HETATM   10  C15 UNL     1       1.924   0.265  -0.151  1.00  0.00     0.084 A 
ENDROOT
BRANCH   6  11
HETATM   11  N1  UNL     1      -1.673  -0.465   0.344  1.00  0.00    -0.340 N 
HETATM   12  H7  UNL     1      -1.549  -1.112   1.177  1.00  0.00     0.167 HD
BRANCH  11  13
HETATM   13  C8  UNL     1      -3.013  -0.268  -0.066  1.00  0.00     0.035 A 
HETATM   14  C9  UNL     1      -4.066  -0.889   0.594  1.00  0.00     0.032 A 
HETATM   15  C10 UNL     1      -5.375  -0.714   0.217  1.00  0.00     0.046 A 
HETATM   16  C11 UNL     1      -5.704   0.096  -0.848  1.00  0.00     0.138 A 
HETATM   17  F1  UNL     1      -6.998   0.258  -1.208  1.00  0.00    -0.204 F 
HETATM   18  C12 UNL     1      -4.695   0.730  -1.531  1.00  0.00     0.074 A 
HETATM   19 CL1  UNL     1      -5.119   1.758  -2.884  1.00  0.00    -0.081 Cl
HETATM   20  C13 UNL     1      -3.407   0.527  -1.120  1.00  0.00     0.056 A 
ENDBRANCH  11  13
ENDBRANCH   6  11
BRANCH   1  21
HETATM   21  O1  UNL     1       4.837   0.797  -0.478  1.00  0.00    -0.367 OA
HETATM   22  C1  UNL     1       6.115   0.540  -1.008  1.00  0.00     0.208 C 
ENDBRANCH   1  21
TORSDOF 3
