REMARK  7 active torsions:
REMARK  status: ('A' for Active; 'I' for Inactive)
REMARK    1  A    between atoms: O1_2  and  C2_3 
REMARK    2  A    between atoms: N3_9  and  C6_10 
REMARK    3  A    between atoms: C14_19  and  O2_20 
REMARK    4  A    between atoms: O2_20  and  C15_21 
REMARK    5  A    between atoms: C15_21  and  C16_22 
REMARK    6  A    between atoms: C16_22  and  C17_23 
REMARK    7  A    between atoms: C17_23  and  N4_24 
ROOT
HETATM    1  C2  UNL     1      -1.689   2.250   1.703  1.00  0.00     0.103 A 
HETATM    2  C3  UNL     1      -2.956   2.674   1.658  1.00  0.00     0.071 A 
HETATM    3  C4  UNL     1      -3.778   2.355   0.510  1.00  0.00     0.083 A 
HETATM    4  N1  UNL     1      -5.015   2.689   0.338  1.00  0.00    -0.180 NA
HETATM    5  N2  UNL     1      -5.725   2.329  -0.815  1.00  0.00    -0.295 N 
HETATM    6  C5  UNL     1      -5.474   1.075  -1.494  1.00  0.00     0.267 C 
HETATM    7  N3  UNL     1      -4.200   0.553  -0.965  1.00  0.00    -0.349 N 
HETATM    8  C12 UNL     1      -3.251   1.564  -0.658  1.00  0.00     0.166 A 
HETATM    9  C13 UNL     1      -1.865   1.173  -0.455  1.00  0.00     0.044 A 
HETATM   10  C14 UNL     1      -1.107   1.469   0.617  1.00  0.00     0.100 A 
HETATM   11  H5  UNL     1      -6.468   2.924  -1.254  1.00  0.00     0.184 HD
ENDROOT
BRANCH  10  12
HETATM   12  O2  UNL     1       0.198   1.125   0.844  1.00  0.00    -0.348 OA
BRANCH  12  13
HETATM   13  C15 UNL     1       1.104   0.569  -0.060  1.00  0.00     0.177 C 
BRANCH  13  14
HETATM   14  C16 UNL     1       2.491   0.397   0.565  1.00  0.00     0.057 C 
BRANCH  14  15
HETATM   15  C17 UNL     1       3.451  -0.200  -0.421  1.00  0.00     0.278 C 
BRANCH  15  16
HETATM   16  N4  UNL     1       4.766  -0.382   0.110  1.00  0.00     0.126 N 
HETATM   17  C18 UNL     1       4.798  -1.401   1.128  1.00  0.00     0.302 C 
HETATM   18  C19 UNL     1       6.203  -1.909   1.359  1.00  0.00     0.198 C 
HETATM   19  O3  UNL     1       7.079  -0.861   1.002  1.00  0.00    -0.385 OA
HETATM   20  C20 UNL     1       7.119  -0.784  -0.408  1.00  0.00     0.237 C 
HETATM   21  C21 UNL     1       5.693  -0.655  -0.952  1.00  0.00     0.428 C 
HETATM   22  F1  UNL     1       5.671   0.398  -1.843  1.00  0.00    -0.214 F 
ENDBRANCH  15  16
ENDBRANCH  14  15
ENDBRANCH  13  14
ENDBRANCH  12  13
ENDBRANCH  10  12
BRANCH   1  23
HETATM   23  O1  UNL     1      -1.073   2.655   2.878  1.00  0.00    -0.353 OA
HETATM   24  C1  UNL     1       0.325   2.624   3.093  1.00  0.00     0.210 C 
ENDBRANCH   1  23
BRANCH   7  25
HETATM   25  C6  UNL     1      -4.101  -0.861  -0.859  1.00  0.00     0.034 A 
HETATM   26  C7  UNL     1      -3.184  -1.550  -0.098  1.00  0.00     0.029 A 
HETATM   27  C8  UNL     1      -3.093  -2.922  -0.023  1.00  0.00     0.004 A 
HETATM   28  C9  UNL     1      -3.963  -3.695  -0.748  1.00  0.00     0.024 A 
HETATM   29  C10 UNL     1      -4.898  -3.058  -1.524  1.00  0.00     0.036 A 
HETATM   30 CL1  UNL     1      -5.986  -4.086  -2.431  1.00  0.00    -0.084 Cl
HETATM   31  C11 UNL     1      -4.953  -1.681  -1.568  1.00  0.00     0.053 A 
ENDBRANCH   7  25
TORSDOF 7
