REMARK  8 active torsions:
REMARK  status: ('A' for Active; 'I' for Inactive)
REMARK    1  A    between atoms: C5_7  and  C6_8 
REMARK    2  A    between atoms: C6_8  and  C7_9 
REMARK    3  A    between atoms: C7_9  and  N3_10 
REMARK    4  A    between atoms: N3_10  and  C8_11 
REMARK    5  A    between atoms: C8_11  and  N4_13 
REMARK    6  A    between atoms: N4_13  and  C9_14 
REMARK    7  A    between atoms: C9_14  and  C10_15 
REMARK    8  A    between atoms: C10_15  and  N5_16 
ROOT
HETATM    1  C8  UNL     1       0.473   0.880   0.546  1.00  0.00     0.171 C 
HETATM    2  S1  UNL     1       0.551   0.760  -1.102  1.00  0.00    -0.041 SA
ENDROOT
BRANCH   1   3
HETATM    3  N3  UNL     1       1.668   0.606   1.296  1.00  0.00    -0.343 N 
HETATM    4  H8  UNL     1       1.596   0.687   2.311  1.00  0.00     0.167 HD
BRANCH   3   5
HETATM    5  C7  UNL     1       2.850   0.258   0.690  1.00  0.00     0.091 C 
BRANCH   5   6
HETATM    6  C6  UNL     1       3.794   0.191  -0.185  1.00  0.00     0.032 C 
BRANCH   6   7
HETATM    7  C5  UNL     1       5.053  -0.226  -0.742  1.00  0.00     0.007 A 
HETATM    8  C2  UNL     1       5.863  -1.066  -0.024  1.00  0.00     0.043 A 
HETATM    9  C1  UNL     1       5.601  -1.631   1.310  1.00  0.00     0.071 C 
HETATM   10  N1  UNL     1       7.025  -1.385  -0.647  1.00  0.00    -0.246 NA
HETATM   11  C3  UNL     1       7.302  -0.889  -1.862  1.00  0.00     0.232 A 
HETATM   12  N2  UNL     1       6.476  -0.062  -2.539  1.00  0.00    -0.253 NA
HETATM   13  C4  UNL     1       5.298   0.315  -2.007  1.00  0.00     0.131 A 
ENDBRANCH   6   7
ENDBRANCH   5   6
ENDBRANCH   3   5
ENDBRANCH   1   3
BRANCH   1  14
HETATM   14  N4  UNL     1      -0.738   1.244   1.170  1.00  0.00    -0.365 N 
HETATM   15  H9  UNL     1      -0.659   1.280   2.236  1.00  0.00     0.161 HD
BRANCH  14  16
HETATM   16  C9  UNL     1      -2.051   1.570   0.618  1.00  0.00     0.152 C 
BRANCH  16  17
HETATM   17  C10 UNL     1      -2.671   0.352   0.034  1.00  0.00     0.292 C 
BRANCH  17  18
HETATM   18  N5  UNL     1      -3.986   0.544  -0.545  1.00  0.00     0.094 N 
HETATM   19  C11 UNL     1      -4.427  -0.690  -1.131  1.00  0.00     0.298 C 
HETATM   20  C12 UNL     1      -5.777  -1.171  -0.770  1.00  0.00     0.198 C 
HETATM   21  O1  UNL     1      -6.654  -0.253  -0.257  1.00  0.00    -0.388 OA
HETATM   22  C13 UNL     1      -6.002   0.298   0.869  1.00  0.00     0.198 C 
HETATM   23  C14 UNL     1      -4.935   1.197   0.272  1.00  0.00     0.298 C 
ENDBRANCH  17  18
ENDBRANCH  16  17
ENDBRANCH  14  16
ENDBRANCH   1  14
TORSDOF 8
