REMARK  3 active torsions:
REMARK  status: ('A' for Active; 'I' for Inactive)
REMARK    1  A    between atoms: C5_7  and  N3_8 
REMARK    2  A    between atoms: N3_8  and  C6_9 
REMARK    3  A    between atoms: C16_24  and  N6_25 
ROOT
HETATM    1  C1  UNL     1      -0.805  -1.018   3.716  1.00  0.00     0.038 C 
HETATM    2  C2  UNL     1      -0.304  -0.347   2.475  1.00  0.00    -0.002 C 
HETATM    3  C3  UNL     1      -0.958  -0.109   1.314  1.00  0.00     0.056 C 
HETATM    4  N1  UNL     1      -0.146   0.564   0.341  1.00  0.00    -0.245 NA
HETATM    5  C4  UNL     1       1.079   0.418   0.104  1.00  0.00     0.235 C 
HETATM    6  N2  UNL     1       2.421   0.028   0.086  1.00  0.00    -0.227 NA
HETATM    7  C5  UNL     1       2.879  -1.114  -0.291  1.00  0.00     0.133 C 
HETATM    8  C12 UNL     1       2.141  -2.313  -0.760  1.00  0.00     0.339 C 
HETATM    9  N4  UNL     1       0.853  -1.864  -1.321  1.00  0.00     0.047 N 
HETATM   10  C13 UNL     1       1.066  -1.282  -2.615  1.00  0.00     0.298 C 
HETATM   11  C14 UNL     1      -0.530  -1.659  -1.173  1.00  0.00     0.283 A 
HETATM   12  S1  UNL     1      -0.204  -2.733   0.048  1.00  0.00     0.146 SA
HETATM   13  N5  UNL     1      -1.910  -1.437  -1.077  1.00  0.00    -0.360 N 
HETATM   14  C15 UNL     1      -2.601  -1.636   0.198  1.00  0.00     0.153 C 
HETATM   15  C16 UNL     1      -2.352  -0.486   1.137  1.00  0.00     0.148 C 
HETATM   16  H15 UNL     1      -1.601  -1.246  -2.046  1.00  0.00     0.161 HD
ENDROOT
BRANCH   7  17
HETATM   17  N3  UNL     1       4.276  -1.242  -0.203  1.00  0.00    -0.343 N 
HETATM   18  H6  UNL     1       4.655  -2.235  -0.217  1.00  0.00     0.167 HD
BRANCH  17  19
HETATM   19  C6  UNL     1       5.093  -0.092  -0.101  1.00  0.00     0.035 A 
HETATM   20  C7  UNL     1       4.954   0.432   1.183  1.00  0.00     0.032 A 
HETATM   21  C8  UNL     1       5.667   1.574   1.560  1.00  0.00     0.046 A 
HETATM   22  C9  UNL     1       6.508   2.178   0.655  1.00  0.00     0.138 A 
HETATM   23  F1  UNL     1       7.229   3.281   0.951  1.00  0.00    -0.204 F 
HETATM   24  C10 UNL     1       6.636   1.645  -0.620  1.00  0.00     0.074 A 
HETATM   25 CL1  UNL     1       7.665   2.308  -1.856  1.00  0.00    -0.081 Cl
HETATM   26  C11 UNL     1       5.942   0.529  -0.994  1.00  0.00     0.056 A 
ENDBRANCH  17  19
ENDBRANCH   7  17
BRANCH  15  27
HETATM   27  N6  UNL     1      -3.270   0.572   0.831  1.00  0.00    -0.401 N 
HETATM   28  C17 UNL     1      -4.643   0.157   0.748  1.00  0.00     0.117 C 
HETATM   29  C18 UNL     1      -5.580   1.365   0.882  1.00  0.00     0.019 C 
HETATM   30  C19 UNL     1      -5.283   2.322  -0.260  1.00  0.00     0.003 C 
HETATM   31  C20 UNL     1      -4.048   1.946  -1.018  1.00  0.00     0.019 C 
HETATM   32  C21 UNL     1      -2.887   1.495  -0.183  1.00  0.00     0.117 C 
ENDBRANCH  15  27
TORSDOF 3
