REMARK  3 active torsions:
REMARK  status: ('A' for Active; 'I' for Inactive)
REMARK    1  A    between atoms: O1_2  and  C2_3 
REMARK    2  A    between atoms: C10_14  and  N3_15 
REMARK    3  A    between atoms: N3_15  and  C11_16 
ROOT
HETATM    1  C2  UNL     1      -4.960  -0.091  -0.354  1.00  0.00     0.070 A 
HETATM    2  C3  UNL     1      -4.538  -0.993  -1.307  1.00  0.00     0.037 A 
HETATM    3  C4  UNL     1      -3.224  -1.402  -1.331  1.00  0.00     0.014 A 
HETATM    4  C5  UNL     1      -2.279  -0.933  -0.410  1.00  0.00    -0.006 A 
HETATM    5  C6  UNL     1      -2.758  -0.018   0.537  1.00  0.00     0.088 A 
HETATM    6  C7  UNL     1      -4.066   0.402   0.577  1.00  0.00     0.074 A 
HETATM    7  O2  UNL     1      -1.916   0.538   1.525  1.00  0.00    -0.289 OA
HETATM    8  C8  UNL     1      -0.535   0.807   1.375  1.00  0.00     0.202 A 
HETATM    9  N1  UNL     1      -0.159   1.937   2.023  1.00  0.00    -0.215 NA
HETATM   10  C9  UNL     1       1.130   2.302   1.955  1.00  0.00     0.238 A 
HETATM   11  N2  UNL     1       1.978   1.558   1.268  1.00  0.00    -0.222 NA
HETATM   12  C10 UNL     1       1.717   0.436   0.597  1.00  0.00     0.160 A 
HETATM   13  C17 UNL     1       0.399   0.059   0.665  1.00  0.00     0.129 A 
HETATM   14  N4  UNL     1       0.124  -1.148  -0.033  1.00  0.00    -0.379 N 
HETATM   15  C18 UNL     1      -1.033  -1.600  -0.777  1.00  0.00     0.161 C 
HETATM   16  H13 UNL     1       0.965  -1.799   0.047  1.00  0.00     0.160 HD
ENDROOT
BRANCH  12  17
HETATM   17  N3  UNL     1       2.666  -0.321  -0.130  1.00  0.00    -0.339 N 
HETATM   18  H8  UNL     1       2.529  -1.174  -0.696  1.00  0.00     0.167 HD
BRANCH  17  19
HETATM   19  C11 UNL     1       4.050  -0.045  -0.260  1.00  0.00     0.035 A 
HETATM   20  C12 UNL     1       5.070  -0.926  -0.599  1.00  0.00     0.029 A 
HETATM   21  C13 UNL     1       6.382  -0.622  -0.726  1.00  0.00     0.004 A 
HETATM   22  C14 UNL     1       6.793   0.665  -0.510  1.00  0.00     0.019 A 
HETATM   23  C15 UNL     1       5.822   1.583  -0.170  1.00  0.00     0.013 A 
HETATM   24 BR1  UNL     1       6.484   3.368   0.117  1.00  0.00    -0.051 Br
HETATM   25  C16 UNL     1       4.493   1.240  -0.049  1.00  0.00     0.048 A 
ENDBRANCH  17  19
ENDBRANCH  12  17
BRANCH   1  26
HETATM   26  O1  UNL     1      -6.254   0.418  -0.202  1.00  0.00    -0.356 OA
HETATM   27  C1  UNL     1      -7.215  -0.058  -1.138  1.00  0.00     0.210 C 
ENDBRANCH   1  26
TORSDOF 3
