REMARK  2 active torsions:
REMARK  status: ('A' for Active; 'I' for Inactive)
REMARK    1  A    between atoms: O1_2  and  C2_3 
REMARK    2  A    between atoms: C10_14  and  N3_15 
ROOT
HETATM    1  C2  UNL     1       5.286   0.133  -0.219  1.00  0.00     0.070 A 
HETATM    2  C3  UNL     1       4.949  -1.184  -0.021  1.00  0.00     0.037 A 
HETATM    3  C4  UNL     1       3.651  -1.601  -0.173  1.00  0.00     0.014 A 
HETATM    4  C5  UNL     1       2.597  -0.753  -0.530  1.00  0.00    -0.006 A 
HETATM    5  C6  UNL     1       2.965   0.570  -0.724  1.00  0.00     0.088 A 
HETATM    6  C7  UNL     1       4.279   1.004  -0.572  1.00  0.00     0.074 A 
HETATM    7  O2  UNL     1       2.107   1.599  -1.080  1.00  0.00    -0.289 OA
HETATM    8  C8  UNL     1       0.741   1.680  -0.860  1.00  0.00     0.202 A 
HETATM    9  N1  UNL     1       0.227   2.898  -1.045  1.00  0.00    -0.215 NA
HETATM   10  C9  UNL     1      -1.085   3.183  -0.880  1.00  0.00     0.238 A 
HETATM   11  N2  UNL     1      -1.888   2.168  -0.512  1.00  0.00    -0.222 NA
HETATM   12  C10 UNL     1      -1.422   0.915  -0.311  1.00  0.00     0.158 A 
HETATM   13  C17 UNL     1      -0.079   0.646  -0.485  1.00  0.00     0.128 A 
HETATM   14  N4  UNL     1       0.166  -0.722  -0.220  1.00  0.00    -0.379 N 
HETATM   15  C18 UNL     1       1.322  -1.491  -0.615  1.00  0.00     0.161 C 
HETATM   16  H18 UNL     1      -0.587  -1.200   0.321  1.00  0.00     0.160 HD
ENDROOT
BRANCH  12  17
HETATM   17  N3  UNL     1      -2.401  -0.044   0.075  1.00  0.00    -0.360 N 
HETATM   18  C11 UNL     1      -2.930  -1.297  -0.439  1.00  0.00     0.152 C 
HETATM   19  C12 UNL     1      -4.407  -1.137  -0.699  1.00  0.00    -0.005 C 
HETATM   20  C13 UNL     1      -5.177  -0.315  -0.015  1.00  0.00    -0.084 C 
HETATM   21  C14 UNL     1      -6.647  -0.121  -0.234  1.00  0.00     0.043 C 
HETATM   22  C15 UNL     1      -4.595   0.505   1.068  1.00  0.00     0.053 C 
HETATM   23  C16 UNL     1      -3.140   0.200   1.321  1.00  0.00     0.129 C 
ENDBRANCH  12  17
BRANCH   1  24
HETATM   24  O1  UNL     1       6.536   0.687  -0.102  1.00  0.00    -0.356 OA
HETATM   25  C1  UNL     1       7.715  -0.012   0.248  1.00  0.00     0.210 C 
ENDBRANCH   1  24
TORSDOF 2
