REMARK  12 active torsions:
REMARK  status: ('A' for Active; 'I' for Inactive)
REMARK    1  A    between atoms: C3_3  and  C4_5 
REMARK    2  A    between atoms: C4_5  and  C5_6 
REMARK    3  A    between atoms: C5_6  and  C6_7 
REMARK    4  A    between atoms: C9_12  and  C10_13 
REMARK    5  A    between atoms: C10_13  and  C11_14 
REMARK    6  A    between atoms: C11_14  and  C12_15 
REMARK    7  A    between atoms: C12_15  and  N3_16 
REMARK    8  A    between atoms: N3_16  and  C13_17 
REMARK    9  A    between atoms: C13_17  and  N4_19 
REMARK   10  A    between atoms: N4_19  and  C14_20 
REMARK   11  A    between atoms: C14_20  and  C15_21 
REMARK   12  A    between atoms: C15_21  and  N5_22 
ROOT
HETATM    1  C12 UNL     1      -0.610  -0.479  -1.203  1.00  0.00     0.090 C 
ENDROOT
BRANCH   1   2
HETATM    2  C11 UNL     1      -1.707  -0.932  -0.632  1.00  0.00     0.019 C 
BRANCH   2   3
HETATM    3  C10 UNL     1      -2.944  -0.321  -0.238  1.00  0.00     0.034 C 
BRANCH   3   4
HETATM    4  C9  UNL     1      -3.190   0.950  -0.404  1.00  0.00     0.069 A 
HETATM    5  C6  UNL     1      -4.295   1.694  -0.092  1.00  0.00     0.007 A 
HETATM    6  C7  UNL     1      -4.358   3.048  -0.373  1.00  0.00     0.131 A 
HETATM    7  N1  UNL     1      -3.322   3.643  -0.959  1.00  0.00    -0.253 NA
HETATM    8  C8  UNL     1      -2.237   2.937  -1.269  1.00  0.00     0.233 A 
HETATM    9  N2  UNL     1      -2.214   1.658  -0.988  1.00  0.00    -0.241 NA
BRANCH   5  10
HETATM   10  C5  UNL     1      -5.269   1.018   0.488  1.00  0.00    -0.006 C 
BRANCH  10  11
HETATM   11  C4  UNL     1      -5.993  -0.117   1.064  1.00  0.00     0.075 C 
BRANCH  11  12
HETATM   12  C3  UNL     1      -7.234  -0.425   0.351  1.00  0.00    -0.005 A 
HETATM   13  C2  UNL     1      -8.297  -0.827  -0.324  1.00  0.00     0.106 A 
HETATM   14  C1  UNL     1      -9.084   0.415  -0.113  1.00  0.00     0.031 C 
HETATM   15 CL1  UNL     1      -6.839  -2.089  -0.244  1.00  0.00    -0.181 Cl
ENDBRANCH  11  12
ENDBRANCH  10  11
ENDBRANCH   5  10
ENDBRANCH   3   4
ENDBRANCH   2   3
ENDBRANCH   1   2
BRANCH   1  16
HETATM   16  N3  UNL     1       0.688  -0.766  -1.692  1.00  0.00    -0.343 N 
HETATM   17  H13 UNL     1       0.829  -1.222  -2.649  1.00  0.00     0.167 HD
BRANCH  16  18
HETATM   18  C13 UNL     1       1.919  -0.501  -1.020  1.00  0.00     0.171 C 
HETATM   19  S1  UNL     1       1.717   0.193   0.454  1.00  0.00    -0.041 SA
BRANCH  18  20
HETATM   20  N4  UNL     1       3.179  -0.814  -1.587  1.00  0.00    -0.365 N 
HETATM   21  H14 UNL     1       3.168  -1.261  -2.535  1.00  0.00     0.161 HD
BRANCH  20  22
HETATM   22  C14 UNL     1       4.428  -0.523  -0.854  1.00  0.00     0.152 C 
BRANCH  22  23
HETATM   23  C15 UNL     1       4.516  -1.457   0.306  1.00  0.00     0.292 C 
BRANCH  23  24
HETATM   24  N5  UNL     1       5.634  -1.295   1.156  1.00  0.00     0.094 N 
HETATM   25  C16 UNL     1       5.589  -0.078   1.916  1.00  0.00     0.298 C 
HETATM   26  C17 UNL     1       6.651   0.870   1.426  1.00  0.00     0.198 C 
HETATM   27  O1  UNL     1       7.867   0.297   1.769  1.00  0.00    -0.388 OA
HETATM   28  C18 UNL     1       8.073  -0.896   1.142  1.00  0.00     0.198 C 
HETATM   29  C19 UNL     1       6.874  -1.536   0.507  1.00  0.00     0.298 C 
ENDBRANCH  23  24
ENDBRANCH  22  23
ENDBRANCH  20  22
ENDBRANCH  18  20
ENDBRANCH  16  18
ENDBRANCH   1  16
TORSDOF 12
