REMARK  6 active torsions:
REMARK  status: ('A' for Active; 'I' for Inactive)
REMARK    1  A    between atoms: C1_2  and  N1_3 
REMARK    2  A    between atoms: C1_2  and  C8_12 
REMARK    3  A    between atoms: N1_3  and  C2_4 
REMARK    4  A    between atoms: C2_4  and  C3_5 
REMARK    5  A    between atoms: C3_5  and  N2_6 
REMARK    6  A    between atoms: N3_19  and  C15_20 
ROOT
HETATM    1  C8  UNL     1      -0.144  -0.808  -1.430  1.00  0.00     0.002 A 
HETATM    2  C9  UNL     1       0.055  -2.186  -1.508  1.00  0.00     0.015 A 
HETATM    3  C10 UNL     1       1.161  -2.795  -0.916  1.00  0.00     0.010 A 
HETATM    4  C11 UNL     1       2.061  -1.998  -0.247  1.00  0.00    -0.036 A 
HETATM    5  C12 UNL     1       1.922  -0.632  -0.133  1.00  0.00    -0.030 A 
HETATM    6  C13 UNL     1       0.808  -0.065  -0.736  1.00  0.00     0.024 A 
HETATM    7  C14 UNL     1       2.848   0.282   0.570  1.00  0.00     0.182 C 
HETATM    8  N3  UNL     1       4.047  -0.396   1.009  1.00  0.00    -0.308 N 
HETATM    9  N4  UNL     1       3.760  -1.687   1.463  1.00  0.00    -0.233 NA
HETATM   10  C21 UNL     1       3.280  -2.564   0.418  1.00  0.00     0.149 C 
HETATM   11  H22 UNL     1       3.062  -1.628   2.235  1.00  0.00     0.147 HD
ENDROOT
BRANCH   1  12
HETATM   12  C1  UNL     1      -1.307  -0.197  -2.058  1.00  0.00     0.106 C 
HETATM   13  S1  UNL     1      -0.624   0.471  -3.376  1.00  0.00    -0.060 SA
BRANCH  12  14
HETATM   14  N1  UNL     1      -2.684  -0.132  -1.722  1.00  0.00    -0.379 N 
HETATM   15  H1  UNL     1      -3.242   0.396  -2.407  1.00  0.00     0.160 HD
BRANCH  14  16
HETATM   16  C2  UNL     1      -3.082  -0.799  -0.497  1.00  0.00     0.140 C 
BRANCH  16  17
HETATM   17  C3  UNL     1      -4.565  -0.676  -0.248  1.00  0.00     0.136 C 
BRANCH  17  18
HETATM   18  N2  UNL     1      -5.022   0.667  -0.123  1.00  0.00    -0.407 N 
HETATM   19  C4  UNL     1      -4.587   1.363   1.035  1.00  0.00     0.143 C 
HETATM   20  C5  UNL     1      -5.324   2.682   1.100  1.00  0.00     0.187 C 
HETATM   21  O1  UNL     1      -6.659   2.335   1.375  1.00  0.00    -0.388 OA
HETATM   22  C6  UNL     1      -7.237   1.712   0.303  1.00  0.00     0.187 C 
HETATM   23  C7  UNL     1      -6.373   0.830  -0.512  1.00  0.00     0.143 C 
ENDBRANCH  17  18
ENDBRANCH  16  17
ENDBRANCH  14  16
ENDBRANCH  12  14
ENDBRANCH   1  12
BRANCH   8  24
HETATM   24  C15 UNL     1       5.416   0.033   1.049  1.00  0.00     0.047 A 
HETATM   25  C16 UNL     1       6.427  -0.795   1.486  1.00  0.00     0.032 A 
HETATM   26  C17 UNL     1       7.683  -0.275   1.481  1.00  0.00     0.028 A 
HETATM   27  C18 UNL     1       8.053   0.977   1.091  1.00  0.00     0.055 A 
HETATM   28 CL1  UNL     1       9.690   1.593   1.107  1.00  0.00    -0.083 Cl
HETATM   29  C19 UNL     1       6.997   1.774   0.657  1.00  0.00     0.058 A 
HETATM   30 CL2  UNL     1       7.380   3.416   0.130  1.00  0.00    -0.082 Cl
HETATM   31  C20 UNL     1       5.670   1.327   0.626  1.00  0.00     0.056 A 
ENDBRANCH   8  24
TORSDOF 6
