REMARK  8 active torsions:
REMARK  status: ('A' for Active; 'I' for Inactive)
REMARK    1  A    between atoms: C1_2  and  N1_3 
REMARK    2  A    between atoms: C1_2  and  N3_10 
REMARK    3  A    between atoms: N1_3  and  C2_4 
REMARK    4  A    between atoms: C2_4  and  N2_5 
REMARK    5  A    between atoms: N3_10  and  C6_11 
REMARK    6  A    between atoms: C11_18  and  N6_19 
REMARK    7  A    between atoms: N6_19  and  C12_20 
REMARK    8  A    between atoms: C12_20  and  C13_21 
ROOT
HETATM    1  C6  UNL     1      -0.657   0.332   2.067  1.00  0.00     0.035 A 
HETATM    2  C7  UNL     1      -0.323   0.721   3.350  1.00  0.00     0.032 A 
HETATM    3  C8  UNL     1       0.941   1.241   3.496  1.00  0.00     0.035 A 
HETATM    4  C9  UNL     1       1.839   1.385   2.474  1.00  0.00     0.072 A 
HETATM    5  N4  UNL     1       3.057   1.911   2.683  1.00  0.00    -0.241 NA
HETATM    6  C10 UNL     1       3.925   2.047   1.636  1.00  0.00     0.235 A 
HETATM    7  N5  UNL     1       3.583   1.663   0.389  1.00  0.00    -0.224 NA
HETATM    8  C11 UNL     1       2.369   1.132   0.138  1.00  0.00     0.137 A 
HETATM    9  C18 UNL     1       1.498   0.997   1.203  1.00  0.00     0.041 A 
HETATM   10  C19 UNL     1       0.240   0.466   1.001  1.00  0.00     0.047 A 
ENDROOT
BRANCH   1  11
HETATM   11  N3  UNL     1      -1.904  -0.225   1.589  1.00  0.00    -0.333 N 
HETATM   12  H10 UNL     1      -1.937  -1.141   2.059  1.00  0.00     0.168 HD
BRANCH  11  13
HETATM   13  C1  UNL     1      -2.689   0.528   0.691  1.00  0.00     0.173 C 
HETATM   14  S1  UNL     1      -2.169   2.006   0.219  1.00  0.00    -0.041 SA
BRANCH  13  15
HETATM   15  N1  UNL     1      -3.924   0.048   0.176  1.00  0.00    -0.342 N 
HETATM   16  H1  UNL     1      -4.490   0.615  -0.491  1.00  0.00     0.163 HD
BRANCH  15  17
HETATM   17  C2  UNL     1      -4.389  -1.240   0.588  1.00  0.00     0.400 C 
BRANCH  17  18
HETATM   18  N2  UNL     1      -5.596  -1.664  -0.029  1.00  0.00     0.130 NA
HETATM   19  C3  UNL     1      -6.727  -0.782   0.144  1.00  0.00     0.303 C 
HETATM   20  C4  UNL     1      -7.658  -1.321  -0.953  1.00  0.00     0.200 C 
HETATM   21  O1  UNL     1      -6.836  -1.936  -1.882  1.00  0.00    -0.361 OA
HETATM   22  C5  UNL     1      -5.529  -1.874  -1.429  1.00  0.00     0.442 C 
ENDBRANCH  17  18
ENDBRANCH  15  17
ENDBRANCH  13  15
ENDBRANCH  11  13
ENDBRANCH   1  11
BRANCH   8  23
HETATM   23  N6  UNL     1       2.052   0.731  -1.196  1.00  0.00    -0.368 N 
HETATM   24  H14 UNL     1       1.175   0.293  -1.543  1.00  0.00     0.161 HD
BRANCH  23  25
HETATM   25  C12 UNL     1       3.043   0.936  -2.238  1.00  0.00     0.177 C 
BRANCH  25  26
HETATM   26  C13 UNL     1       4.313   0.264  -1.841  1.00  0.00     0.024 A 
HETATM   27  C14 UNL     1       5.385   1.027  -1.731  1.00  0.00     0.050 A 
HETATM   28  C15 UNL     1       6.653   0.444  -1.348  1.00  0.00     0.033 A 
HETATM   29 CL1  UNL     1       8.089   1.427  -1.197  1.00  0.00    -0.085 Cl
HETATM   30  C16 UNL     1       6.677  -0.851  -1.123  1.00  0.00     0.016 A 
HETATM   31  C17 UNL     1       5.564  -1.830  -1.207  1.00  0.00     0.148 A 
HETATM   32  N7  UNL     1       4.360  -1.128  -1.592  1.00  0.00    -0.388 N 
HETATM   33  H21 UNL     1       3.485  -1.726  -1.681  1.00  0.00     0.159 HD
ENDBRANCH  25  26
ENDBRANCH  23  25
ENDBRANCH   8  23
TORSDOF 8
