REMARK  7 active torsions:
REMARK  status: ('A' for Active; 'I' for Inactive)
REMARK    1  A    between atoms: C3_5  and  C4_6 
REMARK    2  A    between atoms: C9_13  and  N4_14 
REMARK    3  A    between atoms: N4_14  and  C10_15 
REMARK    4  A    between atoms: C10_15  and  N5_17 
REMARK    5  A    between atoms: N5_17  and  C11_18 
REMARK    6  A    between atoms: C11_18  and  C12_19 
REMARK    7  A    between atoms: C12_19  and  N6_20 
ROOT
HETATM    1  C4  UNL     1       5.079  -0.645   0.047  1.00  0.00     0.078 A 
HETATM    2  N2  UNL     1       6.320  -1.148  -0.251  1.00  0.00    -0.243 NA
HETATM    3  C5  UNL     1       6.544  -2.311  -0.867  1.00  0.00     0.234 A 
HETATM    4  N3  UNL     1       5.552  -3.128  -1.267  1.00  0.00    -0.241 NA
HETATM    5  C6  UNL     1       4.276  -2.722  -1.018  1.00  0.00     0.070 A 
HETATM    6  C7  UNL     1       3.240  -3.529  -1.412  1.00  0.00     0.035 A 
HETATM    7  C8  UNL     1       1.968  -3.080  -1.142  1.00  0.00     0.032 A 
HETATM    8  C9  UNL     1       1.688  -1.877  -0.503  1.00  0.00     0.035 A 
HETATM    9  C17 UNL     1       2.795  -1.143  -0.149  1.00  0.00     0.045 A 
HETATM   10  C18 UNL     1       4.094  -1.514  -0.380  1.00  0.00     0.022 A 
ENDROOT
BRANCH   8  11
HETATM   11  N4  UNL     1       0.381  -1.408  -0.218  1.00  0.00    -0.333 N 
HETATM   12  H7  UNL     1       0.316  -0.498   0.260  1.00  0.00     0.168 HD
BRANCH  11  13
HETATM   13  C10 UNL     1      -0.861  -2.022  -0.502  1.00  0.00     0.172 C 
HETATM   14  S1  UNL     1      -1.261  -3.442  -1.233  1.00  0.00    -0.041 SA
BRANCH  13  15
HETATM   15  N5  UNL     1      -2.074  -1.339  -0.108  1.00  0.00    -0.365 N 
HETATM   16  H8  UNL     1      -3.053  -1.641  -0.234  1.00  0.00     0.161 HD
BRANCH  15  17
HETATM   17  C11 UNL     1      -1.932  -0.048   0.561  1.00  0.00     0.152 C 
BRANCH  17  18
HETATM   18  C12 UNL     1      -3.248   0.565   0.946  1.00  0.00     0.292 C 
BRANCH  18  19
HETATM   19  N6  UNL     1      -4.147   0.831  -0.121  1.00  0.00     0.094 N 
HETATM   20  C13 UNL     1      -3.791   1.852  -1.041  1.00  0.00     0.298 C 
HETATM   21  C14 UNL     1      -4.649   3.068  -1.054  1.00  0.00     0.198 C 
HETATM   22  O1  UNL     1      -5.980   2.859  -0.756  1.00  0.00    -0.388 OA
HETATM   23  C15 UNL     1      -6.017   2.287   0.530  1.00  0.00     0.198 C 
HETATM   24  C16 UNL     1      -5.486   0.882   0.363  1.00  0.00     0.298 C 
ENDBRANCH  18  19
ENDBRANCH  17  18
ENDBRANCH  15  17
ENDBRANCH  13  15
ENDBRANCH  11  13
ENDBRANCH   8  11
BRANCH   1  25
HETATM   25  C3  UNL     1       4.984   0.617   0.707  1.00  0.00     0.198 A 
HETATM   26  C1  UNL     1       4.100   0.911   1.824  1.00  0.00     0.137 A 
HETATM   27  F1  UNL     1       4.040   0.062   2.903  1.00  0.00    -0.207 F 
HETATM   28  C2  UNL     1       3.672   2.082   1.297  1.00  0.00     0.124 A 
HETATM   29  N1  UNL     1       4.462   1.798   0.117  1.00  0.00    -0.381 N 
HETATM   30  H2  UNL     1       4.384   2.493  -0.682  1.00  0.00     0.160 HD
ENDBRANCH   1  25
TORSDOF 7
