REMARK  7 active torsions:
REMARK  status: ('A' for Active; 'I' for Inactive)
REMARK    1  A    between atoms: C1_2  and  N1_3 
REMARK    2  A    between atoms: C1_2  and  N3_12 
REMARK    3  A    between atoms: N1_3  and  C2_4 
REMARK    4  A    between atoms: C2_4  and  C3_5 
REMARK    5  A    between atoms: C3_5  and  N2_6 
REMARK    6  A    between atoms: N3_12  and  C8_13 
REMARK    7  A    between atoms: C11_16  and  N4_17 
ROOT
HETATM    1  S1  UNL     1      -0.232   2.647  -0.501  1.00  0.00    -0.041 SA
HETATM    2  C1  UNL     1       0.949   1.532  -0.357  1.00  0.00     0.172 C 
ENDROOT
BRANCH   2   3
HETATM    3  N1  UNL     1      -0.009   0.554  -0.676  1.00  0.00    -0.365 N 
HETATM    4  H1  UNL     1       0.713  -0.187  -0.592  1.00  0.00     0.161 HD
BRANCH   3   5
HETATM    5  C2  UNL     1      -1.292   0.010  -1.020  1.00  0.00     0.141 C 
BRANCH   5   6
HETATM    6  C3  UNL     1      -2.169   0.208   0.214  1.00  0.00     0.136 C 
BRANCH   6   7
HETATM    7  N2  UNL     1      -3.492  -0.272   0.077  1.00  0.00    -0.407 N 
HETATM    8  C4  UNL     1      -4.344   0.416  -0.838  1.00  0.00     0.143 C 
HETATM    9  C5  UNL     1      -5.764   0.205  -0.287  1.00  0.00     0.187 C 
HETATM   10  O1  UNL     1      -6.030  -1.149  -0.267  1.00  0.00    -0.388 OA
HETATM   11  C6  UNL     1      -5.014  -1.957  -0.709  1.00  0.00     0.187 C 
HETATM   12  C7  UNL     1      -3.668  -1.678  -0.061  1.00  0.00     0.143 C 
ENDBRANCH   6   7
ENDBRANCH   5   6
ENDBRANCH   3   5
ENDBRANCH   2   3
BRANCH   2  13
HETATM   13  N3  UNL     1       2.286   1.821  -0.028  1.00  0.00    -0.333 N 
HETATM   14  H14 UNL     1       2.310   2.844   0.088  1.00  0.00     0.168 HD
BRANCH  13  15
HETATM   15  C8  UNL     1       3.456   1.081   0.151  1.00  0.00     0.034 A 
HETATM   16  C9  UNL     1       4.587   1.774   0.485  1.00  0.00     0.032 A 
HETATM   17  C10 UNL     1       5.831   1.233   0.701  1.00  0.00     0.032 A 
HETATM   18  C11 UNL     1       5.915  -0.135   0.562  1.00  0.00     0.038 A 
HETATM   19  C12 UNL     1       4.845  -0.936   0.230  1.00  0.00     0.032 A 
HETATM   20  C13 UNL     1       3.665  -0.273   0.042  1.00  0.00     0.032 A 
BRANCH  18  21
HETATM   21  N4  UNL     1       7.181  -0.737   0.778  1.00  0.00    -0.323 N 
HETATM   22 BR1  UNL     1       7.481  -2.609   0.628  1.00  0.00     0.047 Br
HETATM   23  H17 UNL     1       8.038  -0.200   1.032  1.00  0.00     0.174 HD
ENDBRANCH  18  21
ENDBRANCH  13  15
ENDBRANCH   2  13
TORSDOF 7
