REMARK  4 active torsions:
REMARK  status: ('A' for Active; 'I' for Inactive)
REMARK    1  A    between atoms: N1_1  and  C1_2 
REMARK    2  A    between atoms: C6_9  and  C7_10 
REMARK    3  A    between atoms: C7_10  and  N2_11 
REMARK    4  A    between atoms: N2_11  and  C8_12 
ROOT
HETATM    1  C1  UNL     1      -4.330  -0.841   0.215  1.00  0.00     0.027 C 
HETATM    2  C2  UNL     1      -4.870   0.384   0.102  1.00  0.00     0.026 C 
HETATM    3  C3  UNL     1      -4.893   1.795  -0.265  1.00  0.00     0.214 C 
HETATM    4  O1  UNL     1      -3.656   2.219  -0.889  1.00  0.00    -0.314 OA
HETATM    5  S1  UNL     1      -2.463   1.074  -0.553  1.00  0.00     0.032 SA
HETATM    6  C4  UNL     1      -1.456   0.078  -0.246  1.00  0.00     0.245 A 
HETATM    7  C5  UNL     1      -0.503  -0.896   0.061  1.00  0.00     0.221 A 
HETATM    8  C6  UNL     1       0.117   0.219  -0.123  1.00  0.00     0.098 A 
HETATM    9  N3  UNL     1      -1.900  -1.366   0.135  1.00  0.00    -0.027 N 
HETATM   10  C13 UNL     1      -3.228  -1.826   0.194  1.00  0.00     0.294 C 
HETATM   11  H13 UNL     1      -2.188  -0.845   1.088  1.00  0.00     0.283 HD
ENDROOT
BRANCH   8  12
HETATM   12  C7  UNL     1       1.559  -0.055   0.097  1.00  0.00     0.130 C 
BRANCH  12  13
HETATM   13  N2  UNL     1       2.351   0.300  -1.055  1.00  0.00    -0.389 N 
HETATM   14  H9  UNL     1       2.092   0.604  -1.988  1.00  0.00     0.159 HD
BRANCH  13  15
HETATM   15  C8  UNL     1       3.685   0.149  -0.608  1.00  0.00     0.035 A 
HETATM   16  C9  UNL     1       3.920   1.459  -0.286  1.00  0.00     0.076 A 
HETATM   17  S2  UNL     1       5.368   2.267   0.379  1.00  0.00    -0.113 SA
HETATM   18  C10 UNL     1       6.542   0.879   0.627  1.00  0.00     0.192 A 
HETATM   19 CL1  UNL     1       7.993   1.229  -0.347  1.00  0.00    -0.107 Cl
HETATM   20  C11 UNL     1       5.900  -0.340   0.157  1.00  0.00     0.042 A 
HETATM   21 CL2  UNL     1       7.047  -1.617   0.378  1.00  0.00    -0.086 Cl
HETATM   22  C12 UNL     1       4.778  -0.768  -0.354  1.00  0.00     0.051 A 
ENDBRANCH  13  15
ENDBRANCH  12  13
ENDBRANCH   8  12
BRANCH   1  23
HETATM   23  N1  UNL     1      -5.351  -1.713   0.828  1.00  0.00    -0.401 N 
HETATM   24  H1  UNL     1      -6.014  -2.462   1.046  1.00  0.00     0.156 HD
HETATM   25  H2  UNL     1      -6.051  -2.028   1.546  1.00  0.00     0.156 HD
ENDBRANCH   1  23
TORSDOF 4
