REMARK  7 active torsions:
REMARK  status: ('A' for Active; 'I' for Inactive)
REMARK    1  A    between atoms: C1_2  and  N1_3 
REMARK    2  A    between atoms: C1_2  and  N3_11 
REMARK    3  A    between atoms: N1_3  and  C2_4 
REMARK    4  A    between atoms: C2_4  and  N2_5 
REMARK    5  A    between atoms: N3_11  and  C7_12 
REMARK    6  A    between atoms: C12_19  and  N6_20 
REMARK    7  A    between atoms: N6_20  and  C13_21 
ROOT
HETATM    1  C7  UNL     1       0.103   0.842   1.474  1.00  0.00     0.035 A 
HETATM    2  C8  UNL     1       0.013   1.795   2.495  1.00  0.00     0.032 A 
HETATM    3  C9  UNL     1       1.163   2.381   2.975  1.00  0.00     0.035 A 
HETATM    4  C10 UNL     1       2.374   2.012   2.434  1.00  0.00     0.072 A 
HETATM    5  N4  UNL     1       3.460   2.649   2.970  1.00  0.00    -0.241 NA
HETATM    6  C11 UNL     1       4.666   2.341   2.491  1.00  0.00     0.236 A 
HETATM    7  N5  UNL     1       4.750   1.440   1.527  1.00  0.00    -0.224 NA
HETATM    8  C12 UNL     1       3.754   0.773   0.947  1.00  0.00     0.142 A 
HETATM    9  C19 UNL     1       2.519   1.083   1.431  1.00  0.00     0.041 A 
HETATM   10  C20 UNL     1       1.346   0.524   0.983  1.00  0.00     0.047 A 
ENDROOT
BRANCH   1  11
HETATM   11  N3  UNL     1      -1.156   0.344   1.103  1.00  0.00    -0.333 N 
HETATM   12  H12 UNL     1      -1.451  -0.623   1.268  1.00  0.00     0.168 HD
BRANCH  11  13
HETATM   13  C1  UNL     1      -2.022   1.275   0.468  1.00  0.00     0.173 C 
HETATM   14  S1  UNL     1      -1.578   2.841   0.184  1.00  0.00    -0.041 SA
BRANCH  13  15
HETATM   15  N1  UNL     1      -3.341   0.879   0.042  1.00  0.00    -0.351 N 
HETATM   16  H1  UNL     1      -3.963   1.586  -0.417  1.00  0.00     0.163 HD
BRANCH  15  17
HETATM   17  C2  UNL     1      -3.813  -0.484   0.244  1.00  0.00     0.243 C 
BRANCH  17  18
HETATM   18  N2  UNL     1      -5.150  -0.585  -0.217  1.00  0.00    -0.393 N 
HETATM   19  C3  UNL     1      -5.791  -1.846  -0.113  1.00  0.00     0.144 C 
HETATM   20  C4  UNL     1      -6.259  -2.445  -1.405  1.00  0.00     0.187 C 
HETATM   21  O1  UNL     1      -6.487  -1.552  -2.420  1.00  0.00    -0.388 OA
HETATM   22  C5  UNL     1      -6.756  -0.264  -2.026  1.00  0.00     0.187 C 
HETATM   23  C6  UNL     1      -5.562   0.276  -1.265  1.00  0.00     0.144 C 
ENDBRANCH  17  18
ENDBRANCH  15  17
ENDBRANCH  13  15
ENDBRANCH  11  13
ENDBRANCH   1  11
BRANCH   8  24
HETATM   24  N6  UNL     1       3.895  -0.190  -0.079  1.00  0.00    -0.340 N 
HETATM   25  H16 UNL     1       3.092  -0.714  -0.468  1.00  0.00     0.167 HD
BRANCH  24  26
HETATM   26  C13 UNL     1       5.070  -0.618  -0.750  1.00  0.00     0.033 A 
HETATM   27  C14 UNL     1       5.217  -1.760  -1.493  1.00  0.00     0.031 A 
HETATM   28  C15 UNL     1       6.347  -2.156  -2.145  1.00  0.00     0.026 A 
HETATM   29  C16 UNL     1       7.464  -1.317  -2.047  1.00  0.00     0.034 A 
HETATM   30 CL1  UNL     1       8.913  -1.840  -2.893  1.00  0.00    -0.084 Cl
HETATM   31  C17 UNL     1       7.369  -0.153  -1.311  1.00  0.00     0.026 A 
HETATM   32  C18 UNL     1       6.191   0.210  -0.661  1.00  0.00     0.031 A 
ENDBRANCH  24  26
ENDBRANCH   8  24
TORSDOF 7
