REMARK  8 active torsions:
REMARK  status: ('A' for Active; 'I' for Inactive)
REMARK    1  A    between atoms: C1_2  and  N1_3 
REMARK    2  A    between atoms: C1_2  and  N3_12 
REMARK    3  A    between atoms: N1_3  and  C2_4 
REMARK    4  A    between atoms: C2_4  and  C3_5 
REMARK    5  A    between atoms: C3_5  and  N2_6 
REMARK    6  A    between atoms: N3_12  and  C8_13 
REMARK    7  A    between atoms: C14_19  and  N4_20 
REMARK    8  A    between atoms: N4_20  and  C15_21 
ROOT
HETATM    1  C8  UNL     1       0.875   0.320   0.569  1.00  0.00     0.035 A 
HETATM    2  C9  UNL     1       0.666   0.338  -0.787  1.00  0.00     0.032 A 
HETATM    3  C10 UNL     1       1.605   0.528  -1.766  1.00  0.00     0.032 A 
HETATM    4  C11 UNL     1       2.874   0.716  -1.299  1.00  0.00     0.040 A 
HETATM    5  C12 UNL     1       3.200   0.718   0.017  1.00  0.00     0.012 A 
HETATM    6  C13 UNL     1       2.193   0.520   0.925  1.00  0.00     0.043 A 
HETATM    7  C14 UNL     1       4.643   0.957  -0.196  1.00  0.00     0.218 A 
HETATM    8  N5  UNL     1       4.267   0.958  -1.599  1.00  0.00    -0.364 N 
HETATM    9  H24 UNL     1       4.786   1.082  -2.505  1.00  0.00     0.162 HD
ENDROOT
BRANCH   1  10
HETATM   10  N3  UNL     1      -0.093   0.129   1.570  1.00  0.00    -0.333 N 
HETATM   11  H14 UNL     1       0.303   0.144   2.560  1.00  0.00     0.168 HD
BRANCH  10  12
HETATM   12  C1  UNL     1      -1.446  -0.083   1.767  1.00  0.00     0.172 C 
HETATM   13  S1  UNL     1      -2.139  -0.254   3.259  1.00  0.00    -0.041 SA
BRANCH  12  14
HETATM   14  N1  UNL     1      -2.539  -0.207   0.886  1.00  0.00    -0.365 N 
HETATM   15  H1  UNL     1      -2.301  -0.127  -0.100  1.00  0.00     0.161 HD
BRANCH  14  16
HETATM   16  C2  UNL     1      -3.960  -0.428   1.067  1.00  0.00     0.152 C 
BRANCH  16  17
HETATM   17  C3  UNL     1      -4.700  -0.500  -0.223  1.00  0.00     0.292 C 
BRANCH  17  18
HETATM   18  N2  UNL     1      -6.104  -0.716  -0.065  1.00  0.00     0.094 N 
HETATM   19  C4  UNL     1      -6.770  -0.865  -1.357  1.00  0.00     0.298 C 
HETATM   20  C5  UNL     1      -8.261  -0.993  -1.143  1.00  0.00     0.198 C 
HETATM   21  O1  UNL     1      -8.790   0.204  -0.664  1.00  0.00    -0.388 OA
HETATM   22  C6  UNL     1      -7.821   1.045  -0.163  1.00  0.00     0.198 C 
HETATM   23  C7  UNL     1      -6.770   0.343   0.675  1.00  0.00     0.298 C 
ENDBRANCH  17  18
ENDBRANCH  16  17
ENDBRANCH  14  16
ENDBRANCH  12  14
ENDBRANCH  10  12
ENDBRANCH   1  10
BRANCH   7  24
HETATM   24  N4  UNL     1       5.389  -0.214   0.219  1.00  0.00    -0.365 N 
HETATM   25  H19 UNL     1       4.935  -1.083   0.607  1.00  0.00     0.162 HD
BRANCH  24  26
HETATM   26  C15 UNL     1       6.820  -0.238   0.116  1.00  0.00     0.029 A 
HETATM   27  C16 UNL     1       7.560  -1.350   0.510  1.00  0.00     0.031 A 
HETATM   28  C17 UNL     1       8.929  -1.451   0.441  1.00  0.00     0.026 A 
HETATM   29  C18 UNL     1       9.599  -0.337  -0.067  1.00  0.00     0.034 A 
HETATM   30 CL1  UNL     1      11.352  -0.464  -0.157  1.00  0.00    -0.084 Cl
HETATM   31  C19 UNL     1       8.905   0.803  -0.475  1.00  0.00     0.026 A 
HETATM   32  C20 UNL     1       7.519   0.842  -0.380  1.00  0.00     0.031 A 
ENDBRANCH  24  26
ENDBRANCH   7  24
TORSDOF 8
