REMARK  9 active torsions:
REMARK  status: ('A' for Active; 'I' for Inactive)
REMARK    1  A    between atoms: C3_3  and  N1_4 
REMARK    2  A    between atoms: N1_4  and  C4_5 
REMARK    3  A    between atoms: C4_5  and  N2_6 
REMARK    4  A    between atoms: N2_6  and  C5_7 
REMARK    5  A    between atoms: C5_7  and  C6_8 
REMARK    6  A    between atoms: C6_8  and  C7_9 
REMARK    7  A    between atoms: C7_9  and  N3_10 
REMARK    8  A    between atoms: C14_18  and  N4_19 
REMARK    9  A    between atoms: N4_19  and  S1_20 
ROOT
HETATM    1  C1  UNL     1       1.701  -2.361   1.042  1.00  0.00    -0.051 C 
HETATM    2  C2  UNL     1       0.874  -1.342   1.235  1.00  0.00     0.095 C 
HETATM    3  C3  UNL     1       1.340  -0.393   0.372  1.00  0.00     0.037 C 
HETATM    4  C12 UNL     1       2.601   0.029   0.102  1.00  0.00     0.034 C 
HETATM    5  C13 UNL     1       3.717  -0.596  -0.379  1.00  0.00     0.055 C 
HETATM    6  C14 UNL     1       4.371  -1.681   0.134  1.00  0.00     0.157 C 
HETATM    7  N5  UNL     1       5.066  -2.658   0.681  1.00  0.00    -0.221 NA
HETATM    8  C20 UNL     1       4.587  -3.899   0.815  1.00  0.00     0.246 C 
HETATM    9  N6  UNL     1       3.262  -4.193   0.664  1.00  0.00    -0.191 NA
HETATM   10  C21 UNL     1       2.431  -3.234   0.863  1.00  0.00     0.041 C 
ENDROOT
BRANCH   3  11
HETATM   11  N1  UNL     1       0.016  -0.130  -0.024  1.00  0.00    -0.365 N 
HETATM   12  H2  UNL     1       0.155   0.613  -0.721  1.00  0.00     0.161 HD
BRANCH  11  13
HETATM   13  C4  UNL     1      -1.046  -0.877   0.574  1.00  0.00     0.392 C 
BRANCH  13  14
HETATM   14  N2  UNL     1      -2.286  -0.392  -0.019  1.00  0.00     0.100 N 
HETATM   15  H5  UNL     1      -2.322  -0.554  -1.034  1.00  0.00     0.318 HD
BRANCH  14  16
HETATM   16  C5  UNL     1      -2.481   1.012   0.239  1.00  0.00     0.273 C 
BRANCH  16  17
HETATM   17  C6  UNL     1      -3.804   1.409  -0.430  1.00  0.00     0.060 C 
BRANCH  17  18
HETATM   18  C7  UNL     1      -4.870   0.566   0.196  1.00  0.00     0.274 C 
BRANCH  18  19
HETATM   19  N3  UNL     1      -6.188   0.810  -0.318  1.00  0.00     0.092 N 
HETATM   20  C8  UNL     1      -7.154  -0.051   0.314  1.00  0.00     0.298 C 
HETATM   21  C9  UNL     1      -8.488   0.288  -0.367  1.00  0.00     0.198 C 
HETATM   22  O1  UNL     1      -8.866   1.502   0.140  1.00  0.00    -0.388 OA
HETATM   23  C10 UNL     1      -7.940   2.494   0.129  1.00  0.00     0.198 C 
HETATM   24  C11 UNL     1      -6.573   2.188  -0.351  1.00  0.00     0.298 C 
ENDBRANCH  18  19
ENDBRANCH  17  18
ENDBRANCH  16  17
ENDBRANCH  14  16
ENDBRANCH  13  14
ENDBRANCH  11  13
ENDBRANCH   3  11
BRANCH   6  25
HETATM   25  N4  UNL     1       5.328  -0.990   0.918  1.00  0.00    -0.203 NA
BRANCH  25  26
HETATM   26  S1  UNL     1       6.529  -0.247   0.143  1.00  0.00    -0.072 SA
HETATM   27  C15 UNL     1       7.806   0.667   1.058  1.00  0.00     0.057 A 
HETATM   28  C16 UNL     1       8.958   1.015   0.508  1.00  0.00     0.007 A 
HETATM   29  C17 UNL     1       9.198   0.650  -0.873  1.00  0.00    -0.003 A 
HETATM   30  C18 UNL     1       8.401  -0.000  -1.677  1.00  0.00    -0.015 A 
HETATM   31  C19 UNL     1       7.047  -0.603  -1.592  1.00  0.00     0.118 A 
ENDBRANCH  25  26
ENDBRANCH   6  25
TORSDOF 9
