REMARK  5 active torsions:
REMARK  status: ('A' for Active; 'I' for Inactive)
REMARK    1  A    between atoms: C1_2  and  N1_3 
REMARK    2  A    between atoms: C1_2  and  N3_11 
REMARK    3  A    between atoms: N1_3  and  C2_4 
REMARK    4  A    between atoms: C13_20  and  N6_21 
REMARK    5  A    between atoms: N6_21  and  C14_22 
ROOT
HETATM    1  N3  UNL     1       0.114  -0.634   1.235  1.00  0.00    -0.327 N 
HETATM    2  C7  UNL     1       0.519  -1.176   2.531  1.00  0.00     0.096 C 
HETATM    3  C8  UNL     1       0.444  -2.213   1.756  1.00  0.00     0.052 C 
HETATM    4  C9  UNL     1       0.296  -3.225   0.755  1.00  0.00     0.017 C 
HETATM    5  C10 UNL     1       0.815  -4.353   1.160  1.00  0.00     0.119 C 
HETATM    6  N4  UNL     1       1.474  -4.427   2.449  1.00  0.00    -0.242 NA
HETATM    7  C11 UNL     1       2.339  -3.316   2.602  1.00  0.00     0.297 C 
HETATM    8  N5  UNL     1       2.450  -2.369   1.648  1.00  0.00    -0.412 NA
HETATM    9  C12 UNL     1       2.440  -1.503   0.838  1.00  0.00     0.203 C 
HETATM   10  C13 UNL     1       1.385  -0.485   0.445  1.00  0.00     0.240 C 
ENDROOT
BRANCH   1  11
HETATM   11  C1  UNL     1      -1.107  -0.206   0.643  1.00  0.00     0.177 C 
HETATM   12  S1  UNL     1      -2.238  -0.457   1.810  1.00  0.00    -0.041 SA
BRANCH  11  13
HETATM   13  N1  UNL     1      -1.412   0.321  -0.648  1.00  0.00    -0.317 N 
HETATM   14  H1  UNL     1      -0.626   0.443  -1.327  1.00  0.00     0.170 HD
BRANCH  13  15
HETATM   15  C2  UNL     1      -2.782   0.620  -0.856  1.00  0.00     0.135 A 
HETATM   16  C3  UNL     1      -4.013   0.607  -1.479  1.00  0.00     0.082 A 
HETATM   17  C4  UNL     1      -5.279   0.502  -2.263  1.00  0.00     0.228 C 
HETATM   18  N2  UNL     1      -3.936   1.323  -0.341  1.00  0.00    -0.328 N 
HETATM   19  O1  UNL     1      -6.069   1.595  -1.942  1.00  0.00    -0.384 OA
HETATM   20  C5  UNL     1      -6.353   1.513  -0.570  1.00  0.00     0.188 C 
HETATM   21  C6  UNL     1      -5.117   2.011   0.142  1.00  0.00     0.157 C 
ENDBRANCH  13  15
ENDBRANCH  11  13
ENDBRANCH   1  11
BRANCH  10  22
HETATM   22  N6  UNL     1       1.952   0.808   0.695  1.00  0.00    -0.363 N 
HETATM   23  H15 UNL     1       1.466   1.416   1.412  1.00  0.00     0.162 HD
BRANCH  22  24
HETATM   24  C14 UNL     1       3.125   1.314   0.044  1.00  0.00     0.029 A 
HETATM   25  C15 UNL     1       3.606   2.585   0.409  1.00  0.00     0.031 A 
HETATM   26  C16 UNL     1       4.757   3.027  -0.267  1.00  0.00     0.026 A 
HETATM   27  C17 UNL     1       5.398   2.282  -1.232  1.00  0.00     0.034 A 
HETATM   28 CL1  UNL     1       6.829   3.009  -1.973  1.00  0.00    -0.084 Cl
HETATM   29  C18 UNL     1       4.944   1.053  -1.595  1.00  0.00     0.026 A 
HETATM   30  C19 UNL     1       3.804   0.616  -0.926  1.00  0.00     0.031 A 
ENDBRANCH  22  24
ENDBRANCH  10  22
TORSDOF 5
