REMARK  5 active torsions:
REMARK  status: ('A' for Active; 'I' for Inactive)
REMARK    1  A    between atoms: C2_2  and  N1_3 
REMARK    2  A    between atoms: N1_3  and  C3_4 
REMARK    3  A    between atoms: C3_4  and  C4_5 
REMARK    4  A    between atoms: C10_14  and  C11_15 
REMARK    5  A    between atoms: C12_16  and  O1_18 
ROOT
HETATM    1  C4  UNL     1       2.118  -0.425  -0.722  1.00  0.00     0.094 A 
HETATM    2  N2  UNL     1       2.504  -1.588  -1.306  1.00  0.00    -0.242 NA
HETATM    3  C5  UNL     1       1.740  -2.707  -1.231  1.00  0.00     0.236 A 
HETATM    4  N3  UNL     1       0.557  -2.724  -0.574  1.00  0.00    -0.216 NA
HETATM    5  C6  UNL     1       0.098  -1.606   0.036  1.00  0.00     0.195 A 
HETATM    6  C7  UNL     1       0.907  -0.503  -0.069  1.00  0.00     0.108 A 
HETATM    7  N4  UNL     1       0.621   0.777   0.468  1.00  0.00    -0.381 N 
HETATM    8  C8  UNL     1      -0.592   1.442   0.947  1.00  0.00     0.156 C 
HETATM    9  C9  UNL     1      -1.690   0.482   1.031  1.00  0.00    -0.038 C 
HETATM   10  C10 UNL     1      -2.814   0.872   0.472  1.00  0.00     0.009 C 
HETATM   11  C14 UNL     1      -1.618  -0.832   1.671  1.00  0.00     0.213 C 
HETATM   12  O2  UNL     1      -1.133  -1.745   0.681  1.00  0.00    -0.328 OA
HETATM   13  H10 UNL     1       1.368   1.491   0.595  1.00  0.00     0.160 HD
ENDROOT
BRANCH  10  14
HETATM   14  C11 UNL     1      -4.132   0.315   0.293  1.00  0.00     0.032 C 
HETATM   15  C12 UNL     1      -5.285   0.631  -0.245  1.00  0.00     0.039 C 
HETATM   16  C13 UNL     1      -6.452  -0.260  -0.212  1.00  0.00     0.076 C 
BRANCH  15  17
HETATM   17  O1  UNL     1      -5.598   1.806  -0.913  1.00  0.00    -0.365 OA
HETATM   18  H18 UNL     1      -6.317   2.454  -0.609  1.00  0.00     0.217 HD
ENDBRANCH  15  17
ENDBRANCH  10  14
BRANCH   1  19
HETATM   19  C3  UNL     1       2.948   0.807  -0.803  1.00  0.00     0.331 C 
BRANCH  19  20
HETATM   20  N1  UNL     1       4.168   0.518  -1.554  1.00  0.00     0.088 N 
HETATM   21  H6  UNL     1       3.980   0.154  -2.499  1.00  0.00     0.316 HD
BRANCH  20  22
HETATM   22  C2  UNL     1       5.085  -0.342  -0.858  1.00  0.00     0.265 C 
HETATM   23  C1  UNL     1       5.704   0.370   0.334  1.00  0.00     0.037 C 
ENDBRANCH  20  22
ENDBRANCH  19  20
ENDBRANCH   1  19
TORSDOF 5
