REMARK  7 active torsions:
REMARK  status: ('A' for Active; 'I' for Inactive)
REMARK    1  A    between atoms: N1_1  and  C1_2 
REMARK    2  A    between atoms: C11_16  and  C12_17 
REMARK    3  A    between atoms: C12_17  and  N4_18 
REMARK    4  A    between atoms: N4_18  and  C13_19 
REMARK    5  A    between atoms: C13_19  and  C14_20 
REMARK    6  A    between atoms: C14_20  and  C15_21 
REMARK    7  A    between atoms: C15_21  and  N5_22 
ROOT
HETATM    1  C1  UNL     1      -4.460   1.555  -0.663  1.00  0.00     0.024 C 
HETATM    2  C2  UNL     1      -4.293   2.616  -1.440  1.00  0.00    -0.051 C 
HETATM    3  B1  UNL     1      -5.191   1.926  -3.050  1.00  0.00     0.223 B 
HETATM    4  C3  UNL     1      -6.558   0.978  -2.316  1.00  0.00    -0.055 C 
HETATM    5 BR1  UNL     1      -8.289   1.034  -3.020  1.00  0.00    -0.069 Br
HETATM    6  C4  UNL     1      -6.096   0.281  -1.226  1.00  0.00     0.018 C 
HETATM    7  C5  UNL     1      -5.040   0.433  -0.274  1.00  0.00     0.019 C 
HETATM    8  C6  UNL     1      -4.900  -0.754   0.487  1.00  0.00     0.083 A 
HETATM    9  N2  UNL     1      -5.910  -1.602   0.668  1.00  0.00    -0.240 NA
HETATM   10  C7  UNL     1      -5.897  -2.757   1.306  1.00  0.00     0.234 A 
HETATM   11  N3  UNL     1      -4.765  -3.187   1.858  1.00  0.00    -0.241 NA
HETATM   12  C8  UNL     1      -3.652  -2.461   1.766  1.00  0.00     0.070 A 
HETATM   13  C9  UNL     1      -2.491  -2.982   2.280  1.00  0.00     0.033 A 
HETATM   14  C10 UNL     1      -1.321  -2.275   2.098  1.00  0.00     0.011 A 
HETATM   15  C11 UNL     1      -1.375  -1.070   1.400  1.00  0.00    -0.029 A 
HETATM   16  C20 UNL     1      -2.587  -0.635   0.928  1.00  0.00     0.025 A 
HETATM   17  C21 UNL     1      -3.789  -1.284   1.080  1.00  0.00     0.023 A 
ENDROOT
BRANCH  15  18
HETATM   18  C12 UNL     1      -0.079  -0.367   1.243  1.00  0.00     0.308 C 
BRANCH  18  19
HETATM   19  N4  UNL     1       0.617  -0.773   0.020  1.00  0.00     0.087 N 
HETATM   20  H10 UNL     1       0.010  -0.556  -0.811  1.00  0.00     0.316 HD
BRANCH  19  21
HETATM   21  C13 UNL     1       1.901  -0.060  -0.072  1.00  0.00     0.272 C 
BRANCH  21  22
HETATM   22  C14 UNL     1       2.623  -0.454  -1.322  1.00  0.00     0.060 C 
BRANCH  22  23
HETATM   23  C15 UNL     1       3.929   0.202  -1.572  1.00  0.00     0.274 C 
BRANCH  23  24
HETATM   24  N5  UNL     1       4.946  -0.000  -0.591  1.00  0.00     0.092 N 
HETATM   25  C16 UNL     1       4.779   0.617   0.673  1.00  0.00     0.298 C 
HETATM   26  C17 UNL     1       6.090   1.347   1.019  1.00  0.00     0.198 C 
HETATM   27  O1  UNL     1       6.453   2.214   0.011  1.00  0.00    -0.388 OA
HETATM   28  C18 UNL     1       6.630   1.591  -1.202  1.00  0.00     0.198 C 
HETATM   29  C19 UNL     1       6.258   0.138  -1.134  1.00  0.00     0.298 C 
ENDBRANCH  23  24
ENDBRANCH  22  23
ENDBRANCH  21  22
ENDBRANCH  19  21
ENDBRANCH  18  19
ENDBRANCH  15  18
BRANCH   1  30
HETATM   30  N1  UNL     1      -3.658   2.006   0.489  1.00  0.00    -0.399 N 
HETATM   31  H1  UNL     1      -3.739   1.954   1.540  1.00  0.00     0.156 HD
HETATM   32  H2  UNL     1      -3.029   2.360   1.267  1.00  0.00     0.156 HD
ENDBRANCH   1  30
TORSDOF 7
