REMARK  3 active torsions:
REMARK  status: ('A' for Active; 'I' for Inactive)
REMARK    1  A    between atoms: N1_2  and  C1_3 
REMARK    2  A    between atoms: C6_10  and  N4_11 
REMARK    3  A    between atoms: N4_11  and  C7_12 
ROOT
HETATM    1  C1  UNL     1      -2.707   1.283  -0.348  1.00  0.00     0.060 A 
HETATM    2  C2  UNL     1      -3.793   0.655   0.224  1.00  0.00     0.034 A 
HETATM    3  C3  UNL     1      -3.696  -0.684   0.615  1.00  0.00     0.035 A 
HETATM    4  C4  UNL     1      -2.457  -1.284   0.381  1.00  0.00     0.072 A 
HETATM    5  N2  UNL     1      -2.341  -2.570   0.741  1.00  0.00    -0.241 NA
HETATM    6  C5  UNL     1      -1.190  -3.262   0.556  1.00  0.00     0.236 A 
HETATM    7  N3  UNL     1      -0.108  -2.678  -0.001  1.00  0.00    -0.224 NA
HETATM    8  C6  UNL     1      -0.162  -1.371  -0.388  1.00  0.00     0.142 A 
HETATM    9  C13 UNL     1      -1.358  -0.691  -0.185  1.00  0.00     0.041 A 
HETATM   10  C14 UNL     1      -1.493   0.653  -0.564  1.00  0.00     0.049 A 
ENDROOT
BRANCH   8  11
HETATM   11  N4  UNL     1       0.877  -0.623  -0.996  1.00  0.00    -0.340 N 
HETATM   12  H5  UNL     1       0.600  -0.550  -2.000  1.00  0.00     0.167 HD
BRANCH  11  13
HETATM   13  C7  UNL     1       2.066  -0.059  -0.435  1.00  0.00     0.035 A 
HETATM   14  C8  UNL     1       2.812   0.873  -1.107  1.00  0.00     0.032 A 
HETATM   15  C9  UNL     1       3.959   1.366  -0.539  1.00  0.00     0.046 A 
HETATM   16  C10 UNL     1       4.298   0.876   0.710  1.00  0.00     0.138 A 
HETATM   17  F2  UNL     1       5.419   1.327   1.313  1.00  0.00    -0.204 F 
HETATM   18  C11 UNL     1       3.541  -0.072   1.395  1.00  0.00     0.074 A 
HETATM   19 CL1  UNL     1       4.014  -0.677   2.988  1.00  0.00    -0.081 Cl
HETATM   20  C12 UNL     1       2.393  -0.559   0.817  1.00  0.00     0.056 A 
ENDBRANCH  11  13
ENDBRANCH   8  11
BRANCH   1  21
HETATM   21  N1  UNL     1      -2.846   2.656  -0.744  1.00  0.00    -0.225 N 
HETATM   22  F1  UNL     1      -2.672   3.869  -0.196  1.00  0.00    -0.101 F 
HETATM   23  H1  UNL     1      -3.168   2.825  -1.732  1.00  0.00     0.199 HD
ENDBRANCH   1  21
TORSDOF 3
