REMARK  7 active torsions:
REMARK  status: ('A' for Active; 'I' for Inactive)
REMARK    1  A    between atoms: C4_5  and  N1_6 
REMARK    2  A    between atoms: N1_6  and  C5_7 
REMARK    3  A    between atoms: C5_7  and  C6_8 
REMARK    4  A    between atoms: C7_9  and  C8_10 
REMARK    5  A    between atoms: C12_14  and  C13_15 
REMARK    6  A    between atoms: C13_15  and  C14_16 
REMARK    7  A    between atoms: C14_16  and  N2_17 
ROOT
HETATM    1  C8  UNL     1       0.970  -0.402   0.954  1.00  0.00     0.044 C 
HETATM    2  C9  UNL     1       0.237   0.665   0.896  1.00  0.00    -0.000 A 
HETATM    3  C10 UNL     1      -0.349   2.013   0.790  1.00  0.00     0.024 A 
HETATM    4  C11 UNL     1      -1.166   0.963   0.949  1.00  0.00    -0.022 A 
HETATM    5  C12 UNL     1      -2.315   0.084   1.109  1.00  0.00     0.119 C 
HETATM    6  N3  UNL     1      -1.964  -1.106   1.805  1.00  0.00    -0.358 N 
HETATM    7  C19 UNL     1      -0.903  -2.044   1.724  1.00  0.00     0.172 C 
HETATM    8  S1  UNL     1      -1.131  -3.560   2.272  1.00  0.00    -0.041 SA
HETATM    9  N4  UNL     1       0.386  -1.705   1.169  1.00  0.00    -0.333 N 
HETATM   10  H22 UNL     1      -2.663  -1.363   2.571  1.00  0.00     0.162 HD
HETATM   11  H23 UNL     1       0.951  -2.541   0.896  1.00  0.00     0.168 HD
ENDROOT
BRANCH   1  12
HETATM   12  C7  UNL     1       2.416  -0.408   0.813  1.00  0.00     0.028 C 
HETATM   13  C6  UNL     1       3.099   0.706   0.613  1.00  0.00    -0.005 C 
BRANCH  13  14
HETATM   14  C5  UNL     1       4.599   0.683   0.467  1.00  0.00     0.147 C 
BRANCH  14  15
HETATM   15  N1  UNL     1       4.927   1.241  -0.857  1.00  0.00    -0.386 N 
HETATM   16  H3  UNL     1       4.145   1.594  -1.476  1.00  0.00     0.160 HD
BRANCH  15  17
HETATM   17  C4  UNL     1       6.282   1.298  -1.290  1.00  0.00     0.029 A 
HETATM   18  C3  UNL     1       7.249   0.801  -0.415  1.00  0.00     0.032 A 
HETATM   19  C2  UNL     1       8.541   0.894  -0.913  1.00  0.00     0.046 A 
HETATM   20  C1  UNL     1       8.901   1.406  -2.121  1.00  0.00     0.138 A 
HETATM   21  F1  UNL     1      10.221   1.434  -2.481  1.00  0.00    -0.204 F 
HETATM   22  C21 UNL     1       7.877   1.884  -2.941  1.00  0.00     0.074 A 
HETATM   23  C20 UNL     1       6.559   1.828  -2.520  1.00  0.00     0.056 A 
HETATM   24 CL1  UNL     1       8.382   2.540  -4.495  1.00  0.00    -0.081 Cl
ENDBRANCH  15  17
ENDBRANCH  14  15
ENDBRANCH  13  14
ENDBRANCH   1  12
BRANCH   5  25
HETATM   25  C13 UNL     1      -2.885  -0.337  -0.254  1.00  0.00     0.060 C 
BRANCH  25  26
HETATM   26  C14 UNL     1      -4.058  -1.244   0.016  1.00  0.00     0.275 C 
BRANCH  26  27
HETATM   27  N2  UNL     1      -5.109  -0.664   0.785  1.00  0.00     0.092 N 
HETATM   28  C15 UNL     1      -6.200  -1.599   0.992  1.00  0.00     0.298 C 
HETATM   29  C16 UNL     1      -7.120  -1.743  -0.176  1.00  0.00     0.198 C 
HETATM   30  O1  UNL     1      -6.700  -1.148  -1.338  1.00  0.00    -0.388 OA
HETATM   31  C17 UNL     1      -6.294   0.156  -1.219  1.00  0.00     0.198 C 
HETATM   32  C18 UNL     1      -5.646   0.481   0.106  1.00  0.00     0.298 C 
ENDBRANCH  26  27
ENDBRANCH  25  26
ENDBRANCH   5  25
TORSDOF 7
