REMARK  7 active torsions:
REMARK  status: ('A' for Active; 'I' for Inactive)
REMARK    1  A    between atoms: C3_3  and  C4_4 
REMARK    2  A    between atoms: C3_3  and  N4_18 
REMARK    3  A    between atoms: C4_4  and  C5_5 
REMARK    4  A    between atoms: C5_5  and  N1_6 
REMARK    5  A    between atoms: C6_7  and  N2_8 
REMARK    6  A    between atoms: C7_9  and  N3_10 
REMARK    7  A    between atoms: N3_10  and  C8_11 
REMARK       I    between atoms: N4_18  and  C14_19 
REMARK       I    between atoms: C14_19  and  N5_20 
ROOT
HETATM    1  N1  UNL     1      -0.250  -0.584   0.439  1.00  0.00    -0.282 NA
HETATM    2  C6  UNL     1      -0.615  -1.819   0.251  1.00  0.00     0.227 C 
ENDROOT
BRANCH   1   3
HETATM    3  C5  UNL     1       1.138  -0.163   0.460  1.00  0.00     0.156 C 
BRANCH   3   4
HETATM    4  C4  UNL     1       1.989  -0.942  -0.494  1.00  0.00     0.078 C 
BRANCH   4   5
HETATM    5  C3  UNL     1       3.375  -0.471  -0.413  1.00  0.00     0.011 C 
HETATM    6  C2  UNL     1       4.363  -1.318  -0.069  1.00  0.00    -0.006 C 
HETATM    7  C1  UNL     1       5.838  -1.250   0.122  1.00  0.00     0.038 C 
BRANCH   5   8
HETATM    8  N4  UNL     1       4.070   0.746  -0.615  1.00  0.00    -0.313 N 
HETATM    9  C14 UNL     1       3.877   1.946   0.123  1.00  0.00     0.318 C 
HETATM   10  N5  UNL     1       4.583   3.158  -0.097  1.00  0.00    -0.352 N 
HETATM   11  O1  UNL     1       3.222   2.472   1.057  1.00  0.00    -0.247 OA
HETATM   12  H17 UNL     1       4.524   3.996  -0.732  1.00  0.00     0.160 HD
HETATM   13  H18 UNL     1       5.440   3.587   0.363  1.00  0.00     0.160 HD
HETATM   14  H16 UNL     1       4.820   0.888  -1.356  1.00  0.00     0.170 HD
ENDBRANCH   5   8
ENDBRANCH   4   5
ENDBRANCH   3   4
ENDBRANCH   1   3
BRANCH   2  15
HETATM   15  N2  UNL     1      -1.991  -1.466   0.356  1.00  0.00    -0.238 NA
HETATM   16  C7  UNL     1      -2.813  -2.203  -0.353  1.00  0.00     0.208 C 
BRANCH  16  17
HETATM   17  N3  UNL     1      -4.168  -1.866  -0.258  1.00  0.00    -0.351 N 
HETATM   18  H11 UNL     1      -4.899  -2.633  -0.153  1.00  0.00     0.166 HD
BRANCH  17  19
HETATM   19  C8  UNL     1      -4.657  -0.541  -0.295  1.00  0.00     0.033 A 
HETATM   20  C9  UNL     1      -3.907   0.599  -0.460  1.00  0.00     0.031 A 
HETATM   21  C10 UNL     1      -4.405   1.879  -0.489  1.00  0.00     0.021 A 
HETATM   22  C11 UNL     1      -5.760   2.079  -0.345  1.00  0.00     0.011 A 
HETATM   23 BR1  UNL     1      -6.499   3.816  -0.377  1.00  0.00    -0.051 Br
HETATM   24  C12 UNL     1      -6.572   0.995  -0.177  1.00  0.00     0.021 A 
HETATM   25  C13 UNL     1      -6.016  -0.264  -0.156  1.00  0.00     0.031 A 
ENDBRANCH  17  19
ENDBRANCH  16  17
ENDBRANCH   2  15
TORSDOF 7
