REMARK  2 active torsions:
REMARK  status: ('A' for Active; 'I' for Inactive)
REMARK       I    between atoms: N1_1  and  C1_2 
REMARK       I    between atoms: C1_2  and  N2_4 
REMARK    1  A    between atoms: N2_4  and  C2_5 
REMARK    2  A    between atoms: N3_11  and  C8_12 
ROOT
HETATM    1  C2  UNL     1       2.043  -0.269  -0.038  1.00  0.00     0.038 A 
HETATM    2  C3  UNL     1       2.430  -1.561  -0.167  1.00  0.00     0.032 A 
HETATM    3  C4  UNL     1       1.575  -2.643  -0.266  1.00  0.00     0.036 A 
HETATM    4  C5  UNL     1       0.234  -2.425  -0.236  1.00  0.00     0.083 A 
HETATM    5  C6  UNL     1      -0.204  -1.123  -0.106  1.00  0.00     0.066 A 
HETATM    6  C7  UNL     1       0.675  -0.093  -0.012  1.00  0.00     0.061 A 
HETATM    7  N3  UNL     1      -1.601  -0.855  -0.070  1.00  0.00    -0.343 N 
HETATM    8  C13 UNL     1      -2.631  -1.872  -0.162  1.00  0.00     0.176 A 
HETATM    9  C14 UNL     1      -1.952  -3.187  -0.295  1.00  0.00     0.110 A 
HETATM   10  N4  UNL     1      -0.691  -3.479  -0.332  1.00  0.00    -0.261 NA
ENDROOT
BRANCH   1  11
HETATM   11  N2  UNL     1       2.866   0.858   0.066  1.00  0.00    -0.309 N 
HETATM   12  C1  UNL     1       4.261   0.965   0.067  1.00  0.00     0.318 C 
HETATM   13  N1  UNL     1       5.012   2.163   0.178  1.00  0.00    -0.352 N 
HETATM   14  O1  UNL     1       4.945  -0.063  -0.038  1.00  0.00    -0.247 OA
HETATM   15  H1  UNL     1       4.916   3.045   0.727  1.00  0.00     0.160 HD
HETATM   16  H2  UNL     1       5.903   2.330  -0.374  1.00  0.00     0.160 HD
HETATM   17  H3  UNL     1       2.428   1.822   0.163  1.00  0.00     0.170 HD
ENDBRANCH   1  11
BRANCH   7  18
HETATM   18  C8  UNL     1      -2.134   0.458   0.061  1.00  0.00     0.017 A 
HETATM   19  C9  UNL     1      -2.507   1.010   1.222  1.00  0.00     0.026 A 
HETATM   20  C10 UNL     1      -3.004   2.372   0.944  1.00  0.00     0.017 A 
HETATM   21  C11 UNL     1      -2.923   2.620  -0.368  1.00  0.00    -0.006 A 
HETATM   22 BR1  UNL     1      -3.392   4.167  -1.383  1.00  0.00    -0.055 Br
HETATM   23  C12 UNL     1      -2.361   1.422  -1.048  1.00  0.00     0.103 A 
ENDBRANCH   7  18
TORSDOF 2
