REMARK  3 active torsions:
REMARK  status: ('A' for Active; 'I' for Inactive)
REMARK       I    between atoms: N1_1  and  C1_2 
REMARK       I    between atoms: C1_2  and  N2_4 
REMARK    1  A    between atoms: N2_4  and  C2_5 
REMARK    2  A    between atoms: C7_12  and  N5_13 
REMARK    3  A    between atoms: N5_13  and  C8_14 
ROOT
HETATM    1  C2  UNL     1      -2.847  -0.319   0.287  1.00  0.00     0.105 C 
HETATM    2  C3  UNL     1      -3.133  -1.565   0.603  1.00  0.00     0.050 C 
HETATM    3  C4  UNL     1      -2.178  -2.619   0.831  1.00  0.00     0.033 C 
HETATM    4  C5  UNL     1      -0.891  -2.360   0.743  1.00  0.00     0.066 C 
HETATM    5  N3  UNL     1       0.045  -3.412   0.949  1.00  0.00    -0.244 NA
HETATM    6  C6  UNL     1       1.288  -3.147   0.615  1.00  0.00     0.235 C 
HETATM    7  N4  UNL     1       1.674  -1.885   0.107  1.00  0.00    -0.226 NA
HETATM    8  C7  UNL     1       0.865  -0.896  -0.042  1.00  0.00     0.134 C 
HETATM    9  C14 UNL     1      -0.471  -0.970   0.518  1.00  0.00     0.205 C 
HETATM   10  N6  UNL     1      -1.465  -0.082   0.055  1.00  0.00    -0.359 N 
HETATM   11  H13 UNL     1      -1.162   0.773  -0.472  1.00  0.00     0.162 HD
ENDROOT
BRANCH   8  12
HETATM   12  N5  UNL     1       1.394   0.281  -0.579  1.00  0.00    -0.342 N 
HETATM   13  H7  UNL     1       0.741   0.869  -1.175  1.00  0.00     0.167 HD
BRANCH  12  14
HETATM   14  C8  UNL     1       2.713   0.775  -0.410  1.00  0.00     0.033 A 
HETATM   15  C9  UNL     1       3.703   0.217   0.362  1.00  0.00     0.031 A 
HETATM   16  C10 UNL     1       4.975   0.721   0.495  1.00  0.00     0.021 A 
HETATM   17  C11 UNL     1       5.321   1.871  -0.183  1.00  0.00     0.011 A 
HETATM   18 BR1  UNL     1       7.064   2.626  -0.049  1.00  0.00    -0.051 Br
HETATM   19  C12 UNL     1       4.369   2.477  -0.973  1.00  0.00     0.021 A 
HETATM   20  C13 UNL     1       3.122   1.921  -1.060  1.00  0.00     0.031 A 
ENDBRANCH  12  14
ENDBRANCH   8  12
BRANCH   1  21
HETATM   21  N2  UNL     1      -3.721   0.768   0.058  1.00  0.00    -0.295 N 
HETATM   22  C1  UNL     1      -5.137   0.776   0.102  1.00  0.00     0.319 C 
HETATM   23  N1  UNL     1      -5.959   1.910  -0.140  1.00  0.00    -0.352 N 
HETATM   24  O1  UNL     1      -5.742  -0.270   0.369  1.00  0.00    -0.247 OA
HETATM   25  H1  UNL     1      -6.062   2.700   0.552  1.00  0.00     0.160 HD
HETATM   26  H2  UNL     1      -6.400   1.795  -1.074  1.00  0.00     0.160 HD
HETATM   27  H3  UNL     1      -3.365   1.718  -0.178  1.00  0.00     0.172 HD
ENDBRANCH   1  21
TORSDOF 3
