REMARK  3 active torsions:
REMARK  status: ('A' for Active; 'I' for Inactive)
REMARK    1  A    between atoms: C2_2  and  C3_4 
REMARK    2  A    between atoms: C9_10  and  N1_11 
REMARK    3  A    between atoms: N1_11  and  C10_12 
ROOT
HETATM    1  C3  UNL     1      -3.126   0.333   0.407  1.00  0.00     0.010 A 
HETATM    2  C4  UNL     1      -3.523  -0.088  -0.866  1.00  0.00     0.016 A 
HETATM    3  C5  UNL     1      -2.582  -0.566  -1.752  1.00  0.00     0.011 A 
HETATM    4  C6  UNL     1      -1.252  -0.618  -1.354  1.00  0.00    -0.024 A 
HETATM    5  C7  UNL     1      -0.797  -0.211  -0.094  1.00  0.00     0.018 A 
HETATM    6  C8  UNL     1      -1.795   0.254   0.735  1.00  0.00     0.031 A 
HETATM    7  C9  UNL     1       0.652  -0.392  -0.003  1.00  0.00     0.134 A 
HETATM    8  N2  UNL     1       1.020  -0.871  -1.124  1.00  0.00    -0.267 NA
HETATM    9  C16 UNL     1      -0.040  -1.070  -2.061  1.00  0.00     0.190 A 
ENDROOT
BRANCH   7  10
HETATM   10  N1  UNL     1       1.432  -0.051   1.157  1.00  0.00    -0.341 N 
HETATM   11  H7  UNL     1       0.971   0.184   2.070  1.00  0.00     0.167 HD
BRANCH  10  12
HETATM   12  C10 UNL     1       2.848  -0.082   0.882  1.00  0.00     0.035 A 
HETATM   13  C11 UNL     1       3.424  -1.097   0.149  1.00  0.00     0.029 A 
HETATM   14  C12 UNL     1       4.772  -1.047  -0.115  1.00  0.00     0.004 A 
HETATM   15  C13 UNL     1       5.595  -0.010   0.327  1.00  0.00     0.019 A 
HETATM   16  C14 UNL     1       5.013   0.999   1.059  1.00  0.00     0.013 A 
HETATM   17 BR1  UNL     1       6.003   2.491   1.725  1.00  0.00    -0.051 Br
HETATM   18  C15 UNL     1       3.669   0.954   1.325  1.00  0.00     0.048 A 
ENDBRANCH  10  12
ENDBRANCH   7  10
BRANCH   1  19
HETATM   19  C2  UNL     1      -4.157   0.832   1.291  1.00  0.00     0.155 C 
HETATM   20  C1  UNL     1      -5.569   0.916   0.912  1.00  0.00     0.096 C 
HETATM   21  O1  UNL     1      -3.815   1.215   2.457  1.00  0.00    -0.293 OA
ENDBRANCH   1  19
TORSDOF 3
