REMARK  3 active torsions:
REMARK  status: ('A' for Active; 'I' for Inactive)
REMARK       I    between atoms: N1_1  and  C1_2 
REMARK       I    between atoms: C1_2  and  N2_4 
REMARK    1  A    between atoms: N2_4  and  C2_5 
REMARK    2  A    between atoms: C9_14  and  N5_15 
REMARK    3  A    between atoms: N5_15  and  C10_16 
ROOT
HETATM    1  C2  UNL     1      -1.682   0.885  -0.166  1.00  0.00     0.042 C 
HETATM    2  C3  UNL     1      -2.898   0.583   0.367  1.00  0.00     0.029 C 
HETATM    3  C4  UNL     1      -3.374  -0.832   0.536  1.00  0.00     0.029 C 
HETATM    4  C5  UNL     1      -2.753  -1.875  -0.037  1.00  0.00     0.041 C 
HETATM    5  C6  UNL     1      -1.968  -1.739  -1.378  1.00  0.00     0.116 C 
HETATM    6  C7  UNL     1      -0.702  -1.348  -0.591  1.00  0.00     0.048 C 
HETATM    7  N3  UNL     1      -0.218  -2.483  -0.149  1.00  0.00    -0.248 NA
HETATM    8  C8  UNL     1      -1.158  -3.505   0.387  1.00  0.00     0.233 C 
HETATM    9  N4  UNL     1      -2.514  -3.247   0.410  1.00  0.00    -0.246 NA
HETATM   10  C9  UNL     1      -0.410   0.097  -0.452  1.00  0.00     0.180 C 
ENDROOT
BRANCH  10  11
HETATM   11  N5  UNL     1       0.570   0.365   0.549  1.00  0.00    -0.375 N 
HETATM   12  H10 UNL     1       0.312   0.920   1.393  1.00  0.00     0.160 HD
BRANCH  11  13
HETATM   13  C10 UNL     1       1.914  -0.093   0.490  1.00  0.00     0.028 A 
HETATM   14  C11 UNL     1       2.436  -0.828  -0.552  1.00  0.00     0.030 A 
HETATM   15  C12 UNL     1       3.733  -1.289  -0.630  1.00  0.00     0.021 A 
HETATM   16  C13 UNL     1       4.579  -0.992   0.418  1.00  0.00     0.011 A 
HETATM   17 BR1  UNL     1       6.398  -1.568   0.437  1.00  0.00    -0.051 Br
HETATM   18  C14 UNL     1       4.139  -0.260   1.500  1.00  0.00     0.021 A 
HETATM   19  C15 UNL     1       2.827   0.158   1.491  1.00  0.00     0.030 A 
ENDBRANCH  11  13
ENDBRANCH  10  11
BRANCH   1  20
HETATM   20  N2  UNL     1      -1.764   2.260  -0.489  1.00  0.00    -0.310 N 
HETATM   21  C1  UNL     1      -1.073   3.418  -0.078  1.00  0.00     0.318 C 
HETATM   22  N1  UNL     1      -1.317   4.736  -0.539  1.00  0.00    -0.352 N 
HETATM   23  O1  UNL     1      -0.146   3.495   0.744  1.00  0.00    -0.247 OA
HETATM   24  H1  UNL     1      -0.776   5.115  -1.328  1.00  0.00     0.160 HD
HETATM   25  H2  UNL     1      -1.983   5.507  -0.246  1.00  0.00     0.160 HD
HETATM   26  H3  UNL     1      -2.489   2.526  -1.195  1.00  0.00     0.170 HD
ENDBRANCH   1  20
TORSDOF 3
