REMARK  2 active torsions:
REMARK  status: ('A' for Active; 'I' for Inactive)
REMARK    1  A    between atoms: C2_2  and  C3_4 
REMARK    2  A    between atoms: N3_10  and  C7_11 
ROOT
HETATM    1  C3  UNL     1       2.917  -0.450   0.229  1.00  0.00     0.007 A 
HETATM    2  C4  UNL     1       2.284  -1.548  -0.151  1.00  0.00     0.018 A 
HETATM    3  C5  UNL     1       0.821  -1.896  -0.292  1.00  0.00     0.161 A 
HETATM    4  N1  UNL     1       0.664  -2.298  -1.678  1.00  0.00    -0.272 NA
HETATM    5  C6  UNL     1      -0.235  -1.893  -2.480  1.00  0.00     0.218 C 
HETATM    6  N2  UNL     1      -1.226  -0.956  -2.061  1.00  0.00    -0.291 N 
HETATM    7  N3  UNL     1      -1.151  -0.518  -0.736  1.00  0.00    -0.281 N 
HETATM    8  C13 UNL     1      -0.065  -0.789   0.148  1.00  0.00     0.159 A 
HETATM    9  C14 UNL     1       0.715   0.412   0.552  1.00  0.00     0.003 A 
HETATM   10  C15 UNL     1       2.015   0.628   0.613  1.00  0.00     0.013 A 
HETATM   11  H7  UNL     1      -1.872  -0.734  -2.821  1.00  0.00     0.188 HD
ENDROOT
BRANCH   7  12
HETATM   12  C7  UNL     1      -2.264   0.248  -0.295  1.00  0.00     0.053 A 
HETATM   13  C8  UNL     1      -2.455   0.595   1.027  1.00  0.00     0.031 A 
HETATM   14  C9  UNL     1      -3.507   1.339   1.515  1.00  0.00     0.004 A 
HETATM   15  C10 UNL     1      -4.464   1.789   0.633  1.00  0.00     0.019 A 
HETATM   16  C11 UNL     1      -4.341   1.484  -0.697  1.00  0.00     0.013 A 
HETATM   17 BR1  UNL     1      -5.671   2.113  -1.906  1.00  0.00    -0.051 Br
HETATM   18  C12 UNL     1      -3.261   0.735  -1.110  1.00  0.00     0.050 A 
ENDBRANCH   7  12
BRANCH   1  19
HETATM   19  C2  UNL     1       4.372  -0.384   0.271  1.00  0.00     0.155 C 
HETATM   20  C1  UNL     1       4.922   0.915   0.718  1.00  0.00     0.096 C 
HETATM   21  O1  UNL     1       4.979  -1.430  -0.075  1.00  0.00    -0.293 OA
ENDBRANCH   1  19
TORSDOF 2
