REMARK  3 active torsions:
REMARK  status: ('A' for Active; 'I' for Inactive)
REMARK       I    between atoms: C2_2  and  N1_4 
REMARK    1  A    between atoms: N1_4  and  C3_5 
REMARK    2  A    between atoms: C5_7  and  N2_8 
REMARK    3  A    between atoms: N2_8  and  C6_9 
ROOT
HETATM    1  C3  UNL     1      -1.846  -0.717  -0.822  1.00  0.00     0.032 A 
HETATM    2  C4  UNL     1      -0.777  -1.402  -0.408  1.00  0.00     0.061 A 
HETATM    3  C5  UNL     1       0.231  -1.192   0.469  1.00  0.00     0.144 A 
HETATM    4  N3  UNL     1       1.223  -2.098   0.679  1.00  0.00    -0.223 NA
HETATM    5  C12 UNL     1       1.205  -3.270  -0.021  1.00  0.00     0.236 A 
HETATM    6  N4  UNL     1       0.227  -3.499  -0.884  1.00  0.00    -0.241 NA
HETATM    7  C13 UNL     1      -0.750  -2.618  -1.099  1.00  0.00     0.070 A 
HETATM    8  C14 UNL     1      -1.745  -2.751  -1.931  1.00  0.00     0.012 A 
HETATM    9  C15 UNL     1      -2.564  -1.539  -1.841  1.00  0.00     0.087 A 
ENDROOT
BRANCH   3  10
HETATM   10  N2  UNL     1       0.366  -0.063   1.305  1.00  0.00    -0.340 N 
HETATM   11  H5  UNL     1      -0.040   0.622   1.987  1.00  0.00     0.167 HD
BRANCH  10  12
HETATM   12  C6  UNL     1       1.659   0.573   1.438  1.00  0.00     0.035 A 
HETATM   13  C7  UNL     1       1.971   1.736   0.720  1.00  0.00     0.029 A 
HETATM   14  C8  UNL     1       3.209   2.371   0.839  1.00  0.00     0.004 A 
HETATM   15  C9  UNL     1       4.143   1.829   1.691  1.00  0.00     0.019 A 
HETATM   16  C10 UNL     1       3.897   0.675   2.434  1.00  0.00     0.013 A 
HETATM   17 BR1  UNL     1       5.170  -0.120   3.621  1.00  0.00    -0.051 Br
HETATM   18  C11 UNL     1       2.635   0.090   2.265  1.00  0.00     0.048 A 
ENDBRANCH  10  12
ENDBRANCH   3  10
BRANCH   1  19
HETATM   19  N1  UNL     1      -2.168   0.607  -0.311  1.00  0.00    -0.330 N 
HETATM   20  C2  UNL     1      -3.357   1.315  -0.799  1.00  0.00     0.217 C 
HETATM   21  C1  UNL     1      -3.318   2.609  -0.014  1.00  0.00     0.117 C 
HETATM   22  O1  UNL     1      -3.861   0.556  -1.622  1.00  0.00    -0.274 OA
HETATM   23  H4  UNL     1      -1.514   0.989   0.380  1.00  0.00     0.168 HD
ENDBRANCH   1  19
TORSDOF 3
