REMARK  5 active torsions:
REMARK  status: ('A' for Active; 'I' for Inactive)
REMARK    1  A    between atoms: C2_2  and  C4_4 
REMARK    2  A    between atoms: C4_4  and  C5_5 
REMARK    3  A    between atoms: C5_5  and  C7_7 
REMARK    4  A    between atoms: C7_7  and  N1_8 
REMARK    5  A    between atoms: C13_16  and  C14_17 
REMARK       I    between atoms: C14_17  and  N4_19 
ROOT
HETATM    1  N1  UNL     1       0.552   0.813  -0.593  1.00  0.00     0.113 N 
HETATM    2  C8  UNL     1       0.524   1.581   0.670  1.00  0.00     0.396 C 
HETATM    3  N2  UNL     1       0.085   2.913   0.334  1.00  0.00    -0.360 N 
HETATM    4  C9  UNL     1       1.128   3.221  -0.552  1.00  0.00     0.203 C 
HETATM    5  N3  UNL     1       2.164   3.437  -1.313  1.00  0.00    -0.257 NA
HETATM    6  C10 UNL     1       3.411   2.787  -1.042  1.00  0.00     0.114 C 
HETATM    7  C11 UNL     1       3.910   1.575  -0.677  1.00  0.00     0.003 C 
HETATM    8  C12 UNL     1       2.678   0.758  -0.553  1.00  0.00     0.058 C 
HETATM    9  C13 UNL     1       2.546  -0.500  -0.231  1.00  0.00     0.024 C 
HETATM   10  C16 UNL     1       1.042  -0.522  -0.334  1.00  0.00     0.315 C 
HETATM   11  H14 UNL     1      -0.602   3.684   0.447  1.00  0.00     0.162 HD
ENDROOT
BRANCH   1  12
HETATM   12  C7  UNL     1      -0.818   0.777  -1.106  1.00  0.00     0.308 C 
BRANCH  12  13
HETATM   13  C5  UNL     1      -1.776   0.000  -0.347  1.00  0.00    -0.061 C 
HETATM   14  C6  UNL     1      -1.694  -0.713   0.745  1.00  0.00     0.016 C 
BRANCH  13  15
HETATM   15  C4  UNL     1      -3.070   0.116  -1.047  1.00  0.00     0.039 C 
BRANCH  15  16
HETATM   16  C2  UNL     1      -4.204  -0.549  -0.401  1.00  0.00    -0.049 C 
HETATM   17  C1  UNL     1      -4.882  -1.577  -0.943  1.00  0.00     0.038 C 
HETATM   18  C3  UNL     1      -4.691  -0.082   0.926  1.00  0.00     0.011 C 
ENDBRANCH  15  16
ENDBRANCH  13  15
ENDBRANCH  12  13
ENDBRANCH   1  12
BRANCH   9  19
HETATM   19  C14 UNL     1       3.100  -1.822   0.161  1.00  0.00     0.245 C 
HETATM   20  O1  UNL     1       4.371  -1.845   0.263  1.00  0.00    -0.268 OA
HETATM   21  N4  UNL     1       2.312  -2.956   0.402  1.00  0.00    -0.362 N 
HETATM   22  C15 UNL     1       3.213  -4.040   0.759  1.00  0.00     0.149 C 
HETATM   23  H19 UNL     1       1.289  -2.819   0.288  1.00  0.00     0.162 HD
ENDBRANCH   9  19
TORSDOF 5
