REMARK  6 active torsions:
REMARK  status: ('A' for Active; 'I' for Inactive)
REMARK    1  A    between atoms: N1_2  and  C2_3 
REMARK    2  A    between atoms: C6_7  and  N2_8 
REMARK    3  A    between atoms: N2_8  and  C7_9 
REMARK    4  A    between atoms: C11_15  and  C12_16 
REMARK    5  A    between atoms: C12_16  and  C13_17 
REMARK    6  A    between atoms: C13_17  and  N5_18 
REMARK       I    between atoms: N5_18  and  C14_19 
REMARK       I    between atoms: C14_19  and  N6_20 
ROOT
HETATM    1  C7  UNL     1      -0.125  -0.333   1.255  1.00  0.00     0.133 A 
HETATM    2  N3  UNL     1      -0.282  -0.423   2.531  1.00  0.00    -0.225 NA
HETATM    3  C8  UNL     1       0.813  -0.834   3.340  1.00  0.00     0.229 A 
HETATM    4  N4  UNL     1       1.989  -1.139   2.941  1.00  0.00    -0.278 NA
HETATM    5  C9  UNL     1       2.382  -1.104   1.552  1.00  0.00     0.192 A 
HETATM    6  C10 UNL     1       1.201  -0.679   0.759  1.00  0.00     0.004 A 
HETATM    7  C11 UNL     1       1.385  -0.614  -0.571  1.00  0.00    -0.012 C 
ENDROOT
BRANCH   1   8
HETATM    8  N2  UNL     1      -1.187   0.073   0.417  1.00  0.00    -0.361 N 
HETATM    9  H9  UNL     1      -0.920   0.599  -0.454  1.00  0.00     0.162 HD
BRANCH   8  10
HETATM   10  C6  UNL     1      -2.562  -0.263   0.817  1.00  0.00     0.156 A 
HETATM   11  C2  UNL     1      -3.535   0.244  -0.183  1.00  0.00     0.031 A 
HETATM   12  C3  UNL     1      -4.115  -0.770  -0.806  1.00  0.00     0.027 A 
HETATM   13  C4  UNL     1      -3.599  -2.038  -0.297  1.00  0.00     0.000 A 
HETATM   14  C5  UNL     1      -2.695  -1.734   0.649  1.00  0.00     0.004 A 
BRANCH  11  15
HETATM   15  N1  UNL     1      -3.968   1.539  -0.605  1.00  0.00    -0.396 N 
HETATM   16  C1  UNL     1      -5.382   1.880  -0.689  1.00  0.00     0.146 C 
HETATM   17  H4  UNL     1      -3.348   2.339  -0.885  1.00  0.00     0.159 HD
ENDBRANCH  11  15
ENDBRANCH   8  10
ENDBRANCH   1   8
BRANCH   7  18
HETATM   18  C12 UNL     1       2.538  -0.874  -1.462  1.00  0.00     0.047 C 
BRANCH  18  19
HETATM   19  C13 UNL     1       2.946   0.326  -2.285  1.00  0.00     0.128 C 
BRANCH  19  20
HETATM   20  N5  UNL     1       3.324   1.421  -1.442  1.00  0.00    -0.343 N 
HETATM   21  C14 UNL     1       4.372   1.441  -0.496  1.00  0.00     0.313 C 
HETATM   22  N6  UNL     1       4.711   2.545   0.319  1.00  0.00    -0.352 N 
HETATM   23  O1  UNL     1       5.083   0.417  -0.334  1.00  0.00    -0.248 OA
HETATM   24  H19 UNL     1       5.446   3.298   0.205  1.00  0.00     0.160 HD
HETATM   25  H20 UNL     1       4.484   3.049   1.200  1.00  0.00     0.160 HD
HETATM   26  H18 UNL     1       2.806   2.348  -1.477  1.00  0.00     0.164 HD
ENDBRANCH  19  20
ENDBRANCH  18  19
ENDBRANCH   7  18
TORSDOF 6
