REMARK  4 active torsions:
REMARK  status: ('A' for Active; 'I' for Inactive)
REMARK    1  A    between atoms: C7_7  and  N1_8 
REMARK    2  A    between atoms: N1_8  and  C8_9 
REMARK    3  A    between atoms: C12_15  and  C13_16 
REMARK    4  A    between atoms: C13_16  and  C15_18 
REMARK       I    between atoms: C15_18  and  N4_19 
ROOT
HETATM    1  C1  UNL     1       5.635   0.597  -3.259  1.00  0.00     0.018 C 
HETATM    2  C2  UNL     1       4.967   0.462  -2.259  1.00  0.00    -0.078 C 
HETATM    3  C3  UNL     1       4.190   0.309  -1.059  1.00  0.00     0.019 A 
HETATM    4  C4  UNL     1       4.796   0.545   0.178  1.00  0.00     0.021 A 
HETATM    5  C5  UNL     1       4.056   0.399   1.326  1.00  0.00     0.004 A 
HETATM    6  C6  UNL     1       2.735   0.024   1.230  1.00  0.00     0.029 A 
HETATM    7  C7  UNL     1       2.087  -0.222   0.061  1.00  0.00     0.035 A 
HETATM    8  C16 UNL     1       2.870  -0.062  -1.064  1.00  0.00     0.050 A 
ENDROOT
BRANCH   7   9
HETATM    9  N1  UNL     1       0.730  -0.616  -0.110  1.00  0.00    -0.340 N 
HETATM   10  H5  UNL     1       0.347  -0.743  -1.072  1.00  0.00     0.167 HD
BRANCH   9  11
HETATM   11  C8  UNL     1      -0.168  -0.861   0.958  1.00  0.00     0.137 A 
HETATM   12  N2  UNL     1       0.295  -1.376   2.034  1.00  0.00    -0.224 NA
HETATM   13  C9  UNL     1      -0.566  -1.643   3.128  1.00  0.00     0.229 A 
HETATM   14  N3  UNL     1      -1.824  -1.407   3.135  1.00  0.00    -0.278 NA
HETATM   15  C10 UNL     1      -2.537  -0.831   2.003  1.00  0.00     0.192 A 
HETATM   16  C11 UNL     1      -1.581  -0.545   0.926  1.00  0.00     0.008 A 
HETATM   17  C12 UNL     1      -1.989   0.057  -0.177  1.00  0.00     0.025 C 
BRANCH  17  18
HETATM   18  C13 UNL     1      -3.043   0.654  -0.974  1.00  0.00     0.010 C 
HETATM   19  C14 UNL     1      -3.304   1.253  -2.139  1.00  0.00     0.049 C 
BRANCH  18  20
HETATM   20  C15 UNL     1      -4.456   0.822  -0.676  1.00  0.00     0.245 C 
HETATM   21  N4  UNL     1      -5.033   0.385   0.546  1.00  0.00    -0.366 N 
HETATM   22  H12 UNL     1      -5.439   0.034   1.450  1.00  0.00     0.159 HD
HETATM   23  H13 UNL     1      -5.447   0.063   1.436  1.00  0.00     0.159 HD
HETATM   24  O1  UNL     1      -5.649   1.161  -0.852  1.00  0.00    -0.268 OA
ENDBRANCH  18  20
ENDBRANCH  17  18
ENDBRANCH   9  11
ENDBRANCH   7   9
TORSDOF 4
