REMARK  6 active torsions:
REMARK  status: ('A' for Active; 'I' for Inactive)
REMARK    1  A    between atoms: N1_1  and  C1_2 
REMARK    2  A    between atoms: C1_2  and  N2_3 
REMARK    3  A    between atoms: N2_3  and  C2_4 
REMARK    4  A    between atoms: C7_11  and  C8_12 
REMARK    5  A    between atoms: C12_16  and  C13_17 
REMARK    6  A    between atoms: C14_18  and  O1_19 
ROOT
HETATM    1  C2  UNL     1      -2.450   0.265   0.240  1.00  0.00     0.030 A 
HETATM    2  C3  UNL     1      -3.105   1.013  -0.709  1.00  0.00     0.031 A 
HETATM    3  C4  UNL     1      -2.465   1.469  -1.866  1.00  0.00     0.035 A 
HETATM    4  C5  UNL     1      -1.122   1.171  -2.091  1.00  0.00     0.070 A 
HETATM    5  N3  UNL     1      -0.433   1.576  -3.165  1.00  0.00    -0.241 NA
HETATM    6  C6  UNL     1       0.870   1.235  -3.273  1.00  0.00     0.234 A 
HETATM    7  N4  UNL     1       1.462   0.509  -2.330  1.00  0.00    -0.240 NA
HETATM    8  C7  UNL     1       0.819   0.065  -1.215  1.00  0.00     0.081 A 
HETATM    9  C16 UNL     1      -0.499   0.420  -1.119  1.00  0.00     0.025 A 
HETATM   10  C17 UNL     1      -1.122  -0.033   0.024  1.00  0.00     0.045 A 
ENDROOT
BRANCH   8  11
HETATM   11  C8  UNL     1       1.663  -0.708  -0.319  1.00  0.00    -0.005 A 
HETATM   12  C9  UNL     1       1.458  -1.940   0.261  1.00  0.00     0.014 A 
HETATM   13  C10 UNL     1       2.385  -2.499   1.113  1.00  0.00     0.002 A 
HETATM   14  C11 UNL     1       3.566  -1.866   1.433  1.00  0.00     0.021 A 
HETATM   15  C12 UNL     1       3.816  -0.630   0.875  1.00  0.00     0.020 A 
HETATM   16  C15 UNL     1       2.872  -0.092   0.026  1.00  0.00     0.034 A 
BRANCH  15  17
HETATM   17  C13 UNL     1       5.035   0.063   1.184  1.00  0.00    -0.037 C 
HETATM   18  C14 UNL     1       6.054   0.653   1.461  1.00  0.00     0.057 C 
BRANCH  18  19
HETATM   19  O1  UNL     1       7.202   1.332   1.794  1.00  0.00    -0.314 OA
HETATM   20  H12 UNL     1       7.279   2.346   1.705  1.00  0.00     0.230 HD
ENDBRANCH  18  19
ENDBRANCH  15  17
ENDBRANCH   8  11
BRANCH   1  21
HETATM   21  N2  UNL     1      -3.113  -0.191   1.411  1.00  0.00    -0.365 N 
HETATM   22  H5  UNL     1      -2.586  -0.756   2.110  1.00  0.00     0.161 HD
BRANCH  21  23
HETATM   23  C1  UNL     1      -4.511   0.141   1.606  1.00  0.00     0.389 C 
BRANCH  23  24
HETATM   24  N1  UNL     1      -5.366  -0.372   0.548  1.00  0.00     0.095 N 
HETATM   25  H1  UNL     1      -6.251   0.184   0.542  1.00  0.00     0.314 HD
HETATM   26  H2  UNL     1      -5.652  -1.356   0.813  1.00  0.00     0.314 HD
ENDBRANCH  23  24
ENDBRANCH  21  23
ENDBRANCH   1  21
TORSDOF 6
