REMARK  5 active torsions:
REMARK  status: ('A' for Active; 'I' for Inactive)
REMARK    1  A    between atoms: C2_2  and  C3_4 
REMARK    2  A    between atoms: C5_6  and  C6_7 
REMARK    3  A    between atoms: C9_12  and  N3_13 
REMARK    4  A    between atoms: N3_13  and  C10_14 
REMARK    5  A    between atoms: C16_20  and  N4_21 
ROOT
HETATM    1  C6  UNL     1       3.249   0.543  -0.611  1.00  0.00     0.033 C 
HETATM    2  C7  UNL     1       1.955   0.462  -0.376  1.00  0.00     0.059 C 
HETATM    3  N1  UNL     1       1.018   1.421  -0.784  1.00  0.00    -0.242 NA
HETATM    4  C8  UNL     1      -0.241   1.572  -0.621  1.00  0.00     0.235 C 
HETATM    5  N2  UNL     1      -1.184   0.782   0.066  1.00  0.00    -0.228 NA
HETATM    6  C9  UNL     1      -1.115  -0.107   0.987  1.00  0.00     0.110 C 
HETATM    7  C17 UNL     1       0.055  -0.657   1.703  1.00  0.00     0.116 C 
HETATM    8  P1  UNL     1       1.458  -1.035   0.555  1.00  0.00    -0.067 P 
HETATM    9  H21 UNL     1       1.136  -2.128  -0.350  1.00  0.00     0.064 HD
ENDROOT
BRANCH   6  10
HETATM   10  N3  UNL     1      -2.404  -0.622   1.347  1.00  0.00    -0.342 N 
HETATM   11  H10 UNL     1      -2.419  -1.467   1.985  1.00  0.00     0.167 HD
BRANCH  10  12
HETATM   12  C10 UNL     1      -3.648  -0.076   0.907  1.00  0.00     0.059 C 
HETATM   13  C11 UNL     1      -4.046   1.104   1.371  1.00  0.00     0.031 C 
HETATM   14  C12 UNL     1      -5.235   1.879   1.102  1.00  0.00    -0.001 C 
HETATM   15  C13 UNL     1      -6.137   1.547   0.195  1.00  0.00    -0.023 C 
HETATM   16  C14 UNL     1      -6.373   0.479  -0.794  1.00  0.00     0.056 C 
HETATM   17  C15 UNL     1      -5.433  -0.655  -0.694  1.00  0.00     0.008 C 
HETATM   18  C16 UNL     1      -4.315  -0.966  -0.041  1.00  0.00     0.049 C 
BRANCH  18  19
HETATM   19  N4  UNL     1      -3.763  -2.264  -0.309  1.00  0.00    -0.398 N 
HETATM   20  H17 UNL     1      -2.702  -2.309  -0.251  1.00  0.00     0.156 HD
HETATM   21  H18 UNL     1      -4.469  -3.007  -0.529  1.00  0.00     0.156 HD
ENDBRANCH  18  19
ENDBRANCH  10  12
ENDBRANCH   6  10
BRANCH   1  22
HETATM   22  C5  UNL     1       4.164  -0.482  -0.161  1.00  0.00     0.013 C 
HETATM   23  C3  UNL     1       5.459  -0.553  -0.307  1.00  0.00    -0.017 C 
HETATM   24  C4  UNL     1       6.157  -1.753   0.272  1.00  0.00     0.052 C 
BRANCH  23  25
HETATM   25  C2  UNL     1       6.534   0.244  -0.913  1.00  0.00     0.151 C 
HETATM   26  C1  UNL     1       6.159   1.519  -1.576  1.00  0.00     0.096 C 
HETATM   27  O1  UNL     1       7.796   0.043  -0.984  1.00  0.00    -0.293 OA
ENDBRANCH  23  25
ENDBRANCH   1  22
TORSDOF 5
