REMARK  5 active torsions:
REMARK  status: ('A' for Active; 'I' for Inactive)
REMARK    1  A    between atoms: C2_2  and  N1_3 
REMARK    2  A    between atoms: N1_3  and  C3_4 
REMARK    3  A    between atoms: C8_10  and  N2_11 
REMARK    4  A    between atoms: N2_11  and  C9_12 
REMARK    5  A    between atoms: C14_19  and  O1_20 
ROOT
HETATM    1  N2  UNL     1      -0.231  -1.085   0.622  1.00  0.00    -0.338 N 
HETATM    2  H10 UNL     1      -0.681  -1.719   1.341  1.00  0.00     0.167 HD
ENDROOT
BRANCH   1   3
HETATM    3  C8  UNL     1       0.915  -1.594  -0.028  1.00  0.00     0.061 A 
HETATM    4  C3  UNL     1       2.203  -1.103  -0.062  1.00  0.00     0.072 A 
HETATM    5  C4  UNL     1       3.206  -1.721  -0.741  1.00  0.00     0.039 A 
HETATM    6 BR1  UNL     1       4.954  -0.961  -0.726  1.00  0.00    -0.049 Br
HETATM    7  C5  UNL     1       2.861  -2.881  -1.403  1.00  0.00     0.021 A 
HETATM    8  C6  UNL     1       1.620  -3.439  -1.426  1.00  0.00     0.004 A 
HETATM    9  C7  UNL     1       0.612  -2.776  -0.716  1.00  0.00     0.032 A 
BRANCH   4  10
HETATM   10  N1  UNL     1       2.384   0.099   0.675  1.00  0.00    -0.387 N 
HETATM   11  H6  UNL     1       2.644   0.079   1.668  1.00  0.00     0.159 HD
BRANCH  10  12
HETATM   12  C2  UNL     1       2.220   1.411   0.100  1.00  0.00     0.115 C 
HETATM   13  C1  UNL     1       2.458   2.536   1.080  1.00  0.00     0.026 C 
ENDBRANCH  10  12
ENDBRANCH   4  10
ENDBRANCH   1   3
BRANCH   1  14
HETATM   14  C9  UNL     1      -1.070   0.043   0.678  1.00  0.00     0.141 A 
HETATM   15  N3  UNL     1      -0.743   1.019   1.576  1.00  0.00    -0.224 NA
HETATM   16  C10 UNL     1      -1.500   2.134   1.687  1.00  0.00     0.235 A 
HETATM   17  N4  UNL     1      -2.586   2.300   0.914  1.00  0.00    -0.241 NA
HETATM   18  C11 UNL     1      -2.877   1.320   0.042  1.00  0.00     0.071 A 
HETATM   19  C12 UNL     1      -2.172   0.150  -0.146  1.00  0.00     0.037 A 
HETATM   20  C15 UNL     1      -3.923   1.345  -0.790  1.00  0.00     0.041 A 
HETATM   21  C13 UNL     1      -2.717  -0.599  -1.074  1.00  0.00     0.026 A 
HETATM   22  C14 UNL     1      -3.931   0.091  -1.610  1.00  0.00     0.167 A 
BRANCH  22  23
HETATM   23  O1  UNL     1      -3.792   0.480  -2.928  1.00  0.00    -0.388 OA
HETATM   24  H14 UNL     1      -3.211   1.289  -2.944  1.00  0.00     0.210 HD
ENDBRANCH  22  23
ENDBRANCH   1  14
TORSDOF 5
