REMARK  7 active torsions:
REMARK  status: ('A' for Active; 'I' for Inactive)
REMARK    1  A    between atoms: C7_7  and  N1_8 
REMARK    2  A    between atoms: N1_8  and  C8_9 
REMARK    3  A    between atoms: C12_15  and  C13_16 
REMARK    4  A    between atoms: C13_16  and  C14_17 
REMARK    5  A    between atoms: C13_16  and  N4_19 
REMARK    6  A    between atoms: N4_19  and  C16_20 
REMARK    7  A    between atoms: C16_20  and  N5_22 
ROOT
HETATM    1  C1  UNL     1       4.461   1.051  -3.457  1.00  0.00     0.017 C 
HETATM    2  C2  UNL     1       4.474   0.594  -2.338  1.00  0.00    -0.080 C 
HETATM    3  C3  UNL     1       4.498   0.030  -1.020  1.00  0.00     0.021 A 
HETATM    4  C4  UNL     1       5.268   0.361   0.027  1.00  0.00     0.018 A 
HETATM    5  C5  UNL     1       4.920  -0.508   1.165  1.00  0.00    -0.000 A 
HETATM    6  C6  UNL     1       3.955  -1.352   0.816  1.00  0.00     0.004 A 
HETATM    7  C7  UNL     1       3.604  -1.079  -0.612  1.00  0.00     0.148 A 
ENDROOT
BRANCH   7   8
HETATM    8  N1  UNL     1       2.198  -0.653  -0.610  1.00  0.00    -0.362 N 
HETATM    9  H6  UNL     1       1.478  -1.087  -1.189  1.00  0.00     0.162 HD
BRANCH   8  10
HETATM   10  C8  UNL     1       1.826   0.420   0.245  1.00  0.00     0.133 A 
HETATM   11  N2  UNL     1       2.684   1.260   0.715  1.00  0.00    -0.225 NA
HETATM   12  C9  UNL     1       2.218   2.314   1.572  1.00  0.00     0.229 A 
HETATM   13  N3  UNL     1       0.993   2.507   1.928  1.00  0.00    -0.278 NA
HETATM   14  C10 UNL     1      -0.119   1.677   1.509  1.00  0.00     0.192 A 
HETATM   15  C11 UNL     1       0.431   0.612   0.629  1.00  0.00     0.005 A 
HETATM   16  C12 UNL     1      -0.528  -0.207   0.192  1.00  0.00     0.010 C 
BRANCH  16  17
HETATM   17  C13 UNL     1      -2.001  -0.144   0.494  1.00  0.00     0.101 C 
BRANCH  17  18
HETATM   18  C14 UNL     1      -2.367  -1.403   1.208  1.00  0.00     0.024 C 
HETATM   19  C15 UNL     1      -2.102  -2.649   0.419  1.00  0.00     0.007 C 
ENDBRANCH  17  18
BRANCH  17  20
HETATM   20  N4  UNL     1      -2.686   0.121  -0.718  1.00  0.00    -0.387 N 
HETATM   21  H17 UNL     1      -2.282  -0.251  -1.580  1.00  0.00     0.155 HD
BRANCH  20  22
HETATM   22  C16 UNL     1      -4.107   0.220  -0.647  1.00  0.00     0.308 C 
HETATM   23  C17 UNL     1      -4.607   0.507  -2.069  1.00  0.00     0.065 C 
BRANCH  22  24
HETATM   24  N5  UNL     1      -4.443   1.417   0.130  1.00  0.00     0.100 N 
HETATM   25  H22 UNL     1      -4.276   1.178   1.139  1.00  0.00     0.315 HD
HETATM   26  H23 UNL     1      -5.468   1.632  -0.003  1.00  0.00     0.315 HD
ENDBRANCH  22  24
ENDBRANCH  20  22
ENDBRANCH  17  20
ENDBRANCH  16  17
ENDBRANCH   8  10
ENDBRANCH   7   8
TORSDOF 7
