REMARK  3 active torsions:
REMARK  status: ('A' for Active; 'I' for Inactive)
REMARK       I    between atoms: N1_1  and  C1_2 
REMARK       I    between atoms: C1_2  and  N2_4 
REMARK    1  A    between atoms: N2_4  and  C2_5 
REMARK    2  A    between atoms: C8_11  and  N3_12 
REMARK    3  A    between atoms: C15_19  and  N4_20 
ROOT
HETATM    1  C2  UNL     1       2.524  -0.505  -1.040  1.00  0.00     0.037 A 
HETATM    2  C3  UNL     1       3.228  -1.269  -0.131  1.00  0.00     0.032 A 
HETATM    3  C4  UNL     1       2.567  -2.027   0.814  1.00  0.00     0.034 A 
HETATM    4  C5  UNL     1       1.189  -1.984   0.805  1.00  0.00     0.065 A 
HETATM    5  C6  UNL     1       0.399  -1.238  -0.080  1.00  0.00     0.011 A 
HETATM    6  C7  UNL     1       1.145  -0.504  -0.997  1.00  0.00     0.041 A 
HETATM    7  C8  UNL     1      -1.025  -1.449   0.222  1.00  0.00     0.301 A 
HETATM    8  C16 UNL     1      -0.939  -2.403   1.381  1.00  0.00     0.131 A 
HETATM    9  N5  UNL     1       0.282  -2.677   1.677  1.00  0.00    -0.262 NA
ENDROOT
BRANCH   7  10
HETATM   10  N3  UNL     1      -1.782  -0.283   0.519  1.00  0.00     0.137 N 
HETATM   11  C9  UNL     1      -3.106  -0.606   0.862  1.00  0.00     0.290 C 
HETATM   12  C10 UNL     1      -4.204  -0.385  -0.180  1.00  0.00     0.078 A 
HETATM   13  C11 UNL     1      -4.572   0.632  -1.123  1.00  0.00     0.001 A 
HETATM   14  C12 UNL     1      -3.481   1.160  -0.561  1.00  0.00    -0.011 A 
HETATM   15  C13 UNL     1      -2.609   1.562  -0.102  1.00  0.00    -0.144 C 
HETATM   16  C14 UNL     1      -1.458   2.066   0.515  1.00  0.00     0.153 C 
HETATM   17  C15 UNL     1      -1.102   0.687   1.367  1.00  0.00     0.462 C 
BRANCH  17  18
HETATM   18  N4  UNL     1       0.292   0.596   1.432  1.00  0.00     0.113 N 
HETATM   19  H15 UNL     1       0.685   0.469   2.414  1.00  0.00     0.315 HD
HETATM   20  H16 UNL     1       0.752   1.474   1.099  1.00  0.00     0.315 HD
ENDBRANCH  17  18
ENDBRANCH   7  10
BRANCH   1  21
HETATM   21  N2  UNL     1       3.258   0.257  -1.992  1.00  0.00    -0.309 N 
HETATM   22  C1  UNL     1       3.591   1.586  -1.562  1.00  0.00     0.318 C 
HETATM   23  N1  UNL     1       4.326   2.509  -2.378  1.00  0.00    -0.352 N 
HETATM   24  O1  UNL     1       3.236   2.002  -0.413  1.00  0.00    -0.247 OA
HETATM   25  H1  UNL     1       5.334   2.513  -2.683  1.00  0.00     0.160 HD
HETATM   26  H2  UNL     1       3.813   3.354  -2.768  1.00  0.00     0.160 HD
HETATM   27  H3  UNL     1       3.592   0.013  -2.947  1.00  0.00     0.170 HD
ENDBRANCH   1  21
TORSDOF 3
