REMARK  3 active torsions:
REMARK  status: ('A' for Active; 'I' for Inactive)
REMARK    1  A    between atoms: C6_6  and  N1_7 
REMARK    2  A    between atoms: N1_7  and  C7_8 
REMARK    3  A    between atoms: C12_15  and  N4_16 
REMARK       I    between atoms: N4_16  and  C13_17 
ROOT
HETATM    1  C1  UNL     1       7.033   0.684  -1.447  1.00  0.00     0.018 C 
HETATM    2  C2  UNL     1       6.036   0.387  -0.799  1.00  0.00    -0.078 C 
HETATM    3  C3  UNL     1       4.857   0.031  -0.062  1.00  0.00     0.015 A 
HETATM    4  C4  UNL     1       4.752  -0.628   1.060  1.00  0.00    -0.000 A 
HETATM    5  C5  UNL     1       3.335  -0.770   1.466  1.00  0.00     0.085 A 
HETATM    6  C6  UNL     1       2.585  -0.070   0.377  1.00  0.00     0.015 A 
HETATM    7  C17 UNL     1       3.521   0.372  -0.478  1.00  0.00     0.045 A 
ENDROOT
BRANCH   6   8
HETATM    8  N1  UNL     1       1.174   0.078   0.295  1.00  0.00    -0.343 N 
HETATM    9  H5  UNL     1       0.973   1.098   0.209  1.00  0.00     0.167 HD
BRANCH   8  10
HETATM   10  C7  UNL     1       0.335  -1.049   0.337  1.00  0.00     0.141 A 
HETATM   11  N2  UNL     1       0.958  -2.231   0.456  1.00  0.00    -0.224 NA
HETATM   12  C8  UNL     1       0.227  -3.384   0.505  1.00  0.00     0.236 A 
HETATM   13  N3  UNL     1      -1.116  -3.310   0.432  1.00  0.00    -0.241 NA
HETATM   14  C9  UNL     1      -1.748  -2.128   0.312  1.00  0.00     0.072 A 
HETATM   15  C10 UNL     1      -3.121  -2.076   0.239  1.00  0.00     0.035 A 
HETATM   16  C16 UNL     1      -1.037  -0.935   0.259  1.00  0.00     0.041 A 
HETATM   17  C11 UNL     1      -3.812  -0.871   0.115  1.00  0.00     0.032 A 
HETATM   18  C12 UNL     1      -3.033   0.266   0.070  1.00  0.00     0.035 A 
HETATM   19  C15 UNL     1      -1.656   0.285   0.137  1.00  0.00     0.047 A 
BRANCH  18  20
HETATM   20  N4  UNL     1      -3.670   1.544  -0.057  1.00  0.00    -0.327 N 
HETATM   21  C13 UNL     1      -3.957   2.152  -1.326  1.00  0.00     0.218 C 
HETATM   22  C14 UNL     1      -4.627   3.491  -1.341  1.00  0.00     0.117 C 
HETATM   23  O1  UNL     1      -3.694   1.654  -2.450  1.00  0.00    -0.274 OA
HETATM   24  H9  UNL     1      -3.945   2.071   0.800  1.00  0.00     0.169 HD
ENDBRANCH  18  20
ENDBRANCH   8  10
ENDBRANCH   6   8
TORSDOF 3
