REMARK  4 active torsions:
REMARK  status: ('A' for Active; 'I' for Inactive)
REMARK    1  A    between atoms: C7_7  and  N1_8 
REMARK    2  A    between atoms: N1_8  and  C8_9 
REMARK    3  A    between atoms: C13_16  and  N4_17 
REMARK    4  A    between atoms: C14_18  and  C15_19 
REMARK       I    between atoms: C15_19  and  N5_20 
ROOT
HETATM    1  C1  UNL     1      -5.286   1.994  -2.924  1.00  0.00     0.018 C 
HETATM    2  C2  UNL     1      -4.567   1.696  -1.994  1.00  0.00    -0.078 C 
HETATM    3  C3  UNL     1      -3.716   1.353  -0.866  1.00  0.00     0.019 A 
HETATM    4  C4  UNL     1      -3.597   2.211   0.206  1.00  0.00     0.021 A 
HETATM    5  C5  UNL     1      -2.774   1.864   1.281  1.00  0.00     0.004 A 
HETATM    6  C6  UNL     1      -2.113   0.641   1.193  1.00  0.00     0.029 A 
HETATM    7  C7  UNL     1      -2.259  -0.191   0.101  1.00  0.00     0.035 A 
HETATM    8  C18 UNL     1      -3.065   0.145  -0.955  1.00  0.00     0.050 A 
ENDROOT
BRANCH   7   9
HETATM    9  N1  UNL     1      -1.559  -1.424   0.070  1.00  0.00    -0.340 N 
HETATM   10  H5  UNL     1      -1.642  -2.079  -0.735  1.00  0.00     0.167 HD
BRANCH   9  11
HETATM   11  C8  UNL     1      -0.705  -1.849   1.121  1.00  0.00     0.142 A 
HETATM   12  N2  UNL     1      -1.151  -2.577   2.160  1.00  0.00    -0.224 NA
HETATM   13  C9  UNL     1      -0.301  -2.944   3.116  1.00  0.00     0.236 A 
HETATM   14  N3  UNL     1       1.007  -2.628   3.111  1.00  0.00    -0.241 NA
HETATM   15  C10 UNL     1       1.530  -1.905   2.111  1.00  0.00     0.072 A 
HETATM   16  C11 UNL     1       2.864  -1.551   2.055  1.00  0.00     0.035 A 
HETATM   17  C17 UNL     1       0.634  -1.520   1.108  1.00  0.00     0.041 A 
HETATM   18  C12 UNL     1       3.282  -0.805   0.973  1.00  0.00     0.034 A 
HETATM   19  C13 UNL     1       2.440  -0.399  -0.043  1.00  0.00     0.057 A 
HETATM   20  C16 UNL     1       1.115  -0.773   0.051  1.00  0.00     0.049 A 
BRANCH  19  21
HETATM   21  N4  UNL     1       3.049   0.352  -1.056  1.00  0.00    -0.256 NA
HETATM   22  C14 UNL     1       3.732  -0.098  -2.038  1.00  0.00     0.191 C 
BRANCH  22  23
HETATM   23  C15 UNL     1       4.107   1.116  -2.753  1.00  0.00     0.256 C 
HETATM   24  N5  UNL     1       3.468   2.063  -1.899  1.00  0.00    -0.365 N 
HETATM   25  H10 UNL     1       2.680   2.746  -2.001  1.00  0.00     0.159 HD
HETATM   26  H11 UNL     1       3.556   2.395  -0.911  1.00  0.00     0.159 HD
HETATM   27  O1  UNL     1       4.721   1.602  -3.742  1.00  0.00    -0.267 OA
ENDBRANCH  22  23
ENDBRANCH  19  21
ENDBRANCH   9  11
ENDBRANCH   7   9
TORSDOF 4
