REMARK  3 active torsions:
REMARK  status: ('A' for Active; 'I' for Inactive)
REMARK    1  A    between atoms: C7_7  and  N1_8 
REMARK    2  A    between atoms: N1_8  and  C8_9 
REMARK    3  A    between atoms: C13_16  and  N4_17 
REMARK       I    between atoms: N4_17  and  C14_18 
REMARK       I    between atoms: C14_18  and  N5_19 
ROOT
HETATM    1  C1  UNL     1       5.970  -0.560   2.928  1.00  0.00     0.018 C 
HETATM    2  C2  UNL     1       5.321  -0.508   1.919  1.00  0.00    -0.078 C 
HETATM    3  C3  UNL     1       4.547  -0.421   0.706  1.00  0.00     0.019 A 
HETATM    4  C4  UNL     1       5.182  -0.461  -0.499  1.00  0.00     0.021 A 
HETATM    5  C5  UNL     1       4.424  -0.377  -1.645  1.00  0.00     0.004 A 
HETATM    6  C6  UNL     1       3.065  -0.257  -1.517  1.00  0.00     0.029 A 
HETATM    7  C7  UNL     1       2.359  -0.210  -0.334  1.00  0.00     0.035 A 
HETATM    8  C16 UNL     1       3.182  -0.300   0.768  1.00  0.00     0.050 A 
ENDROOT
BRANCH   7   9
HETATM    9  N1  UNL     1       0.956  -0.087  -0.192  1.00  0.00    -0.340 N 
HETATM   10  H5  UNL     1       0.624  -0.057   0.800  1.00  0.00     0.167 HD
BRANCH   9  11
HETATM   11  C8  UNL     1       0.001  -0.004  -1.238  1.00  0.00     0.142 A 
HETATM   12  N2  UNL     1       0.236  -0.027  -2.535  1.00  0.00    -0.224 NA
HETATM   13  C9  UNL     1      -0.756   0.060  -3.430  1.00  0.00     0.236 A 
HETATM   14  N3  UNL     1      -2.046   0.175  -3.057  1.00  0.00    -0.240 NA
HETATM   15  C10 UNL     1      -2.385   0.207  -1.748  1.00  0.00     0.085 A 
HETATM   16  C11 UNL     1      -1.337   0.116  -0.862  1.00  0.00     0.042 A 
HETATM   17  C15 UNL     1      -3.511   0.309  -1.096  1.00  0.00     0.035 A 
HETATM   18  C12 UNL     1      -1.940   0.171   0.341  1.00  0.00     0.048 A 
HETATM   19  C13 UNL     1      -3.388   0.300   0.204  1.00  0.00     0.051 A 
BRANCH  19  20
HETATM   20  N4  UNL     1      -4.372   0.389   1.229  1.00  0.00    -0.308 N 
HETATM   21  C14 UNL     1      -5.735   0.510   0.841  1.00  0.00     0.318 C 
HETATM   22  N5  UNL     1      -6.733   0.601   1.845  1.00  0.00    -0.352 N 
HETATM   23  O1  UNL     1      -6.166   0.546  -0.318  1.00  0.00    -0.247 OA
HETATM   24  H9  UNL     1      -7.658   1.116   1.738  1.00  0.00     0.160 HD
HETATM   25  H10 UNL     1      -6.912   0.279   2.840  1.00  0.00     0.160 HD
HETATM   26  H8  UNL     1      -4.031   0.360   2.213  1.00  0.00     0.170 HD
ENDBRANCH  19  20
ENDBRANCH   9  11
ENDBRANCH   7   9
TORSDOF 3
