REMARK  3 active torsions:
REMARK  status: ('A' for Active; 'I' for Inactive)
REMARK    1  A    between atoms: O1_1  and  C1_2 
REMARK    2  A    between atoms: C9_13  and  N3_14 
REMARK    3  A    between atoms: N3_14  and  C10_15 
ROOT
HETATM    1  C1  UNL     1       5.632   0.189  -0.053  1.00  0.00     0.068 A 
HETATM    2  C2  UNL     1       5.379  -1.185  -0.127  1.00  0.00     0.037 A 
HETATM    3  C3  UNL     1       4.079  -1.603   0.031  1.00  0.00     0.014 A 
HETATM    4  C4  UNL     1       3.011  -0.744   0.258  1.00  0.00    -0.006 A 
HETATM    5  C5  UNL     1       3.332   0.587   0.319  1.00  0.00     0.088 A 
HETATM    6  C6  UNL     1       4.613   1.091   0.171  1.00  0.00     0.074 A 
HETATM    7  O2  UNL     1       2.435   1.633   0.538  1.00  0.00    -0.289 OA
HETATM    8  C7  UNL     1       1.054   1.591   0.262  1.00  0.00     0.202 A 
HETATM    9  N1  UNL     1       0.545   2.813  -0.031  1.00  0.00    -0.215 NA
HETATM   10  C8  UNL     1      -0.753   2.908  -0.312  1.00  0.00     0.238 A 
HETATM   11  N2  UNL     1      -1.541   1.837  -0.309  1.00  0.00    -0.222 NA
HETATM   12  C9  UNL     1      -1.149   0.589  -0.037  1.00  0.00     0.160 A 
HETATM   13  C16 UNL     1       0.190   0.494   0.254  1.00  0.00     0.129 A 
HETATM   14  N4  UNL     1       0.579  -0.829   0.559  1.00  0.00    -0.379 N 
HETATM   15  C17 UNL     1       1.801  -1.562   0.369  1.00  0.00     0.161 C 
HETATM   16  H11 UNL     1      -0.197  -1.374   1.026  1.00  0.00     0.160 HD
ENDROOT
BRANCH  12  17
HETATM   17  N3  UNL     1      -2.022  -0.523  -0.051  1.00  0.00    -0.339 N 
HETATM   18  H6  UNL     1      -1.804  -1.530   0.056  1.00  0.00     0.167 HD
BRANCH  17  19
HETATM   19  C10 UNL     1      -3.425  -0.402  -0.238  1.00  0.00     0.035 A 
HETATM   20  C11 UNL     1      -4.143   0.741   0.042  1.00  0.00     0.029 A 
HETATM   21  C12 UNL     1      -5.501   0.892  -0.152  1.00  0.00     0.004 A 
HETATM   22  C13 UNL     1      -6.219  -0.168  -0.663  1.00  0.00     0.019 A 
HETATM   23  C14 UNL     1      -5.585  -1.349  -0.970  1.00  0.00     0.013 A 
HETATM   24 BR1  UNL     1      -6.581  -2.807  -1.673  1.00  0.00    -0.051 Br
HETATM   25  C15 UNL     1      -4.232  -1.412  -0.747  1.00  0.00     0.048 A 
ENDBRANCH  17  19
ENDBRANCH  12  17
BRANCH   1  26
HETATM   26  O1  UNL     1       6.913   0.727  -0.198  1.00  0.00    -0.361 OA
HETATM   27  H1  UNL     1       7.079   1.481  -0.884  1.00  0.00     0.217 HD
ENDBRANCH   1  26
TORSDOF 3
