REMARK  3 active torsions:
REMARK  status: ('A' for Active; 'I' for Inactive)
REMARK    1  A    between atoms: C2_2  and  C3_4 
REMARK    2  A    between atoms: C7_8  and  N1_9 
REMARK    3  A    between atoms: N1_9  and  C8_10 
ROOT
HETATM    1  N1  UNL     1      -0.331   0.794   1.142  1.00  0.00    -0.340 N 
HETATM    2  H7  UNL     1      -0.189   1.748   1.512  1.00  0.00     0.167 HD
ENDROOT
BRANCH   1   3
HETATM    3  C7  UNL     1       0.775   0.156   0.542  1.00  0.00     0.034 A 
HETATM    4  C6  UNL     1       0.502  -1.044  -0.119  1.00  0.00     0.029 A 
HETATM    5  C5  UNL     1       1.522  -1.756  -0.759  1.00  0.00     0.003 A 
HETATM    6  C4  UNL     1       2.819  -1.252  -0.728  1.00  0.00     0.012 A 
HETATM    7  C3  UNL     1       2.978  -0.079  -0.059  1.00  0.00    -0.023 A 
HETATM    8  C16 UNL     1       2.039   0.663   0.581  1.00  0.00     0.042 A 
BRANCH   7   9
HETATM    9  C2  UNL     1       4.336   0.423  -0.031  1.00  0.00    -0.029 A 
HETATM   10  C1  UNL     1       5.599   0.345  -0.343  1.00  0.00     0.198 A 
HETATM   11  S1  UNL     1       5.240   1.790   0.650  1.00  0.00    -0.249 SA
HETATM   12  H3  UNL     1       4.419   2.722   1.297  1.00  0.00     0.078 HD
ENDBRANCH   7   9
ENDBRANCH   1   3
BRANCH   1  13
HETATM   13  C8  UNL     1      -1.602   0.195   1.261  1.00  0.00     0.142 A 
HETATM   14  N2  UNL     1      -1.900  -0.309   2.463  1.00  0.00    -0.224 NA
HETATM   15  C9  UNL     1      -3.091  -0.892   2.609  1.00  0.00     0.236 A 
HETATM   16  N3  UNL     1      -3.979  -0.985   1.606  1.00  0.00    -0.241 NA
HETATM   17  C10 UNL     1      -3.710  -0.484   0.370  1.00  0.00     0.072 A 
HETATM   18  C11 UNL     1      -4.589  -0.559  -0.697  1.00  0.00     0.032 A 
HETATM   19  C15 UNL     1      -2.477   0.129   0.189  1.00  0.00     0.039 A 
HETATM   20  C12 UNL     1      -4.284  -0.045  -1.934  1.00  0.00     0.002 A 
HETATM   21  C13 UNL     1      -3.056   0.557  -2.083  1.00  0.00     0.001 A 
HETATM   22  C14 UNL     1      -2.146   0.653  -1.040  1.00  0.00     0.018 A 
ENDBRANCH   1  13
TORSDOF 3
