REMARK  0 active torsions:
REMARK  status: ('A' for Active; 'I' for Inactive)
ROOT
HETATM    1  C1  UNL     1      -3.589   3.878   1.413  1.00  0.00     0.018 C 
HETATM    2  C2  UNL     1      -2.653   3.088   1.259  1.00  0.00    -0.078 C 
HETATM    3  C3  UNL     1      -1.531   2.164   1.057  1.00  0.00     0.014 C 
HETATM    4  C4  UNL     1      -1.609   1.324   0.022  1.00  0.00    -0.004 C 
HETATM    5  C5  UNL     1      -0.980   0.214  -0.781  1.00  0.00     0.062 C 
HETATM    6  C6  UNL     1      -1.853  -1.024  -0.813  1.00  0.00     0.070 C 
HETATM    7  C7  UNL     1      -3.181  -0.543  -1.444  1.00  0.00     0.042 C 
HETATM    8  C8  UNL     1      -2.181  -1.527   0.558  1.00  0.00     0.042 C 
HETATM    9  N1  UNL     1      -1.317  -1.981  -1.691  1.00  0.00    -0.188 NA
HETATM   10  N2  UNL     1      -0.352  -2.726  -1.602  1.00  0.00    -0.197 NA
HETATM   11  C9  UNL     1       0.555  -2.846  -0.530  1.00  0.00     0.177 C 
HETATM   12  C10 UNL     1       2.012  -2.628  -0.899  1.00  0.00     0.052 C 
HETATM   13  C11 UNL     1       2.242  -1.377  -1.608  1.00  0.00     0.003 C 
HETATM   14  C12 UNL     1       2.822  -0.309  -1.109  1.00  0.00     0.039 C 
HETATM   15  C13 UNL     1       3.354  -0.167   0.286  1.00  0.00     0.137 C 
HETATM   16  C14 UNL     1       2.413   0.802   0.988  1.00  0.00     0.110 C 
HETATM   17  N3  UNL     1       2.519   1.945   0.403  1.00  0.00    -0.228 NA
HETATM   18  C15 UNL     1       2.838   2.044  -1.018  1.00  0.00     0.235 C 
HETATM   19  N4  UNL     1       3.032   0.965  -1.763  1.00  0.00    -0.246 NA
HETATM   20  N5  UNL     1       1.447   0.887   2.016  1.00  0.00    -0.354 N 
HETATM   21  C16 UNL     1       0.651   1.919   2.545  1.00  0.00     0.091 C 
HETATM   22  C17 UNL     1      -0.506   2.311   2.054  1.00  0.00     0.037 C 
HETATM   23  H19 UNL     1       1.636  -0.111   2.138  1.00  0.00     0.166 HD
ENDROOT
TORSDOF 0
