REMARK  6 active torsions:
REMARK  status: ('A' for Active; 'I' for Inactive)
REMARK    1  A    between atoms: C2_2  and  C3_3 
REMARK    2  A    between atoms: C3_3  and  C4_4 
REMARK    3  A    between atoms: C3_3  and  N4_19 
REMARK    4  A    between atoms: C7_7  and  N1_8 
REMARK    5  A    between atoms: N1_8  and  C8_9 
REMARK    6  A    between atoms: N4_19  and  C16_20 
ROOT
HETATM    1  C4  UNL     1      -2.278   0.940  -1.206  1.00  0.00     0.025 C 
HETATM    2  C5  UNL     1      -0.983   0.655  -1.173  1.00  0.00     0.041 A 
HETATM    3  C6  UNL     1      -0.274   0.192   0.044  1.00  0.00     0.137 A 
HETATM    4  C7  UNL     1       1.157  -0.049  -0.306  1.00  0.00     0.111 A 
HETATM    5  N2  UNL     1       1.736   0.113  -1.471  1.00  0.00    -0.228 NA
HETATM    6  C15 UNL     1       0.944   0.574  -2.578  1.00  0.00     0.235 A 
HETATM    7  N3  UNL     1      -0.303   0.815  -2.409  1.00  0.00    -0.246 NA
ENDROOT
BRANCH   4   8
HETATM    8  N1  UNL     1       2.028  -0.508   0.716  1.00  0.00    -0.347 N 
HETATM    9  H10 UNL     1       1.702  -0.421   1.701  1.00  0.00     0.167 HD
BRANCH   8  10
HETATM   10  C8  UNL     1       3.282  -1.077   0.600  1.00  0.00     0.021 A 
HETATM   11  C9  UNL     1       4.007  -2.402   0.380  1.00  0.00     0.014 A 
HETATM   12  C10 UNL     1       5.329  -1.733   0.598  1.00  0.00     0.015 A 
HETATM   13  C11 UNL     1       6.304  -1.384   1.456  1.00  0.00    -0.014 A 
HETATM   14  C14 UNL     1       5.394  -0.653  -0.547  1.00  0.00     0.040 A 
HETATM   15  C13 UNL     1       4.591  -0.368   0.786  1.00  0.00     0.035 A 
HETATM   16  C12 UNL     1       5.511   0.088   1.660  1.00  0.00    -0.012 A 
ENDBRANCH   8  10
ENDBRANCH   4   8
BRANCH   1  17
HETATM   17  C3  UNL     1      -3.501   0.993  -0.391  1.00  0.00     0.108 C 
BRANCH  17  18
HETATM   18  C2  UNL     1      -3.298   0.545   1.054  1.00  0.00     0.025 C 
HETATM   19  C1  UNL     1      -4.669   0.673   1.705  1.00  0.00     0.007 C 
ENDBRANCH  17  18
BRANCH  17  20
HETATM   20  N4  UNL     1      -4.505   0.082  -0.950  1.00  0.00    -0.360 N 
HETATM   21  H17 UNL     1      -4.228  -0.915  -1.069  1.00  0.00     0.162 HD
BRANCH  20  22
HETATM   22  C16 UNL     1      -5.781   0.625  -1.289  1.00  0.00     0.349 C 
HETATM   23  O1  UNL     1      -6.109   1.813  -1.147  1.00  0.00    -0.284 OA
ENDBRANCH  20  22
ENDBRANCH  17  20
ENDBRANCH   1  17
TORSDOF 6
