REMARK  4 active torsions:
REMARK  status: ('A' for Active; 'I' for Inactive)
REMARK    1  A    between atoms: C10_11  and  N2_12 
REMARK       I    between atoms: N2_12  and  C11_13 
REMARK    2  A    between atoms: C15_18  and  N3_19 
REMARK    3  A    between atoms: N3_19  and  C16_20 
REMARK    4  A    between atoms: C16_20  and  N4_21 
ROOT
HETATM    1  C1  UNL     1      -4.631   1.759  -0.016  1.00  0.00     0.017 C 
HETATM    2  C2  UNL     1      -3.946   0.810   0.267  1.00  0.00    -0.079 C 
HETATM    3  C3  UNL     1      -3.121  -0.306   0.622  1.00  0.00     0.030 C 
HETATM    4  C4  UNL     1      -3.591  -1.489   0.265  1.00  0.00     0.023 C 
HETATM    5  C5  UNL     1      -2.660  -2.596  -0.041  1.00  0.00     0.057 C 
HETATM    6  C6  UNL     1      -1.394  -2.274   0.076  1.00  0.00     0.139 C 
HETATM    7  N1  UNL     1      -0.217  -2.999  -0.144  1.00  0.00    -0.370 N 
HETATM    8  C7  UNL     1       0.943  -3.331  -0.925  1.00  0.00     0.127 C 
HETATM    9  C8  UNL     1       1.936  -2.212  -1.024  1.00  0.00     0.020 C 
HETATM   10  C9  UNL     1       1.621  -1.034  -0.464  1.00  0.00     0.048 C 
HETATM   11  C10 UNL     1       1.976   0.384  -0.145  1.00  0.00     0.003 C 
HETATM   12  C13 UNL     1       0.746   0.426   0.442  1.00  0.00     0.069 C 
HETATM   13  C14 UNL     1      -0.008   1.499   1.161  1.00  0.00     0.015 C 
HETATM   14  C15 UNL     1      -1.211   1.010   1.539  1.00  0.00     0.068 C 
HETATM   15  C17 UNL     1      -1.830  -0.294   1.334  1.00  0.00     0.223 C 
HETATM   16  O2  UNL     1      -0.937  -1.030   0.478  1.00  0.00    -0.319 OA
HETATM   17  H4  UNL     1      -0.357  -3.554   0.761  1.00  0.00     0.161 HD
ENDROOT
BRANCH  14  18
HETATM   18  N3  UNL     1      -2.295   1.597   2.242  1.00  0.00    -0.228 NA
BRANCH  18  19
HETATM   19  C16 UNL     1      -2.395   2.873   2.284  1.00  0.00     0.190 C 
BRANCH  19  20
HETATM   20  N4  UNL     1      -2.734   4.052   1.892  1.00  0.00    -0.279 NA
HETATM   21  H15 UNL     1      -2.031   4.623   1.337  1.00  0.00     0.189 HD
ENDBRANCH  19  20
ENDBRANCH  18  19
ENDBRANCH  14  18
BRANCH  11  22
HETATM   22  N2  UNL     1       3.189   1.192  -0.432  1.00  0.00    -0.334 N 
HETATM   23  C11 UNL     1       3.422   1.296  -1.807  1.00  0.00     0.217 C 
HETATM   24  C12 UNL     1       4.616   2.089  -2.207  1.00  0.00     0.117 C 
HETATM   25  O1  UNL     1       2.598   0.710  -2.541  1.00  0.00    -0.274 OA
HETATM   26  H9  UNL     1       3.719   1.582   0.376  1.00  0.00     0.168 HD
ENDBRANCH  11  22
TORSDOF 4
