REMARK  2 active torsions:
REMARK  status: ('A' for Active; 'I' for Inactive)
REMARK    1  A    between atoms: C7_7  and  N1_8 
REMARK    2  A    between atoms: N1_8  and  C8_9 
REMARK       I    between atoms: N4_17  and  C14_18 
ROOT
HETATM    1  C1  UNL     1       5.563   1.778  -1.292  1.00  0.00     0.018 C 
HETATM    2  C2  UNL     1       4.847   1.117  -0.569  1.00  0.00    -0.078 C 
HETATM    3  C3  UNL     1       3.991   0.346   0.274  1.00  0.00     0.019 A 
HETATM    4  C4  UNL     1       4.460  -0.100   1.488  1.00  0.00     0.021 A 
HETATM    5  C5  UNL     1       3.613  -0.842   2.281  1.00  0.00     0.004 A 
HETATM    6  C6  UNL     1       2.330  -1.140   1.888  1.00  0.00     0.029 A 
HETATM    7  C7  UNL     1       1.797  -0.715   0.666  1.00  0.00     0.031 A 
HETATM    8  C17 UNL     1       2.697   0.019  -0.071  1.00  0.00     0.049 A 
ENDROOT
BRANCH   7   9
HETATM    9  N1  UNL     1       0.496  -1.038   0.318  1.00  0.00    -0.361 N 
HETATM   10  H5  UNL     1      -0.067  -1.596   1.040  1.00  0.00     0.162 HD
BRANCH   9  11
HETATM   11  C8  UNL     1      -0.265  -0.774  -0.835  1.00  0.00     0.173 A 
HETATM   12  N2  UNL     1       0.470  -0.579  -1.870  1.00  0.00    -0.183 NA
HETATM   13  C9  UNL     1       0.006  -0.291  -3.173  1.00  0.00     0.094 A 
HETATM   14  N3  UNL     1      -0.859  -0.458  -2.254  1.00  0.00     0.000 N 
HETATM   15  C10 UNL     1      -2.233  -0.414  -2.254  1.00  0.00    -0.022 A 
HETATM   16  C16 UNL     1      -1.710  -0.759  -0.868  1.00  0.00     0.174 A 
HETATM   17  C11 UNL     1      -3.538  -0.399  -2.433  1.00  0.00     0.011 C 
HETATM   18  C12 UNL     1      -4.431  -0.185  -1.303  1.00  0.00     0.018 C 
HETATM   19  C13 UNL     1      -3.866   0.013  -0.121  1.00  0.00     0.095 C 
HETATM   20  N4  UNL     1      -2.431   0.031   0.064  1.00  0.00    -0.315 N 
HETATM   21  C14 UNL     1      -1.990   0.851   1.156  1.00  0.00     0.220 C 
HETATM   22  C15 UNL     1      -2.929   1.596   2.027  1.00  0.00     0.117 C 
HETATM   23  O1  UNL     1      -0.781   1.003   1.462  1.00  0.00    -0.273 OA
ENDBRANCH   9  11
ENDBRANCH   7   9
TORSDOF 2
