REMARK  4 active torsions:
REMARK  status: ('A' for Active; 'I' for Inactive)
REMARK       I    between atoms: C2_2  and  N1_4 
REMARK    1  A    between atoms: N1_4  and  O2_5 
REMARK    2  A    between atoms: O2_5  and  C3_6 
REMARK    3  A    between atoms: C8_13  and  C9_14 
REMARK    4  A    between atoms: C15_20  and  N4_21 
ROOT
HETATM    1  C3  UNL     1       2.247  -1.187   0.329  1.00  0.00     0.100 A 
HETATM    2  C4  UNL     1       2.568  -2.514   0.011  1.00  0.00     0.041 A 
HETATM    3  C5  UNL     1       1.523  -3.305  -0.483  1.00  0.00     0.035 A 
HETATM    4  C6  UNL     1       0.257  -2.783  -0.637  1.00  0.00     0.070 A 
HETATM    5  N2  UNL     1      -0.716  -3.554  -1.108  1.00  0.00    -0.241 NA
HETATM    6  C7  UNL     1      -1.924  -3.030  -1.247  1.00  0.00     0.234 A 
HETATM    7  N3  UNL     1      -2.156  -1.774  -0.928  1.00  0.00    -0.240 NA
HETATM    8  C8  UNL     1      -1.280  -0.885  -0.447  1.00  0.00     0.083 A 
HETATM    9  C16 UNL     1      -0.072  -1.491  -0.331  1.00  0.00     0.025 A 
HETATM   10  C17 UNL     1       0.969  -0.755   0.144  1.00  0.00     0.055 A 
ENDROOT
BRANCH   8  11
HETATM   11  C9  UNL     1      -1.692   0.432  -0.154  1.00  0.00     0.020 A 
HETATM   12  C10 UNL     1      -1.192   1.588   0.315  1.00  0.00     0.016 A 
HETATM   13  C11 UNL     1      -1.768   2.800   0.536  1.00  0.00     0.002 A 
HETATM   14  C12 UNL     1      -3.098   2.906   0.241  1.00  0.00     0.009 A 
HETATM   15  C13 UNL     1      -3.750   1.808  -0.248  1.00  0.00    -0.035 A 
HETATM   16  C14 UNL     1      -5.177   1.971  -0.549  1.00  0.00     0.050 C 
HETATM   17  C15 UNL     1      -3.047   0.640  -0.425  1.00  0.00     0.044 A 
BRANCH  17  18
HETATM   18  N4  UNL     1      -3.929  -0.385  -0.948  1.00  0.00    -0.398 N 
HETATM   19  H14 UNL     1      -4.196  -0.898  -1.797  1.00  0.00     0.156 HD
HETATM   20  H15 UNL     1      -4.678  -1.021  -0.589  1.00  0.00     0.156 HD
ENDBRANCH  17  18
ENDBRANCH   8  11
BRANCH   1  21
HETATM   21  O2  UNL     1       3.310  -0.445   0.812  1.00  0.00    -0.235 OA
BRANCH  21  22
HETATM   22  N1  UNL     1       4.329   0.006  -0.021  1.00  0.00    -0.229 N 
HETATM   23  C2  UNL     1       5.314   0.748   0.702  1.00  0.00     0.237 C 
HETATM   24  C1  UNL     1       6.515   1.340   0.018  1.00  0.00     0.119 C 
HETATM   25  O1  UNL     1       5.155   0.902   1.942  1.00  0.00    -0.272 OA
HETATM   26  H4  UNL     1       4.499  -0.099  -1.057  1.00  0.00     0.198 HD
ENDBRANCH  21  22
ENDBRANCH   1  21
TORSDOF 4
