REMARK  1 active torsions:
REMARK  status: ('A' for Active; 'I' for Inactive)
REMARK       I    between atoms: C2_2  and  N1_4 
REMARK    1  A    between atoms: N1_4  and  C3_5 
ROOT
HETATM    1  C3  UNL     1       1.666  -0.324  -0.403  1.00  0.00     0.031 C 
HETATM    2  C4  UNL     1       1.209  -1.586  -0.397  1.00  0.00     0.006 C 
HETATM    3  C5  UNL     1      -0.213  -1.753  -0.131  1.00  0.00     0.056 C 
HETATM    4  C6  UNL     1      -0.589  -2.339   1.157  1.00  0.00    -0.021 C 
HETATM    5  C7  UNL     1      -1.405  -3.276   1.626  1.00  0.00     0.013 C 
HETATM    6  P1  UNL     1      -2.133  -3.815   0.051  1.00  0.00    -0.022 P 
HETATM    7  C8  UNL     1      -3.116  -2.799  -0.811  1.00  0.00    -0.011 C 
HETATM    8  C9  UNL     1      -3.601  -1.853  -0.060  1.00  0.00     0.015 C 
HETATM    9  C10 UNL     1      -3.366  -1.264   1.252  1.00  0.00     0.018 C 
HETATM   10  C11 UNL     1      -2.887  -0.021   1.487  1.00  0.00     0.090 C 
HETATM   11  N2  UNL     1      -2.533   0.907   0.493  1.00  0.00    -0.350 N 
HETATM   12  C12 UNL     1      -1.358   1.742   0.368  1.00  0.00     0.136 C 
HETATM   13  N3  UNL     1      -2.066   2.704   0.774  1.00  0.00    -0.224 NA
HETATM   14  C13 UNL     1      -1.591   4.036   0.929  1.00  0.00     0.229 C 
HETATM   15  N4  UNL     1      -0.380   4.165   0.593  1.00  0.00    -0.278 NA
HETATM   16  C14 UNL     1       0.545   3.231   0.096  1.00  0.00     0.192 C 
HETATM   17  C15 UNL     1       0.061   1.816   0.073  1.00  0.00     0.010 C 
HETATM   18  C16 UNL     1       0.950   0.899  -0.170  1.00  0.00     0.042 C 
HETATM   19  H13 UNL     1      -3.363   0.804  -0.119  1.00  0.00     0.166 HD
ENDROOT
BRANCH   1  20
HETATM   20  N1  UNL     1       3.042  -0.510  -0.685  1.00  0.00    -0.328 N 
HETATM   21  C2  UNL     1       3.488   0.116  -1.881  1.00  0.00     0.218 C 
HETATM   22  C1  UNL     1       4.918  -0.023  -2.262  1.00  0.00     0.117 C 
HETATM   23  O1  UNL     1       2.723   0.784  -2.633  1.00  0.00    -0.274 OA
HETATM   24  H4  UNL     1       3.734  -1.042  -0.117  1.00  0.00     0.169 HD
ENDBRANCH   1  20
TORSDOF 1
