REMARK  5 active torsions:
REMARK  status: ('A' for Active; 'I' for Inactive)
REMARK    1  A    between atoms: C9_12  and  N3_13 
REMARK    2  A    between atoms: N3_13  and  C10_14 
REMARK    3  A    between atoms: C10_14  and  C11_15 
REMARK    4  A    between atoms: C12_16  and  C13_17 
REMARK    5  A    between atoms: C16_20  and  C17_21 
ROOT
HETATM    1  O1  UNL     1      -4.962   3.219   0.386  1.00  0.00    -0.273 OA
HETATM    2  C1  UNL     1      -4.283   2.149   0.283  1.00  0.00     0.223 C 
HETATM    3  C2  UNL     1      -2.868   2.132   0.766  1.00  0.00     0.123 C 
HETATM    4  C3  UNL     1      -1.981   1.371  -0.232  1.00  0.00     0.134 C 
HETATM    5  N1  UNL     1      -2.126  -0.061  -0.048  1.00  0.00    -0.358 N 
HETATM    6  C4  UNL     1      -3.360  -0.717  -0.296  1.00  0.00     0.047 C 
HETATM    7  C5  UNL     1      -4.595  -0.256  -0.413  1.00  0.00     0.120 C 
HETATM    8  N2  UNL     1      -5.062   1.098  -0.318  1.00  0.00    -0.335 N 
HETATM    9  C6  UNL     1      -3.328  -2.179  -0.469  1.00  0.00     0.027 C 
HETATM   10  C7  UNL     1      -2.095  -2.629  -0.358  1.00  0.00    -0.021 C 
HETATM   11  C8  UNL     1      -0.754  -2.031  -0.104  1.00  0.00     0.073 C 
HETATM   12  C9  UNL     1      -0.867  -0.660   0.421  1.00  0.00     0.183 C 
HETATM   13  H6  UNL     1      -6.002   1.293  -0.707  1.00  0.00     0.168 HD
ENDROOT
BRANCH  12  14
HETATM   14  N3  UNL     1       0.190   0.248   0.274  1.00  0.00    -0.398 N 
HETATM   15  H12 UNL     1       0.332   0.891   1.099  1.00  0.00     0.155 HD
BRANCH  14  16
HETATM   16  C10 UNL     1       1.340  -0.010  -0.472  1.00  0.00     0.143 C 
BRANCH  16  17
HETATM   17  C11 UNL     1       2.344  -0.943   0.044  1.00  0.00    -0.011 C 
HETATM   18  C12 UNL     1       3.662  -0.917   0.386  1.00  0.00    -0.022 C 
BRANCH  18  19
HETATM   19  C13 UNL     1       4.348   0.374   0.219  1.00  0.00     0.035 A 
HETATM   20  C14 UNL     1       5.518  -0.153   0.668  1.00  0.00     0.005 A 
HETATM   21  C15 UNL     1       6.041   0.470   0.638  1.00  0.00     0.005 A 
HETATM   22  C17 UNL     1       6.916   1.466   0.599  1.00  0.00     0.057 A 
HETATM   23  C16 UNL     1       6.419   0.909   0.625  1.00  0.00    -0.078 A 
ENDBRANCH  18  19
ENDBRANCH  16  17
ENDBRANCH  14  16
ENDBRANCH  12  14
TORSDOF 5
