REMARK  0 active torsions:
REMARK  status: ('A' for Active; 'I' for Inactive)
ROOT
HETATM    1  C1  UNL     1       3.643  -0.673   1.484  1.00  0.00     0.038 C 
HETATM    2  C2  UNL     1       2.378  -0.024   1.921  1.00  0.00    -0.002 C 
HETATM    3  C3  UNL     1       1.621  -0.019   0.900  1.00  0.00     0.034 C 
HETATM    4  C4  UNL     1       0.366   0.605   1.268  1.00  0.00     0.063 C 
HETATM    5  C5  UNL     1      -0.725   1.183   1.705  1.00  0.00     0.085 A 
HETATM    6  N1  UNL     1      -0.633   1.546   3.077  1.00  0.00    -0.240 NA
HETATM    7  C6  UNL     1      -1.796   2.077   3.386  1.00  0.00     0.234 A 
HETATM    8  N2  UNL     1      -2.600   2.044   2.226  1.00  0.00    -0.244 NA
HETATM    9  C7  UNL     1      -2.035   1.533   1.203  1.00  0.00     0.066 A 
HETATM   10  C8  UNL     1      -2.099   1.153  -0.246  1.00  0.00     0.088 C 
HETATM   11  C9  UNL     1      -2.410  -0.288  -0.376  1.00  0.00     0.146 C 
HETATM   12 CL1  UNL     1      -4.065  -0.678   0.073  1.00  0.00    -0.117 Cl
HETATM   13  C10 UNL     1      -2.210  -0.667  -1.832  1.00  0.00     0.101 C 
HETATM   14  F1  UNL     1      -3.033  -0.031  -2.701  1.00  0.00    -0.213 F 
HETATM   15  C11 UNL     1      -1.568  -1.382  -2.804  1.00  0.00     0.113 C 
HETATM   16  P1  UNL     1      -0.504  -2.491  -3.851  1.00  0.00     0.060 P 
HETATM   17  N3  UNL     1       1.205  -2.291  -3.685  1.00  0.00    -0.101 NA
HETATM   18  N4  UNL     1       1.451  -1.241  -2.709  1.00  0.00    -0.251 N 
HETATM   19  C12 UNL     1       1.689  -0.228  -1.770  1.00  0.00     0.336 C 
HETATM   20  O1  UNL     1       1.955   0.954  -1.742  1.00  0.00    -0.246 OA
HETATM   21  N5  UNL     1       1.618  -0.516  -0.418  1.00  0.00    -0.308 N 
HETATM   22  H11 UNL     1       1.573  -0.680  -3.610  1.00  0.00     0.187 HD
HETATM   23  H12 UNL     1       1.528  -1.423   0.035  1.00  0.00     0.170 HD
ENDROOT
TORSDOF 0
