REMARK  5 active torsions:
REMARK  status: ('A' for Active; 'I' for Inactive)
REMARK       I    between atoms: N1_1  and  C1_2 
REMARK       I    between atoms: C1_2  and  N2_4 
REMARK    1  A    between atoms: N2_4  and  C2_5 
REMARK    2  A    between atoms: C7_12  and  N5_13 
REMARK    3  A    between atoms: N5_13  and  C8_14 
REMARK    4  A    between atoms: C8_14  and  C9_15 
REMARK    5  A    between atoms: C10_16  and  C11_17 
ROOT
HETATM    1  C2  UNL     1       2.678  -0.222  -0.505  1.00  0.00     0.037 A 
HETATM    2  C3  UNL     1       3.234  -1.153   0.340  1.00  0.00     0.032 A 
HETATM    3  C4  UNL     1       2.583  -1.744   1.401  1.00  0.00     0.035 A 
HETATM    4  C5  UNL     1       1.275  -1.374   1.634  1.00  0.00     0.072 A 
HETATM    5  N3  UNL     1       0.610  -1.929   2.660  1.00  0.00    -0.241 NA
HETATM    6  C6  UNL     1      -0.667  -1.558   2.875  1.00  0.00     0.235 A 
HETATM    7  N4  UNL     1      -1.238  -0.651   2.067  1.00  0.00    -0.224 NA
HETATM    8  C7  UNL     1      -0.627  -0.068   1.035  1.00  0.00     0.137 A 
HETATM    9  C12 UNL     1       0.681  -0.442   0.808  1.00  0.00     0.041 A 
HETATM   10  C13 UNL     1       1.372   0.107  -0.224  1.00  0.00     0.047 A 
ENDROOT
BRANCH   1  11
HETATM   11  N2  UNL     1       3.304   0.409  -1.604  1.00  0.00    -0.309 N 
HETATM   12  C1  UNL     1       4.613   0.265  -2.112  1.00  0.00     0.318 C 
HETATM   13  N1  UNL     1       5.149   0.950  -3.229  1.00  0.00    -0.352 N 
HETATM   14  O1  UNL     1       5.378  -0.541  -1.529  1.00  0.00    -0.247 OA
HETATM   15  H1  UNL     1       5.138   1.991  -3.347  1.00  0.00     0.160 HD
HETATM   16  H2  UNL     1       5.605   0.474  -4.036  1.00  0.00     0.160 HD
HETATM   17  H3  UNL     1       2.777   1.104  -2.177  1.00  0.00     0.170 HD
ENDBRANCH   1  11
BRANCH   8  18
HETATM   18  N5  UNL     1      -1.327   0.880   0.248  1.00  0.00    -0.371 N 
HETATM   19  H7  UNL     1      -0.991   1.406  -0.566  1.00  0.00     0.161 HD
BRANCH  18  20
HETATM   20  C8  UNL     1      -2.714   1.200   0.579  1.00  0.00     0.148 C 
BRANCH  20  21
HETATM   21  C9  UNL     1      -3.598   0.021   0.478  1.00  0.00    -0.010 C 
HETATM   22  C10 UNL     1      -4.624  -0.049  -0.329  1.00  0.00    -0.014 C 
BRANCH  22  23
HETATM   23  C11 UNL     1      -5.160   0.940  -1.293  1.00  0.00     0.141 C 
HETATM   24 CL1  UNL     1      -5.119   0.220  -2.921  1.00  0.00    -0.126 Cl
ENDBRANCH  22  23
ENDBRANCH  20  21
ENDBRANCH  18  20
ENDBRANCH   8  18
TORSDOF 5
