REMARK  3 active torsions:
REMARK  status: ('A' for Active; 'I' for Inactive)
REMARK       I    between atoms: N1_1  and  C1_2 
REMARK       I    between atoms: C1_2  and  N2_4 
REMARK    1  A    between atoms: N2_4  and  C2_5 
REMARK    2  A    between atoms: C7_12  and  N5_13 
REMARK    3  A    between atoms: N5_13  and  C8_14 
ROOT
HETATM    1  C2  UNL     1      -2.872  -0.105  -0.210  1.00  0.00     0.037 A 
HETATM    2  C3  UNL     1      -3.431  -0.763   0.881  1.00  0.00     0.032 A 
HETATM    3  C4  UNL     1      -2.643  -1.329   1.869  1.00  0.00     0.035 A 
HETATM    4  C5  UNL     1      -1.287  -1.184   1.671  1.00  0.00     0.072 A 
HETATM    5  N3  UNL     1      -0.507  -1.734   2.633  1.00  0.00    -0.241 NA
HETATM    6  C6  UNL     1       0.832  -1.640   2.521  1.00  0.00     0.236 A 
HETATM    7  N4  UNL     1       1.391  -1.010   1.472  1.00  0.00    -0.224 NA
HETATM    8  C7  UNL     1       0.658  -0.448   0.495  1.00  0.00     0.142 A 
HETATM    9  C13 UNL     1      -0.705  -0.540   0.604  1.00  0.00     0.041 A 
HETATM   10  C14 UNL     1      -1.501   0.019  -0.370  1.00  0.00     0.047 A 
ENDROOT
BRANCH   8  11
HETATM   11  N5  UNL     1       1.339   0.179  -0.579  1.00  0.00    -0.339 N 
HETATM   12  H7  UNL     1       0.947   0.642  -1.421  1.00  0.00     0.167 HD
BRANCH  11  13
HETATM   13  C8  UNL     1       2.761   0.218  -0.567  1.00  0.00     0.048 A 
HETATM   14  C9  UNL     1       3.410   1.375  -0.114  1.00  0.00     0.034 A 
HETATM   15  C10 UNL     1       4.781   1.419  -0.092  1.00  0.00     0.046 A 
HETATM   16  C11 UNL     1       5.799   0.561  -0.424  1.00  0.00     0.139 A 
HETATM   17  F1  UNL     1       7.112   0.857  -0.300  1.00  0.00    -0.204 F 
HETATM   18  C12 UNL     1       5.499  -0.715  -0.922  1.00  0.00     0.087 A 
HETATM   19 CL1  UNL     1       6.755  -1.860  -1.360  1.00  0.00    -0.079 Cl
HETATM   20  P1  UNL     1       3.802  -1.072  -1.068  1.00  0.00     0.024 P 
ENDBRANCH  11  13
ENDBRANCH   8  11
BRANCH   1  21
HETATM   21  N2  UNL     1      -3.760   0.417  -1.177  1.00  0.00    -0.309 N 
HETATM   22  C1  UNL     1      -4.441   0.234  -2.394  1.00  0.00     0.318 C 
HETATM   23  N1  UNL     1      -5.278   1.259  -2.872  1.00  0.00    -0.352 N 
HETATM   24  O1  UNL     1      -4.338  -0.817  -3.086  1.00  0.00    -0.247 OA
HETATM   25  H1  UNL     1      -5.259   2.297  -2.789  1.00  0.00     0.160 HD
HETATM   26  H2  UNL     1      -5.862   2.065  -3.199  1.00  0.00     0.160 HD
HETATM   27  H3  UNL     1      -3.923   1.344  -0.675  1.00  0.00     0.170 HD
ENDBRANCH   1  21
TORSDOF 3
