REMARK  3 active torsions:
REMARK  status: ('A' for Active; 'I' for Inactive)
REMARK    1  A    between atoms: C1_2  and  N1_3 
REMARK    2  A    between atoms: N1_3  and  C2_4 
REMARK    3  A    between atoms: N4_12  and  C8_13 
ROOT
HETATM    1  C2  UNL     1      -2.306   1.327   0.189  1.00  0.00     0.035 C 
HETATM    2  C3  UNL     1      -3.067   0.231   0.155  1.00  0.00     0.031 C 
HETATM    3  C4  UNL     1      -3.238  -1.186   0.288  1.00  0.00     0.021 C 
HETATM    4  C5  UNL     1      -2.419  -2.174   0.602  1.00  0.00     0.112 C 
HETATM    5  N2  UNL     1      -1.073  -1.913   0.894  1.00  0.00    -0.278 N 
HETATM    6  C6  UNL     1      -0.316  -2.688   1.637  1.00  0.00     0.196 A 
HETATM    7  N3  UNL     1       0.263  -1.516   1.099  1.00  0.00    -0.157 NA
HETATM    8  C7  UNL     1       1.125  -0.891   1.876  1.00  0.00     0.230 C 
HETATM    9  N4  UNL     1       1.180  -0.004   0.732  1.00  0.00    -0.334 N 
HETATM   10  C14 UNL     1       0.356   1.163   0.563  1.00  0.00     0.095 C 
HETATM   11  C15 UNL     1      -0.869   1.630   0.371  1.00  0.00     0.046 C 
ENDROOT
BRANCH   9  12
HETATM   12  C8  UNL     1       2.139  -0.335  -0.312  1.00  0.00     0.037 A 
HETATM   13  C9  UNL     1       2.896  -1.458  -0.237  1.00  0.00     0.033 A 
HETATM   14  C10 UNL     1       3.811  -1.797  -1.206  1.00  0.00     0.046 A 
HETATM   15  C11 UNL     1       3.923  -0.925  -2.275  1.00  0.00     0.138 A 
HETATM   16  F1  UNL     1       4.812  -1.233  -3.239  1.00  0.00    -0.204 F 
HETATM   17  C12 UNL     1       3.170   0.241  -2.400  1.00  0.00     0.074 A 
HETATM   18 CL1  UNL     1       3.393   1.259  -3.782  1.00  0.00    -0.081 Cl
HETATM   19  C13 UNL     1       2.276   0.512  -1.392  1.00  0.00     0.056 A 
ENDBRANCH   9  12
BRANCH   1  20
HETATM   20  N1  UNL     1      -3.023   2.556  -0.104  1.00  0.00    -0.334 N 
HETATM   21  H2  UNL     1      -3.478   2.618  -1.031  1.00  0.00     0.168 HD
BRANCH  20  22
HETATM   22  C1  UNL     1      -3.105   3.633   0.825  1.00  0.00     0.353 C 
HETATM   23  O1  UNL     1      -2.556   3.569   1.952  1.00  0.00    -0.283 OA
ENDBRANCH  20  22
ENDBRANCH   1  20
TORSDOF 3
