REMARK  4 active torsions:
REMARK  status: ('A' for Active; 'I' for Inactive)
REMARK    1  A    between atoms: C3_3  and  C4_4 
REMARK    2  A    between atoms: C3_3  and  N1_8 
REMARK    3  A    between atoms: N1_8  and  C7_9 
REMARK    4  A    between atoms: C10_12  and  N2_13 
REMARK       I    between atoms: N2_13  and  C11_14 
REMARK       I    between atoms: C11_14  and  N3_15 
ROOT
HETATM    1  C1  UNL     1       3.624  -2.297  -0.617  1.00  0.00     0.099 C 
HETATM    2  C2  UNL     1       3.148  -1.196  -0.091  1.00  0.00    -0.126 C 
HETATM    3  C3  UNL     1       2.751  -0.043   0.418  1.00  0.00     0.077 C 
ENDROOT
BRANCH   3   4
HETATM    4  C4  UNL     1       3.487   1.124   0.013  1.00  0.00     0.057 C 
HETATM    5  C5  UNL     1       4.513   1.299  -0.790  1.00  0.00     0.010 C 
HETATM    6  C6  UNL     1       5.094   2.645  -1.041  1.00  0.00     0.062 C 
HETATM    7 CL1  UNL     1       5.276  -0.039  -1.624  1.00  0.00    -0.089 Cl
ENDBRANCH   3   4
BRANCH   3   8
HETATM    8  N1  UNL     1       1.659  -0.187   1.278  1.00  0.00    -0.335 N 
HETATM    9  H7  UNL     1       1.713   0.122   2.278  1.00  0.00     0.168 HD
BRANCH   8  10
HETATM   10  C7  UNL     1       0.440  -0.750   0.848  1.00  0.00     0.129 C 
HETATM   11  C8  UNL     1      -0.436   0.187   0.351  1.00  0.00     0.053 C 
HETATM   12  C9  UNL     1      -1.815   0.152   0.402  1.00  0.00     0.033 C 
HETATM   13  C10 UNL     1      -2.936  -0.158  -0.343  1.00  0.00     0.036 C 
HETATM   14  C12 UNL     1      -3.220  -1.424  -0.818  1.00  0.00     0.031 C 
HETATM   15  C13 UNL     1      -3.375  -2.595  -0.099  1.00  0.00     0.021 C 
HETATM   16  C14 UNL     1      -2.333  -3.219   0.588  1.00  0.00     0.118 C 
HETATM   17  N4  UNL     1      -1.370  -3.412  -0.352  1.00  0.00    -0.254 NA
HETATM   18  C15 UNL     1      -0.292  -2.602  -0.283  1.00  0.00     0.234 C 
HETATM   19  N5  UNL     1       0.079  -2.046   0.879  1.00  0.00    -0.225 NA
BRANCH  13  20
HETATM   20  N2  UNL     1      -3.852   0.874  -0.641  1.00  0.00    -0.309 N 
HETATM   21  C11 UNL     1      -3.690   2.220  -0.219  1.00  0.00     0.318 C 
HETATM   22  N3  UNL     1      -4.632   3.261  -0.530  1.00  0.00    -0.352 N 
HETATM   23  O1  UNL     1      -2.687   2.557   0.461  1.00  0.00    -0.247 OA
HETATM   24  H11 UNL     1      -5.646   3.511  -0.337  1.00  0.00     0.160 HD
HETATM   25  H12 UNL     1      -4.256   4.028  -1.124  1.00  0.00     0.160 HD
HETATM   26  H10 UNL     1      -4.723   0.725  -1.197  1.00  0.00     0.170 HD
ENDBRANCH  13  20
ENDBRANCH   8  10
ENDBRANCH   3   8
TORSDOF 4
