REMARK  4 active torsions:
REMARK  status: ('A' for Active; 'I' for Inactive)
REMARK    1  A    between atoms: C2_2  and  C3_4 
REMARK    2  A    between atoms: C4_5  and  C5_6 
REMARK    3  A    between atoms: N1_7  and  C6_8 
REMARK    4  A    between atoms: C11_14  and  O1_15 
ROOT
HETATM    1  C6  UNL     1      -1.245  -0.209   1.421  1.00  0.00     0.035 A 
HETATM    2  C7  UNL     1      -1.025  -0.667   0.206  1.00  0.00     0.120 A 
HETATM    3  N2  UNL     1       0.214  -0.248  -0.294  1.00  0.00    -0.320 N 
HETATM    4  C8  UNL     1       0.671  -0.615  -1.566  1.00  0.00     0.136 C 
HETATM    5  C9  UNL     1       1.833  -1.555  -1.671  1.00  0.00     0.050 C 
HETATM    6  C10 UNL     1       3.091  -1.091  -1.073  1.00  0.00     0.011 C 
HETATM    7  C11 UNL     1       4.065  -0.452  -0.479  1.00  0.00     0.066 C 
HETATM    8  C13 UNL     1       4.119   0.842   0.142  1.00  0.00     0.061 C 
HETATM    9  C14 UNL     1       3.304   1.846   0.362  1.00  0.00     0.148 C 
HETATM   10  O2  UNL     1       2.488   0.948  -0.308  1.00  0.00    -0.290 OA
HETATM   11  C15 UNL     1       1.272   0.527   0.165  1.00  0.00     0.248 A 
HETATM   12  N3  UNL     1       0.954   0.883   1.276  1.00  0.00    -0.244 NA
HETATM   13  C16 UNL     1      -0.202   0.635   2.046  1.00  0.00     0.210 A 
ENDROOT
BRANCH   1  14
HETATM   14  N1  UNL     1      -2.462  -0.558   2.045  1.00  0.00    -0.389 NA
HETATM   15  C5  UNL     1      -3.608  -0.339   1.529  1.00  0.00     0.284 C 
BRANCH  15  16
HETATM   16  C4  UNL     1      -4.119   0.246   0.313  1.00  0.00     0.020 C 
HETATM   17  C3  UNL     1      -5.368   0.402  -0.084  1.00  0.00     0.019 C 
BRANCH  17  18
HETATM   18  C2  UNL     1      -6.451  -0.051   0.762  1.00  0.00     0.001 C 
HETATM   19  C1  UNL     1      -7.665   0.137   0.302  1.00  0.00     0.032 C 
HETATM   20 BR1  UNL     1      -6.169  -0.875   2.444  1.00  0.00    -0.052 Br
ENDBRANCH  17  18
ENDBRANCH  15  16
ENDBRANCH   1  14
BRANCH   7  21
HETATM   21  O1  UNL     1       5.411  -0.749  -0.211  1.00  0.00    -0.356 OA
HETATM   22  C12 UNL     1       6.464  -0.253  -1.008  1.00  0.00     0.210 C 
ENDBRANCH   7  21
TORSDOF 4
