REMARK  2 active torsions:
REMARK  status: ('A' for Active; 'I' for Inactive)
REMARK    1  A    between atoms: O1_2  and  C2_3 
REMARK    2  A    between atoms: N4_17  and  C12_18 
ROOT
HETATM    1  C2  UNL     1      -0.596  -1.286  -0.600  1.00  0.00     0.125 C 
HETATM    2  C3  UNL     1      -0.533  -2.314   0.265  1.00  0.00     0.039 C 
HETATM    3  C4  UNL     1      -0.546  -2.445   1.716  1.00  0.00     0.000 C 
HETATM    4  C5  UNL     1      -1.107  -1.560   2.524  1.00  0.00    -0.007 C 
HETATM    5  C6  UNL     1      -1.816  -0.307   2.279  1.00  0.00     0.155 C 
HETATM    6  N1  UNL     1      -1.503   0.298   0.999  1.00  0.00    -0.329 N 
HETATM    7  C7  UNL     1      -2.323   1.483   1.106  1.00  0.00     0.131 C 
HETATM    8  C8  UNL     1      -1.739   2.532   0.547  1.00  0.00     0.130 C 
HETATM    9  N2  UNL     1      -2.547   3.636   0.100  1.00  0.00    -0.232 NA
HETATM   10  C9  UNL     1      -2.822   3.633  -1.181  1.00  0.00     0.236 C 
HETATM   11  N3  UNL     1      -2.058   2.432  -1.226  1.00  0.00    -0.230 NA
HETATM   12  C10 UNL     1      -2.647   1.284  -1.262  1.00  0.00     0.258 C 
HETATM   13  O2  UNL     1      -1.383   0.780  -1.287  1.00  0.00    -0.288 OA
HETATM   14  C11 UNL     1      -0.709   0.115  -0.236  1.00  0.00     0.288 C 
HETATM   15  N4  UNL     1       0.502   0.848  -0.019  1.00  0.00    -0.257 N 
HETATM   16  S1  UNL     1       0.035   2.532   0.369  1.00  0.00     0.014 SA
ENDROOT
BRANCH  15  17
HETATM   17  C12 UNL     1       1.902   0.603  -0.040  1.00  0.00     0.047 A 
HETATM   18  C13 UNL     1       2.800   1.553   0.402  1.00  0.00     0.030 A 
HETATM   19  C14 UNL     1       4.155   1.339   0.388  1.00  0.00     0.004 A 
HETATM   20  C15 UNL     1       4.676   0.152  -0.074  1.00  0.00     0.019 A 
HETATM   21  C16 UNL     1       3.826  -0.824  -0.524  1.00  0.00     0.013 A 
HETATM   22 BR1  UNL     1       4.562  -2.461  -1.160  1.00  0.00    -0.051 Br
HETATM   23  C17 UNL     1       2.490  -0.561  -0.489  1.00  0.00     0.049 A 
ENDBRANCH  15  17
BRANCH   1  24
HETATM   24  O1  UNL     1      -0.555  -1.534  -1.988  1.00  0.00    -0.353 OA
HETATM   25  C1  UNL     1      -0.200  -2.752  -2.561  1.00  0.00     0.209 C 
ENDBRANCH   1  24
TORSDOF 2
