REMARK  1 active torsions:
REMARK  status: ('A' for Active; 'I' for Inactive)
REMARK       I    between atoms: C2_2  and  N1_4 
REMARK    1  A    between atoms: N1_4  and  C3_5 
ROOT
HETATM    1  C3  UNL     1       1.207  -0.054   0.130  1.00  0.00     0.084 C 
HETATM    2  C4  UNL     1       1.427  -1.410   0.596  1.00  0.00     0.071 C 
HETATM    3  C5  UNL     1       0.701  -2.503  -0.151  1.00  0.00     0.033 C 
HETATM    4  C6  UNL     1       0.851  -2.475  -1.629  1.00  0.00     0.157 C 
HETATM    5  N2  UNL     1      -0.262  -1.917  -2.368  1.00  0.00    -0.282 NA
HETATM    6  C7  UNL     1      -0.580  -0.641  -2.507  1.00  0.00     0.229 C 
HETATM    7  N3  UNL     1      -0.334   0.624  -1.823  1.00  0.00    -0.223 NA
HETATM    8  C8  UNL     1       0.356   0.751  -0.709  1.00  0.00     0.153 C 
HETATM    9  N4  UNL     1      -0.088   2.103  -0.624  1.00  0.00    -0.350 N 
HETATM   10  C9  UNL     1      -1.400   2.562  -0.431  1.00  0.00     0.080 C 
HETATM   11  C10 UNL     1      -2.501   2.266   0.198  1.00  0.00    -0.107 C 
HETATM   12  C11 UNL     1      -3.668   3.178   0.024  1.00  0.00     0.031 C 
HETATM   13  B1  UNL     1      -2.698   1.001   1.134  1.00  0.00     0.214 B 
HETATM   14  C12 UNL     1      -2.235  -0.403   0.639  1.00  0.00    -0.080 C 
HETATM   15  C13 UNL     1      -1.363  -1.385   0.660  1.00  0.00    -0.022 C 
HETATM   16  C14 UNL     1      -0.719  -2.675   0.351  1.00  0.00     0.109 C 
HETATM   17 CL1  UNL     1      -0.709  -3.699   1.806  1.00  0.00    -0.120 Cl
HETATM   18  H10 UNL     1       0.869   2.430  -0.763  1.00  0.00     0.166 HD
HETATM   19  H15 UNL     1      -3.713   0.973   1.782  1.00  0.00    -0.017 HD
ENDROOT
BRANCH   1  20
HETATM   20  N1  UNL     1       2.082   0.739   0.642  1.00  0.00    -0.215 NA
HETATM   21  C2  UNL     1       3.095   0.329   1.522  1.00  0.00     0.239 C 
HETATM   22  C1  UNL     1       4.304   1.024   1.019  1.00  0.00     0.119 C 
HETATM   23  O1  UNL     1       3.166  -0.433   2.546  1.00  0.00    -0.272 OA
ENDBRANCH   1  20
TORSDOF 1
