REMARK  5 active torsions:
REMARK  status: ('A' for Active; 'I' for Inactive)
REMARK    1  A    between atoms: N1_1  and  C1_2 
REMARK    2  A    between atoms: C6_9  and  C7_10 
REMARK    3  A    between atoms: C7_10  and  C8_11 
REMARK    4  A    between atoms: C8_11  and  C9_12 
REMARK       I    between atoms: C9_12  and  N2_14 
REMARK    5  A    between atoms: N2_14  and  C10_15 
ROOT
HETATM    1  C7  UNL     1       1.648  -0.207  -0.580  1.00  0.00     0.050 C 
ENDROOT
BRANCH   1   2
HETATM    2  C6  UNL     1       3.127  -0.202  -0.451  1.00  0.00    -0.030 A 
HETATM    3  C1  UNL     1       3.877  -1.112   0.275  1.00  0.00     0.035 A 
HETATM    4  C2  UNL     1       5.269  -0.986   0.309  1.00  0.00     0.073 A 
HETATM    5  C3  UNL     1       5.939   0.003  -0.345  1.00  0.00     0.140 A 
HETATM    6  F1  UNL     1       7.286   0.127  -0.313  1.00  0.00    -0.204 F 
HETATM    7  C4  UNL     1       5.225   0.915  -1.068  1.00  0.00     0.073 A 
HETATM    8 CL1  UNL     1       5.998   2.212  -1.936  1.00  0.00    -0.081 Cl
HETATM    9  C5  UNL     1       3.857   0.795  -1.105  1.00  0.00     0.036 A 
BRANCH   3  10
HETATM   10  N1  UNL     1       3.160  -2.138   0.951  1.00  0.00    -0.399 N 
HETATM   11  H1  UNL     1       2.564  -2.911   0.613  1.00  0.00     0.156 HD
HETATM   12  H2  UNL     1       3.386  -1.925   1.965  1.00  0.00     0.156 HD
ENDBRANCH   3  10
ENDBRANCH   1   2
BRANCH   1  13
HETATM   13  C8  UNL     1       1.049   0.320   0.692  1.00  0.00     0.108 C 
BRANCH  13  14
HETATM   14  C9  UNL     1      -0.404   0.363   0.681  1.00  0.00     0.221 C 
HETATM   15  O1  UNL     1      -0.368  -0.098  -0.482  1.00  0.00    -0.273 OA
HETATM   16  N2  UNL     1      -1.445   0.731   1.527  1.00  0.00    -0.336 N 
HETATM   17  H9  UNL     1      -0.878   1.033   2.341  1.00  0.00     0.168 HD
BRANCH  16  18
HETATM   18  C10 UNL     1      -2.818   0.678   1.280  1.00  0.00     0.103 C 
HETATM   19  C11 UNL     1      -3.882   0.449   0.610  1.00  0.00    -0.004 A 
HETATM   20  C12 UNL     1      -5.246   0.672   1.064  1.00  0.00     0.012 A 
HETATM   21  C15 UNL     1      -3.651  -0.085  -0.724  1.00  0.00     0.123 A 
HETATM   22  C13 UNL     1      -6.221   0.383   0.250  1.00  0.00    -0.004 A 
HETATM   23  C14 UNL     1      -6.020  -0.157  -1.105  1.00  0.00     0.175 A 
HETATM   24  N3  UNL     1      -4.661  -0.351  -1.483  1.00  0.00    -0.297 NA
ENDBRANCH  16  18
ENDBRANCH  13  14
ENDBRANCH   1  13
TORSDOF 5
