REMARK  3 active torsions:
REMARK  status: ('A' for Active; 'I' for Inactive)
REMARK       I    between atoms: C2_2  and  N1_4 
REMARK    1  A    between atoms: N1_4  and  C3_5 
REMARK    2  A    between atoms: C9_11  and  N2_12 
REMARK    3  A    between atoms: C14_19  and  N3_20 
ROOT
HETATM    1  C3  UNL     1      -2.747  -0.333  -0.420  1.00  0.00     0.020 A 
HETATM    2  C4  UNL     1      -2.591   0.995  -0.951  1.00  0.00     0.027 A 
HETATM    3  C5  UNL     1      -1.385   1.465  -0.506  1.00  0.00     0.066 A 
HETATM    4  C6  UNL     1      -0.304   1.729  -0.029  1.00  0.00     0.114 A 
HETATM    5  C7  UNL     1      -0.437   0.197   0.665  1.00  0.00    -0.045 A 
HETATM    6  C8  UNL     1      -1.536  -0.145   0.192  1.00  0.00     0.093 A 
HETATM    7  C9  UNL     1       0.808   0.724   1.144  1.00  0.00     0.133 C 
HETATM    8  C15 UNL     1       0.223   2.180   1.406  1.00  0.00     0.109 A 
HETATM    9  N4  UNL     1      -0.991   1.904   0.936  1.00  0.00    -0.281 N 
ENDROOT
BRANCH   7  10
HETATM   10  N2  UNL     1       2.009   0.710   0.478  1.00  0.00    -0.346 N 
HETATM   11  C10 UNL     1       2.334   1.165  -0.824  1.00  0.00     0.116 A 
HETATM   12  C11 UNL     1       3.453   1.108  -1.525  1.00  0.00     0.087 A 
HETATM   13 CL1  UNL     1       3.685   1.725  -3.144  1.00  0.00    -0.080 Cl
HETATM   14  C12 UNL     1       4.615   0.499  -0.884  1.00  0.00     0.139 A 
HETATM   15  F1  UNL     1       5.838   0.338  -1.441  1.00  0.00    -0.204 F 
HETATM   16  C13 UNL     1       4.362   0.088   0.340  1.00  0.00     0.073 A 
HETATM   17  C14 UNL     1       3.163   0.120   1.187  1.00  0.00     0.346 A 
BRANCH  17  18
HETATM   18  N3  UNL     1       2.702  -1.183   1.607  1.00  0.00     0.105 N 
HETATM   19  H12 UNL     1       3.449  -1.862   1.778  1.00  0.00     0.315 HD
HETATM   20  H13 UNL     1       1.939  -1.581   1.057  1.00  0.00     0.315 HD
ENDBRANCH  17  18
ENDBRANCH   7  10
BRANCH   1  21
HETATM   21  N1  UNL     1      -3.760  -1.206  -0.636  1.00  0.00    -0.331 N 
HETATM   22  C2  UNL     1      -3.673  -2.082  -1.741  1.00  0.00     0.217 C 
HETATM   23  C1  UNL     1      -4.883  -2.949  -1.807  1.00  0.00     0.117 C 
HETATM   24  O1  UNL     1      -2.681  -2.056  -2.491  1.00  0.00    -0.274 OA
HETATM   25  H4  UNL     1      -4.449  -1.013   0.143  1.00  0.00     0.168 HD
ENDBRANCH   1  21
TORSDOF 3
