REMARK  3 active torsions:
REMARK  status: ('A' for Active; 'I' for Inactive)
REMARK    1  A    between atoms: C5_6  and  N1_7 
REMARK    2  A    between atoms: N1_7  and  C6_8 
REMARK    3  A    between atoms: C11_15  and  N4_16 
REMARK       I    between atoms: N4_16  and  C12_17 
ROOT
HETATM    1  C6  UNL     1      -0.648   0.244  -0.780  1.00  0.00     0.142 A 
HETATM    2  N2  UNL     1      -1.392   0.291  -1.898  1.00  0.00    -0.224 NA
HETATM    3  C7  UNL     1      -0.846   0.739  -3.066  1.00  0.00     0.236 A 
HETATM    4  N3  UNL     1       0.455   1.136  -3.085  1.00  0.00    -0.241 NA
HETATM    5  C8  UNL     1       1.241   1.106  -1.984  1.00  0.00     0.072 A 
HETATM    6  C9  UNL     1       2.555   1.524  -2.072  1.00  0.00     0.035 A 
HETATM    7  C10 UNL     1       3.310   1.470  -0.911  1.00  0.00     0.032 A 
HETATM    8  C11 UNL     1       2.749   1.015   0.269  1.00  0.00     0.035 A 
HETATM    9  C14 UNL     1       1.431   0.604   0.325  1.00  0.00     0.047 A 
HETATM   10  C15 UNL     1       0.661   0.648  -0.815  1.00  0.00     0.041 A 
ENDROOT
BRANCH   1  11
HETATM   11  N1  UNL     1      -1.283  -0.229   0.382  1.00  0.00    -0.338 N 
HETATM   12  H4  UNL     1      -0.940  -0.359   1.344  1.00  0.00     0.167 HD
BRANCH  11  13
HETATM   13  C5  UNL     1      -2.649  -0.626   0.319  1.00  0.00     0.075 A 
HETATM   14  C4  UNL     1      -3.264  -1.858   0.821  1.00  0.00     0.057 A 
HETATM   15  C3  UNL     1      -4.556  -1.890   0.587  1.00  0.00     0.048 A 
HETATM   16  C2  UNL     1      -4.901  -0.645  -0.106  1.00  0.00     0.017 A 
HETATM   17 CL1  UNL     1      -5.603  -3.211   1.051  1.00  0.00    -0.083 Cl
HETATM   18  C1  UNL     1      -6.114  -0.301  -0.513  1.00  0.00     0.028 C 
HETATM   19  C16 UNL     1      -3.658   0.070  -0.227  1.00  0.00     0.154 A 
HETATM   20  F1  UNL     1      -3.583   1.293  -0.828  1.00  0.00    -0.203 F 
ENDBRANCH  11  13
ENDBRANCH   1  11
BRANCH   8  21
HETATM   21  N4  UNL     1       3.526   0.955   1.482  1.00  0.00    -0.327 N 
HETATM   22  C12 UNL     1       4.128  -0.332   1.516  1.00  0.00     0.218 C 
HETATM   23  C13 UNL     1       5.035  -0.860   2.597  1.00  0.00     0.117 C 
HETATM   24  O1  UNL     1       3.828  -1.053   0.503  1.00  0.00    -0.274 OA
HETATM   25  H8  UNL     1       3.753   1.583   2.308  1.00  0.00     0.169 HD
ENDBRANCH   8  21
TORSDOF 3
