REMARK  4 active torsions:
REMARK  status: ('A' for Active; 'I' for Inactive)
REMARK    1  A    between atoms: C2_2  and  C3_3 
REMARK    2  A    between atoms: C3_3  and  N1_4 
REMARK       I    between atoms: N1_4  and  C4_5 
REMARK    3  A    between atoms: C9_13  and  N4_14 
REMARK    4  A    between atoms: N4_14  and  C10_15 
ROOT
HETATM    1  C3  UNL     1      -1.485  -0.826   0.526  1.00  0.00     0.023 C 
HETATM    2  C6  UNL     1      -0.659  -1.428  -0.281  1.00  0.00     0.030 A 
HETATM    3  C7  UNL     1      -0.848  -2.724  -0.940  1.00  0.00     0.194 A 
HETATM    4  N2  UNL     1       0.258  -3.105  -1.735  1.00  0.00    -0.278 NA
HETATM    5  C8  UNL     1       1.390  -2.620  -1.951  1.00  0.00     0.229 A 
HETATM    6  N3  UNL     1       1.635  -1.413  -1.261  1.00  0.00    -0.224 NA
HETATM    7  C9  UNL     1       0.695  -0.930  -0.523  1.00  0.00     0.139 A 
ENDROOT
BRANCH   7   8
HETATM    8  N4  UNL     1       1.280   0.167   0.190  1.00  0.00    -0.342 N 
HETATM    9  H13 UNL     1       0.861   0.321   1.176  1.00  0.00     0.167 HD
BRANCH   8  10
HETATM   10  C10 UNL     1       2.327   1.013  -0.276  1.00  0.00     0.036 A 
HETATM   11  C11 UNL     1       3.381   0.265  -0.536  1.00  0.00     0.030 A 
HETATM   12  C12 UNL     1       4.454   1.158  -1.018  1.00  0.00     0.042 A 
HETATM   13  C13 UNL     1       4.028   2.428  -1.040  1.00  0.00     0.118 A 
HETATM   14  F1  UNL     1       4.509   3.662  -1.365  1.00  0.00    -0.209 F 
HETATM   15  C14 UNL     1       2.613   2.446  -0.558  1.00  0.00     0.194 A 
HETATM   16 CL1  UNL     1       2.456   3.435   0.912  1.00  0.00    -0.111 Cl
ENDBRANCH   8  10
ENDBRANCH   7   8
BRANCH   1  17
HETATM   17  C2  UNL     1      -2.791  -1.278   1.018  1.00  0.00     0.053 C 
HETATM   18  C1  UNL     1      -3.286  -2.611   0.642  1.00  0.00     0.011 C 
ENDBRANCH   1  17
BRANCH   1  19
HETATM   19  N1  UNL     1      -1.700   0.518   0.923  1.00  0.00    -0.330 N 
HETATM   20  C4  UNL     1      -1.428   1.891   0.861  1.00  0.00     0.217 C 
HETATM   21  C5  UNL     1      -1.895   3.112   1.529  1.00  0.00     0.117 C 
HETATM   22  O1  UNL     1      -0.575   2.320   0.059  1.00  0.00    -0.274 OA
HETATM   23  H6  UNL     1      -2.413   0.742   1.707  1.00  0.00     0.168 HD
ENDBRANCH   1  19
TORSDOF 4
