REMARK  4 active torsions:
REMARK  status: ('A' for Active; 'I' for Inactive)
REMARK    1  A    between atoms: C3_3  and  C4_4 
REMARK    2  A    between atoms: C3_3  and  O2_24 
REMARK    3  A    between atoms: C9_10  and  N2_11 
REMARK    4  A    between atoms: N2_11  and  C10_12 
ROOT
HETATM    1  C4  UNL     1       3.553  -0.396  -0.589  1.00  0.00     0.069 C 
HETATM    2  C5  UNL     1       2.306  -0.733  -0.243  1.00  0.00     0.059 C 
HETATM    3  C6  UNL     1       1.946  -0.440   1.148  1.00  0.00     0.084 C 
HETATM    4  C7  UNL     1       0.578  -0.837   1.571  1.00  0.00     0.126 C 
HETATM    5  N1  UNL     1      -0.482  -0.327   0.730  1.00  0.00    -0.383 N 
HETATM    6  C8  UNL     1      -0.789  -0.708  -0.602  1.00  0.00     0.128 A 
HETATM    7  C9  UNL     1      -2.118  -0.587  -0.911  1.00  0.00     0.160 A 
HETATM    8  N3  UNL     1      -2.416  -0.926  -2.173  1.00  0.00    -0.222 NA
HETATM    9  C16 UNL     1      -1.508  -1.346  -3.059  1.00  0.00     0.238 A 
HETATM   10  N4  UNL     1      -0.182  -1.473  -2.768  1.00  0.00    -0.215 NA
HETATM   11  C17 UNL     1       0.189  -1.142  -1.495  1.00  0.00     0.201 A 
HETATM   12  O1  UNL     1       1.579  -1.312  -1.307  1.00  0.00    -0.294 OA
HETATM   13  H10 UNL     1      -1.137   0.430   1.100  1.00  0.00     0.159 HD
ENDROOT
BRANCH   7  14
HETATM   14  N2  UNL     1      -3.076  -0.179   0.042  1.00  0.00    -0.339 N 
HETATM   15  H11 UNL     1      -2.965  -0.016   1.056  1.00  0.00     0.167 HD
BRANCH  14  16
HETATM   16  C10 UNL     1      -4.438   0.072  -0.287  1.00  0.00     0.035 A 
HETATM   17  C11 UNL     1      -4.875   0.380  -1.541  1.00  0.00     0.029 A 
HETATM   18  C12 UNL     1      -6.183   0.605  -1.884  1.00  0.00     0.004 A 
HETATM   19  C13 UNL     1      -7.163   0.524  -0.922  1.00  0.00     0.019 A 
HETATM   20  C14 UNL     1      -6.816   0.218   0.379  1.00  0.00     0.013 A 
HETATM   21 BR1  UNL     1      -8.158   0.105   1.703  1.00  0.00    -0.051 Br
HETATM   22  C15 UNL     1      -5.483   0.009   0.627  1.00  0.00     0.048 A 
ENDBRANCH  14  16
ENDBRANCH   7  14
BRANCH   1  23
HETATM   23  C3  UNL     1       4.534   0.218   0.289  1.00  0.00     0.066 C 
HETATM   24  C2  UNL     1       5.751   0.508  -0.141  1.00  0.00     0.006 C 
HETATM   25  C1  UNL     1       6.033   0.163  -1.566  1.00  0.00     0.038 C 
BRANCH  23  26
HETATM   26  O2  UNL     1       4.361   0.569   1.608  1.00  0.00    -0.356 OA
HETATM   27  C18 UNL     1       4.646   1.860   2.089  1.00  0.00     0.210 C 
ENDBRANCH  23  26
ENDBRANCH   1  23
TORSDOF 4
