REMARK  6 active torsions:
REMARK  status: ('A' for Active; 'I' for Inactive)
REMARK       I    between atoms: N1_1  and  C1_2 
REMARK       I    between atoms: C1_2  and  N2_4 
REMARK    1  A    between atoms: N2_4  and  C2_5 
REMARK    2  A    between atoms: C5_8  and  N3_9 
REMARK    3  A    between atoms: N3_9  and  C6_10 
REMARK    4  A    between atoms: C9_13  and  O2_14 
REMARK    5  A    between atoms: O2_14  and  C10_15 
REMARK    6  A    between atoms: C10_15  and  C11_16 
ROOT
HETATM    1  N3  UNL     1      -1.720  -0.605   0.123  1.00  0.00    -0.340 N 
HETATM    2  H6  UNL     1      -2.073  -0.075   0.934  1.00  0.00     0.167 HD
ENDROOT
BRANCH   1   3
HETATM    3  C5  UNL     1      -2.560  -1.333  -0.726  1.00  0.00     0.141 A 
HETATM    4  C4  UNL     1      -3.918  -1.321  -0.512  1.00  0.00     0.041 A 
HETATM    5  C3  UNL     1      -4.527  -0.649   0.447  1.00  0.00     0.039 C 
HETATM    6  C20 UNL     1      -4.782  -2.027  -1.310  1.00  0.00     0.102 A 
HETATM    7  C2  UNL     1      -5.994  -0.632   0.682  1.00  0.00     0.235 C 
HETATM    8  N6  UNL     1      -6.632  -1.683  -0.093  1.00  0.00    -0.255 NA
HETATM    9  C21 UNL     1      -6.073  -2.066  -1.172  1.00  0.00     0.114 C 
HETATM   10  N5  UNL     1      -4.298  -2.757  -2.335  1.00  0.00    -0.239 NA
HETATM   11  C19 UNL     1      -2.979  -2.778  -2.553  1.00  0.00     0.236 A 
HETATM   12  N4  UNL     1      -2.167  -2.080  -1.759  1.00  0.00    -0.224 NA
BRANCH   7  13
HETATM   13  N2  UNL     1      -6.575   0.626   0.253  1.00  0.00    -0.317 N 
HETATM   14  C1  UNL     1      -7.336   1.606   0.933  1.00  0.00     0.315 C 
HETATM   15  N1  UNL     1      -7.719   2.725   0.109  1.00  0.00    -0.352 N 
HETATM   16  O1  UNL     1      -7.606   1.432   2.150  1.00  0.00    -0.248 OA
HETATM   17  H1  UNL     1      -8.723   2.569  -0.168  1.00  0.00     0.160 HD
HETATM   18  H2  UNL     1      -7.222   3.595  -0.237  1.00  0.00     0.160 HD
HETATM   19  H3  UNL     1      -6.308   0.700  -0.764  1.00  0.00     0.166 HD
ENDBRANCH   7  13
ENDBRANCH   1   3
BRANCH   1  20
HETATM   20  C6  UNL     1      -0.314  -0.435   0.076  1.00  0.00     0.035 A 
HETATM   21  C7  UNL     1       0.469   0.150   1.073  1.00  0.00     0.032 A 
HETATM   22  C8  UNL     1       1.829   0.296   0.971  1.00  0.00     0.041 A 
HETATM   23  C9  UNL     1       2.510  -0.136  -0.144  1.00  0.00     0.091 A 
HETATM   24  C17 UNL     1       1.765  -0.724  -1.158  1.00  0.00     0.069 A 
HETATM   25 CL1  UNL     1       2.692  -1.249  -2.546  1.00  0.00    -0.081 Cl
HETATM   26  C18 UNL     1       0.409  -0.850  -1.016  1.00  0.00     0.056 A 
BRANCH  23  27
HETATM   27  O2  UNL     1       3.885   0.023  -0.222  1.00  0.00    -0.345 OA
BRANCH  27  28
HETATM   28  C10 UNL     1       4.581   0.628   0.844  1.00  0.00     0.214 C 
BRANCH  28  29
HETATM   29  C11 UNL     1       6.040   0.705   0.563  1.00  0.00    -0.031 A 
HETATM   30  C12 UNL     1       6.888  -0.339   0.943  1.00  0.00     0.009 A 
HETATM   31  C13 UNL     1       8.233  -0.181   0.640  1.00  0.00     0.004 A 
HETATM   32  C14 UNL     1       8.653   0.962   0.000  1.00  0.00     0.042 A 
HETATM   33  C15 UNL     1       7.813   1.990  -0.372  1.00  0.00     0.117 A 
HETATM   34  F1  UNL     1       8.221   3.113  -1.000  1.00  0.00    -0.206 F 
HETATM   35  C16 UNL     1       6.469   1.846  -0.077  1.00  0.00     0.051 A 
ENDBRANCH  28  29
ENDBRANCH  27  28
ENDBRANCH  23  27
ENDBRANCH   1  20
TORSDOF 6
