REMARK  9 active torsions:
REMARK  status: ('A' for Active; 'I' for Inactive)
REMARK    1  A    between atoms: C2_2  and  C3_3 
REMARK    2  A    between atoms: C2_2  and  C10_12 
REMARK    3  A    between atoms: C3_3  and  O1_4 
REMARK    4  A    between atoms: O1_4  and  C4_5 
REMARK    5  A    between atoms: C4_5  and  C5_6 
REMARK    6  A    between atoms: C10_12  and  N1_16 
REMARK    7  A    between atoms: C11_13  and  C12_14 
REMARK    8  A    between atoms: N1_16  and  C13_17 
REMARK    9  A    between atoms: C18_24  and  N4_25 
REMARK       I    between atoms: N4_25  and  C19_26 
REMARK       I    between atoms: C19_26  and  N5_27 
ROOT
HETATM    1  C13 UNL     1      -1.638  -1.256  -1.543  1.00  0.00     0.141 A 
HETATM    2  N2  UNL     1      -1.405  -2.067  -2.590  1.00  0.00    -0.224 NA
HETATM    3  C14 UNL     1      -2.438  -2.655  -3.215  1.00  0.00     0.236 A 
HETATM    4  N3  UNL     1      -3.720  -2.434  -2.796  1.00  0.00    -0.241 NA
HETATM    5  C15 UNL     1      -3.994  -1.630  -1.754  1.00  0.00     0.072 A 
HETATM    6  C16 UNL     1      -5.275  -1.388  -1.316  1.00  0.00     0.035 A 
HETATM    7  C17 UNL     1      -5.440  -0.536  -0.234  1.00  0.00     0.032 A 
HETATM    8  C18 UNL     1      -4.336   0.050   0.380  1.00  0.00     0.037 A 
HETATM    9  C20 UNL     1      -3.051  -0.174  -0.036  1.00  0.00     0.047 A 
HETATM   10  C21 UNL     1      -2.940  -1.029  -1.116  1.00  0.00     0.041 A 
ENDROOT
BRANCH   1  11
HETATM   11  N1  UNL     1      -0.424  -0.714  -1.004  1.00  0.00    -0.344 N 
HETATM   12  H16 UNL     1      -0.593   0.246  -1.418  1.00  0.00     0.167 HD
BRANCH  11  13
HETATM   13  C10 UNL     1       0.682  -1.156  -0.196  1.00  0.00     0.014 C 
HETATM   14  C11 UNL     1       0.557  -2.024   0.777  1.00  0.00     0.013 C 
BRANCH  13  15
HETATM   15  C2  UNL     1       1.871  -0.426  -0.750  1.00  0.00     0.055 C 
HETATM   16  C1  UNL     1       1.990  -0.880  -2.187  1.00  0.00     0.018 C 
BRANCH  15  17
HETATM   17  C3  UNL     1       3.108  -0.821  -0.026  1.00  0.00     0.178 C 
BRANCH  17  18
HETATM   18  O1  UNL     1       3.171  -0.471   1.310  1.00  0.00    -0.386 OA
BRANCH  18  19
HETATM   19  C4  UNL     1       3.096   0.902   1.514  1.00  0.00     0.205 C 
BRANCH  19  20
HETATM   20  C5  UNL     1       4.212   1.618   0.838  1.00  0.00    -0.019 A 
HETATM   21  C6  UNL     1       4.013   2.540  -0.099  1.00  0.00     0.008 A 
HETATM   22  C7  UNL     1       5.266   3.081  -0.594  1.00  0.00    -0.001 A 
HETATM   23  C8  UNL     1       6.266   2.485   0.047  1.00  0.00     0.014 A 
HETATM   24  C9  UNL     1       5.661   1.501   1.016  1.00  0.00     0.224 A 
HETATM   25  F1  UNL     1       6.201   0.285   0.734  1.00  0.00    -0.240 F 
ENDBRANCH  19  20
ENDBRANCH  18  19
ENDBRANCH  17  18
ENDBRANCH  15  17
ENDBRANCH  13  15
BRANCH  14  26
HETATM   26  C12 UNL     1      -0.112  -2.951   1.685  1.00  0.00     0.143 C 
HETATM   27 CL1  UNL     1      -1.863  -3.103   1.427  1.00  0.00    -0.126 Cl
ENDBRANCH  14  26
ENDBRANCH  11  13
ENDBRANCH   1  11
BRANCH   8  28
HETATM   28  N4  UNL     1      -4.702   0.892   1.462  1.00  0.00    -0.309 N 
HETATM   29  C19 UNL     1      -4.912   2.248   1.027  1.00  0.00     0.318 C 
HETATM   30  N5  UNL     1      -5.289   3.410   1.781  1.00  0.00    -0.352 N 
HETATM   31  O2  UNL     1      -4.804   2.718  -0.154  1.00  0.00    -0.247 OA
HETATM   32  H21 UNL     1      -4.999   4.140   2.468  1.00  0.00     0.160 HD
HETATM   33  H22 UNL     1      -6.255   3.855   1.742  1.00  0.00     0.160 HD
HETATM   34  H20 UNL     1      -4.884   0.901   2.486  1.00  0.00     0.170 HD
ENDBRANCH   8  28
TORSDOF 9
