REMARK  5 active torsions:
REMARK  status: ('A' for Active; 'I' for Inactive)
REMARK       I    between atoms: N1_1  and  C1_2 
REMARK       I    between atoms: C1_2  and  N2_4 
REMARK    1  A    between atoms: N2_4  and  C2_5 
REMARK    2  A    between atoms: C7_12  and  N5_13 
REMARK    3  A    between atoms: N5_13  and  C8_14 
REMARK    4  A    between atoms: C11_17  and  O2_18 
REMARK    5  A    between atoms: O2_18  and  C12_19 
ROOT
HETATM    1  C2  UNL     1      -5.180   0.180  -0.038  1.00  0.00     0.037 A 
HETATM    2  C3  UNL     1      -5.863   1.323   0.307  1.00  0.00     0.032 A 
HETATM    3  C4  UNL     1      -5.192   2.432   0.765  1.00  0.00     0.035 A 
HETATM    4  C5  UNL     1      -3.826   2.369   0.870  1.00  0.00     0.072 A 
HETATM    5  N3  UNL     1      -3.217   3.487   1.323  1.00  0.00    -0.241 NA
HETATM    6  C6  UNL     1      -1.863   3.496   1.451  1.00  0.00     0.236 A 
HETATM    7  N4  UNL     1      -1.177   2.399   1.123  1.00  0.00    -0.224 NA
HETATM    8  C7  UNL     1      -1.704   1.260   0.669  1.00  0.00     0.142 A 
HETATM    9  C20 UNL     1      -3.062   1.267   0.547  1.00  0.00     0.041 A 
HETATM   10  C21 UNL     1      -3.813   0.205   0.098  1.00  0.00     0.047 A 
ENDROOT
BRANCH   8  11
HETATM   11  N5  UNL     1      -0.964   0.126   0.333  1.00  0.00    -0.340 N 
HETATM   12  H7  UNL     1      -1.425  -0.727   0.029  1.00  0.00     0.167 HD
BRANCH  11  13
HETATM   13  C8  UNL     1       0.453  -0.021   0.351  1.00  0.00     0.035 A 
HETATM   14  C9  UNL     1       1.327   1.041   0.382  1.00  0.00     0.032 A 
HETATM   15  C10 UNL     1       2.715   0.832   0.419  1.00  0.00     0.041 A 
HETATM   16  C11 UNL     1       3.257  -0.463   0.424  1.00  0.00     0.091 A 
HETATM   17  C18 UNL     1       2.383  -1.514   0.393  1.00  0.00     0.069 A 
HETATM   18 CL1  UNL     1       3.005  -3.123   0.397  1.00  0.00    -0.081 Cl
HETATM   19  C19 UNL     1       1.035  -1.277   0.357  1.00  0.00     0.056 A 
BRANCH  16  20
HETATM   20  O2  UNL     1       4.611  -0.386   0.462  1.00  0.00    -0.336 OA
BRANCH  20  21
HETATM   21  C12 UNL     1       5.630  -1.286   0.485  1.00  0.00     0.178 C 
HETATM   22  C13 UNL     1       6.547  -1.158  -0.712  1.00  0.00     0.021 C 
HETATM   23  C14 UNL     1       6.833   0.129  -0.820  1.00  0.00    -0.024 C 
HETATM   24  C15 UNL     1       7.257   0.734   0.273  1.00  0.00     0.054 C 
HETATM   25  C16 UNL     1       7.312   0.014   1.553  1.00  0.00     0.116 C 
HETATM   26  F1  UNL     1       8.219   0.528   2.431  1.00  0.00    -0.206 F 
HETATM   27  C17 UNL     1       6.491  -1.036   1.710  1.00  0.00     0.051 C 
ENDBRANCH  20  21
ENDBRANCH  16  20
ENDBRANCH  11  13
ENDBRANCH   8  11
BRANCH   1  28
HETATM   28  N2  UNL     1      -5.989  -0.883  -0.494  1.00  0.00    -0.309 N 
HETATM   29  C1  UNL     1      -5.625  -2.182  -0.925  1.00  0.00     0.318 C 
HETATM   30  N1  UNL     1      -6.503  -3.204  -1.373  1.00  0.00    -0.352 N 
HETATM   31  O1  UNL     1      -4.414  -2.510  -0.929  1.00  0.00    -0.247 OA
HETATM   32  H1  UNL     1      -7.088  -3.157  -2.238  1.00  0.00     0.160 HD
HETATM   33  H2  UNL     1      -6.664  -4.125  -0.887  1.00  0.00     0.160 HD
HETATM   34  H3  UNL     1      -7.023  -0.795  -0.558  1.00  0.00     0.170 HD
ENDBRANCH   1  28
TORSDOF 5
