REMARK  5 active torsions:
REMARK  status: ('A' for Active; 'I' for Inactive)
REMARK    1  A    between atoms: C2_2  and  C3_3 
REMARK    2  A    between atoms: C4_4  and  C5_5 
REMARK    3  A    between atoms: C11_13  and  N1_14 
REMARK    4  A    between atoms: N1_14  and  C12_15 
REMARK    5  A    between atoms: C17_22  and  N4_23 
REMARK       I    between atoms: N4_23  and  C18_24 
REMARK       I    between atoms: C18_24  and  N5_25 
ROOT
HETATM    1  C12 UNL     1      -1.685  -0.033   1.050  1.00  0.00     0.138 A 
HETATM    2  N2  UNL     1      -0.969   0.427   2.077  1.00  0.00    -0.224 NA
HETATM    3  C13 UNL     1      -1.508   0.930   3.201  1.00  0.00     0.235 A 
HETATM    4  N3  UNL     1      -2.857   0.992   3.340  1.00  0.00    -0.241 NA
HETATM    5  C14 UNL     1      -3.602   0.531   2.309  1.00  0.00     0.072 A 
HETATM    6  C15 UNL     1      -4.973   0.577   2.413  1.00  0.00     0.035 A 
HETATM    7  C16 UNL     1      -5.719   0.108   1.365  1.00  0.00     0.032 A 
HETATM    8  C17 UNL     1      -5.207  -0.410   0.209  1.00  0.00     0.037 A 
HETATM    9  C19 UNL     1      -3.846  -0.437   0.149  1.00  0.00     0.047 A 
HETATM   10  C20 UNL     1      -3.057   0.015   1.158  1.00  0.00     0.041 A 
ENDROOT
BRANCH   1  11
HETATM   11  N1  UNL     1      -1.003  -0.542  -0.087  1.00  0.00    -0.367 N 
HETATM   12  H13 UNL     1      -1.404  -0.940  -0.960  1.00  0.00     0.161 HD
BRANCH  11  13
HETATM   13  C11 UNL     1       0.449  -0.524  -0.073  1.00  0.00     0.111 C 
HETATM   14  C10 UNL     1       1.055  -1.155  -1.315  1.00  0.00     0.201 C 
HETATM   15  O1  UNL     1       2.218  -0.414  -1.727  1.00  0.00    -0.348 OA
HETATM   16  C4  UNL     1       3.083   0.189  -0.861  1.00  0.00     0.077 C 
HETATM   17  C3  UNL     1       2.346   0.927  -0.012  1.00  0.00    -0.039 C 
HETATM   18  C21 UNL     1       0.838   0.959  -0.200  1.00  0.00     0.064 C 
BRANCH  16  19
HETATM   19  C5  UNL     1       4.516   0.022  -0.901  1.00  0.00    -0.033 A 
HETATM   20  C6  UNL     1       5.471   0.509  -0.161  1.00  0.00     0.008 A 
HETATM   21  C7  UNL     1       6.910   0.386  -0.139  1.00  0.00    -0.015 A 
HETATM   22  C8  UNL     1       7.445  -0.379  -1.042  1.00  0.00    -0.083 A 
HETATM   23  B1  UNL     1       6.500  -1.085  -2.046  1.00  0.00     0.186 B 
HETATM   24  C9  UNL     1       4.957  -0.821  -2.023  1.00  0.00    -0.008 A 
HETATM   25  H7  UNL     1       6.878  -2.079  -2.613  1.00  0.00    -0.021 HD
ENDBRANCH  16  19
BRANCH  17  26
HETATM   26  C2  UNL     1       2.997   1.693   1.044  1.00  0.00     0.043 C 
HETATM   27  C1  UNL     1       3.242   2.492   2.093  1.00  0.00    -0.008 C 
ENDBRANCH  17  26
ENDBRANCH  11  13
ENDBRANCH   1  11
BRANCH   8  28
HETATM   28  N4  UNL     1      -5.945  -0.903  -0.892  1.00  0.00    -0.309 N 
HETATM   29  C18 UNL     1      -7.333  -0.996  -1.102  1.00  0.00     0.318 C 
HETATM   30  N5  UNL     1      -7.973  -1.511  -2.252  1.00  0.00    -0.352 N 
HETATM   31  O2  UNL     1      -8.088  -0.586  -0.189  1.00  0.00    -0.247 OA
HETATM   32  H18 UNL     1      -8.090  -2.565  -2.221  1.00  0.00     0.160 HD
HETATM   33  H19 UNL     1      -8.377  -1.151  -3.151  1.00  0.00     0.160 HD
HETATM   34  H17 UNL     1      -5.437  -1.280  -1.732  1.00  0.00     0.170 HD
ENDBRANCH   8  28
TORSDOF 5
