REMARK  2 active torsions:
REMARK  status: ('A' for Active; 'I' for Inactive)
REMARK       I    between atoms: C2_2  and  N1_4 
REMARK    1  A    between atoms: N1_4  and  C3_5 
REMARK    2  A    between atoms: C13_18  and  O2_19 
ROOT
HETATM    1  C3  UNL     1       1.062   0.176   0.507  1.00  0.00     0.023 A 
HETATM    2  C4  UNL     1       0.327  -0.883   0.985  1.00  0.00     0.018 A 
HETATM    3  C5  UNL     1       0.092  -1.357  -0.246  1.00  0.00     0.077 A 
HETATM    4  C6  UNL     1      -0.976  -2.247   0.034  1.00  0.00     0.170 A 
HETATM    5  N2  UNL     1      -1.867  -3.170  -0.455  1.00  0.00    -0.247 NA
HETATM    6  C7  UNL     1      -1.814  -3.448  -1.802  1.00  0.00     0.225 A 
HETATM    7  N3  UNL     1      -0.816  -2.641  -2.268  1.00  0.00    -0.266 NA
HETATM    8  C8  UNL     1      -0.152  -1.843  -1.451  1.00  0.00     0.124 A 
HETATM    9  C9  UNL     1       0.604  -0.764  -1.968  1.00  0.00     0.049 A 
HETATM   10  C10 UNL     1       0.888  -0.214  -0.768  1.00  0.00     0.046 A 
HETATM   11  C11 UNL     1       1.039   1.135  -1.444  1.00  0.00     0.018 C 
HETATM   12  C12 UNL     1       0.004   2.017  -1.407  1.00  0.00     0.064 C 
HETATM   13 CL1  UNL     1      -0.047   3.631  -2.119  1.00  0.00    -0.082 Cl
HETATM   14  C13 UNL     1      -1.384   1.947  -0.768  1.00  0.00     0.087 C 
HETATM   15  C14 UNL     1      -2.132   1.100  -0.051  1.00  0.00     0.039 C 
HETATM   16  C15 UNL     1      -3.059   0.225   0.759  1.00  0.00     0.020 C 
HETATM   17  C16 UNL     1      -2.679  -1.005   1.166  1.00  0.00     0.085 C 
HETATM   18  N4  UNL     1      -1.765  -2.140   1.297  1.00  0.00    -0.369 N 
HETATM   19  H13 UNL     1      -1.771  -2.680   2.174  1.00  0.00     0.161 HD
ENDROOT
BRANCH   1  20
HETATM   20  N1  UNL     1       1.749   1.236   1.113  1.00  0.00    -0.330 N 
HETATM   21  C2  UNL     1       3.067   0.708   1.283  1.00  0.00     0.217 C 
HETATM   22  C1  UNL     1       4.284   1.374   1.890  1.00  0.00     0.117 C 
HETATM   23  O1  UNL     1       3.277  -0.459   0.889  1.00  0.00    -0.274 OA
HETATM   24  H4  UNL     1       1.648   2.205   1.461  1.00  0.00     0.168 HD
ENDBRANCH   1  20
BRANCH  14  25
HETATM   25  O2  UNL     1      -2.441   2.798  -0.701  1.00  0.00    -0.359 OA
HETATM   26  H9  UNL     1      -2.417   3.799  -0.543  1.00  0.00     0.217 HD
ENDBRANCH  14  25
TORSDOF 2
