REMARK  4 active torsions:
REMARK  status: ('A' for Active; 'I' for Inactive)
REMARK    1  A    between atoms: C2_2  and  C3_4 
REMARK    2  A    between atoms: C13_14  and  O2_15 
REMARK    3  A    between atoms: O2_15  and  C14_16 
REMARK    4  A    between atoms: C14_16  and  C15_17 
ROOT
HETATM    1  C3  UNL     1      -4.933  -0.200  -0.374  1.00  0.00     0.010 A 
HETATM    2  C4  UNL     1      -5.039   0.659   0.701  1.00  0.00     0.017 A 
HETATM    3  C5  UNL     1      -4.010   0.828   1.612  1.00  0.00     0.033 A 
HETATM    4  C6  UNL     1      -2.853   0.103   1.412  1.00  0.00     0.064 A 
HETATM    5  C7  UNL     1      -2.650  -0.779   0.371  1.00  0.00    -0.024 A 
HETATM    6  C8  UNL     1      -3.741  -0.885  -0.496  1.00  0.00     0.025 A 
HETATM    7  C9  UNL     1      -1.601  -1.690  -0.148  1.00  0.00     0.082 C 
HETATM    8  C10 UNL     1      -0.313  -1.040  -0.409  1.00  0.00    -0.027 A 
HETATM    9  C11 UNL     1       0.116  -1.414  -1.680  1.00  0.00     0.012 A 
HETATM   10  C12 UNL     1       1.313  -0.933  -2.168  1.00  0.00     0.037 A 
HETATM   11  C13 UNL     1       2.135  -0.069  -1.433  1.00  0.00     0.071 A 
HETATM   12  C20 UNL     1       1.675   0.279  -0.177  1.00  0.00     0.066 A 
HETATM   13  C21 UNL     1       0.493  -0.194   0.310  1.00  0.00     0.042 A 
HETATM   14  N1  UNL     1       0.440   0.418   1.602  1.00  0.00    -0.350 N 
HETATM   15  C22 UNL     1      -0.642   0.572   2.543  1.00  0.00     0.208 C 
HETATM   16  N2  UNL     1      -1.946   0.450   2.479  1.00  0.00    -0.244 NA
HETATM   17  H18 UNL     1       1.357   0.818   1.899  1.00  0.00     0.166 HD
ENDROOT
BRANCH  11  18
HETATM   18  O2  UNL     1       3.258   0.261  -2.135  1.00  0.00    -0.347 OA
BRANCH  18  19
HETATM   19  C14 UNL     1       4.311   1.083  -1.760  1.00  0.00     0.214 C 
BRANCH  19  20
HETATM   20  C15 UNL     1       4.998   0.577  -0.552  1.00  0.00    -0.035 A 
HETATM   21  C16 UNL     1       4.942  -0.423   0.310  1.00  0.00    -0.011 A 
HETATM   22  C17 UNL     1       5.997  -0.334   1.367  1.00  0.00     0.098 A 
HETATM   23  C18 UNL     1       6.697   0.924   0.960  1.00  0.00     0.098 A 
HETATM   24  F1  UNL     1       7.733   1.288   1.742  1.00  0.00    -0.211 F 
HETATM   25  C19 UNL     1       6.126   1.428  -0.121  1.00  0.00     0.047 A 
ENDBRANCH  19  20
ENDBRANCH  18  19
ENDBRANCH  11  18
BRANCH   1  26
HETATM   26  C2  UNL     1      -6.001  -0.395  -1.345  1.00  0.00     0.155 C 
HETATM   27  C1  UNL     1      -7.275   0.355  -1.191  1.00  0.00     0.096 C 
HETATM   28  O1  UNL     1      -5.845  -1.203  -2.319  1.00  0.00    -0.293 OA
ENDBRANCH   1  26
TORSDOF 4
