REMARK  10 active torsions:
REMARK  status: ('A' for Active; 'I' for Inactive)
REMARK    1  A    between atoms: O1_1  and  C1_2 
REMARK    2  A    between atoms: C1_2  and  N1_3 
REMARK    3  A    between atoms: C2_4  and  N2_5 
REMARK    4  A    between atoms: C3_6  and  N3_7 
REMARK    5  A    between atoms: N3_7  and  C4_8 
REMARK    6  A    between atoms: C4_8  and  C5_9 
REMARK    7  A    between atoms: C4_8  and  C7_12 
REMARK    8  A    between atoms: C7_12  and  O2_13 
REMARK    9  A    between atoms: O2_13  and  C8_14 
REMARK   10  A    between atoms: C8_14  and  C9_15 
ROOT
HETATM    1  C5  UNL     1      -1.687   0.122  -1.467  1.00  0.00     0.012 C 
HETATM    2  C6  UNL     1      -1.856  -0.388  -2.708  1.00  0.00     0.216 C 
HETATM    3 CL1  UNL     1      -1.977  -1.184  -4.266  1.00  0.00    -0.230 Cl
ENDROOT
BRANCH   1   4
HETATM    4  C4  UNL     1      -0.843  -0.882  -0.761  1.00  0.00     0.130 C 
BRANCH   4   5
HETATM    5  N3  UNL     1      -1.431  -2.217  -0.773  1.00  0.00    -0.375 N 
HETATM    6  H6  UNL     1      -1.350  -3.217  -1.048  1.00  0.00     0.161 HD
BRANCH   5   7
HETATM    7  C3  UNL     1      -2.654  -1.993  -0.098  1.00  0.00     0.204 C 
HETATM    8  N2  UNL     1      -3.441  -1.313   0.612  1.00  0.00    -0.238 NA
BRANCH   8   9
HETATM    9  C2  UNL     1      -3.168  -0.039   1.142  1.00  0.00     0.230 C 
HETATM   10  N1  UNL     1      -2.477   0.398   2.134  1.00  0.00    -0.257 NA
BRANCH  10  11
HETATM   11  C1  UNL     1      -2.429   1.821   2.376  1.00  0.00     0.314 C 
BRANCH  11  12
HETATM   12  O1  UNL     1      -3.319   2.515   1.590  1.00  0.00    -0.380 OA
HETATM   13  H1  UNL     1      -4.256   2.204   1.640  1.00  0.00     0.211 HD
ENDBRANCH  11  12
ENDBRANCH  10  11
ENDBRANCH   8   9
ENDBRANCH   5   7
ENDBRANCH   4   5
BRANCH   4  14
HETATM   14  C7  UNL     1       0.483  -0.926  -1.520  1.00  0.00     0.197 C 
BRANCH  14  15
HETATM   15  O2  UNL     1       1.408  -1.779  -1.001  1.00  0.00    -0.384 OA
BRANCH  15  16
HETATM   16  C8  UNL     1       1.862  -1.554   0.263  1.00  0.00     0.206 C 
BRANCH  16  17
HETATM   17  C9  UNL     1       2.553  -0.287   0.498  1.00  0.00    -0.032 A 
HETATM   18  C10 UNL     1       3.927  -0.270   0.275  1.00  0.00     0.009 A 
HETATM   19  C11 UNL     1       4.739   0.820   0.443  1.00  0.00     0.004 A 
HETATM   20  C12 UNL     1       4.203   2.010   0.862  1.00  0.00     0.042 A 
HETATM   21  C13 UNL     1       2.844   2.032   1.094  1.00  0.00     0.117 A 
HETATM   22  F1  UNL     1       2.283   3.194   1.508  1.00  0.00    -0.206 F 
HETATM   23  C14 UNL     1       2.048   0.921   0.917  1.00  0.00     0.051 A 
ENDBRANCH  16  17
ENDBRANCH  15  16
ENDBRANCH  14  15
ENDBRANCH   4  14
ENDBRANCH   1   4
TORSDOF 10
