REMARK  1 active torsions:
REMARK  status: ('A' for Active; 'I' for Inactive)
REMARK    1  A    between atoms: O1_2  and  C2_3 
ROOT
HETATM    1  C2  UNL     1       1.693   1.238  -1.301  1.00  0.00     0.079 C 
HETATM    2  C3  UNL     1       1.916   0.874  -2.523  1.00  0.00     0.035 C 
HETATM    3  C4  UNL     1       1.471  -0.414  -2.977  1.00  0.00     0.003 C 
HETATM    4  C5  UNL     1       0.794  -1.175  -2.098  1.00  0.00     0.011 C 
HETATM    5  C6  UNL     1       0.423  -0.829  -0.699  1.00  0.00    -0.008 C 
HETATM    6  C7  UNL     1      -0.384  -1.843  -0.422  1.00  0.00     0.094 C 
HETATM    7  N1  UNL     1      -1.243  -2.435   0.611  1.00  0.00    -0.382 N 
HETATM    8  C8  UNL     1      -1.921  -1.160   1.131  1.00  0.00     0.101 A 
HETATM    9  C9  UNL     1      -2.985  -1.192   0.274  1.00  0.00     0.027 A 
HETATM   10  C10 UNL     1      -3.124   0.212  -0.017  1.00  0.00     0.007 A 
HETATM   11 BR1  UNL     1      -4.338   1.100  -1.081  1.00  0.00    -0.052 Br
HETATM   12  C11 UNL     1      -2.130   0.950   0.676  1.00  0.00     0.012 A 
HETATM   13  C12 UNL     1      -1.536  -0.001   1.292  1.00  0.00     0.100 A 
HETATM   14  C13 UNL     1      -0.150   0.033   1.625  1.00  0.00     0.205 A 
HETATM   15  N2  UNL     1       1.043  -0.277   2.154  1.00  0.00    -0.241 NA
HETATM   16  C14 UNL     1       1.164  -1.371   2.933  1.00  0.00     0.225 A 
HETATM   17  N3  UNL     1      -0.140  -1.566   2.692  1.00  0.00    -0.263 NA
HETATM   18  C15 UNL     1      -0.816  -0.756   1.981  1.00  0.00     0.156 A 
HETATM   19  O2  UNL     1       0.495   1.113   0.835  1.00  0.00    -0.338 OA
HETATM   20  C16 UNL     1       1.078   0.421  -0.351  1.00  0.00     0.215 C 
HETATM   21  H8  UNL     1      -1.584  -3.176   1.107  1.00  0.00     0.160 HD
ENDROOT
BRANCH   1  22
HETATM   22  O1  UNL     1       2.105   2.485  -0.894  1.00  0.00    -0.357 OA
HETATM   23  C1  UNL     1       1.671   3.269   0.155  1.00  0.00     0.209 C 
ENDBRANCH   1  22
TORSDOF 1
