REMARK  7 active torsions:
REMARK  status: ('A' for Active; 'I' for Inactive)
REMARK    1  A    between atoms: C2_2  and  N3_8 
REMARK    2  A    between atoms: N1_3  and  C3_4 
REMARK    3  A    between atoms: N2_5  and  C4_6 
REMARK    4  A    between atoms: C4_6  and  O1_7 
REMARK    5  A    between atoms: N3_8  and  C5_9 
REMARK    6  A    between atoms: C8_12  and  C9_13 
REMARK    7  A    between atoms: C9_13  and  C10_14 
ROOT
HETATM    1  C5  UNL     1       0.671  -0.142  -1.321  1.00  0.00     0.035 A 
HETATM    2  C6  UNL     1       0.364  -0.681  -0.120  1.00  0.00     0.030 A 
HETATM    3  C7  UNL     1      -0.901  -1.133   0.171  1.00  0.00     0.011 A 
HETATM    4  C8  UNL     1      -1.970  -1.078  -0.731  1.00  0.00    -0.032 A 
HETATM    5  C16 UNL     1      -1.645  -0.529  -1.946  1.00  0.00     0.042 A 
HETATM    6 CL1  UNL     1      -2.915  -0.427  -3.142  1.00  0.00    -0.084 Cl
HETATM    7  C17 UNL     1      -0.374  -0.081  -2.222  1.00  0.00     0.053 A 
ENDROOT
BRANCH   1   8
HETATM    8  N3  UNL     1       1.924   0.361  -1.745  1.00  0.00    -0.345 N 
HETATM    9  H8  UNL     1       2.034   0.738  -2.735  1.00  0.00     0.167 HD
BRANCH   8  10
HETATM   10  C2  UNL     1       3.108   0.427  -0.984  1.00  0.00     0.101 C 
HETATM   11  C1  UNL     1       4.445   0.314  -1.640  1.00  0.00     0.091 C 
HETATM   12  N1  UNL     1       2.986   0.587   0.281  1.00  0.00    -0.229 NA
BRANCH  12  13
HETATM   13  C3  UNL     1       4.022   0.678   1.222  1.00  0.00     0.231 C 
HETATM   14  N2  UNL     1       5.196   0.432   0.806  1.00  0.00    -0.257 NA
BRANCH  14  15
HETATM   15  C4  UNL     1       6.415   0.454   1.551  1.00  0.00     0.314 C 
BRANCH  15  16
HETATM   16  O1  UNL     1       6.740  -0.863   1.919  1.00  0.00    -0.380 OA
HETATM   17  H7  UNL     1       6.610  -1.404   1.085  1.00  0.00     0.211 HD
ENDBRANCH  15  16
ENDBRANCH  14  15
ENDBRANCH  12  13
ENDBRANCH   8  10
ENDBRANCH   1   8
BRANCH   4  18
HETATM   18  C9  UNL     1      -3.283  -1.597  -0.277  1.00  0.00     0.078 C 
BRANCH  18  19
HETATM   19  C10 UNL     1      -4.255  -0.568   0.104  1.00  0.00    -0.051 A 
HETATM   20  C11 UNL     1      -4.096  -0.066   1.403  1.00  0.00     0.007 A 
HETATM   21  C12 UNL     1      -4.949   0.912   1.912  1.00  0.00     0.004 A 
HETATM   22  C13 UNL     1      -5.977   1.424   1.167  1.00  0.00     0.042 A 
HETATM   23  C14 UNL     1      -6.148   0.945  -0.108  1.00  0.00     0.116 A 
HETATM   24  F1  UNL     1      -7.127   1.378  -0.932  1.00  0.00    -0.206 F 
HETATM   25  C15 UNL     1      -5.306  -0.014  -0.595  1.00  0.00     0.049 A 
ENDBRANCH  18  19
ENDBRANCH   4  18
TORSDOF 7
