REMARK  6 active torsions:
REMARK  status: ('A' for Active; 'I' for Inactive)
REMARK       I    between atoms: C2_2  and  N1_4 
REMARK    1  A    between atoms: N1_4  and  C3_5 
REMARK    2  A    between atoms: C8_12  and  N4_13 
REMARK    3  A    between atoms: N4_13  and  C9_14 
REMARK    4  A    between atoms: C12_17  and  O2_18 
REMARK    5  A    between atoms: O2_18  and  C13_19 
REMARK    6  A    between atoms: C13_19  and  C14_20 
ROOT
HETATM    1  C3  UNL     1       4.335   0.057   0.434  1.00  0.00     0.035 A 
HETATM    2  C4  UNL     1       4.880  -1.208   0.669  1.00  0.00     0.032 A 
HETATM    3  C5  UNL     1       4.071  -2.316   0.796  1.00  0.00     0.035 A 
HETATM    4  C6  UNL     1       2.686  -2.223   0.697  1.00  0.00     0.072 A 
HETATM    5  N2  UNL     1       1.882  -3.296   0.819  1.00  0.00    -0.241 NA
HETATM    6  C7  UNL     1       0.540  -3.188   0.720  1.00  0.00     0.236 A 
HETATM    7  N3  UNL     1       0.027  -1.958   0.493  1.00  0.00    -0.223 NA
HETATM    8  C8  UNL     1       0.809  -0.871   0.367  1.00  0.00     0.143 A 
HETATM    9  C16 UNL     1       2.175  -0.955   0.463  1.00  0.00     0.041 A 
HETATM   10  C17 UNL     1       2.963   0.167   0.332  1.00  0.00     0.047 A 
ENDROOT
BRANCH   8  11
HETATM   11  N4  UNL     1       0.134   0.356   0.130  1.00  0.00    -0.327 N 
HETATM   12  H8  UNL     1       0.494   1.315  -0.001  1.00  0.00     0.169 HD
BRANCH  11  13
HETATM   13  C9  UNL     1      -1.286   0.381   0.040  1.00  0.00     0.104 A 
HETATM   14  C10 UNL     1      -1.982   1.180   0.835  1.00  0.00     0.051 A 
HETATM   15  C11 UNL     1      -3.451   1.283   0.824  1.00  0.00     0.039 A 
HETATM   16  C12 UNL     1      -4.084   0.510  -0.054  1.00  0.00     0.084 A 
HETATM   17  C15 UNL     1      -3.456  -0.436  -1.012  1.00  0.00     0.237 A 
HETATM   18 CL2  UNL     1      -3.819   0.034  -2.709  1.00  0.00    -0.095 Cl
HETATM   19  N5  UNL     1      -2.016  -0.423  -0.879  1.00  0.00    -0.353 N 
HETATM   20  H16 UNL     1      -1.491  -1.060  -1.516  1.00  0.00     0.163 HD
BRANCH  16  21
HETATM   21  O2  UNL     1      -5.468   0.623  -0.048  1.00  0.00    -0.351 OA
BRANCH  21  22
HETATM   22  C13 UNL     1      -6.358  -0.226  -0.710  1.00  0.00     0.190 C 
BRANCH  22  23
HETATM   23  C14 UNL     1      -7.804   0.172  -0.502  1.00  0.00     0.141 C 
HETATM   24 CL1  UNL     1      -8.128   1.819  -1.098  1.00  0.00    -0.128 Cl
ENDBRANCH  22  23
ENDBRANCH  21  22
ENDBRANCH  16  21
ENDBRANCH  11  13
ENDBRANCH   8  11
BRANCH   1  25
HETATM   25  N1  UNL     1       5.214   1.167   0.310  1.00  0.00    -0.327 N 
HETATM   26  C2  UNL     1       5.780   1.611  -0.912  1.00  0.00     0.218 C 
HETATM   27  C1  UNL     1       6.696   2.775  -1.014  1.00  0.00     0.117 C 
HETATM   28  O1  UNL     1       5.508   1.003  -1.980  1.00  0.00    -0.274 OA
HETATM   29  H4  UNL     1       5.514   1.755   1.142  1.00  0.00     0.169 HD
ENDBRANCH   1  25
TORSDOF 6
