REMARK  2 active torsions:
REMARK  status: ('A' for Active; 'I' for Inactive)
REMARK       I    between atoms: C2_2  and  N1_4 
REMARK    1  A    between atoms: N1_4  and  C3_5 
REMARK    2  A    between atoms: C14_20  and  O2_21 
ROOT
HETATM    1  C3  UNL     1       2.081   0.011   0.137  1.00  0.00     0.036 A 
HETATM    2  C4  UNL     1       1.639   0.553   1.360  1.00  0.00     0.039 A 
HETATM    3  C5  UNL     1       0.502  -0.098   1.703  1.00  0.00    -0.023 A 
HETATM    4  C6  UNL     1      -0.388  -1.056   1.373  1.00  0.00     0.079 A 
HETATM    5  N2  UNL     1      -1.503  -1.505   1.890  1.00  0.00    -0.241 NA
HETATM    6  C7  UNL     1      -2.318  -2.425   1.343  1.00  0.00     0.236 A 
HETATM    7  N3  UNL     1      -1.798  -2.824   0.122  1.00  0.00    -0.224 NA
HETATM    8  C8  UNL     1      -0.639  -2.266  -0.263  1.00  0.00     0.137 A 
HETATM    9  C9  UNL     1       0.258  -1.365   0.222  1.00  0.00     0.041 A 
HETATM   10  C10 UNL     1       1.357  -0.985  -0.454  1.00  0.00     0.047 A 
HETATM   11  N4  UNL     1      -0.571  -2.466  -1.714  1.00  0.00    -0.370 N 
HETATM   12  C11 UNL     1      -0.887  -1.072  -1.979  1.00  0.00     0.150 C 
HETATM   13  C12 UNL     1      -2.203  -0.600  -1.469  1.00  0.00     0.019 C 
HETATM   14  C13 UNL     1      -2.707   0.174  -0.514  1.00  0.00     0.065 C 
HETATM   15 CL1  UNL     1      -4.487   0.135  -0.753  1.00  0.00    -0.082 Cl
HETATM   16  C14 UNL     1      -2.567   0.869   0.835  1.00  0.00     0.100 C 
HETATM   17  C15 UNL     1      -1.654   0.970   1.846  1.00  0.00     0.017 C 
HETATM   18  C16 UNL     1      -0.345   0.746   2.649  1.00  0.00     0.071 C 
HETATM   19  H8  UNL     1      -0.338  -3.429  -1.960  1.00  0.00     0.161 HD
ENDROOT
BRANCH   1  20
HETATM   20  N1  UNL     1       3.259   0.494  -0.450  1.00  0.00    -0.327 N 
HETATM   21  C2  UNL     1       3.078   1.600  -1.315  1.00  0.00     0.218 C 
HETATM   22  C1  UNL     1       4.263   2.206  -2.002  1.00  0.00     0.117 C 
HETATM   23  O1  UNL     1       1.875   1.992  -1.432  1.00  0.00    -0.274 OA
HETATM   24  H4  UNL     1       4.190   0.054  -0.251  1.00  0.00     0.169 HD
ENDBRANCH   1  20
BRANCH  16  25
HETATM   25  O2  UNL     1      -3.696   1.656   1.172  1.00  0.00    -0.277 OA
HETATM   26  I1  UNL     1      -4.118   3.437   0.285  1.00  0.00     0.116 I 
ENDBRANCH  16  25
TORSDOF 2
