REMARK  4 active torsions:
REMARK  status: ('A' for Active; 'I' for Inactive)
REMARK    1  A    between atoms: C7_10  and  N3_11 
REMARK       I    between atoms: N3_11  and  C8_12 
REMARK       I    between atoms: C8_12  and  N4_14 
REMARK    2  A    between atoms: N4_14  and  P1_15 
REMARK    3  A    between atoms: P1_15  and  C9_16 
REMARK    4  A    between atoms: C9_16  and  N5_17 
ROOT
HETATM    1  C1  UNL     1      -6.424   3.438  -0.415  1.00  0.00    -0.084 C 
HETATM    2  B1  UNL     1      -6.045   1.692  -0.627  1.00  0.00     0.228 B 
HETATM    3  C2  UNL     1      -5.733  -0.025  -0.595  1.00  0.00    -0.001 A 
HETATM    4  N1  UNL     1      -6.712  -0.881  -0.931  1.00  0.00    -0.258 NA
HETATM    5  C3  UNL     1      -6.484  -2.206  -0.909  1.00  0.00     0.232 A 
HETATM    6  N2  UNL     1      -5.274  -2.686  -0.552  1.00  0.00    -0.241 NA
HETATM    7  C4  UNL     1      -4.272  -1.858  -0.209  1.00  0.00     0.069 A 
HETATM    8  C5  UNL     1      -3.019  -2.289   0.164  1.00  0.00     0.035 A 
HETATM    9  C6  UNL     1      -2.060  -1.355   0.496  1.00  0.00     0.032 A 
HETATM   10  C7  UNL     1      -2.255  -0.016   0.486  1.00  0.00     0.037 A 
HETATM   11  C14 UNL     1      -3.516   0.386   0.109  1.00  0.00     0.044 A 
HETATM   12  C15 UNL     1      -4.499  -0.518  -0.230  1.00  0.00     0.007 A 
ENDROOT
BRANCH  10  13
HETATM   13  N3  UNL     1      -1.328   0.994   0.811  1.00  0.00    -0.307 N 
HETATM   14  C8  UNL     1       0.020   0.864   1.225  1.00  0.00     0.346 C 
HETATM   15  O1  UNL     1       0.522  -0.281   1.338  1.00  0.00    -0.245 OA
HETATM   16  N4  UNL     1       0.897   1.934   1.537  1.00  0.00    -0.199 NA
HETATM   17  H6  UNL     1      -1.588   2.003   0.768  1.00  0.00     0.170 HD
BRANCH  16  18
HETATM   18  P1  UNL     1       2.360   2.093   0.887  1.00  0.00     0.096 P 
BRANCH  18  19
HETATM   19  C9  UNL     1       3.092   0.922  -0.339  1.00  0.00     0.337 C 
BRANCH  19  20
HETATM   20  N5  UNL     1       3.883  -0.114   0.335  1.00  0.00     0.098 N 
HETATM   21  C10 UNL     1       4.941   0.554   1.068  1.00  0.00     0.299 C 
HETATM   22  C11 UNL     1       6.168   0.598   0.202  1.00  0.00     0.198 C 
HETATM   23  O2  UNL     1       6.674  -0.692   0.102  1.00  0.00    -0.388 OA
HETATM   24  C12 UNL     1       5.737  -1.618  -0.305  1.00  0.00     0.198 C 
HETATM   25  C13 UNL     1       4.395  -1.021  -0.669  1.00  0.00     0.299 C 
ENDBRANCH  19  20
ENDBRANCH  18  19
ENDBRANCH  16  18
ENDBRANCH  10  13
TORSDOF 4
