REMARK  3 active torsions:
REMARK  status: ('A' for Active; 'I' for Inactive)
REMARK       I    between atoms: C1_2  and  N1_3 
REMARK       I    between atoms: C1_2  and  N5_22 
REMARK    1  A    between atoms: N1_3  and  C2_4 
REMARK    2  A    between atoms: C7_11  and  N4_12 
REMARK    3  A    between atoms: N4_12  and  C8_13 
ROOT
HETATM    1  C2  UNL     1      -0.016   1.373  -0.335  1.00  0.00     0.037 A 
HETATM    2  C3  UNL     1      -0.206   2.613  -0.967  1.00  0.00     0.032 A 
HETATM    3  C4  UNL     1       0.845   3.373  -1.407  1.00  0.00     0.035 A 
HETATM    4  C5  UNL     1       2.099   2.855  -1.193  1.00  0.00     0.072 A 
HETATM    5  N2  UNL     1       3.117   3.606  -1.626  1.00  0.00    -0.241 NA
HETATM    6  C6  UNL     1       4.377   3.166  -1.455  1.00  0.00     0.236 A 
HETATM    7  N3  UNL     1       4.665   2.003  -0.869  1.00  0.00    -0.224 NA
HETATM    8  C7  UNL     1       3.701   1.209  -0.416  1.00  0.00     0.142 A 
HETATM    9  C14 UNL     1       2.388   1.662  -0.589  1.00  0.00     0.041 A 
HETATM   10  C15 UNL     1       1.303   0.926  -0.162  1.00  0.00     0.047 A 
ENDROOT
BRANCH   1  11
HETATM   11  N1  UNL     1      -1.067   0.550   0.124  1.00  0.00    -0.309 N 
HETATM   12  C1  UNL     1      -1.886  -0.541  -0.227  1.00  0.00     0.323 C 
HETATM   13  O1  UNL     1      -1.477  -0.861  -1.399  1.00  0.00    -0.247 OA
HETATM   14  N5  UNL     1      -2.927  -1.172   0.512  1.00  0.00    -0.330 N 
HETATM   15  C16 UNL     1      -3.494  -0.855   1.751  1.00  0.00     0.147 C 
HETATM   16  C21 UNL     1      -3.394  -2.332  -0.180  1.00  0.00     0.153 C 
HETATM   17  C17 UNL     1      -4.703  -0.298   2.190  1.00  0.00     0.133 C 
HETATM   18  N6  UNL     1      -5.706   0.409   1.549  1.00  0.00    -0.418 N 
HETATM   19  C18 UNL     1      -6.623  -0.148   0.688  1.00  0.00     0.140 C 
HETATM   20  H15 UNL     1      -5.564   1.447   1.458  1.00  0.00     0.153 HD
HETATM   21  C19 UNL     1      -6.170  -0.429  -0.740  1.00  0.00     0.186 C 
HETATM   22  O2  UNL     1      -5.225  -1.134  -1.036  1.00  0.00    -0.388 OA
HETATM   23  C20 UNL     1      -4.291  -1.846  -1.324  1.00  0.00     0.187 C 
HETATM   24  H1  UNL     1      -1.278   0.975   1.080  1.00  0.00     0.170 HD
ENDBRANCH   1  11
BRANCH   8  25
HETATM   25  N4  UNL     1       3.994  -0.043   0.158  1.00  0.00    -0.340 N 
HETATM   26  H5  UNL     1       3.361  -0.727   0.591  1.00  0.00     0.167 HD
BRANCH  25  27
HETATM   27  C8  UNL     1       5.345  -0.486   0.160  1.00  0.00     0.035 A 
HETATM   28  C9  UNL     1       6.452   0.316   0.287  1.00  0.00     0.029 A 
HETATM   29  C10 UNL     1       7.749  -0.196   0.241  1.00  0.00     0.004 A 
HETATM   30  C11 UNL     1       7.961  -1.540   0.061  1.00  0.00     0.019 A 
HETATM   31  C12 UNL     1       6.907  -2.407  -0.075  1.00  0.00     0.013 A 
HETATM   32 BR1  UNL     1       7.128  -4.302  -0.343  1.00  0.00    -0.051 Br
HETATM   33  C13 UNL     1       5.651  -1.828  -0.018  1.00  0.00     0.048 A 
ENDBRANCH  25  27
ENDBRANCH   8  25
TORSDOF 3
