REMARK  5 active torsions:
REMARK  status: ('A' for Active; 'I' for Inactive)
REMARK       I    between atoms: C1_2  and  N1_3 
REMARK       I    between atoms: C1_2  and  N3_12 
REMARK    1  A    between atoms: N1_3  and  C2_4 
REMARK    2  A    between atoms: C2_4  and  C3_5 
REMARK    3  A    between atoms: C3_5  and  N2_6 
REMARK    4  A    between atoms: N3_12  and  C8_13 
REMARK    5  A    between atoms: N4_20  and  C15_21 
ROOT
HETATM    1  C8  UNL     1      -0.829   0.621   0.260  1.00  0.00     0.037 A 
HETATM    2  C9  UNL     1      -1.099   1.719   1.044  1.00  0.00     0.032 A 
HETATM    3  C10 UNL     1      -2.318   2.358   1.108  1.00  0.00     0.033 A 
HETATM    4  C11 UNL     1      -3.338   1.866   0.335  1.00  0.00     0.052 A 
HETATM    5  C12 UNL     1      -3.114   0.779  -0.457  1.00  0.00    -0.009 A 
HETATM    6  C13 UNL     1      -1.887   0.192  -0.476  1.00  0.00     0.040 A 
HETATM    7  C14 UNL     1      -4.243   0.296  -1.262  1.00  0.00     0.185 C 
HETATM    8  N4  UNL     1      -5.520   0.631  -0.633  1.00  0.00    -0.293 N 
HETATM    9  N5  UNL     1      -5.671   2.017  -0.522  1.00  0.00    -0.146 NA
HETATM   10  N6  UNL     1      -4.636   2.460   0.333  1.00  0.00    -0.303 N 
HETATM   11  H24 UNL     1      -5.539   2.421  -1.472  1.00  0.00     0.173 HD
HETATM   12  H25 UNL     1      -4.746   3.252   1.023  1.00  0.00     0.182 HD
ENDROOT
BRANCH   1  13
HETATM   13  N3  UNL     1       0.409  -0.059   0.170  1.00  0.00    -0.309 N 
HETATM   14  C1  UNL     1       1.627   0.186   0.821  1.00  0.00     0.320 C 
HETATM   15  O1  UNL     1       1.698   1.150   1.627  1.00  0.00    -0.247 OA
HETATM   16  N1  UNL     1       2.849  -0.556   0.674  1.00  0.00    -0.341 N 
HETATM   17  H1  UNL     1       2.708  -1.338  -0.003  1.00  0.00     0.164 HD
HETATM   18  H14 UNL     1       0.458  -0.880  -0.474  1.00  0.00     0.170 HD
BRANCH  16  19
HETATM   19  C2  UNL     1       3.831   0.057   1.536  1.00  0.00     0.143 C 
BRANCH  19  20
HETATM   20  C3  UNL     1       5.183  -0.549   1.532  1.00  0.00     0.136 C 
BRANCH  20  21
HETATM   21  N2  UNL     1       5.801  -0.488   0.264  1.00  0.00    -0.407 N 
HETATM   22  C4  UNL     1       5.295  -1.275  -0.793  1.00  0.00     0.143 C 
HETATM   23  C5  UNL     1       6.432  -1.563  -1.768  1.00  0.00     0.187 C 
HETATM   24  O2  UNL     1       6.957  -0.347  -2.172  1.00  0.00    -0.388 OA
HETATM   25  C6  UNL     1       7.481   0.410  -1.145  1.00  0.00     0.187 C 
HETATM   26  C7  UNL     1       7.190  -0.175   0.229  1.00  0.00     0.143 C 
ENDBRANCH  20  21
ENDBRANCH  19  20
ENDBRANCH  16  19
ENDBRANCH   1  13
BRANCH   8  27
HETATM   27  C15 UNL     1      -6.473  -0.301  -0.196  1.00  0.00     0.046 A 
HETATM   28  C16 UNL     1      -7.490   0.041   0.578  1.00  0.00     0.034 A 
HETATM   29 BR1  UNL     1      -7.826   1.823   1.216  1.00  0.00    -0.049 Br
HETATM   30  C17 UNL     1      -8.267  -1.166   0.833  1.00  0.00     0.017 A 
HETATM   31  C18 UNL     1      -7.696  -2.200   0.206  1.00  0.00    -0.019 A 
HETATM   32  C19 UNL     1      -6.487  -1.741  -0.515  1.00  0.00     0.087 A 
ENDBRANCH   8  27
TORSDOF 5
