REMARK  3 active torsions:
REMARK  status: ('A' for Active; 'I' for Inactive)
REMARK    1  A    between atoms: C12_16  and  C13_17 
REMARK    2  A    between atoms: C13_17  and  C14_18 
REMARK    3  A    between atoms: C14_18  and  N4_19 
ROOT
HETATM    1  C1  UNL     1      -1.945  -1.419   2.094  1.00  0.00     0.039 C 
HETATM    2  C2  UNL     1      -1.474  -0.845   1.028  1.00  0.00    -0.072 C 
HETATM    3  C3  UNL     1      -2.150  -1.379  -0.143  1.00  0.00     0.001 C 
HETATM    4  C4  UNL     1      -2.175  -1.239  -1.453  1.00  0.00    -0.005 C 
HETATM    5  C5  UNL     1      -2.450  -1.330  -2.916  1.00  0.00     0.177 C 
HETATM    6  N1  UNL     1      -2.892   0.043  -3.320  1.00  0.00    -0.277 NA
HETATM    7  C6  UNL     1      -3.260   0.851  -2.378  1.00  0.00     0.251 C 
HETATM    8  N2  UNL     1      -3.678   1.798  -1.409  1.00  0.00    -0.144 NA
HETATM    9  N3  UNL     1      -2.970   2.855  -1.191  1.00  0.00    -0.162 NA
HETATM   10  C7  UNL     1      -3.398   3.801  -0.211  1.00  0.00     0.137 C 
HETATM   11  C8  UNL     1      -2.446   4.063   0.716  1.00  0.00    -0.001 C 
HETATM   12  C9  UNL     1      -1.118   3.407   0.662  1.00  0.00     0.074 C 
HETATM   13  C10 UNL     1      -0.779   2.562   1.806  1.00  0.00    -0.011 C 
HETATM   14 BR1  UNL     1      -0.749   3.702   3.337  1.00  0.00    -0.056 Br
HETATM   15  C11 UNL     1      -0.509   1.237   1.971  1.00  0.00    -0.003 C 
HETATM   16  C12 UNL     1      -0.512   0.266   0.863  1.00  0.00     0.039 C 
ENDROOT
BRANCH  16  17
HETATM   17  C13 UNL     1       0.813  -0.098   0.281  1.00  0.00     0.033 C 
BRANCH  17  18
HETATM   18  C14 UNL     1       1.560  -1.118   1.120  1.00  0.00     0.127 C 
BRANCH  18  19
HETATM   19  N4  UNL     1       2.826  -1.361   0.412  1.00  0.00    -0.348 N 
HETATM   20  C15 UNL     1       2.867  -2.435  -0.592  1.00  0.00     0.152 C 
HETATM   21  C16 UNL     1       4.276  -3.005  -0.430  1.00  0.00     0.188 C 
HETATM   22  O1  UNL     1       5.217  -2.089  -0.826  1.00  0.00    -0.380 OA
HETATM   23  C17 UNL     1       4.986  -0.785  -0.478  1.00  0.00     0.270 C 
HETATM   24  C18 UNL     1       4.032  -0.604   0.648  1.00  0.00     0.243 C 
HETATM   25  O2  UNL     1       4.022   0.028   1.724  1.00  0.00    -0.271 OA
ENDBRANCH  18  19
ENDBRANCH  17  18
ENDBRANCH  16  17
TORSDOF 3
