REMARK  8 active torsions:
REMARK  status: ('A' for Active; 'I' for Inactive)
REMARK    1  A    between atoms: C5_5  and  N1_6 
REMARK    2  A    between atoms: N1_6  and  C6_7 
REMARK    3  A    between atoms: C14_18  and  N4_19 
REMARK    4  A    between atoms: N4_19  and  C15_20 
REMARK    5  A    between atoms: C15_20  and  N5_21 
REMARK    6  A    between atoms: C15_20  and  C16_22 
REMARK    7  A    between atoms: C16_22  and  C17_23 
REMARK    8  A    between atoms: C17_23  and  N6_24 
ROOT
HETATM    1  C1  UNL     1      -0.913   1.832   2.088  1.00  0.00     0.026 C 
HETATM    2  C2  UNL     1       0.005   1.016   1.605  1.00  0.00    -0.016 A 
HETATM    3  C3  UNL     1       1.411   1.257   1.314  1.00  0.00     0.030 A 
HETATM    4  C4  UNL     1       1.988   0.150   0.830  1.00  0.00     0.042 A 
HETATM    5  C5  UNL     1       3.309  -0.077   0.421  1.00  0.00     0.142 A 
HETATM    6  N2  UNL     1       3.554  -1.311  -0.016  1.00  0.00    -0.224 NA
HETATM    7  C12 UNL     1       2.628  -2.273  -0.067  1.00  0.00     0.236 A 
HETATM    8  N3  UNL     1       1.362  -2.053   0.326  1.00  0.00    -0.239 NA
HETATM    9  C13 UNL     1       1.037  -0.827   0.781  1.00  0.00     0.099 A 
HETATM   10  C14 UNL     1      -0.129  -0.384   1.216  1.00  0.00     0.069 A 
ENDROOT
BRANCH  10  11
HETATM   11  N4  UNL     1      -1.338  -1.169   1.291  1.00  0.00    -0.367 N 
HETATM   12  H10 UNL     1      -1.817  -1.326   2.225  1.00  0.00     0.161 HD
BRANCH  11  13
HETATM   13  C15 UNL     1      -1.755  -1.662   0.017  1.00  0.00     0.176 C 
BRANCH  13  14
HETATM   14  N5  UNL     1      -1.771  -0.621  -0.988  1.00  0.00    -0.411 N 
HETATM   15  H12 UNL     1      -1.591   0.326  -0.642  1.00  0.00     0.151 HD
HETATM   16  H13 UNL     1      -2.545  -0.747  -1.654  1.00  0.00     0.151 HD
ENDBRANCH  13  14
BRANCH  13  17
HETATM   17  C16 UNL     1      -2.999  -2.483   0.032  1.00  0.00     0.066 C 
BRANCH  17  18
HETATM   18  C17 UNL     1      -4.225  -1.817   0.537  1.00  0.00     0.129 C 
BRANCH  18  19
HETATM   19  N6  UNL     1      -4.666  -0.658  -0.158  1.00  0.00    -0.348 N 
HETATM   20  C18 UNL     1      -4.381   0.764  -0.000  1.00  0.00     0.152 C 
HETATM   21  C19 UNL     1      -5.776   1.398   0.105  1.00  0.00     0.188 C 
HETATM   22  O1  UNL     1      -6.378   1.442  -1.142  1.00  0.00    -0.380 OA
HETATM   23  C20 UNL     1      -6.007   0.431  -1.993  1.00  0.00     0.270 C 
HETATM   24  C21 UNL     1      -5.585  -0.812  -1.261  1.00  0.00     0.243 C 
HETATM   25  O2  UNL     1      -6.047  -1.941  -1.634  1.00  0.00    -0.271 OA
ENDBRANCH  18  19
ENDBRANCH  17  18
ENDBRANCH  13  17
ENDBRANCH  11  13
ENDBRANCH  10  11
BRANCH   5  26
HETATM   26  N1  UNL     1       4.240   0.987   0.502  1.00  0.00    -0.340 N 
HETATM   27  H4  UNL     1       3.893   1.909   0.871  1.00  0.00     0.167 HD
BRANCH  26  28
HETATM   28  C6  UNL     1       5.606   0.967   0.143  1.00  0.00     0.035 A 
HETATM   29  C7  UNL     1       6.304  -0.105  -0.366  1.00  0.00     0.029 A 
HETATM   30  C8  UNL     1       7.629  -0.116  -0.712  1.00  0.00     0.004 A 
HETATM   31  C9  UNL     1       8.347   1.031  -0.546  1.00  0.00     0.019 A 
HETATM   32  C10 UNL     1       7.723   2.150  -0.042  1.00  0.00     0.013 A 
HETATM   33 BR1  UNL     1       8.708   3.755   0.194  1.00  0.00    -0.051 Br
HETATM   34  C11 UNL     1       6.391   2.092   0.284  1.00  0.00     0.048 A 
ENDBRANCH  26  28
ENDBRANCH   5  26
TORSDOF 8
