REMARK  3 active torsions:
REMARK  status: ('A' for Active; 'I' for Inactive)
REMARK       I    between atoms: C1_2  and  N1_3 
REMARK       I    between atoms: C1_2  and  N5_22 
REMARK    1  A    between atoms: N1_3  and  C2_4 
REMARK    2  A    between atoms: C7_11  and  N4_12 
REMARK    3  A    between atoms: N4_12  and  C8_13 
ROOT
HETATM    1  C2  UNL     1      -0.911  -1.645   0.473  1.00  0.00     0.037 A 
HETATM    2  C3  UNL     1      -0.935  -3.012   0.651  1.00  0.00     0.032 A 
HETATM    3  C4  UNL     1       0.262  -3.694   0.690  1.00  0.00     0.035 A 
HETATM    4  C5  UNL     1       1.440  -2.996   0.553  1.00  0.00     0.072 A 
HETATM    5  N2  UNL     1       2.586  -3.737   0.603  1.00  0.00    -0.241 NA
HETATM    6  C6  UNL     1       3.778  -3.085   0.471  1.00  0.00     0.236 A 
HETATM    7  N3  UNL     1       3.816  -1.765   0.299  1.00  0.00    -0.224 NA
HETATM    8  C7  UNL     1       2.737  -0.980   0.241  1.00  0.00     0.142 A 
HETATM    9  C14 UNL     1       1.533  -1.632   0.373  1.00  0.00     0.041 A 
HETATM   10  C15 UNL     1       0.315  -1.026   0.344  1.00  0.00     0.047 A 
ENDROOT
BRANCH   1  11
HETATM   11  N1  UNL     1      -2.158  -0.963   0.436  1.00  0.00    -0.309 N 
HETATM   12  C1  UNL     1      -3.057  -0.626  -0.617  1.00  0.00     0.322 C 
HETATM   13  O1  UNL     1      -2.955  -0.866  -1.839  1.00  0.00    -0.247 OA
HETATM   14  N5  UNL     1      -4.235   0.075  -0.271  1.00  0.00    -0.338 N 
HETATM   15  C16 UNL     1      -5.016   0.324  -1.482  1.00  0.00     0.106 C 
HETATM   16  C18 UNL     1      -4.664   0.508   1.042  1.00  0.00     0.151 C 
HETATM   17  B1  UNL     1      -6.442   0.868  -1.076  1.00  0.00     0.329 B 
HETATM   18  O2  UNL     1      -6.701   1.447   0.233  1.00  0.00    -0.453 OA
HETATM   19  H13 UNL     1      -7.346   0.644  -1.793  1.00  0.00     0.009 HD
HETATM   20  C17 UNL     1      -5.505   1.749   0.887  1.00  0.00     0.162 C 
HETATM   21  H1  UNL     1      -2.393  -0.685   1.422  1.00  0.00     0.170 HD
ENDBRANCH   1  11
BRANCH   8  22
HETATM   22  N4  UNL     1       2.755   0.419   0.060  1.00  0.00    -0.340 N 
HETATM   23  H5  UNL     1       1.877   0.968  -0.000  1.00  0.00     0.167 HD
BRANCH  22  24
HETATM   24  C8  UNL     1       3.862   1.264  -0.062  1.00  0.00     0.035 A 
HETATM   25  C9  UNL     1       5.155   0.852   0.152  1.00  0.00     0.029 A 
HETATM   26  C10 UNL     1       6.269   1.646   0.035  1.00  0.00     0.004 A 
HETATM   27  C11 UNL     1       6.141   2.968  -0.322  1.00  0.00     0.019 A 
HETATM   28  C12 UNL     1       4.868   3.442  -0.551  1.00  0.00     0.013 A 
HETATM   29 BR1  UNL     1       4.592   5.259  -1.051  1.00  0.00    -0.051 Br
HETATM   30  C13 UNL     1       3.799   2.594  -0.416  1.00  0.00     0.048 A 
ENDBRANCH  22  24
ENDBRANCH   8  22
TORSDOF 3
