REMARK  6 active torsions:
REMARK  status: ('A' for Active; 'I' for Inactive)
REMARK    1  A    between atoms: C2_2  and  C3_3 
REMARK    2  A    between atoms: C2_2  and  N2_12 
REMARK    3  A    between atoms: C3_3  and  C4_4 
REMARK    4  A    between atoms: C4_4  and  N1_5 
REMARK    5  A    between atoms: N2_12  and  C9_13 
REMARK    6  A    between atoms: C11_15  and  N3_16 
ROOT
HETATM    1  C9  UNL     1       0.832  -0.463  -1.150  1.00  0.00     0.012 C 
HETATM    2  C10 UNL     1       2.009  -0.081  -0.682  1.00  0.00     0.075 C 
HETATM    3  C11 UNL     1       3.454  -0.147  -0.488  1.00  0.00     0.129 C 
HETATM    4  N4  UNL     1       3.961  -0.951  -1.393  1.00  0.00    -0.225 NA
HETATM    5  C17 UNL     1       3.059  -1.569  -2.345  1.00  0.00     0.234 C 
HETATM    6  N5  UNL     1       2.295  -2.368  -3.073  1.00  0.00    -0.254 NA
HETATM    7  C18 UNL     1       1.526  -1.875  -4.171  1.00  0.00     0.114 C 
HETATM    8  C19 UNL     1       0.525  -1.491  -3.341  1.00  0.00    -0.002 C 
HETATM    9  C20 UNL     1       0.649  -1.723  -1.906  1.00  0.00     0.085 C 
ENDROOT
BRANCH   1  10
HETATM   10  N2  UNL     1      -0.227   0.389  -0.742  1.00  0.00    -0.389 N 
HETATM   11  H15 UNL     1      -0.142   1.437  -0.788  1.00  0.00     0.159 HD
BRANCH  10  12
HETATM   12  C2  UNL     1      -1.428  -0.211  -0.260  1.00  0.00     0.079 C 
HETATM   13  C1  UNL     1      -1.220  -1.080   0.952  1.00  0.00     0.032 C 
BRANCH  12  14
HETATM   14  C3  UNL     1      -2.481   0.839   0.120  1.00  0.00     0.044 C 
BRANCH  14  15
HETATM   15  C4  UNL     1      -3.713   0.040   0.488  1.00  0.00     0.128 C 
BRANCH  15  16
HETATM   16  N1  UNL     1      -4.836   0.857   0.882  1.00  0.00    -0.348 N 
HETATM   17  C5  UNL     1      -5.831   1.348  -0.083  1.00  0.00     0.152 C 
HETATM   18  C6  UNL     1      -7.160   0.979   0.588  1.00  0.00     0.188 C 
HETATM   19  O1  UNL     1      -7.278   1.749   1.723  1.00  0.00    -0.380 OA
HETATM   20  C7  UNL     1      -6.407   1.468   2.739  1.00  0.00     0.270 C 
HETATM   21  C8  UNL     1      -5.007   1.213   2.253  1.00  0.00     0.243 C 
HETATM   22  O2  UNL     1      -4.025   1.307   3.009  1.00  0.00    -0.271 OA
ENDBRANCH  15  16
ENDBRANCH  14  15
ENDBRANCH  12  14
ENDBRANCH  10  12
ENDBRANCH   1  10
BRANCH   3  23
HETATM   23  N3  UNL     1       4.723   0.204   0.024  1.00  0.00    -0.362 N 
HETATM   24  C12 UNL     1       5.510   1.225  -0.609  1.00  0.00     0.153 C 
HETATM   25  C13 UNL     1       6.246   1.918   0.515  1.00  0.00     0.007 C 
HETATM   26  C14 UNL     1       6.547   1.177   1.575  1.00  0.00    -0.012 C 
HETATM   27 BR1  UNL     1       7.474   2.133   2.943  1.00  0.00    -0.056 Br
HETATM   28  C15 UNL     1       6.262  -0.251   1.816  1.00  0.00     0.066 C 
HETATM   29  C16 UNL     1       4.964  -0.623   1.185  1.00  0.00     0.130 C 
ENDBRANCH   3  23
TORSDOF 6
