REMARK  5 active torsions:
REMARK  status: ('A' for Active; 'I' for Inactive)
REMARK    1  A    between atoms: C1_2  and  C2_3 
REMARK    2  A    between atoms: C2_3  and  N1_4 
REMARK    3  A    between atoms: N1_4  and  C3_5 
REMARK    4  A    between atoms: C8_12  and  N4_13 
REMARK    5  A    between atoms: N4_13  and  C9_14 
ROOT
HETATM    1  C3  UNL     1       2.641  -0.151  -0.067  1.00  0.00     0.029 A 
HETATM    2  C4  UNL     1       3.222  -1.392   0.069  1.00  0.00     0.031 A 
HETATM    3  C5  UNL     1       2.413  -2.477   0.253  1.00  0.00     0.035 A 
HETATM    4  C6  UNL     1       1.050  -2.298   0.296  1.00  0.00     0.072 A 
HETATM    5  N2  UNL     1       0.308  -3.414   0.481  1.00  0.00    -0.241 NA
HETATM    6  C7  UNL     1      -1.049  -3.276   0.530  1.00  0.00     0.236 A 
HETATM    7  N3  UNL     1      -1.664  -2.101   0.404  1.00  0.00    -0.224 NA
HETATM    8  C8  UNL     1      -0.976  -0.984   0.221  1.00  0.00     0.142 A 
HETATM    9  C15 UNL     1       0.397  -1.095   0.169  1.00  0.00     0.041 A 
HETATM   10  C16 UNL     1       1.270  -0.046  -0.014  1.00  0.00     0.046 A 
ENDROOT
BRANCH   8  11
HETATM   11  N4  UNL     1      -1.546   0.294   0.080  1.00  0.00    -0.340 N 
HETATM   12  H8  UNL     1      -0.974   1.138  -0.065  1.00  0.00     0.167 HD
BRANCH  11  13
HETATM   13  C9  UNL     1      -2.911   0.660   0.106  1.00  0.00     0.035 A 
HETATM   14  C10 UNL     1      -3.925  -0.240   0.327  1.00  0.00     0.029 A 
HETATM   15  C11 UNL     1      -5.266   0.065   0.360  1.00  0.00     0.004 A 
HETATM   16  C12 UNL     1      -5.676   1.365   0.160  1.00  0.00     0.019 A 
HETATM   17  C13 UNL     1      -4.702   2.309  -0.066  1.00  0.00     0.013 A 
HETATM   18 BR1  UNL     1      -5.189   4.121  -0.350  1.00  0.00    -0.051 Br
HETATM   19  C14 UNL     1      -3.384   1.937  -0.086  1.00  0.00     0.048 A 
ENDBRANCH  11  13
ENDBRANCH   8  11
BRANCH   1  20
HETATM   20  N1  UNL     1       3.480   0.980  -0.260  1.00  0.00    -0.384 N 
HETATM   21  H4  UNL     1       3.025   1.930  -0.364  1.00  0.00     0.160 HD
BRANCH  20  22
HETATM   22  C2  UNL     1       4.913   0.802  -0.308  1.00  0.00     0.189 C 
BRANCH  22  23
HETATM   23  C1  UNL     1       5.595   2.129  -0.521  1.00  0.00     0.250 C 
HETATM   24  O1  UNL     1       4.727   2.998  -0.595  1.00  0.00    -0.305 OA
ENDBRANCH  22  23
ENDBRANCH  20  22
ENDBRANCH   1  20
TORSDOF 5
