REMARK  5 active torsions:
REMARK  status: ('A' for Active; 'I' for Inactive)
REMARK    1  A    between atoms: O1_2  and  C2_3 
REMARK    2  A    between atoms: C6_7  and  C7_8 
REMARK    3  A    between atoms: C7_8  and  N1_9 
REMARK    4  A    between atoms: C10_12  and  N2_13 
REMARK    5  A    between atoms: N2_13  and  C11_14 
ROOT
HETATM    1  N1  UNL     1       1.010  -0.350  -0.798  1.00  0.00    -0.317 N 
HETATM    2  C8  UNL     1      -0.397  -0.648  -0.570  1.00  0.00     0.119 C 
HETATM    3  C9  UNL     1      -0.948   0.194   0.324  1.00  0.00     0.045 C 
HETATM    4  C10 UNL     1      -2.301   0.282   0.841  1.00  0.00     0.140 C 
HETATM    5  N3  UNL     1      -2.496   1.363   1.508  1.00  0.00    -0.224 NA
HETATM    6  C17 UNL     1      -1.440   2.323   1.722  1.00  0.00     0.231 C 
HETATM    7  N4  UNL     1      -0.172   2.251   1.340  1.00  0.00    -0.256 NA
HETATM    8  C18 UNL     1       0.216   1.067   0.659  1.00  0.00     0.238 C 
HETATM    9  N5  UNL     1       0.908   1.095  -0.583  1.00  0.00    -0.209 NA
HETATM   10  H17 UNL     1       0.265   1.411  -1.331  1.00  0.00     0.149 HD
ENDROOT
BRANCH   1  11
HETATM   11  C7  UNL     1       2.026  -1.330  -1.125  1.00  0.00     0.181 C 
BRANCH  11  12
HETATM   12  C6  UNL     1       3.356  -0.716  -1.287  1.00  0.00    -0.036 A 
HETATM   13  C5  UNL     1       3.726  -0.274  -2.563  1.00  0.00     0.009 A 
HETATM   14  C4  UNL     1       4.986   0.310  -2.729  1.00  0.00     0.003 A 
HETATM   15  C3  UNL     1       5.834   0.442  -1.653  1.00  0.00     0.037 A 
HETATM   16  C2  UNL     1       5.481   0.011  -0.392  1.00  0.00     0.068 A 
HETATM   17  C19 UNL     1       4.234  -0.567  -0.233  1.00  0.00     0.045 A 
BRANCH  16  18
HETATM   18  O1  UNL     1       6.408   0.189   0.626  1.00  0.00    -0.356 OA
HETATM   19  C1  UNL     1       6.056  -0.248   1.919  1.00  0.00     0.210 C 
ENDBRANCH  16  18
ENDBRANCH  11  12
ENDBRANCH   1  11
BRANCH   4  20
HETATM   20  N2  UNL     1      -3.278  -0.711   0.627  1.00  0.00    -0.340 N 
HETATM   21  H10 UNL     1      -2.873  -1.659   0.523  1.00  0.00     0.167 HD
BRANCH  20  22
HETATM   22  C11 UNL     1      -4.634  -0.366   0.568  1.00  0.00     0.035 A 
HETATM   23  C12 UNL     1      -5.482  -1.457   0.420  1.00  0.00     0.029 A 
HETATM   24  C13 UNL     1      -6.850  -1.344   0.335  1.00  0.00     0.004 A 
HETATM   25  C14 UNL     1      -7.456  -0.109   0.395  1.00  0.00     0.024 A 
HETATM   26  C15 UNL     1      -6.639   0.987   0.540  1.00  0.00     0.036 A 
HETATM   27 CL1  UNL     1      -7.273   2.599   0.628  1.00  0.00    -0.084 Cl
HETATM   28  C16 UNL     1      -5.273   0.840   0.622  1.00  0.00     0.053 A 
ENDBRANCH  20  22
ENDBRANCH   4  20
TORSDOF 5
