REMARK  6 active torsions:
REMARK  status: ('A' for Active; 'I' for Inactive)
REMARK    1  A    between atoms: C2_3  and  N1_6 
REMARK    2  A    between atoms: N1_6  and  C5_7 
REMARK    3  A    between atoms: C10_14  and  N4_15 
REMARK       I    between atoms: N4_15  and  C11_16 
REMARK       I    between atoms: C11_16  and  N5_18 
REMARK    4  A    between atoms: N5_18  and  C12_19 
REMARK    5  A    between atoms: C12_19  and  C13_20 
REMARK    6  A    between atoms: C13_20  and  N6_21 
ROOT
HETATM    1  B1  UNL     1      -7.435  -0.238  -3.189  1.00  0.00     0.199 B 
HETATM    2  C1  UNL     1      -6.318  -0.967  -1.819  1.00  0.00    -0.208 C 
HETATM    3  C2  UNL     1      -5.503  -1.503  -0.781  1.00  0.00     0.056 C 
HETATM    4  C3  UNL     1      -5.770  -2.705  -0.358  1.00  0.00     0.006 C 
HETATM    5  C4  UNL     1      -4.955  -3.310   0.718  1.00  0.00     0.039 C 
ENDROOT
BRANCH   3   6
HETATM    6  N1  UNL     1      -4.465  -0.667  -0.297  1.00  0.00    -0.335 N 
HETATM    7  H5  UNL     1      -3.636  -1.232  -0.028  1.00  0.00     0.168 HD
BRANCH   6   8
HETATM    8  C5  UNL     1      -4.669   0.736  -0.243  1.00  0.00     0.142 A 
HETATM    9  N2  UNL     1      -5.871   1.167  -0.681  1.00  0.00    -0.224 NA
HETATM   10  C6  UNL     1      -6.174   2.498  -0.672  1.00  0.00     0.236 A 
HETATM   11  N3  UNL     1      -5.249   3.393  -0.215  1.00  0.00    -0.241 NA
HETATM   12  C7  UNL     1      -4.069   2.964   0.214  1.00  0.00     0.072 A 
HETATM   13  C8  UNL     1      -3.131   3.881   0.680  1.00  0.00     0.035 A 
HETATM   14  C19 UNL     1      -3.736   1.633   0.217  1.00  0.00     0.041 A 
HETATM   15  C9  UNL     1      -1.879   3.467   1.141  1.00  0.00     0.032 A 
HETATM   16  C10 UNL     1      -1.606   2.113   1.118  1.00  0.00     0.037 A 
HETATM   17  C18 UNL     1      -2.517   1.184   0.662  1.00  0.00     0.047 A 
BRANCH  16  18
HETATM   18  N4  UNL     1      -0.339   1.685   1.589  1.00  0.00    -0.309 N 
HETATM   19  C11 UNL     1       0.957   1.464   1.053  1.00  0.00     0.320 C 
HETATM   20  O1  UNL     1       1.023   1.706  -0.159  1.00  0.00    -0.247 OA
HETATM   21  N5  UNL     1       1.938   1.015   1.960  1.00  0.00    -0.341 N 
HETATM   22  H10 UNL     1       1.698   0.859   2.985  1.00  0.00     0.164 HD
HETATM   23  H9  UNL     1      -0.566   1.526   2.614  1.00  0.00     0.170 HD
BRANCH  21  24
HETATM   24  C12 UNL     1       3.278   0.769   1.472  1.00  0.00     0.154 C 
BRANCH  24  25
HETATM   25  C13 UNL     1       3.239  -0.285   0.427  1.00  0.00     0.292 C 
BRANCH  25  26
HETATM   26  N6  UNL     1       4.524  -0.624  -0.131  1.00  0.00     0.093 N 
HETATM   27  C14 UNL     1       5.370  -1.285   0.817  1.00  0.00     0.273 C 
HETATM   28  C15 UNL     1       6.743  -1.568   0.343  1.00  0.00     0.035 C 
HETATM   29  C16 UNL     1       7.135  -0.788  -0.896  1.00  0.00     0.035 C 
HETATM   30  P1  UNL     1       5.952  -1.417  -2.219  1.00  0.00    -0.099 P 
HETATM   31  C17 UNL     1       4.285  -1.375  -1.347  1.00  0.00     0.302 C 
HETATM   32  H21 UNL     1       6.246  -2.794  -2.508  1.00  0.00     0.059 HD
ENDBRANCH  25  26
ENDBRANCH  24  25
ENDBRANCH  21  24
ENDBRANCH  16  18
ENDBRANCH   6   8
ENDBRANCH   3   6
TORSDOF 6
