REMARK  4 active torsions:
REMARK  status: ('A' for Active; 'I' for Inactive)
REMARK    1  A    between atoms: C14_18  and  N4_20 
REMARK    2  A    between atoms: N4_20  and  C15_21 
REMARK    3  A    between atoms: C15_21  and  C16_22 
REMARK    4  A    between atoms: C16_22  and  N5_23 
ROOT
HETATM    1  C1  UNL     1       6.042  -2.704   1.125  1.00  0.00     0.065 C 
HETATM    2  C2  UNL     1       5.855  -1.476   0.751  1.00  0.00     0.009 C 
HETATM    3  C3  UNL     1       5.476  -0.175   0.325  1.00  0.00    -0.018 C 
HETATM    4  C4  UNL     1       5.312   1.048  -0.045  1.00  0.00    -0.014 C 
HETATM    5  C5  UNL     1       5.222   2.525  -0.471  1.00  0.00     0.028 C 
HETATM    6 BR1  UNL     1       7.004   3.342  -0.034  1.00  0.00    -0.086 Br
HETATM    7  C6  UNL     1       3.888   2.533  -0.877  1.00  0.00     0.085 C 
HETATM    8  C7  UNL     1       2.664   3.166  -1.418  1.00  0.00     0.128 C 
HETATM    9  N1  UNL     1       1.626   2.481  -0.549  1.00  0.00    -0.374 N 
HETATM   10  C8  UNL     1       1.751   1.001  -0.850  1.00  0.00     0.137 C 
HETATM   11  N2  UNL     1       2.307   0.483  -1.956  1.00  0.00    -0.224 NA
HETATM   12  C9  UNL     1       3.518  -0.338  -2.111  1.00  0.00     0.235 C 
HETATM   13  N3  UNL     1       3.978  -1.493  -1.608  1.00  0.00    -0.246 NA
HETATM   14  C10 UNL     1       4.409  -1.617  -0.079  1.00  0.00     0.041 C 
HETATM   15  C11 UNL     1       3.161  -1.849   0.558  1.00  0.00     0.020 C 
HETATM   16  C12 UNL     1       2.180  -0.741   0.948  1.00  0.00     0.140 A 
HETATM   17  C13 UNL     1       1.256  -0.019   0.110  1.00  0.00     0.063 A 
HETATM   18  C14 UNL     1       0.625  -1.038   1.045  1.00  0.00     0.186 A 
HETATM   19  O1  UNL     1       0.944  -1.749   1.792  1.00  0.00    -0.277 OA
HETATM   20  H8  UNL     1       0.873   2.593   0.183  1.00  0.00     0.161 HD
ENDROOT
BRANCH  18  21
HETATM   21  N4  UNL     1      -0.664  -0.770   0.577  1.00  0.00    -0.362 N 
HETATM   22  H12 UNL     1      -1.043  -0.099  -0.041  1.00  0.00     0.162 HD
BRANCH  21  23
HETATM   23  C15 UNL     1      -2.002  -1.236   0.718  1.00  0.00     0.152 C 
BRANCH  23  24
HETATM   24  C16 UNL     1      -2.934  -0.310  -0.101  1.00  0.00     0.292 C 
BRANCH  24  25
HETATM   25  N5  UNL     1      -4.280  -0.851   0.082  1.00  0.00     0.090 N 
HETATM   26  C17 UNL     1      -4.819  -0.709   1.372  1.00  0.00     0.272 C 
HETATM   27  C18 UNL     1      -6.299  -0.637   1.360  1.00  0.00     0.030 C 
HETATM   28  C19 UNL     1      -6.896   0.352   0.430  1.00  0.00     0.003 C 
HETATM   29  C20 UNL     1      -5.995   0.753  -0.726  1.00  0.00     0.030 C 
HETATM   30  C21 UNL     1      -5.129  -0.459  -1.024  1.00  0.00     0.272 C 
ENDBRANCH  24  25
ENDBRANCH  23  24
ENDBRANCH  21  23
ENDBRANCH  18  21
TORSDOF 4
