REMARK  7 active torsions:
REMARK  status: ('A' for Active; 'I' for Inactive)
REMARK    1  A    between atoms: C5_6  and  N1_7 
REMARK    2  A    between atoms: N1_7  and  C6_8 
REMARK    3  A    between atoms: N4_15  and  C11_16 
REMARK    4  A    between atoms: C11_16  and  N5_17 
REMARK    5  A    between atoms: N5_17  and  C12_18 
REMARK    6  A    between atoms: C12_18  and  C13_19 
REMARK    7  A    between atoms: C13_19  and  N6_20 
ROOT
HETATM    1  C6  UNL     1      -2.754  -1.414   0.789  1.00  0.00     0.141 C 
HETATM    2  N2  UNL     1      -2.790  -2.301   1.741  1.00  0.00    -0.224 NA
HETATM    3  C7  UNL     1      -1.758  -2.467   2.730  1.00  0.00     0.229 C 
HETATM    4  N3  UNL     1      -0.864  -1.684   3.197  1.00  0.00    -0.278 NA
HETATM    5  C8  UNL     1      -0.549  -0.318   2.903  1.00  0.00     0.191 C 
HETATM    6  C9  UNL     1      -0.786  -0.017   1.474  1.00  0.00    -0.007 A 
HETATM    7  C10 UNL     1      -0.016   0.886   0.735  1.00  0.00     0.102 A 
HETATM    8  N4  UNL     1      -0.480   0.956  -0.537  1.00  0.00    -0.339 N 
HETATM    9  C18 UNL     1      -1.544   0.136  -0.713  1.00  0.00     0.108 A 
HETATM   10  C19 UNL     1      -1.691  -0.426   0.518  1.00  0.00     0.035 A 
ENDROOT
BRANCH   8  11
HETATM   11  C11 UNL     1       0.045   1.778  -1.637  1.00  0.00     0.398 C 
BRANCH  11  12
HETATM   12  N5  UNL     1       1.049   1.014  -2.349  1.00  0.00     0.102 N 
HETATM   13  H11 UNL     1       1.309   1.467  -3.244  1.00  0.00     0.318 HD
BRANCH  12  14
HETATM   14  C12 UNL     1       2.167   0.616  -1.552  1.00  0.00     0.293 C 
BRANCH  14  15
HETATM   15  C13 UNL     1       3.047   1.765  -1.114  1.00  0.00     0.179 C 
BRANCH  15  16
HETATM   16  N6  UNL     1       4.109   1.213  -0.333  1.00  0.00    -0.293 N 
HETATM   17  C14 UNL     1       5.062   2.142   0.176  1.00  0.00     0.149 C 
HETATM   18  C15 UNL     1       6.242   2.408  -0.708  1.00  0.00     0.024 C 
HETATM   19  C16 UNL     1       6.516   1.203  -1.552  1.00  0.00     0.030 C 
HETATM   20  C17 UNL     1       5.951  -0.033  -0.888  1.00  0.00     0.201 C 
HETATM   21  O1  UNL     1       4.579   0.037  -0.729  1.00  0.00    -0.283 OA
ENDBRANCH  15  16
ENDBRANCH  14  15
ENDBRANCH  12  14
ENDBRANCH  11  12
ENDBRANCH   8  11
BRANCH   1  22
HETATM   22  N1  UNL     1      -3.888  -1.450  -0.057  1.00  0.00    -0.340 N 
HETATM   23  H4  UNL     1      -3.709  -1.190  -1.053  1.00  0.00     0.167 HD
BRANCH  22  24
HETATM   24  C5  UNL     1      -5.195  -1.798   0.356  1.00  0.00     0.035 A 
HETATM   25  C4  UNL     1      -5.654  -2.097   1.609  1.00  0.00     0.029 A 
HETATM   26  C3  UNL     1      -6.956  -2.437   1.903  1.00  0.00     0.004 A 
HETATM   27  C2  UNL     1      -7.888  -2.489   0.887  1.00  0.00     0.019 A 
HETATM   28  C1  UNL     1      -7.501  -2.196  -0.426  1.00  0.00     0.013 A 
HETATM   29 BR1  UNL     1      -8.751  -2.251  -1.862  1.00  0.00    -0.051 Br
HETATM   30  C20 UNL     1      -6.177  -1.869  -0.611  1.00  0.00     0.048 A 
ENDBRANCH  22  24
ENDBRANCH   1  22
TORSDOF 7
