REMARK  0 active torsions:
REMARK  status: ('A' for Active; 'I' for Inactive)
ROOT
HETATM    1  O1  UNL     1       1.087  -1.733   0.272  1.00  0.00    -0.125 OA
HETATM    2  C1  UNL     1       1.334  -2.957   0.003  1.00  0.00     0.448 A 
HETATM    3  N1  UNL     1       2.498  -2.251   0.399  1.00  0.00     0.111 N 
HETATM    4  C2  UNL     1       3.274  -1.142   0.851  1.00  0.00     0.297 C 
HETATM    5  C3  UNL     1       3.219   0.113   0.075  1.00  0.00     0.147 C 
HETATM    6  N2  UNL     1       2.001   0.864   0.078  1.00  0.00    -0.410 N 
HETATM    7  C4  UNL     1       2.069   1.990   1.001  1.00  0.00     0.122 C 
HETATM    8  C5  UNL     1       0.710   2.513   1.358  1.00  0.00     0.074 C 
HETATM    9  C6  UNL     1      -0.313   2.040   0.347  1.00  0.00     0.018 C 
HETATM   10  N3  UNL     1      -1.377   1.684   0.981  1.00  0.00    -0.237 NA
HETATM   11  C7  UNL     1      -2.583   1.180   0.458  1.00  0.00     0.163 A 
HETATM   12  N4  UNL     1      -3.797   1.775   0.307  1.00  0.00    -0.222 NA
HETATM   13  C8  UNL     1      -4.848   1.120  -0.213  1.00  0.00     0.236 A 
HETATM   14  N5  UNL     1      -4.827  -0.160  -0.634  1.00  0.00    -0.241 NA
HETATM   15  C9  UNL     1      -3.654  -0.810  -0.514  1.00  0.00     0.072 A 
HETATM   16  C10 UNL     1      -3.499  -2.121  -0.913  1.00  0.00     0.035 A 
HETATM   17  C11 UNL     1      -2.342  -2.861  -0.834  1.00  0.00     0.031 A 
HETATM   18  C12 UNL     1      -1.272  -2.186  -0.302  1.00  0.00     0.033 A 
HETATM   19  C13 UNL     1      -1.407  -0.881   0.102  1.00  0.00     0.047 A 
HETATM   20  C14 UNL     1      -2.553  -0.153   0.022  1.00  0.00     0.043 A 
HETATM   21  N6  UNL     1      -0.036  -2.885  -0.236  1.00  0.00    -0.325 N 
HETATM   22  C15 UNL     1       0.282   2.167  -1.006  1.00  0.00     0.074 C 
HETATM   23  C16 UNL     1       1.389   1.167  -1.146  1.00  0.00     0.122 C 
HETATM   24  H1  UNL     1       2.997  -3.188   0.205  1.00  0.00     0.324 HD
HETATM   25  H14 UNL     1       0.021  -3.916  -0.465  1.00  0.00     0.164 HD
ENDROOT
TORSDOF 0
