REMARK  9 active torsions:
REMARK  status: ('A' for Active; 'I' for Inactive)
REMARK       I    between atoms: C1_2  and  N1_3 
REMARK       I    between atoms: C1_2  and  N3_12 
REMARK    1  A    between atoms: N1_3  and  C2_4 
REMARK    2  A    between atoms: C2_4  and  C3_5 
REMARK    3  A    between atoms: C3_5  and  N2_6 
REMARK    4  A    between atoms: N3_12  and  C8_13 
REMARK    5  A    between atoms: C13_20  and  C14_21 
REMARK    6  A    between atoms: C14_21  and  C15_22 
REMARK    7  A    between atoms: C14_21  and  C17_25 
REMARK    8  A    between atoms: C15_22  and  C16_23 
REMARK    9  A    between atoms: C17_25  and  C18_26 
ROOT
HETATM    1  C8  UNL     1       1.730  -1.196  -0.932  1.00  0.00     0.037 A 
HETATM    2  C9  UNL     1       1.566  -1.280  -2.299  1.00  0.00     0.032 A 
HETATM    3  C10 UNL     1       2.599  -0.828  -3.118  1.00  0.00     0.035 A 
HETATM    4  C11 UNL     1       3.741  -0.315  -2.538  1.00  0.00     0.070 A 
HETATM    5  N4  UNL     1       4.716   0.112  -3.393  1.00  0.00    -0.241 NA
HETATM    6  C12 UNL     1       5.853   0.623  -2.838  1.00  0.00     0.234 A 
HETATM    7  N5  UNL     1       6.043   0.718  -1.492  1.00  0.00    -0.240 NA
HETATM    8  C13 UNL     1       5.089   0.300  -0.632  1.00  0.00     0.089 A 
HETATM    9  C19 UNL     1       3.934  -0.218  -1.186  1.00  0.00     0.025 A 
HETATM   10  C20 UNL     1       2.894  -0.674  -0.403  1.00  0.00     0.045 A 
ENDROOT
BRANCH   1  11
HETATM   11  N3  UNL     1       0.633  -1.678  -0.164  1.00  0.00    -0.309 N 
HETATM   12  C1  UNL     1      -0.453  -0.867   0.250  1.00  0.00     0.320 C 
HETATM   13  O1  UNL     1      -0.430   0.329  -0.086  1.00  0.00    -0.247 OA
HETATM   14  N1  UNL     1      -1.498  -1.413   1.007  1.00  0.00    -0.341 N 
HETATM   15  H1  UNL     1      -1.442  -2.443   1.254  1.00  0.00     0.164 HD
HETATM   16  H14 UNL     1       0.703  -2.711   0.075  1.00  0.00     0.170 HD
BRANCH  14  17
HETATM   17  C2  UNL     1      -2.656  -0.683   1.484  1.00  0.00     0.154 C 
BRANCH  17  18
HETATM   18  C3  UNL     1      -3.396  -0.137   0.305  1.00  0.00     0.292 C 
BRANCH  18  19
HETATM   19  N2  UNL     1      -4.571   0.610   0.659  1.00  0.00     0.094 N 
HETATM   20  C4  UNL     1      -5.615  -0.189   1.218  1.00  0.00     0.298 C 
HETATM   21  C5  UNL     1      -6.925   0.518   1.354  1.00  0.00     0.198 C 
HETATM   22  O2  UNL     1      -7.323   1.219   0.227  1.00  0.00    -0.388 OA
HETATM   23  C6  UNL     1      -6.388   1.139  -0.800  1.00  0.00     0.198 C 
HETATM   24  C7  UNL     1      -5.004   1.536  -0.335  1.00  0.00     0.298 C 
ENDBRANCH  18  19
ENDBRANCH  17  18
ENDBRANCH  14  17
ENDBRANCH   1  11
BRANCH   8  25
HETATM   25  C14 UNL     1       5.267   0.388   0.775  1.00  0.00     0.042 C 
BRANCH  25  26
HETATM   26  C15 UNL     1       5.364  -0.804   1.312  1.00  0.00    -0.085 C 
BRANCH  26  27
HETATM   27  C16 UNL     1       5.464  -1.938   1.985  1.00  0.00     0.244 C 
HETATM   28  F1  UNL     1       4.268  -2.388   2.383  1.00  0.00    -0.211 F 
ENDBRANCH  26  27
ENDBRANCH  25  26
BRANCH  25  29
HETATM   29  C17 UNL     1       5.349   1.525   1.632  1.00  0.00     0.034 C 
BRANCH  29  30
HETATM   30  C18 UNL     1       5.273   2.796   1.278  1.00  0.00     0.086 C 
HETATM   31 CL1  UNL     1       5.371   4.220   2.307  1.00  0.00    -0.097 Cl
ENDBRANCH  29  30
ENDBRANCH  25  29
ENDBRANCH   8  25
TORSDOF 9
