REMARK  3 active torsions:
REMARK  status: ('A' for Active; 'I' for Inactive)
REMARK       I    between atoms: C1_2  and  N1_3 
REMARK       I    between atoms: C1_2  and  N4_21 
REMARK    1  A    between atoms: N1_3  and  C2_4 
REMARK    2  A    between atoms: N3_11  and  C8_12 
REMARK    3  A    between atoms: N4_21  and  C16_22 
ROOT
HETATM    1  C2  UNL     1      -0.499  -2.365  -0.143  1.00  0.00     0.034 C 
HETATM    2  C3  UNL     1      -0.737  -3.385  -0.987  1.00  0.00     0.005 C 
HETATM    3  C4  UNL     1      -1.671  -3.495  -2.139  1.00  0.00     0.063 C 
HETATM    4  C5  UNL     1      -2.611  -2.353  -2.211  1.00  0.00     0.160 C 
HETATM    5  N2  UNL     1      -2.736  -1.846  -3.546  1.00  0.00    -0.292 NA
HETATM    6  C6  UNL     1      -3.495  -0.800  -3.769  1.00  0.00     0.104 C 
HETATM    7  C7  UNL     1      -4.135  -0.297  -2.489  1.00  0.00     0.175 C 
HETATM    8  N3  UNL     1      -3.021  -0.108  -1.566  1.00  0.00    -0.344 N 
HETATM    9  C14 UNL     1      -2.199  -1.238  -1.309  1.00  0.00     0.039 C 
HETATM   10  C15 UNL     1      -1.317  -1.178  -0.341  1.00  0.00     0.056 C 
ENDROOT
BRANCH   1  11
HETATM   11  N1  UNL     1       0.428  -2.311   0.962  1.00  0.00    -0.309 N 
HETATM   12  C1  UNL     1       1.383  -1.265   0.759  1.00  0.00     0.321 C 
HETATM   13  O1  UNL     1       1.211  -0.643  -0.304  1.00  0.00    -0.247 OA
HETATM   14  N4  UNL     1       2.427  -0.971   1.686  1.00  0.00    -0.336 N 
HETATM   15  H14 UNL     1       2.472  -1.563   2.545  1.00  0.00     0.164 HD
HETATM   16  H1  UNL     1       0.499  -2.896   1.845  1.00  0.00     0.170 HD
BRANCH  14  17
HETATM   17  C16 UNL     1       3.387   0.094   1.462  1.00  0.00     0.112 C 
HETATM   18  C17 UNL     1       3.300   1.099   2.563  1.00  0.00     0.138 C 
HETATM   19  N5  UNL     1       4.362   2.021   2.657  1.00  0.00    -0.428 N 
HETATM   20  C18 UNL     1       5.286   2.048   1.560  1.00  0.00     0.057 C 
HETATM   21  H18 UNL     1       4.857   2.114   3.547  1.00  0.00     0.152 HD
HETATM   22  B1  UNL     1       5.902   0.565   1.482  1.00  0.00     0.202 B 
HETATM   23  C19 UNL     1       4.746  -0.536   1.317  1.00  0.00     0.062 C 
HETATM   24  H21 UNL     1       6.717   0.333   2.309  1.00  0.00    -0.023 HD
HETATM   25 CL1  UNL     1       4.898  -1.863   2.456  1.00  0.00    -0.134 Cl
ENDBRANCH  14  17
ENDBRANCH   1  11
BRANCH   8  26
HETATM   26  C8  UNL     1      -2.872   1.179  -1.013  1.00  0.00     0.035 A 
HETATM   27  C9  UNL     1      -4.065   1.772  -0.632  1.00  0.00     0.033 A 
HETATM   28  C10 UNL     1      -4.159   3.051  -0.080  1.00  0.00     0.044 A 
HETATM   29  C11 UNL     1      -3.014   3.781   0.105  1.00  0.00     0.116 A 
HETATM   30  F1  UNL     1      -2.953   5.028   0.628  1.00  0.00    -0.206 F 
HETATM   31  C12 UNL     1      -1.823   3.207  -0.267  1.00  0.00     0.044 A 
HETATM   32  C13 UNL     1      -1.752   1.947  -0.809  1.00  0.00     0.033 A 
ENDBRANCH   8  26
TORSDOF 3
