REMARK  5 active torsions:
REMARK  status: ('A' for Active; 'I' for Inactive)
REMARK    1  A    between atoms: C1_2  and  B1_3 
REMARK    2  A    between atoms: B1_3  and  N1_4 
REMARK    3  A    between atoms: N1_4  and  C2_5 
REMARK    4  A    between atoms: C7_12  and  N4_13 
REMARK    5  A    between atoms: N4_13  and  C8_14 
ROOT
HETATM    1  C2  UNL     1       2.510   0.547   0.223  1.00  0.00     0.034 A 
HETATM    2  C3  UNL     1       3.411  -0.494   0.131  1.00  0.00     0.032 A 
HETATM    3  C4  UNL     1       2.943  -1.791   0.139  1.00  0.00     0.035 A 
HETATM    4  C5  UNL     1       1.597  -2.124   0.236  1.00  0.00     0.072 A 
HETATM    5  N2  UNL     1       1.209  -3.397   0.248  1.00  0.00    -0.241 NA
HETATM    6  C6  UNL     1      -0.075  -3.720   0.350  1.00  0.00     0.236 A 
HETATM    7  N3  UNL     1      -1.015  -2.734   0.443  1.00  0.00    -0.224 NA
HETATM    8  C7  UNL     1      -0.614  -1.436   0.431  1.00  0.00     0.142 A 
HETATM    9  C14 UNL     1       0.712  -1.079   0.327  1.00  0.00     0.041 A 
HETATM   10  C15 UNL     1       1.174   0.216   0.319  1.00  0.00     0.047 A 
ENDROOT
BRANCH   8  11
HETATM   11  N4  UNL     1      -1.597  -0.423   0.541  1.00  0.00    -0.340 N 
HETATM   12  H5  UNL     1      -1.544  -0.077   1.521  1.00  0.00     0.167 HD
BRANCH  11  13
HETATM   13  C8  UNL     1      -2.611   0.352  -0.016  1.00  0.00     0.035 A 
HETATM   14  C9  UNL     1      -2.432   1.663  -0.398  1.00  0.00     0.032 A 
HETATM   15  C10 UNL     1      -3.490   2.370  -0.917  1.00  0.00     0.046 A 
HETATM   16  C11 UNL     1      -4.707   1.695  -1.025  1.00  0.00     0.138 A 
HETATM   17  F1  UNL     1      -5.747   2.382  -1.528  1.00  0.00    -0.204 F 
HETATM   18  C12 UNL     1      -4.925   0.390  -0.656  1.00  0.00     0.074 A 
HETATM   19 CL1  UNL     1      -6.522  -0.317  -0.851  1.00  0.00    -0.081 Cl
HETATM   20  C13 UNL     1      -3.833  -0.297  -0.135  1.00  0.00     0.056 A 
ENDBRANCH  11  13
ENDBRANCH   8  11
BRANCH   1  21
HETATM   21  N1  UNL     1       2.766   1.929   0.233  1.00  0.00    -0.353 NA
BRANCH  21  22
HETATM   22  B1  UNL     1       4.383   2.501  -0.194  1.00  0.00     0.380 B 
BRANCH  22  23
HETATM   23  C1  UNL     1       6.114   2.018  -0.716  1.00  0.00     0.195 C 
HETATM   24  O1  UNL     1       6.485   3.154  -1.160  1.00  0.00    -0.318 OA
ENDBRANCH  22  23
ENDBRANCH  21  22
ENDBRANCH   1  21
TORSDOF 5
