REMARK  6 active torsions:
REMARK  status: ('A' for Active; 'I' for Inactive)
REMARK       I    between atoms: C1_2  and  N1_3 
REMARK       I    between atoms: C1_2  and  N3_12 
REMARK    1  A    between atoms: N1_3  and  B1_4 
REMARK    2  A    between atoms: B1_4  and  C2_5 
REMARK    3  A    between atoms: C2_5  and  N2_6 
REMARK    4  A    between atoms: N3_12  and  C7_13 
REMARK    5  A    between atoms: C12_20  and  N6_21 
REMARK    6  A    between atoms: N6_21  and  C13_22 
ROOT
HETATM    1  C7  UNL     1      -0.549  -1.065  -0.312  1.00  0.00     0.037 A 
HETATM    2  C8  UNL     1      -0.255  -2.418  -0.444  1.00  0.00     0.032 A 
HETATM    3  C9  UNL     1      -1.222  -3.413  -0.398  1.00  0.00     0.035 A 
HETATM    4  C10 UNL     1      -2.531  -3.036  -0.214  1.00  0.00     0.072 A 
HETATM    5  N4  UNL     1      -3.557  -3.879  -0.151  1.00  0.00    -0.241 NA
HETATM    6  C11 UNL     1      -4.812  -3.516   0.017  1.00  0.00     0.236 A 
HETATM    7  N5  UNL     1      -5.105  -2.214   0.140  1.00  0.00    -0.224 NA
HETATM    8  C12 UNL     1      -4.092  -1.303   0.083  1.00  0.00     0.142 A 
HETATM    9  C19 UNL     1      -2.781  -1.669  -0.089  1.00  0.00     0.041 A 
HETATM   10  C20 UNL     1      -1.842  -0.663  -0.128  1.00  0.00     0.047 A 
ENDROOT
BRANCH   1  11
HETATM   11  N3  UNL     1       0.503  -0.117  -0.397  1.00  0.00    -0.309 N 
HETATM   12  C1  UNL     1       0.951   0.823  -1.407  1.00  0.00     0.325 C 
HETATM   13  O1  UNL     1       0.171   0.726  -2.386  1.00  0.00    -0.247 OA
HETATM   14  N1  UNL     1       2.129   1.454  -0.797  1.00  0.00    -0.311 NA
HETATM   15  H11 UNL     1       0.909  -0.297   0.564  1.00  0.00     0.170 HD
BRANCH  14  16
HETATM   16  B1  UNL     1       3.481   0.314  -0.592  1.00  0.00     0.345 B 
BRANCH  16  17
HETATM   17  C2  UNL     1       4.522  -1.103  -0.576  1.00  0.00     0.240 C 
BRANCH  17  18
HETATM   18  N2  UNL     1       5.752  -0.696   0.050  1.00  0.00     0.085 N 
HETATM   19  C3  UNL     1       6.441   0.250  -0.758  1.00  0.00     0.297 C 
HETATM   20  C4  UNL     1       6.900   1.504  -0.118  1.00  0.00     0.198 C 
HETATM   21  O2  UNL     1       6.021   1.868   0.912  1.00  0.00    -0.388 OA
HETATM   22  C5  UNL     1       6.194   0.876   1.891  1.00  0.00     0.198 C 
HETATM   23  C6  UNL     1       5.632  -0.409   1.433  1.00  0.00     0.297 C 
ENDBRANCH  17  18
ENDBRANCH  16  17
ENDBRANCH  14  16
ENDBRANCH   1  11
BRANCH   8  24
HETATM   24  N6  UNL     1      -4.518   0.015   0.146  1.00  0.00    -0.340 N 
HETATM   25  H15 UNL     1      -4.082   0.412  -0.746  1.00  0.00     0.167 HD
BRANCH  24  26
HETATM   26  C13 UNL     1      -5.099   1.240   0.463  1.00  0.00     0.035 A 
HETATM   27  C14 UNL     1      -4.483   2.427   0.843  1.00  0.00     0.032 A 
HETATM   28  C15 UNL     1      -5.292   3.518   1.064  1.00  0.00     0.046 A 
HETATM   29  C16 UNL     1      -6.631   3.395   0.906  1.00  0.00     0.138 A 
HETATM   30  F1  UNL     1      -7.366   4.498   1.129  1.00  0.00    -0.204 F 
HETATM   31  C17 UNL     1      -7.294   2.260   0.536  1.00  0.00     0.074 A 
HETATM   32 CL1  UNL     1      -9.043   2.210   0.361  1.00  0.00    -0.081 Cl
HETATM   33  C18 UNL     1      -6.480   1.157   0.313  1.00  0.00     0.056 A 
ENDBRANCH  24  26
ENDBRANCH   8  24
TORSDOF 6
