REMARK  5 active torsions:
REMARK  status: ('A' for Active; 'I' for Inactive)
REMARK    1  A    between atoms: C1_2  and  C2_3 
REMARK    2  A    between atoms: C2_3  and  N1_4 
REMARK    3  A    between atoms: N1_4  and  C3_5 
REMARK    4  A    between atoms: C8_12  and  N4_13 
REMARK    5  A    between atoms: N4_13  and  C9_14 
ROOT
HETATM    1  C3  UNL     1       2.770  -1.118   0.019  1.00  0.00     0.029 A 
HETATM    2  C4  UNL     1       2.987  -2.471  -0.119  1.00  0.00     0.031 A 
HETATM    3  C5  UNL     1       1.902  -3.317  -0.209  1.00  0.00     0.035 A 
HETATM    4  C6  UNL     1       0.628  -2.799  -0.161  1.00  0.00     0.072 A 
HETATM    5  N2  UNL     1      -0.372  -3.681  -0.256  1.00  0.00    -0.241 NA
HETATM    6  C7  UNL     1      -1.647  -3.253  -0.217  1.00  0.00     0.236 A 
HETATM    7  N3  UNL     1      -1.881  -1.945  -0.084  1.00  0.00    -0.224 NA
HETATM    8  C8  UNL     1      -0.951  -1.000   0.016  1.00  0.00     0.142 A 
HETATM    9  C15 UNL     1       0.341  -1.458  -0.025  1.00  0.00     0.041 A 
HETATM   10  C16 UNL     1       1.466  -0.672   0.059  1.00  0.00     0.046 A 
ENDROOT
BRANCH   8  11
HETATM   11  N4  UNL     1      -1.191   0.367   0.155  1.00  0.00    -0.340 N 
HETATM   12  H8  UNL     1      -0.416   1.054   0.236  1.00  0.00     0.167 HD
BRANCH  11  13
HETATM   13  C9  UNL     1      -2.403   1.080   0.214  1.00  0.00     0.033 A 
HETATM   14  C10 UNL     1      -2.539   2.456   0.408  1.00  0.00     0.032 A 
HETATM   15  C11 UNL     1      -3.748   3.109   0.456  1.00  0.00     0.044 A 
HETATM   16  C12 UNL     1      -4.925   2.416   0.310  1.00  0.00     0.116 A 
HETATM   17  F1  UNL     1      -6.043   3.173   0.377  1.00  0.00    -0.206 F 
HETATM   18  C13 UNL     1      -4.845   1.054   0.116  1.00  0.00     0.044 A 
HETATM   19  C14 UNL     1      -3.613   0.438   0.075  1.00  0.00     0.032 A 
ENDBRANCH  11  13
ENDBRANCH   8  11
BRANCH   1  20
HETATM   20  N1  UNL     1       3.870  -0.198   0.117  1.00  0.00    -0.384 N 
HETATM   21  H4  UNL     1       4.836  -0.591   0.081  1.00  0.00     0.160 HD
BRANCH  20  22
HETATM   22  C2  UNL     1       3.629   1.234   0.263  1.00  0.00     0.189 C 
BRANCH  22  23
HETATM   23  C1  UNL     1       4.942   1.912   0.338  1.00  0.00     0.250 C 
HETATM   24  O1  UNL     1       4.925   3.122   0.461  1.00  0.00    -0.305 OA
ENDBRANCH  22  23
ENDBRANCH  20  22
ENDBRANCH   1  20
TORSDOF 5
