REMARK  7 active torsions:
REMARK  status: ('A' for Active; 'I' for Inactive)
REMARK       I    between atoms: C1_2  and  N1_3 
REMARK       I    between atoms: C1_2  and  N3_12 
REMARK    1  A    between atoms: N1_3  and  C2_4 
REMARK    2  A    between atoms: C2_4  and  C3_5 
REMARK    3  A    between atoms: C3_5  and  N2_6 
REMARK    4  A    between atoms: C11_15  and  N4_16 
REMARK    5  A    between atoms: C12_17  and  N5_18 
REMARK    6  A    between atoms: C13_19  and  N6_20 
REMARK    7  A    between atoms: N6_20  and  C14_21 
ROOT
HETATM    1  O1  UNL     1      -1.892   2.939   1.209  1.00  0.00    -0.247 OA
HETATM    2  C1  UNL     1      -1.280   2.495   0.205  1.00  0.00     0.322 C 
HETATM    3  N1  UNL     1      -1.988   2.062  -0.961  1.00  0.00    -0.341 N 
HETATM    4  N3  UNL     1       0.162   2.429   0.251  1.00  0.00    -0.303 N 
HETATM    5  C9  UNL     1       0.932   2.860   1.422  1.00  0.00     0.089 C 
HETATM    6  C10 UNL     1       1.746   1.835   1.119  1.00  0.00     0.081 A 
HETATM    7  C11 UNL     1       2.391   0.681   0.508  1.00  0.00     0.052 A 
HETATM    8  C20 UNL     1       2.020   0.947  -0.725  1.00  0.00     0.029 A 
HETATM    9  C21 UNL     1       1.351   2.132  -0.314  1.00  0.00     0.139 A 
HETATM   10  H1  UNL     1      -1.365   1.710  -1.735  1.00  0.00     0.164 HD
ENDROOT
BRANCH   7  11
HETATM   11  N4  UNL     1       3.140  -0.298   1.240  1.00  0.00    -0.245 NA
HETATM   12  C12 UNL     1       3.101  -1.536   0.906  1.00  0.00     0.234 C 
BRANCH  12  13
HETATM   13  N5  UNL     1       3.384  -2.921   0.950  1.00  0.00    -0.237 NA
HETATM   14  C13 UNL     1       4.516  -3.357   0.553  1.00  0.00     0.208 C 
BRANCH  14  15
HETATM   15  N6  UNL     1       5.779  -3.045   0.019  1.00  0.00    -0.351 N 
HETATM   16  H19 UNL     1       6.231  -3.941  -0.195  1.00  0.00     0.166 HD
BRANCH  15  17
HETATM   17  C14 UNL     1       5.830  -1.625   0.029  1.00  0.00     0.034 A 
HETATM   18  C15 UNL     1       5.390  -0.915  -1.074  1.00  0.00     0.032 A 
HETATM   19  C16 UNL     1       5.471   0.467  -1.003  1.00  0.00     0.046 A 
HETATM   20  C17 UNL     1       5.976   1.046   0.142  1.00  0.00     0.138 A 
HETATM   21  F1  UNL     1       6.060   2.402   0.221  1.00  0.00    -0.204 F 
HETATM   22  C18 UNL     1       6.411   0.332   1.235  1.00  0.00     0.074 A 
HETATM   23 CL1  UNL     1       7.043   1.164   2.660  1.00  0.00    -0.081 Cl
HETATM   24  C19 UNL     1       6.338  -1.048   1.183  1.00  0.00     0.056 A 
ENDBRANCH  15  17
ENDBRANCH  14  15
ENDBRANCH  12  13
ENDBRANCH   7  11
BRANCH   3  25
HETATM   25  C2  UNL     1      -3.413   2.081  -1.118  1.00  0.00     0.154 C 
BRANCH  25  26
HETATM   26  C3  UNL     1      -4.052   1.229  -0.077  1.00  0.00     0.292 C 
BRANCH  26  27
HETATM   27  N2  UNL     1      -3.654  -0.153  -0.107  1.00  0.00     0.090 N 
HETATM   28  C4  UNL     1      -4.121  -0.854  -1.271  1.00  0.00     0.272 C 
HETATM   29  C5  UNL     1      -5.597  -0.701  -1.492  1.00  0.00     0.030 C 
HETATM   30  C6  UNL     1      -6.288  -1.145  -0.232  1.00  0.00     0.003 C 
HETATM   31  C7  UNL     1      -5.350  -1.697   0.811  1.00  0.00     0.030 C 
HETATM   32  C8  UNL     1      -4.204  -0.780   1.095  1.00  0.00     0.272 C 
ENDBRANCH  26  27
ENDBRANCH  25  26
ENDBRANCH   3  25
TORSDOF 7
