REMARK  6 active torsions:
REMARK  status: ('A' for Active; 'I' for Inactive)
REMARK       I    between atoms: C1_2  and  N1_3 
REMARK       I    between atoms: C1_2  and  N3_12 
REMARK    1  A    between atoms: N1_3  and  C2_4 
REMARK    2  A    between atoms: C2_4  and  C3_5 
REMARK    3  A    between atoms: C3_5  and  N2_6 
REMARK    4  A    between atoms: N3_12  and  C9_13 
REMARK    5  A    between atoms: C13_18  and  N5_19 
REMARK    6  A    between atoms: N5_19  and  C14_20 
ROOT
HETATM    1  C9  UNL     1       1.344  -0.192   1.003  1.00  0.00     0.048 A 
HETATM    2  C10 UNL     1       2.033  -0.794   0.065  1.00  0.00     0.002 A 
HETATM    3  C11 UNL     1       2.218  -1.579  -1.147  1.00  0.00     0.031 A 
HETATM    4  C12 UNL     1       3.454  -1.845  -1.582  1.00  0.00     0.086 A 
HETATM    5  N4  UNL     1       4.660  -1.408  -0.936  1.00  0.00    -0.374 N 
HETATM    6  C13 UNL     1       4.672  -0.622   0.276  1.00  0.00     0.216 A 
HETATM    7  C20 UNL     1       3.281  -0.372   0.689  1.00  0.00    -0.002 A 
HETATM    8  C21 UNL     1       2.571   0.240   1.642  1.00  0.00     0.042 A 
HETATM    9  H19 UNL     1       5.459  -1.762  -1.503  1.00  0.00     0.161 HD
ENDROOT
BRANCH   1  10
HETATM   10  N3  UNL     1      -0.018   0.016   1.347  1.00  0.00    -0.308 N 
HETATM   11  C1  UNL     1      -1.135  -0.469   0.622  1.00  0.00     0.320 C 
HETATM   12  O1  UNL     1      -0.974  -1.144  -0.417  1.00  0.00    -0.247 OA
HETATM   13  N1  UNL     1      -2.480  -0.257   0.970  1.00  0.00    -0.341 N 
HETATM   14  H1  UNL     1      -2.692   0.311   1.844  1.00  0.00     0.164 HD
HETATM   15  H16 UNL     1      -0.312   0.553   2.179  1.00  0.00     0.170 HD
BRANCH  13  16
HETATM   16  C2  UNL     1      -3.515  -0.834   0.101  1.00  0.00     0.154 C 
BRANCH  16  17
HETATM   17  C3  UNL     1      -4.845  -0.450   0.708  1.00  0.00     0.292 C 
BRANCH  17  18
HETATM   18  N2  UNL     1      -5.979  -0.946  -0.035  1.00  0.00     0.090 N 
HETATM   19  C4  UNL     1      -6.121  -0.323  -1.316  1.00  0.00     0.272 C 
HETATM   20  C5  UNL     1      -6.338   1.160  -1.261  1.00  0.00     0.030 C 
HETATM   21  C6  UNL     1      -7.408   1.483  -0.243  1.00  0.00     0.003 C 
HETATM   22  C7  UNL     1      -8.120   0.239   0.190  1.00  0.00     0.030 C 
HETATM   23  C8  UNL     1      -7.148  -0.730   0.810  1.00  0.00     0.272 C 
ENDBRANCH  17  18
ENDBRANCH  16  17
ENDBRANCH  13  16
ENDBRANCH   1  10
BRANCH   6  24
HETATM   24  N5  UNL     1       5.389   0.597   0.042  1.00  0.00    -0.365 N 
HETATM   25  H21 UNL     1       4.819   1.495   0.103  1.00  0.00     0.162 HD
BRANCH  24  26
HETATM   26  C14 UNL     1       6.749   0.802  -0.261  1.00  0.00     0.031 A 
HETATM   27  C15 UNL     1       7.312   2.042  -0.490  1.00  0.00     0.032 A 
HETATM   28  C16 UNL     1       8.641   2.202  -0.772  1.00  0.00     0.046 A 
HETATM   29  C17 UNL     1       9.500   1.132  -0.844  1.00  0.00     0.138 A 
HETATM   30  F1  UNL     1      10.792   1.382  -1.127  1.00  0.00    -0.204 F 
HETATM   31  C18 UNL     1       8.969  -0.114  -0.621  1.00  0.00     0.074 A 
HETATM   32 CL1  UNL     1      10.088  -1.464  -0.719  1.00  0.00    -0.081 Cl
HETATM   33  C19 UNL     1       7.618  -0.260  -0.336  1.00  0.00     0.056 A 
ENDBRANCH  24  26
ENDBRANCH   6  24
TORSDOF 6
