REMARK  5 active torsions:
REMARK  status: ('A' for Active; 'I' for Inactive)
REMARK    1  A    between atoms: C5_7  and  C6_8 
REMARK    2  A    between atoms: C7_9  and  N3_10 
REMARK       I    between atoms: N3_10  and  C8_11 
REMARK       I    between atoms: C8_11  and  N4_13 
REMARK    3  A    between atoms: N4_13  and  C9_14 
REMARK    4  A    between atoms: C9_14  and  C10_15 
REMARK    5  A    between atoms: C10_15  and  N5_16 
ROOT
HETATM    1  N3  UNL     1       1.974  -0.636  -1.429  1.00  0.00    -0.319 N 
HETATM    2  C8  UNL     1       0.709  -0.413  -0.822  1.00  0.00     0.320 C 
HETATM    3  O1  UNL     1       0.527   0.235   0.263  1.00  0.00    -0.247 OA
HETATM    4  N4  UNL     1      -0.487  -0.928  -1.425  1.00  0.00    -0.341 N 
HETATM    5  H8  UNL     1       2.033  -1.161  -2.312  1.00  0.00     0.170 HD
HETATM    6  H9  UNL     1      -0.320  -1.457  -2.304  1.00  0.00     0.164 HD
ENDROOT
BRANCH   1   7
HETATM    7  C7  UNL     1       3.139  -0.160  -0.856  1.00  0.00     0.093 C 
HETATM    8  C6  UNL     1       3.790   0.456   0.076  1.00  0.00     0.032 C 
BRANCH   8   9
HETATM    9  C5  UNL     1       4.967   0.962   0.698  1.00  0.00     0.007 A 
HETATM   10  C2  UNL     1       6.194   0.822   0.091  1.00  0.00     0.043 A 
HETATM   11  C1  UNL     1       6.445   0.192  -1.224  1.00  0.00     0.071 C 
HETATM   12  N1  UNL     1       7.259   1.325   0.782  1.00  0.00    -0.246 NA
HETATM   13  C3  UNL     1       7.053   1.905   1.967  1.00  0.00     0.232 A 
HETATM   14  N2  UNL     1       5.839   2.040   2.559  1.00  0.00    -0.253 NA
HETATM   15  C4  UNL     1       4.735   1.567   1.939  1.00  0.00     0.131 A 
ENDBRANCH   8   9
ENDBRANCH   1   7
BRANCH   4  16
HETATM   16  C9  UNL     1      -1.728  -0.618  -0.695  1.00  0.00     0.154 C 
BRANCH  16  17
HETATM   17  C10 UNL     1      -2.832  -1.261  -1.466  1.00  0.00     0.292 C 
BRANCH  17  18
HETATM   18  N5  UNL     1      -4.149  -1.075  -0.939  1.00  0.00     0.090 N 
HETATM   19  C11 UNL     1      -4.612   0.287  -1.056  1.00  0.00     0.272 C 
HETATM   20  C12 UNL     1      -4.659   1.053   0.220  1.00  0.00     0.030 C 
HETATM   21  C13 UNL     1      -5.649   0.365   1.138  1.00  0.00     0.003 C 
HETATM   22  C14 UNL     1      -5.491  -1.116   1.120  1.00  0.00     0.030 C 
HETATM   23  C15 UNL     1      -4.241  -1.578   0.412  1.00  0.00     0.272 C 
ENDBRANCH  17  18
ENDBRANCH  16  17
ENDBRANCH   4  16
TORSDOF 5
