REMARK  6 active torsions:
REMARK  status: ('A' for Active; 'I' for Inactive)
REMARK    1  A    between atoms: O1_2  and  C2_3 
REMARK    2  A    between atoms: C5_6  and  C6_7 
REMARK    3  A    between atoms: C6_7  and  N1_8 
REMARK    4  A    between atoms: C7_9  and  O2_10 
REMARK    5  A    between atoms: O2_10  and  C8_11 
REMARK    6  A    between atoms: C9_13  and  N3_14 
ROOT
HETATM    1  C8  UNL     1       0.495  -0.917   1.294  1.00  0.00     0.251 A 
HETATM    2  N2  UNL     1       0.938   0.133   0.722  1.00  0.00    -0.203 NA
HETATM    3  C9  UNL     1       2.009   0.932   1.226  1.00  0.00     0.342 A 
HETATM    4  N4  UNL     1       2.587   0.470   2.466  1.00  0.00    -0.237 NA
HETATM    5  C15 UNL     1       2.121  -0.591   3.019  1.00  0.00     0.208 A 
HETATM    6  N5  UNL     1       1.054  -1.379   2.508  1.00  0.00    -0.315 N 
HETATM    7  H17 UNL     1       0.664  -2.240   2.941  1.00  0.00     0.170 HD
ENDROOT
BRANCH   1   8
HETATM    8  O2  UNL     1      -0.534  -1.492   0.599  1.00  0.00    -0.278 OA
BRANCH   8   9
HETATM    9  C7  UNL     1      -1.616  -0.815   0.056  1.00  0.00     0.090 A 
HETATM   10  C5  UNL     1      -2.495  -1.685  -0.594  1.00  0.00     0.004 A 
HETATM   11  C4  UNL     1      -3.639  -1.151  -1.195  1.00  0.00     0.014 A 
HETATM   12  C3  UNL     1      -3.951   0.173  -1.186  1.00  0.00     0.037 A 
HETATM   13  C2  UNL     1      -3.061   1.001  -0.535  1.00  0.00     0.070 A 
HETATM   14  C16 UNL     1      -1.937   0.525   0.062  1.00  0.00     0.074 A 
BRANCH  10  15
HETATM   15  C6  UNL     1      -2.294  -3.165  -0.693  1.00  0.00     0.308 C 
BRANCH  15  16
HETATM   16  N1  UNL     1      -3.359  -3.786  -1.417  1.00  0.00     0.082 N 
HETATM   17  H8  UNL     1      -4.253  -3.700  -0.906  1.00  0.00     0.313 HD
HETATM   18  H9  UNL     1      -3.389  -3.542  -2.424  1.00  0.00     0.313 HD
ENDBRANCH  15  16
ENDBRANCH  10  15
BRANCH  13  19
HETATM   19  O1  UNL     1      -3.222   2.376  -0.428  1.00  0.00    -0.356 OA
HETATM   20  C1  UNL     1      -4.331   3.049  -0.988  1.00  0.00     0.210 C 
ENDBRANCH  13  19
ENDBRANCH   8   9
ENDBRANCH   1   8
BRANCH   3  21
HETATM   21  N3  UNL     1       3.135   0.991   0.281  1.00  0.00    -0.345 N 
HETATM   22  C10 UNL     1       3.728  -0.259  -0.043  1.00  0.00     0.108 A 
HETATM   23  C11 UNL     1       4.745  -0.296  -0.883  1.00  0.00     0.026 A 
HETATM   24 BR1  UNL     1       5.579  -1.937  -1.355  1.00  0.00    -0.050 Br
HETATM   25  C12 UNL     1       5.278   0.917  -1.490  1.00  0.00     0.018 A 
HETATM   26  C13 UNL     1       4.720   2.091  -1.184  1.00  0.00    -0.006 A 
HETATM   27  C14 UNL     1       3.588   2.278  -0.268  1.00  0.00     0.153 A 
ENDBRANCH   3  21
TORSDOF 6
