REMARK  4 active torsions:
REMARK  status: ('A' for Active; 'I' for Inactive)
REMARK    1  A    between atoms: C1_2  and  C2_3 
REMARK    2  A    between atoms: C2_3  and  N1_4 
REMARK    3  A    between atoms: C6_8  and  N2_9 
REMARK    4  A    between atoms: N2_9  and  C7_10 
ROOT
HETATM    1  N1  UNL     1       3.323   0.254   0.183  1.00  0.00     0.100 N 
HETATM    2  C3  UNL     1       2.499   0.781  -0.890  1.00  0.00     0.301 C 
HETATM    3  C4  UNL     1       1.057   0.813  -0.467  1.00  0.00     0.016 C 
HETATM    4  C5  UNL     1       0.632  -0.367  -0.028  1.00  0.00     0.012 A 
HETATM    5  C6  UNL     1      -0.744  -0.440   0.407  1.00  0.00     0.137 A 
HETATM    6  N3  UNL     1      -1.161  -1.601   0.854  1.00  0.00    -0.224 NA
HETATM    7  C13 UNL     1      -0.202  -2.674   0.859  1.00  0.00     0.229 A 
HETATM    8  N4  UNL     1       1.021  -2.662   0.480  1.00  0.00    -0.271 NA
HETATM    9  C14 UNL     1       1.601  -1.472  -0.032  1.00  0.00     0.174 A 
HETATM   10  C15 UNL     1       2.939  -1.092   0.546  1.00  0.00     0.305 C 
ENDROOT
BRANCH   5  11
HETATM   11  N2  UNL     1      -1.689   0.613   0.410  1.00  0.00    -0.340 N 
HETATM   12  H7  UNL     1      -1.270   1.566   0.476  1.00  0.00     0.167 HD
BRANCH  11  13
HETATM   13  C7  UNL     1      -3.091   0.479   0.336  1.00  0.00     0.035 A 
HETATM   14  C8  UNL     1      -3.853   1.654   0.397  1.00  0.00     0.032 A 
HETATM   15  C9  UNL     1      -5.225   1.689   0.340  1.00  0.00     0.046 A 
HETATM   16  C10 UNL     1      -5.929   0.525   0.216  1.00  0.00     0.138 A 
HETATM   17  F1  UNL     1      -7.275   0.609   0.164  1.00  0.00    -0.204 F 
HETATM   18  C11 UNL     1      -5.236  -0.665   0.150  1.00  0.00     0.074 A 
HETATM   19 CL1  UNL     1      -6.096  -2.157  -0.008  1.00  0.00    -0.081 Cl
HETATM   20  C12 UNL     1      -3.860  -0.631   0.213  1.00  0.00     0.056 A 
ENDBRANCH  11  13
ENDBRANCH   5  11
BRANCH   1  21
HETATM   21  C2  UNL     1       4.703   0.255  -0.175  1.00  0.00     0.341 C 
BRANCH  21  22
HETATM   22  C1  UNL     1       5.280   1.618  -0.301  1.00  0.00     0.261 C 
HETATM   23  O1  UNL     1       4.838   2.729  -0.174  1.00  0.00    -0.305 OA
ENDBRANCH  21  22
ENDBRANCH   1  21
TORSDOF 4
