REMARK  6 active torsions:
REMARK  status: ('A' for Active; 'I' for Inactive)
REMARK    1  A    between atoms: O1_2  and  C2_3 
REMARK    2  A    between atoms: C5_6  and  S1_7 
REMARK    3  A    between atoms: S1_7  and  N1_8 
REMARK    4  A    between atoms: N1_8  and  C6_9 
REMARK    5  A    between atoms: C6_9  and  C7_10 
REMARK    6  A    between atoms: C8_11  and  C9_13 
ROOT
HETATM    1  C2  UNL     1      -2.400  -2.186   0.403  1.00  0.00     0.069 C 
HETATM    2  C3  UNL     1      -1.084  -2.485   0.287  1.00  0.00     0.035 C 
HETATM    3  C4  UNL     1       0.254  -1.921   0.411  1.00  0.00     0.020 C 
HETATM    4  C5  UNL     1       0.859  -0.773   0.653  1.00  0.00     0.023 C 
HETATM    5  C10 UNL     1       0.515   0.692   0.541  1.00  0.00     0.215 C 
HETATM    6  O2  UNL     1      -0.771   0.737  -0.008  1.00  0.00    -0.385 OA
HETATM    7  C11 UNL     1      -1.151   2.082  -0.238  1.00  0.00     0.187 C 
HETATM    8  C12 UNL     1      -2.354   1.965  -1.194  1.00  0.00     0.144 C 
HETATM    9  N2  UNL     1      -3.314   1.170  -0.568  1.00  0.00    -0.395 N 
HETATM   10  C13 UNL     1      -3.983   1.773   0.501  1.00  0.00     0.145 C 
HETATM   11  C14 UNL     1      -3.764  -0.015  -1.175  1.00  0.00     0.287 C 
HETATM   12  O3  UNL     1      -4.372  -0.867  -0.213  1.00  0.00    -0.366 OA
HETATM   13  C15 UNL     1      -3.463  -1.237   0.728  1.00  0.00     0.234 C 
ENDROOT
BRANCH   4  14
HETATM   14  S1  UNL     1       2.658  -0.696   0.731  1.00  0.00    -0.022 SA
BRANCH  14  15
HETATM   15  N1  UNL     1       3.247   0.922   0.677  1.00  0.00    -0.357 N 
HETATM   16  H6  UNL     1       2.670   1.675   1.030  1.00  0.00     0.168 HD
BRANCH  15  17
HETATM   17  C6  UNL     1       4.007   1.226  -0.486  1.00  0.00     0.156 C 
BRANCH  17  18
HETATM   18  C7  UNL     1       5.210   0.337  -0.549  1.00  0.00     0.015 C 
HETATM   19  C8  UNL     1       6.550   0.231  -0.583  1.00  0.00     0.038 C 
HETATM   20 CL1  UNL     1       7.680  -1.125  -0.664  1.00  0.00    -0.087 Cl
BRANCH  19  21
HETATM   21  C9  UNL     1       7.401   1.457  -0.553  1.00  0.00     0.273 C 
HETATM   22  F1  UNL     1       6.648   2.603  -0.490  1.00  0.00    -0.250 F 
ENDBRANCH  19  21
ENDBRANCH  17  18
ENDBRANCH  15  17
ENDBRANCH  14  15
ENDBRANCH   4  14
BRANCH   1  23
HETATM   23  O1  UNL     1      -3.271  -3.248   0.105  1.00  0.00    -0.358 OA
HETATM   24  C1  UNL     1      -3.648  -4.171   1.119  1.00  0.00     0.209 C 
ENDBRANCH   1  23
TORSDOF 6
