REMARK  8 active torsions:
REMARK  status: ('A' for Active; 'I' for Inactive)
REMARK    1  A    between atoms: O1_2  and  C2_3 
REMARK    2  A    between atoms: C6_9  and  N3_10 
REMARK    3  A    between atoms: N3_10  and  C7_11 
REMARK    4  A    between atoms: C15_21  and  O2_22 
REMARK    5  A    between atoms: O2_22  and  C16_23 
REMARK    6  A    between atoms: C16_23  and  C17_24 
REMARK    7  A    between atoms: C17_24  and  C18_25 
REMARK    8  A    between atoms: C18_25  and  N4_26 
ROOT
HETATM    1  C2  UNL     1      -0.183  -3.460   1.289  1.00  0.00     0.103 A 
HETATM    2  C3  UNL     1       1.034  -3.443   1.985  1.00  0.00     0.072 A 
HETATM    3  C4  UNL     1       1.927  -2.415   1.772  1.00  0.00     0.075 A 
HETATM    4  N1  UNL     1       3.075  -2.460   2.471  1.00  0.00    -0.241 NA
HETATM    5  C5  UNL     1       3.994  -1.495   2.316  1.00  0.00     0.236 A 
HETATM    6  N2  UNL     1       3.722  -0.511   1.456  1.00  0.00    -0.224 NA
HETATM    7  C6  UNL     1       2.614  -0.389   0.725  1.00  0.00     0.142 A 
HETATM    8  C13 UNL     1       1.692  -1.379   0.897  1.00  0.00     0.042 A 
HETATM    9  C14 UNL     1       0.487  -1.459   0.251  1.00  0.00     0.057 A 
HETATM   10  C15 UNL     1      -0.478  -2.430   0.383  1.00  0.00     0.103 A 
ENDROOT
BRANCH   7  11
HETATM   11  N3  UNL     1       2.346   0.662  -0.183  1.00  0.00    -0.340 N 
HETATM   12  H6  UNL     1       1.472   0.708  -0.705  1.00  0.00     0.167 HD
BRANCH  11  13
HETATM   13  C7  UNL     1       3.144   1.777  -0.542  1.00  0.00     0.035 A 
HETATM   14  C8  UNL     1       2.755   2.794  -1.417  1.00  0.00     0.032 A 
HETATM   15  C9  UNL     1       3.563   3.855  -1.739  1.00  0.00     0.046 A 
HETATM   16  C10 UNL     1       4.825   3.979  -1.208  1.00  0.00     0.138 A 
HETATM   17  F1  UNL     1       5.532   5.065  -1.595  1.00  0.00    -0.204 F 
HETATM   18  C11 UNL     1       5.253   2.998  -0.338  1.00  0.00     0.074 A 
HETATM   19 CL1  UNL     1       6.866   3.199   0.310  1.00  0.00    -0.081 Cl
HETATM   20  C12 UNL     1       4.412   1.949  -0.041  1.00  0.00     0.056 A 
ENDBRANCH  11  13
ENDBRANCH   7  11
BRANCH  10  21
HETATM   21  O2  UNL     1      -1.680  -2.600  -0.193  1.00  0.00    -0.348 OA
BRANCH  21  22
HETATM   22  C16 UNL     1      -2.402  -1.876  -1.105  1.00  0.00     0.177 C 
BRANCH  22  23
HETATM   23  C17 UNL     1      -2.816  -0.482  -0.695  1.00  0.00     0.046 C 
BRANCH  23  24
HETATM   24  C18 UNL     1      -3.597   0.205  -1.799  1.00  0.00     0.121 C 
BRANCH  24  25
HETATM   25  N4  UNL     1      -3.977   1.500  -1.397  1.00  0.00    -0.390 N 
HETATM   26  C19 UNL     1      -2.967   2.479  -1.223  1.00  0.00     0.145 C 
HETATM   27  C20 UNL     1      -3.591   3.455  -0.238  1.00  0.00     0.189 C 
HETATM   28  O3  UNL     1      -4.656   2.816   0.345  1.00  0.00    -0.371 OA
HETATM   29  C21 UNL     1      -4.932   1.642  -0.360  1.00  0.00     0.287 C 
ENDBRANCH  24  25
ENDBRANCH  23  24
ENDBRANCH  22  23
ENDBRANCH  21  22
ENDBRANCH  10  21
BRANCH   1  30
HETATM   30  O1  UNL     1      -1.052  -4.519   1.539  1.00  0.00    -0.353 OA
HETATM   31  C1  UNL     1      -0.645  -5.496   2.472  1.00  0.00     0.210 C 
ENDBRANCH   1  30
TORSDOF 8
