REMARK  1 active torsions:
REMARK  status: ('A' for Active; 'I' for Inactive)
REMARK    1  A    between atoms: N1_2  and  C2_3 
ROOT
HETATM    1  C2  UNL     1      -0.421   1.106  -0.936  1.00  0.00     0.248 C 
HETATM    2  C3  UNL     1      -1.063   0.621   0.327  1.00  0.00     0.045 C 
HETATM    3  C4  UNL     1      -1.000   0.707   1.599  1.00  0.00    -0.041 C 
HETATM    4  C5  UNL     1      -0.568   1.853   2.402  1.00  0.00     0.008 C 
HETATM    5  C6  UNL     1      -0.558   3.196   2.263  1.00  0.00     0.002 C 
HETATM    6  C7  UNL     1      -0.742   3.959   1.005  1.00  0.00     0.017 C 
HETATM    7  C8  UNL     1      -0.703   3.732  -0.306  1.00  0.00     0.085 C 
HETATM    8  N2  UNL     1      -0.414   2.516  -0.958  1.00  0.00    -0.362 N 
HETATM    9  C9  UNL     1      -1.310  -0.230   2.906  1.00  0.00     0.100 A 
HETATM   10  C10 UNL     1      -0.601  -0.922   2.971  1.00  0.00    -0.028 A 
HETATM   11  S1  UNL     1       0.046  -1.561   3.006  1.00  0.00    -0.195 SA
HETATM   12  C11 UNL     1       0.897  -2.413   3.024  1.00  0.00     0.040 A 
HETATM   13  C12 UNL     1      -0.246  -1.701   1.803  1.00  0.00     0.093 A 
HETATM   14  C13 UNL     1       1.135  -3.235   1.793  1.00  0.00     0.065 C 
HETATM   15  C14 UNL     1       1.297  -4.084   0.839  1.00  0.00     0.052 C 
HETATM   16 CL1  UNL     1       1.258  -5.747   0.306  1.00  0.00    -0.086 Cl
HETATM   17  C15 UNL     1       1.691  -3.330  -0.328  1.00  0.00     0.102 A 
HETATM   18  F1  UNL     1       1.797  -3.742  -1.666  1.00  0.00    -0.359 F 
HETATM   19  C16 UNL     1       2.012  -2.296  -1.070  1.00  0.00     0.195 A 
HETATM   20  C17 UNL     1       2.401  -1.195  -2.050  1.00  0.00     0.041 C 
HETATM   21  C18 UNL     1       1.211  -0.245  -2.153  1.00  0.00     0.008 C 
HETATM   22  C19 UNL     1       0.958   0.484  -0.881  1.00  0.00     0.069 C 
HETATM   23  H10 UNL     1       0.014   2.700  -1.920  1.00  0.00     0.161 HD
ENDROOT
BRANCH   1  24
HETATM   24  N1  UNL     1      -1.155   0.486  -2.012  1.00  0.00     0.112 N 
HETATM   25  C1  UNL     1      -2.551   0.820  -2.028  1.00  0.00     0.310 C 
HETATM   26  H4  UNL     1      -0.743   0.777  -2.900  1.00  0.00     0.319 HD
ENDBRANCH   1  24
TORSDOF 1
