REMARK  8 active torsions:
REMARK  status: ('A' for Active; 'I' for Inactive)
REMARK    1  A    between atoms: O1_2  and  C2_3 
REMARK    2  A    between atoms: C6_9  and  N3_10 
REMARK    3  A    between atoms: N3_10  and  C7_11 
REMARK    4  A    between atoms: C15_21  and  O2_22 
REMARK    5  A    between atoms: O2_22  and  C16_23 
REMARK    6  A    between atoms: C16_23  and  C17_24 
REMARK    7  A    between atoms: C17_24  and  C18_25 
REMARK    8  A    between atoms: C18_25  and  N4_26 
ROOT
HETATM    1  C2  UNL     1       0.660  -2.690   1.562  1.00  0.00     0.103 A 
HETATM    2  C3  UNL     1       1.882  -3.291   1.765  1.00  0.00     0.072 A 
HETATM    3  C4  UNL     1       3.021  -2.788   1.166  1.00  0.00     0.075 A 
HETATM    4  N1  UNL     1       4.238  -3.337   1.321  1.00  0.00    -0.241 NA
HETATM    5  C5  UNL     1       5.307  -2.797   0.697  1.00  0.00     0.236 A 
HETATM    6  N2  UNL     1       5.117  -1.709  -0.072  1.00  0.00    -0.224 NA
HETATM    7  C6  UNL     1       3.927  -1.119  -0.262  1.00  0.00     0.142 A 
HETATM    8  C13 UNL     1       2.835  -1.667   0.372  1.00  0.00     0.042 A 
HETATM    9  C14 UNL     1       1.626  -1.061   0.163  1.00  0.00     0.057 A 
HETATM   10  C15 UNL     1       0.495  -1.567   0.762  1.00  0.00     0.103 A 
ENDROOT
BRANCH   7  11
HETATM   11  N3  UNL     1       3.898   0.015  -1.114  1.00  0.00    -0.340 N 
HETATM   12  H6  UNL     1       3.549  -0.092  -2.089  1.00  0.00     0.167 HD
BRANCH  11  13
HETATM   13  C7  UNL     1       4.328   1.298  -0.685  1.00  0.00     0.035 A 
HETATM   14  C8  UNL     1       4.855   1.576   0.554  1.00  0.00     0.032 A 
HETATM   15  C9  UNL     1       5.287   2.826   0.963  1.00  0.00     0.046 A 
HETATM   16  C10 UNL     1       5.160   3.833   0.029  1.00  0.00     0.138 A 
HETATM   17  F1  UNL     1       5.582   5.084   0.405  1.00  0.00    -0.204 F 
HETATM   18  C11 UNL     1       4.647   3.670  -1.240  1.00  0.00     0.074 A 
HETATM   19 CL1  UNL     1       4.501   4.957  -2.386  1.00  0.00    -0.081 Cl
HETATM   20  C12 UNL     1       4.252   2.385  -1.529  1.00  0.00     0.056 A 
ENDBRANCH  11  13
ENDBRANCH   7  11
BRANCH  10  21
HETATM   21  O2  UNL     1      -0.806  -1.148   0.708  1.00  0.00    -0.348 OA
BRANCH  21  22
HETATM   22  C16 UNL     1      -1.300  -0.042  -0.007  1.00  0.00     0.177 C 
BRANCH  22  23
HETATM   23  C17 UNL     1      -2.795   0.001   0.247  1.00  0.00     0.057 C 
BRANCH  23  24
HETATM   24  C18 UNL     1      -3.373   1.165  -0.488  1.00  0.00     0.274 C 
BRANCH  24  25
HETATM   25  N4  UNL     1      -4.782   1.316  -0.331  1.00  0.00     0.088 N 
HETATM   26  C19 UNL     1      -5.282   2.457  -1.035  1.00  0.00     0.272 C 
HETATM   27  C20 UNL     1      -6.306   2.012  -2.039  1.00  0.00     0.032 C 
HETATM   28  C21 UNL     1      -6.074   0.495  -2.112  1.00  0.00     0.032 C 
HETATM   29  C22 UNL     1      -5.596   0.228  -0.726  1.00  0.00     0.272 C 
ENDBRANCH  24  25
ENDBRANCH  23  24
ENDBRANCH  22  23
ENDBRANCH  21  22
ENDBRANCH  10  21
BRANCH   1  30
HETATM   30  O1  UNL     1      -0.378  -3.313   2.231  1.00  0.00    -0.353 OA
HETATM   31  C1  UNL     1      -0.201  -4.442   3.042  1.00  0.00     0.210 C 
ENDBRANCH   1  30
TORSDOF 8
