REMARK  7 active torsions:
REMARK  status: ('A' for Active; 'I' for Inactive)
REMARK    1  A    between atoms: C4_5  and  N1_6 
REMARK    2  A    between atoms: N1_6  and  C5_7 
REMARK    3  A    between atoms: C11_15  and  N4_16 
REMARK    4  A    between atoms: N4_16  and  C12_17 
REMARK    5  A    between atoms: C12_17  and  C13_18 
REMARK    6  A    between atoms: C13_18  and  N5_19 
REMARK    7  A    between atoms: C18_25  and  S1_26 
ROOT
HETATM    1  C5  UNL     1       3.148   0.039   0.337  1.00  0.00     0.130 C 
HETATM    2  N2  UNL     1       3.454  -0.311   1.571  1.00  0.00    -0.271 NA
HETATM    3  C6  UNL     1       2.397  -1.157   2.210  1.00  0.00     0.165 C 
HETATM    4  C7  UNL     1       1.035  -0.578   1.843  1.00  0.00     0.072 C 
HETATM    5  C8  UNL     1       1.205   0.862   1.479  1.00  0.00    -0.002 C 
HETATM    6  C9  UNL     1       1.819   0.720   0.287  1.00  0.00     0.002 C 
HETATM    7  C10 UNL     1       1.335   1.031  -1.088  1.00  0.00     0.163 C 
HETATM    8  N3  UNL     1       0.307  -0.041  -1.356  1.00  0.00    -0.371 N 
HETATM    9  C11 UNL     1      -0.252  -0.935  -0.357  1.00  0.00     0.110 C 
HETATM   10  C18 UNL     1       0.286  -1.308   0.824  1.00  0.00     0.028 C 
HETATM   11  H10 UNL     1      -0.065  -0.191  -2.313  1.00  0.00     0.161 HD
ENDROOT
BRANCH   1  12
HETATM   12  N1  UNL     1       3.901  -0.085  -0.899  1.00  0.00    -0.341 N 
HETATM   13  H3  UNL     1       3.394  -0.211  -1.799  1.00  0.00     0.167 HD
BRANCH  12  14
HETATM   14  C4  UNL     1       5.322   0.003  -0.618  1.00  0.00     0.035 A 
HETATM   15  C3  UNL     1       6.170  -1.072  -0.694  1.00  0.00     0.032 A 
HETATM   16  C2  UNL     1       7.492  -0.875  -0.383  1.00  0.00     0.046 A 
HETATM   17  C1  UNL     1       8.024   0.349   0.007  1.00  0.00     0.138 A 
HETATM   18  F1  UNL     1       9.315   0.589   0.330  1.00  0.00    -0.204 F 
HETATM   19  C20 UNL     1       7.193   1.440   0.090  1.00  0.00     0.074 A 
HETATM   20  C19 UNL     1       5.872   1.229  -0.226  1.00  0.00     0.056 A 
HETATM   21 CL1  UNL     1       7.672   3.068   0.567  1.00  0.00    -0.081 Cl
ENDBRANCH  12  14
ENDBRANCH   1  12
BRANCH  10  22
HETATM   22  S1  UNL     1       0.017  -3.054   1.231  1.00  0.00    -0.143 SA
HETATM   23  H24 UNL     1      -1.121  -3.179   2.086  1.00  0.00     0.107 HD
ENDBRANCH  10  22
BRANCH   9  24
HETATM   24  N4  UNL     1      -1.551  -1.519  -0.608  1.00  0.00    -0.374 N 
HETATM   25  H11 UNL     1      -1.949  -2.413  -1.022  1.00  0.00     0.161 HD
BRANCH  24  26
HETATM   26  C12 UNL     1      -2.511  -0.535  -0.123  1.00  0.00     0.140 C 
BRANCH  26  27
HETATM   27  C13 UNL     1      -3.946  -0.915  -0.313  1.00  0.00     0.136 C 
BRANCH  27  28
HETATM   28  N5  UNL     1      -4.723   0.172   0.227  1.00  0.00    -0.407 N 
HETATM   29  C14 UNL     1      -4.633   1.377  -0.520  1.00  0.00     0.143 C 
HETATM   30  C15 UNL     1      -5.886   2.216  -0.448  1.00  0.00     0.187 C 
HETATM   31  O1  UNL     1      -6.926   1.431  -0.872  1.00  0.00    -0.388 OA
HETATM   32  C16 UNL     1      -7.165   0.310  -0.122  1.00  0.00     0.187 C 
HETATM   33  C17 UNL     1      -6.013  -0.153   0.717  1.00  0.00     0.143 C 
ENDBRANCH  27  28
ENDBRANCH  26  27
ENDBRANCH  24  26
ENDBRANCH   9  24
TORSDOF 7
