REMARK  9 active torsions:
REMARK  status: ('A' for Active; 'I' for Inactive)
REMARK    1  A    between atoms: C3_3  and  N1_4 
REMARK    2  A    between atoms: N1_4  and  C4_5 
REMARK    3  A    between atoms: C11_16  and  C12_17 
REMARK    4  A    between atoms: C12_17  and  C14_19 
REMARK    5  A    between atoms: C14_19  and  O1_20 
REMARK    6  A    between atoms: O1_20  and  C15_21 
REMARK    7  A    between atoms: C15_21  and  C16_22 
REMARK    8  A    between atoms: C16_22  and  C17_23 
REMARK    9  A    between atoms: C17_23  and  N4_24 
ROOT
HETATM    1  C1  UNL     1       3.071   2.048  -0.920  1.00  0.00     0.054 C 
HETATM    2  C2  UNL     1       2.886   0.908  -0.012  1.00  0.00     0.009 A 
HETATM    3  C3  UNL     1       3.960   0.082   0.264  1.00  0.00     0.137 A 
HETATM    4  N2  UNL     1       3.740  -0.925   1.097  1.00  0.00    -0.224 NA
HETATM    5  C10 UNL     1       2.549  -1.138   1.644  1.00  0.00     0.235 A 
HETATM    6  N3  UNL     1       1.500  -0.332   1.375  1.00  0.00    -0.245 NA
HETATM    7  C11 UNL     1       1.640   0.720   0.533  1.00  0.00     0.051 A 
ENDROOT
BRANCH   7   8
HETATM    8  C12 UNL     1       0.434   1.511   0.308  1.00  0.00     0.058 C 
HETATM    9  C13 UNL     1       0.475   2.690   1.275  1.00  0.00     0.018 C 
BRANCH   8  10
HETATM   10  C14 UNL     1      -0.841   0.721   0.539  1.00  0.00     0.178 C 
BRANCH  10  11
HETATM   11  O1  UNL     1      -0.951  -0.368  -0.280  1.00  0.00    -0.390 OA
BRANCH  11  12
HETATM   12  C15 UNL     1      -2.087  -1.111  -0.111  1.00  0.00     0.169 C 
BRANCH  12  13
HETATM   13  C16 UNL     1      -3.381  -0.357  -0.361  1.00  0.00     0.045 C 
BRANCH  13  14
HETATM   14  C17 UNL     1      -4.481  -1.376  -0.110  1.00  0.00     0.119 C 
BRANCH  14  15
HETATM   15  N4  UNL     1      -5.797  -0.893  -0.289  1.00  0.00    -0.408 N 
HETATM   16  C18 UNL     1      -6.262   0.066   0.641  1.00  0.00     0.143 C 
HETATM   17  C19 UNL     1      -7.629   0.597   0.409  1.00  0.00     0.187 C 
HETATM   18  O2  UNL     1      -8.145   0.404  -0.847  1.00  0.00    -0.388 OA
HETATM   19  C20 UNL     1      -7.798  -0.761  -1.480  1.00  0.00     0.187 C 
HETATM   20  C21 UNL     1      -6.278  -0.760  -1.618  1.00  0.00     0.143 C 
ENDBRANCH  14  15
ENDBRANCH  13  14
ENDBRANCH  12  13
ENDBRANCH  11  12
ENDBRANCH  10  11
ENDBRANCH   8  10
ENDBRANCH   7   8
BRANCH   3  21
HETATM   21  N1  UNL     1       5.213   0.345  -0.340  1.00  0.00    -0.340 N 
HETATM   22  H4  UNL     1       5.276   1.179  -0.987  1.00  0.00     0.167 HD
BRANCH  21  23
HETATM   23  C4  UNL     1       6.413  -0.374  -0.195  1.00  0.00     0.035 A 
HETATM   24  C5  UNL     1       6.574  -1.578   0.456  1.00  0.00     0.032 A 
HETATM   25  C6  UNL     1       7.771  -2.249   0.586  1.00  0.00     0.046 A 
HETATM   26  C7  UNL     1       8.901  -1.697   0.032  1.00  0.00     0.138 A 
HETATM   27  F1  UNL     1      10.097  -2.312   0.128  1.00  0.00    -0.204 F 
HETATM   28  C8  UNL     1       8.815  -0.509  -0.627  1.00  0.00     0.074 A 
HETATM   29 CL1  UNL     1      10.248   0.189  -1.326  1.00  0.00    -0.081 Cl
HETATM   30  C9  UNL     1       7.595   0.106  -0.719  1.00  0.00     0.056 A 
ENDBRANCH  21  23
ENDBRANCH   3  21
TORSDOF 9
