REMARK  8 active torsions:
REMARK  status: ('A' for Active; 'I' for Inactive)
REMARK    1  A    between atoms: C2_2  and  N1_3 
REMARK    2  A    between atoms: C2_2  and  N3_12 
REMARK    3  A    between atoms: N1_3  and  C3_4 
REMARK    4  A    between atoms: C3_4  and  N2_5 
REMARK    5  A    between atoms: N3_12  and  C8_13 
REMARK    6  A    between atoms: C8_13  and  C10_15 
REMARK    7  A    between atoms: C14_21  and  N6_22 
REMARK    8  A    between atoms: N6_22  and  C15_23 
ROOT
HETATM    1  C10 UNL     1      -1.555   0.434  -0.382  1.00  0.00     0.010 C 
HETATM    2  C11 UNL     1      -2.415   1.345   0.048  1.00  0.00     0.006 A 
HETATM    3  C12 UNL     1      -1.851   2.632   0.526  1.00  0.00     0.192 A 
HETATM    4  N4  UNL     1      -2.958   3.470   0.938  1.00  0.00    -0.278 NA
HETATM    5  C13 UNL     1      -4.198   3.132   0.889  1.00  0.00     0.229 A 
HETATM    6  N5  UNL     1      -4.686   1.880   0.420  1.00  0.00    -0.224 NA
HETATM    7  C14 UNL     1      -3.831   1.004   0.010  1.00  0.00     0.137 A 
ENDROOT
BRANCH   1   8
HETATM    8  C8  UNL     1      -0.089   0.627  -0.410  1.00  0.00     0.102 C 
HETATM    9  C9  UNL     1       0.403   0.767  -1.838  1.00  0.00     0.036 C 
BRANCH   8  10
HETATM   10  N3  UNL     1       0.611  -0.493   0.197  1.00  0.00    -0.370 N 
HETATM   11  H12 UNL     1       0.078  -1.330   0.571  1.00  0.00     0.161 HD
BRANCH  10  12
HETATM   12  C2  UNL     1       2.029  -0.437   0.274  1.00  0.00     0.088 C 
HETATM   13  C1  UNL     1       2.480   0.360   1.225  1.00  0.00     0.063 C 
BRANCH  12  14
HETATM   14  N1  UNL     1       2.923  -1.146  -0.562  1.00  0.00    -0.361 N 
HETATM   15  H3  UNL     1       2.558  -2.125  -0.703  1.00  0.00     0.162 HD
BRANCH  14  16
HETATM   16  C3  UNL     1       4.135  -0.668  -1.148  1.00  0.00     0.248 C 
BRANCH  16  17
HETATM   17  N2  UNL     1       5.127  -0.233  -0.171  1.00  0.00    -0.355 N 
HETATM   18  C4  UNL     1       5.644  -1.177   0.834  1.00  0.00     0.151 C 
HETATM   19  C5  UNL     1       7.143  -1.243   0.546  1.00  0.00     0.188 C 
HETATM   20  O1  UNL     1       7.725  -0.019   0.374  1.00  0.00    -0.383 OA
HETATM   21  C6  UNL     1       6.937   1.073   0.717  1.00  0.00     0.237 C 
HETATM   22  C7  UNL     1       5.671   1.097  -0.101  1.00  0.00     0.100 C 
HETATM   23  S1  UNL     1       4.841   2.265  -0.878  1.00  0.00    -0.063 SA
ENDBRANCH  16  17
ENDBRANCH  14  16
ENDBRANCH  12  14
ENDBRANCH  10  12
ENDBRANCH   8  10
ENDBRANCH   1   8
BRANCH   7  24
HETATM   24  N6  UNL     1      -4.330  -0.232  -0.452  1.00  0.00    -0.340 N 
HETATM   25  H21 UNL     1      -3.762  -0.695  -1.211  1.00  0.00     0.167 HD
BRANCH  24  26
HETATM   26  C15 UNL     1      -5.486  -0.870   0.015  1.00  0.00     0.035 A 
HETATM   27  C16 UNL     1      -6.346  -0.485   1.012  1.00  0.00     0.032 A 
HETATM   28  C17 UNL     1      -7.467  -1.174   1.402  1.00  0.00     0.046 A 
HETATM   29  C18 UNL     1      -7.789  -2.353   0.764  1.00  0.00     0.138 A 
HETATM   30  F1  UNL     1      -8.882  -3.069   1.110  1.00  0.00    -0.204 F 
HETATM   31  C19 UNL     1      -6.975  -2.804  -0.245  1.00  0.00     0.074 A 
HETATM   32 CL1  UNL     1      -7.373  -4.303  -1.065  1.00  0.00    -0.081 Cl
HETATM   33  C20 UNL     1      -5.882  -2.073  -0.580  1.00  0.00     0.056 A 
ENDBRANCH  24  26
ENDBRANCH   7  24
TORSDOF 8
