REMARK  4 active torsions:
REMARK  status: ('A' for Active; 'I' for Inactive)
REMARK    1  A    between atoms: O1_2  and  C2_3 
REMARK    2  A    between atoms: C4_5  and  C5_6 
REMARK    3  A    between atoms: C5_6  and  N1_7 
REMARK    4  A    between atoms: N1_7  and  C6_8 
ROOT
HETATM    1  C2  UNL     1      -2.419   1.578  -0.652  1.00  0.00     0.070 C 
HETATM    2  C3  UNL     1      -1.054   1.591  -0.842  1.00  0.00     0.045 C 
HETATM    3  C4  UNL     1      -0.491   0.209  -1.145  1.00  0.00    -0.016 C 
HETATM    4  C12 UNL     1      -1.448  -0.775  -1.186  1.00  0.00     0.017 C 
HETATM    5  C13 UNL     1      -2.623  -0.329  -2.028  1.00  0.00     0.090 C 
HETATM    6  C14 UNL     1      -3.370   0.529  -0.942  1.00  0.00     0.162 C 
HETATM    7  N2  UNL     1      -3.740  -0.474   0.042  1.00  0.00    -0.212 N 
HETATM    8  C15 UNL     1      -2.944  -1.464   0.749  1.00  0.00     0.720 C 
HETATM    9  N3  UNL     1      -1.992  -1.458   1.699  1.00  0.00    -0.074 NA
HETATM   10  C16 UNL     1      -1.171  -2.483   0.908  1.00  0.00     0.267 C 
HETATM   11  C17 UNL     1      -2.110  -3.549   1.043  1.00  0.00     0.158 C 
HETATM   12  N4  UNL     1      -2.964  -2.888   0.383  1.00  0.00    -0.076 NA
HETATM   13  N5  UNL     1      -0.859  -1.824  -0.343  1.00  0.00    -0.365 N 
HETATM   14  H15 UNL     1      -4.664  -0.737   0.450  1.00  0.00     0.178 HD
HETATM   15  H18 UNL     1      -0.011  -2.012  -0.918  1.00  0.00     0.162 HD
ENDROOT
BRANCH   3  16
HETATM   16  C5  UNL     1       0.930  -0.132  -1.242  1.00  0.00     0.160 C 
BRANCH  16  17
HETATM   17  N1  UNL     1       1.432   0.464   0.042  1.00  0.00    -0.386 N 
HETATM   18  H7  UNL     1       0.901   0.986   0.803  1.00  0.00     0.160 HD
BRANCH  17  19
HETATM   19  C6  UNL     1       2.835   0.347   0.349  1.00  0.00     0.029 A 
HETATM   20  C7  UNL     1       3.453   0.846   1.497  1.00  0.00     0.029 A 
HETATM   21  C8  UNL     1       4.797   0.670   1.675  1.00  0.00     0.004 A 
HETATM   22  C9  UNL     1       5.595   0.018   0.774  1.00  0.00     0.019 A 
HETATM   23  C10 UNL     1       5.026  -0.489  -0.372  1.00  0.00     0.013 A 
HETATM   24 BR1  UNL     1       6.100  -1.403  -1.650  1.00  0.00    -0.051 Br
HETATM   25  C11 UNL     1       3.673  -0.307  -0.540  1.00  0.00     0.048 A 
ENDBRANCH  17  19
ENDBRANCH  16  17
ENDBRANCH   3  16
BRANCH   1  26
HETATM   26  O1  UNL     1      -2.845   2.786  -0.101  1.00  0.00    -0.358 OA
HETATM   27  C1  UNL     1      -2.179   3.421   0.975  1.00  0.00     0.209 C 
ENDBRANCH   1  26
TORSDOF 4
