REMARK  8 active torsions:
REMARK  status: ('A' for Active; 'I' for Inactive)
REMARK    1  A    between atoms: S1_2  and  C2_3 
REMARK    2  A    between atoms: C6_8  and  C7_9 
REMARK    3  A    between atoms: C7_9  and  C8_10 
REMARK    4  A    between atoms: C8_10  and  N1_12 
REMARK    5  A    between atoms: N1_12  and  C10_13 
REMARK    6  A    between atoms: C10_13  and  C11_14 
REMARK    7  A    between atoms: C15_20  and  N4_21 
REMARK    8  A    between atoms: N4_21  and  C16_22 
ROOT
HETATM    1  C11 UNL     1       1.251   0.646   2.092  1.00  0.00     0.005 C 
HETATM    2  C12 UNL     1       2.034   1.658   1.723  1.00  0.00     0.005 A 
HETATM    3  C13 UNL     1       2.090   2.938   2.447  1.00  0.00     0.192 A 
HETATM    4  N2  UNL     1       3.017   3.854   1.883  1.00  0.00    -0.278 NA
HETATM    5  C14 UNL     1       3.762   3.726   0.875  1.00  0.00     0.229 A 
HETATM    6  N3  UNL     1       3.725   2.511   0.146  1.00  0.00    -0.224 NA
HETATM    7  C15 UNL     1       2.918   1.560   0.549  1.00  0.00     0.137 A 
ENDROOT
BRANCH   1   8
HETATM    8  C10 UNL     1       0.660  -0.694   2.013  1.00  0.00     0.142 C 
BRANCH   8   9
HETATM    9  N1  UNL     1      -0.736  -0.706   1.881  1.00  0.00    -0.414 N 
HETATM   10  H16 UNL     1      -1.287  -0.392   2.682  1.00  0.00     0.153 HD
BRANCH   9  11
HETATM   11  C8  UNL     1      -1.331  -0.247   0.656  1.00  0.00     0.073 C 
HETATM   12  C9  UNL     1      -0.970   1.152   0.406  1.00  0.00     0.031 C 
BRANCH  11  13
HETATM   13  C7  UNL     1      -2.786  -0.558   0.781  1.00  0.00     0.031 C 
BRANCH  13  14
HETATM   14  C6  UNL     1      -3.691  -0.277  -0.352  1.00  0.00     0.012 C 
HETATM   15  C2  UNL     1      -3.534  -0.863  -1.611  1.00  0.00     0.052 C 
HETATM   16  C3  UNL     1      -4.764  -0.968  -2.342  1.00  0.00     0.190 C 
HETATM   17  O1  UNL     1      -5.912  -0.448  -1.854  1.00  0.00    -0.389 OA
HETATM   18  C4  UNL     1      -6.181  -0.535  -0.538  1.00  0.00     0.168 C 
HETATM   19  C5  UNL     1      -5.028   0.103   0.206  1.00  0.00     0.032 C 
BRANCH  15  20
HETATM   20  S1  UNL     1      -2.309  -1.453  -2.115  1.00  0.00    -0.154 SA
HETATM   21  C1  UNL     1      -2.490  -2.845  -1.513  1.00  0.00     0.085 C 
ENDBRANCH  15  20
ENDBRANCH  13  14
ENDBRANCH  11  13
ENDBRANCH   9  11
ENDBRANCH   8   9
ENDBRANCH   1   8
BRANCH   7  22
HETATM   22  N4  UNL     1       2.933   0.397  -0.238  1.00  0.00    -0.340 N 
HETATM   23  H23 UNL     1       1.985  -0.043  -0.374  1.00  0.00     0.167 HD
BRANCH  22  24
HETATM   24  C16 UNL     1       4.070  -0.192  -0.824  1.00  0.00     0.035 A 
HETATM   25  C17 UNL     1       5.369   0.223  -0.728  1.00  0.00     0.032 A 
HETATM   26  C18 UNL     1       6.446  -0.376  -1.315  1.00  0.00     0.046 A 
HETATM   27  C19 UNL     1       6.237  -1.519  -2.092  1.00  0.00     0.138 A 
HETATM   28  F1  UNL     1       7.274  -2.128  -2.680  1.00  0.00    -0.204 F 
HETATM   29  C20 UNL     1       4.949  -1.981  -2.223  1.00  0.00     0.074 A 
HETATM   30 CL1  UNL     1       4.719  -3.411  -3.199  1.00  0.00    -0.081 Cl
HETATM   31  C21 UNL     1       3.913  -1.336  -1.609  1.00  0.00     0.056 A 
ENDBRANCH  22  24
ENDBRANCH   7  22
TORSDOF 8
