REMARK  7 active torsions:
REMARK  status: ('A' for Active; 'I' for Inactive)
REMARK    1  A    between atoms: C6_8  and  N3_9 
REMARK    2  A    between atoms: N3_9  and  C7_10 
REMARK    3  A    between atoms: N4_20  and  C15_21 
REMARK    4  A    between atoms: C15_21  and  N5_23 
REMARK    5  A    between atoms: N5_23  and  C16_24 
REMARK    6  A    between atoms: C16_24  and  C17_25 
REMARK    7  A    between atoms: C17_25  and  N6_26 
ROOT
HETATM    1  C1  UNL     1      -0.406  -4.346  -1.608  1.00  0.00     0.037 C 
HETATM    2  C2  UNL     1       0.079  -3.796  -0.291  1.00  0.00     0.112 A 
HETATM    3  C3  UNL     1       1.543  -3.963  -0.210  1.00  0.00     0.031 A 
HETATM    4  C4  UNL     1       2.429  -3.015   0.005  1.00  0.00     0.071 A 
HETATM    5  N1  UNL     1       3.711  -3.411   0.036  1.00  0.00    -0.241 NA
HETATM    6  C5  UNL     1       4.684  -2.479   0.254  1.00  0.00     0.236 A 
HETATM    7  N2  UNL     1       4.285  -1.217   0.425  1.00  0.00    -0.223 NA
HETATM    8  C6  UNL     1       3.020  -0.801   0.398  1.00  0.00     0.143 A 
HETATM    9  C13 UNL     1       2.026  -1.721   0.180  1.00  0.00     0.054 A 
HETATM   10  C14 UNL     1       0.745  -1.494   0.122  1.00  0.00     0.112 A 
HETATM   11  N4  UNL     1      -0.315  -2.411  -0.102  1.00  0.00    -0.325 N 
ENDROOT
BRANCH  11  12
HETATM   12  C15 UNL     1      -1.704  -2.109  -0.162  1.00  0.00     0.174 C 
HETATM   13  S1  UNL     1      -2.711  -3.400  -0.434  1.00  0.00    -0.041 SA
BRANCH  12  14
HETATM   14  N5  UNL     1      -2.354  -0.827  -0.016  1.00  0.00    -0.365 N 
HETATM   15  H12 UNL     1      -3.385  -0.878  -0.079  1.00  0.00     0.161 HD
BRANCH  14  16
HETATM   16  C16 UNL     1      -2.046   0.529   0.206  1.00  0.00     0.152 C 
BRANCH  16  17
HETATM   17  C17 UNL     1      -3.126   1.544   0.294  1.00  0.00     0.294 C 
BRANCH  17  18
HETATM   18  N6  UNL     1      -3.966   1.769  -0.799  1.00  0.00     0.115 NA
HETATM   19  C18 UNL     1      -4.891   0.736  -1.091  1.00  0.00     0.301 C 
HETATM   20  C19 UNL     1      -6.061   1.569  -1.705  1.00  0.00     0.200 C 
HETATM   21  O1  UNL     1      -6.110   2.591  -0.759  1.00  0.00    -0.361 OA
HETATM   22  C20 UNL     1      -4.776   2.950  -0.606  1.00  0.00     0.440 C 
ENDBRANCH  17  18
ENDBRANCH  16  17
ENDBRANCH  14  16
ENDBRANCH  12  14
ENDBRANCH  11  12
BRANCH   8  23
HETATM   23  N3  UNL     1       2.664   0.553   0.584  1.00  0.00    -0.340 N 
HETATM   24  H7  UNL     1       1.680   0.881   0.540  1.00  0.00     0.167 HD
BRANCH  23  25
HETATM   25  C7  UNL     1       3.453   1.703   0.852  1.00  0.00     0.035 A 
HETATM   26  C8  UNL     1       3.048   3.020   0.811  1.00  0.00     0.032 A 
HETATM   27  C9  UNL     1       3.854   4.093   1.087  1.00  0.00     0.046 A 
HETATM   28  C10 UNL     1       5.170   3.888   1.435  1.00  0.00     0.138 A 
HETATM   29  F1  UNL     1       5.862   5.024   1.683  1.00  0.00    -0.204 F 
HETATM   30  C11 UNL     1       5.629   2.600   1.492  1.00  0.00     0.074 A 
HETATM   31 CL1  UNL     1       7.313   2.444   1.943  1.00  0.00    -0.081 Cl
HETATM   32  C12 UNL     1       4.777   1.531   1.204  1.00  0.00     0.056 A 
ENDBRANCH  23  25
ENDBRANCH   8  23
TORSDOF 7
