REMARK  2 active torsions:
REMARK  status: ('A' for Active; 'I' for Inactive)
REMARK    1  A    between atoms: C4_5  and  N1_6 
REMARK    2  A    between atoms: N1_6  and  C5_7 
ROOT
HETATM    1  C5  UNL     1      -2.478  -0.611   0.504  1.00  0.00     0.143 A 
HETATM    2  N2  UNL     1      -3.197  -1.223   1.453  1.00  0.00    -0.223 NA
HETATM    3  C6  UNL     1      -2.704  -1.625   2.627  1.00  0.00     0.236 A 
HETATM    4  N3  UNL     1      -1.410  -1.428   2.931  1.00  0.00    -0.241 NA
HETATM    5  C7  UNL     1      -0.615  -0.820   2.034  1.00  0.00     0.071 A 
HETATM    6  C8  UNL     1      -1.166  -0.425   0.844  1.00  0.00     0.054 A 
HETATM    7  C9  UNL     1      -0.413   0.167  -0.067  1.00  0.00     0.112 A 
HETATM    8  N4  UNL     1       0.949   0.400   0.200  1.00  0.00    -0.325 N 
HETATM    9  C10 UNL     1       2.048   1.000  -0.449  1.00  0.00     0.174 C 
HETATM   10  S1  UNL     1       1.948   0.010  -1.720  1.00  0.00    -0.041 SA
HETATM   11  N5  UNL     1       2.947   2.071  -0.307  1.00  0.00    -0.367 N 
HETATM   12  C11 UNL     1       3.934   2.052  -1.368  1.00  0.00     0.124 C 
HETATM   13  C12 UNL     1       4.855   0.835  -1.149  1.00  0.00     0.046 C 
HETATM   14  C13 UNL     1       5.500   0.871   0.183  1.00  0.00     0.169 C 
HETATM   15  O1  UNL     1       4.841   0.778   1.329  1.00  0.00    -0.391 OA
HETATM   16  C14 UNL     1       4.157  -0.252   1.796  1.00  0.00     0.170 C 
HETATM   17  C15 UNL     1       2.895  -0.777   1.234  1.00  0.00     0.056 C 
HETATM   18  C16 UNL     1       1.680   0.051   1.373  1.00  0.00     0.118 A 
HETATM   19  C17 UNL     1       0.665  -0.622   2.293  1.00  0.00     0.031 A 
HETATM   20  H6  UNL     1       2.397   2.307   0.511  1.00  0.00     0.161 HD
ENDROOT
BRANCH   1  21
HETATM   21  N1  UNL     1      -2.991  -0.184  -0.741  1.00  0.00    -0.340 N 
HETATM   22  H3  UNL     1      -2.400   0.287  -1.449  1.00  0.00     0.167 HD
BRANCH  21  23
HETATM   23  C4  UNL     1      -4.295  -0.287  -1.253  1.00  0.00     0.035 A 
HETATM   24  C3  UNL     1      -4.688   0.071  -2.527  1.00  0.00     0.032 A 
HETATM   25  C2  UNL     1      -5.970  -0.038  -3.005  1.00  0.00     0.046 A 
HETATM   26  C1  UNL     1      -6.975  -0.531  -2.204  1.00  0.00     0.138 A 
HETATM   27  F1  UNL     1      -8.214  -0.610  -2.741  1.00  0.00    -0.204 F 
HETATM   28  C19 UNL     1      -6.639  -0.901  -0.930  1.00  0.00     0.074 A 
HETATM   29  C18 UNL     1      -5.337  -0.772  -0.499  1.00  0.00     0.056 A 
HETATM   30 CL1  UNL     1      -7.946  -1.522   0.051  1.00  0.00    -0.081 Cl
ENDBRANCH  21  23
ENDBRANCH   1  21
TORSDOF 2
