REMARK  9 active torsions:
REMARK  status: ('A' for Active; 'I' for Inactive)
REMARK    1  A    between atoms: C4_5  and  N1_6 
REMARK    2  A    between atoms: N1_6  and  C5_7 
REMARK    3  A    between atoms: C7_9  and  C8_10 
REMARK    4  A    between atoms: C8_10  and  N2_11 
REMARK    5  A    between atoms: N2_11  and  C9_12 
REMARK    6  A    between atoms: C9_12  and  N3_14 
REMARK    7  A    between atoms: N3_14  and  C10_15 
REMARK    8  A    between atoms: C10_15  and  C11_16 
REMARK    9  A    between atoms: C11_16  and  N4_17 
ROOT
HETATM    1  C5  UNL     1       4.161   0.451   0.168  1.00  0.00     0.131 A 
HETATM    2  C6  UNL     1       2.913   0.849   0.581  1.00  0.00     0.079 A 
HETATM    3  C7  UNL     1       1.867   0.089   0.120  1.00  0.00     0.057 A 
HETATM    4  N5  UNL     1       2.047  -0.992  -0.697  1.00  0.00    -0.245 NA
HETATM    5  C16 UNL     1       3.273  -1.357  -1.086  1.00  0.00     0.235 A 
HETATM    6  N6  UNL     1       4.296  -0.616  -0.636  1.00  0.00    -0.224 NA
ENDROOT
BRANCH   3   7
HETATM    7  C8  UNL     1       0.439   0.337   0.454  1.00  0.00     0.181 C 
BRANCH   7   8
HETATM    8  N2  UNL     1      -0.228   1.178  -0.497  1.00  0.00    -0.362 N 
HETATM    9  H7  UNL     1      -0.189   1.769  -1.332  1.00  0.00     0.162 HD
BRANCH   8  10
HETATM   10  C9  UNL     1      -1.591   1.189  -0.077  1.00  0.00     0.167 C 
HETATM   11  S1  UNL     1      -2.857   1.965  -0.748  1.00  0.00    -0.041 SA
BRANCH  10  12
HETATM   12  N3  UNL     1      -2.515   0.727   0.870  1.00  0.00    -0.366 N 
HETATM   13  H8  UNL     1      -1.700   0.230   1.334  1.00  0.00     0.161 HD
BRANCH  12  14
HETATM   14  C10 UNL     1      -3.656   0.382   1.712  1.00  0.00     0.152 C 
BRANCH  14  15
HETATM   15  C11 UNL     1      -4.550  -0.575   0.995  1.00  0.00     0.292 C 
BRANCH  15  16
HETATM   16  N4  UNL     1      -5.089  -0.018  -0.211  1.00  0.00     0.094 N 
HETATM   17  C12 UNL     1      -6.082   0.996   0.013  1.00  0.00     0.298 C 
HETATM   18  C13 UNL     1      -7.491   0.374  -0.063  1.00  0.00     0.198 C 
HETATM   19  O1  UNL     1      -7.479  -0.941   0.407  1.00  0.00    -0.388 OA
HETATM   20  C14 UNL     1      -6.753  -1.799  -0.419  1.00  0.00     0.198 C 
HETATM   21  C15 UNL     1      -5.593  -1.074  -1.076  1.00  0.00     0.298 C 
ENDBRANCH  15  16
ENDBRANCH  14  15
ENDBRANCH  12  14
ENDBRANCH  10  12
ENDBRANCH   8  10
ENDBRANCH   7   8
ENDBRANCH   3   7
BRANCH   1  22
HETATM   22  N1  UNL     1       5.353   1.155   0.558  1.00  0.00    -0.341 N 
HETATM   23  H3  UNL     1       5.234   2.075   1.056  1.00  0.00     0.167 HD
BRANCH  22  24
HETATM   24  C4  UNL     1       6.654   0.616   0.274  1.00  0.00     0.035 A 
HETATM   25  C3  UNL     1       7.788   1.318  -0.013  1.00  0.00     0.032 A 
HETATM   26  C2  UNL     1       8.991   0.666  -0.248  1.00  0.00     0.046 A 
HETATM   27  C1  UNL     1       9.088  -0.706  -0.202  1.00  0.00     0.138 A 
HETATM   28  F1  UNL     1      10.290  -1.300  -0.440  1.00  0.00    -0.204 F 
HETATM   29  C18 UNL     1       7.934  -1.415   0.090  1.00  0.00     0.074 A 
HETATM   30  C17 UNL     1       6.736  -0.751   0.324  1.00  0.00     0.056 A 
HETATM   31 CL1  UNL     1       8.169  -3.167   0.122  1.00  0.00    -0.081 Cl
ENDBRANCH  22  24
ENDBRANCH   1  22
TORSDOF 9
