REMARK  4 active torsions:
REMARK  status: ('A' for Active; 'I' for Inactive)
REMARK    1  A    between atoms: N1_5  and  C3_6 
REMARK    2  A    between atoms: N4_12  and  C7_13 
REMARK    3  A    between atoms: C7_13  and  C8_14 
REMARK    4  A    between atoms: C8_14  and  N5_15 
ROOT
HETATM    1  C3  UNL     1       3.629  -0.905   0.610  1.00  0.00     0.149 A 
HETATM    2  N2  UNL     1       3.608  -2.210   0.741  1.00  0.00    -0.223 NA
HETATM    3  C4  UNL     1       2.405  -2.964   0.754  1.00  0.00     0.229 A 
HETATM    4  N3  UNL     1       1.208  -2.497   0.651  1.00  0.00    -0.271 NA
HETATM    5  C5  UNL     1       0.966  -1.078   0.510  1.00  0.00     0.163 A 
HETATM    6  C6  UNL     1       0.120  -0.863  -0.724  1.00  0.00     0.149 C 
HETATM    7  N4  UNL     1      -0.592   0.366  -0.715  1.00  0.00    -0.408 N 
HETATM    8  C13 UNL     1      -0.102   1.390   0.155  1.00  0.00     0.120 C 
HETATM    9  C14 UNL     1       1.271   1.918  -0.231  1.00  0.00     0.047 C 
HETATM   10  C15 UNL     1       2.293   0.884   0.084  1.00  0.00    -0.012 C 
HETATM   11  C16 UNL     1       2.284  -0.403   0.417  1.00  0.00     0.011 A 
ENDROOT
BRANCH   1  12
HETATM   12  N1  UNL     1       4.779  -0.090   0.595  1.00  0.00    -0.274 N 
HETATM   13  S1  UNL     1       5.169   1.300   1.606  1.00  0.00    -0.015 SA
HETATM   14  C2  UNL     1       6.764   1.892   1.083  1.00  0.00     0.112 A 
HETATM   15  C1  UNL     1       7.369   1.250   0.108  1.00  0.00     0.147 A 
HETATM   16  F1  UNL     1       8.551   1.859  -0.127  1.00  0.00    -0.204 F 
HETATM   17  C18 UNL     1       6.915   0.096  -0.636  1.00  0.00     0.089 A 
HETATM   18  C17 UNL     1       5.751  -0.454  -0.369  1.00  0.00     0.134 A 
HETATM   19 CL1  UNL     1       8.025  -0.467  -1.868  1.00  0.00    -0.080 Cl
ENDBRANCH   1  12
BRANCH   7  20
HETATM   20  C7  UNL     1      -2.006   0.318  -0.849  1.00  0.00     0.136 C 
BRANCH  20  21
HETATM   21  C8  UNL     1      -2.767  -0.277   0.285  1.00  0.00     0.136 C 
BRANCH  21  22
HETATM   22  N5  UNL     1      -4.144  -0.258   0.035  1.00  0.00    -0.407 N 
HETATM   23  C9  UNL     1      -4.678  -1.064  -0.971  1.00  0.00     0.143 C 
HETATM   24  C10 UNL     1      -6.142  -1.334  -0.679  1.00  0.00     0.187 C 
HETATM   25  O1  UNL     1      -6.897  -0.206  -0.489  1.00  0.00    -0.388 OA
HETATM   26  C11 UNL     1      -6.172   0.928  -0.184  1.00  0.00     0.187 C 
HETATM   27  C12 UNL     1      -4.988   0.637   0.712  1.00  0.00     0.143 C 
ENDBRANCH  21  22
ENDBRANCH  20  21
ENDBRANCH   7  20
TORSDOF 4
