REMARK  5 active torsions:
REMARK  status: ('A' for Active; 'I' for Inactive)
REMARK    1  A    between atoms: O1_2  and  C2_3 
REMARK    2  A    between atoms: C6_8  and  N2_9 
REMARK    3  A    between atoms: N2_9  and  C7_10 
REMARK    4  A    between atoms: C7_10  and  B1_11 
REMARK    5  A    between atoms: C10_14  and  C11_15 
ROOT
HETATM    1  C2  UNL     1       4.734   0.958   0.257  1.00  0.00     0.067 A 
HETATM    2  C3  UNL     1       3.470   1.207   0.567  1.00  0.00     0.023 A 
HETATM    3  C4  UNL     1       2.539   0.113   0.198  1.00  0.00     0.089 A 
HETATM    4  C5  UNL     1       1.735  -0.442   1.314  1.00  0.00     0.184 C 
HETATM    5  N1  UNL     1       0.330  -0.162   1.053  1.00  0.00    -0.105 NA
HETATM    6  C6  UNL     1      -0.274  -0.611  -0.000  1.00  0.00     0.718 C 
HETATM    7  N3  UNL     1       0.499  -1.409  -0.919  1.00  0.00    -0.057 NA
HETATM    8  C13 UNL     1       0.859  -2.607  -0.572  1.00  0.00     0.254 C 
HETATM    9  N4  UNL     1       1.584  -3.030  -1.738  1.00  0.00    -0.229 NA
HETATM   10  C14 UNL     1       2.784  -2.626  -1.948  1.00  0.00     0.259 C 
HETATM   11  O2  UNL     1       2.666  -1.926  -0.775  1.00  0.00    -0.307 OA
HETATM   12  C15 UNL     1       3.497  -0.874  -0.411  1.00  0.00     0.066 A 
HETATM   13  C16 UNL     1       4.725  -0.380  -0.368  1.00  0.00     0.070 A 
ENDROOT
BRANCH   6  14
HETATM   14  N2  UNL     1      -1.646  -0.403  -0.364  1.00  0.00    -0.230 N 
HETATM   15  H8  UNL     1      -2.071  -0.969  -1.132  1.00  0.00     0.176 HD
BRANCH  14  16
HETATM   16  C7  UNL     1      -2.332   0.624   0.412  1.00  0.00     0.098 C 
BRANCH  16  17
HETATM   17  B1  UNL     1      -3.835   0.760  -0.083  1.00  0.00     0.247 B 
HETATM   18  C8  UNL     1      -4.396   1.841  -1.086  1.00  0.00    -0.071 A 
HETATM   19  C9  UNL     1      -5.710   1.702  -1.042  1.00  0.00    -0.008 A 
HETATM   20  C10 UNL     1      -6.133   0.658  -0.134  1.00  0.00    -0.063 A 
HETATM   21  C12 UNL     1      -5.115   0.060   0.465  1.00  0.00    -0.064 A 
BRANCH  20  22
HETATM   22  C11 UNL     1      -7.577   0.361   0.043  1.00  0.00     0.122 C 
HETATM   23 BR1  UNL     1      -8.544   1.888   0.691  1.00  0.00    -0.092 Br
ENDBRANCH  20  22
ENDBRANCH  16  17
ENDBRANCH  14  16
ENDBRANCH   6  14
BRANCH   1  24
HETATM   24  O1  UNL     1       5.980   1.565   0.349  1.00  0.00    -0.356 OA
HETATM   25  C1  UNL     1       7.025   1.135   1.186  1.00  0.00     0.210 C 
ENDBRANCH   1  24
TORSDOF 5
