REMARK  5 active torsions:
REMARK  status: ('A' for Active; 'I' for Inactive)
REMARK    1  A    between atoms: C2_3  and  N2_4 
REMARK    2  A    between atoms: N2_4  and  C3_5 
REMARK    3  A    between atoms: C6_8  and  O1_9 
REMARK    4  A    between atoms: O1_9  and  C7_10 
REMARK    5  A    between atoms: C7_10  and  C9_12 
ROOT
HETATM    1  C3  UNL     1       2.526  -0.785  -1.030  1.00  0.00     0.033 A 
HETATM    2  C4  UNL     1       1.958  -1.247   0.139  1.00  0.00     0.032 A 
HETATM    3  C5  UNL     1       0.704  -0.865   0.558  1.00  0.00     0.039 A 
HETATM    4  C6  UNL     1      -0.057   0.012  -0.180  1.00  0.00     0.069 A 
HETATM    5  C14 UNL     1       0.507   0.488  -1.367  1.00  0.00     0.039 A 
HETATM    6  C15 UNL     1       1.773   0.102  -1.790  1.00  0.00     0.032 A 
ENDROOT
BRANCH   4   7
HETATM    7  O1  UNL     1      -1.306   0.576  -0.046  1.00  0.00    -0.342 OA
BRANCH   7   8
HETATM    8  C7  UNL     1      -2.116   0.294   1.040  1.00  0.00     0.161 C 
HETATM    9  C8  UNL     1      -2.390   1.555   1.857  1.00  0.00     0.045 C 
BRANCH   8  10
HETATM   10  C9  UNL     1      -3.413  -0.317   0.634  1.00  0.00     0.017 A 
HETATM   11  C10 UNL     1      -4.106  -1.256   1.368  1.00  0.00     0.062 A 
HETATM   12 CL1  UNL     1      -3.380  -1.752   2.893  1.00  0.00    -0.082 Cl
HETATM   13  C11 UNL     1      -5.306  -1.766   0.907  1.00  0.00     0.140 A 
HETATM   14  N3  UNL     1      -5.773  -1.319  -0.273  1.00  0.00    -0.270 NA
HETATM   15  C12 UNL     1      -5.137  -0.403  -1.029  1.00  0.00     0.140 A 
HETATM   16  C13 UNL     1      -3.927   0.124  -0.584  1.00  0.00     0.062 A 
HETATM   17 CL2  UNL     1      -3.067   1.327  -1.551  1.00  0.00    -0.082 Cl
ENDBRANCH   8  10
ENDBRANCH   7   8
ENDBRANCH   4   7
BRANCH   1  18
HETATM   18  N2  UNL     1       3.827  -1.229  -1.391  1.00  0.00    -0.351 N 
HETATM   19  H5  UNL     1       3.807  -2.084  -1.966  1.00  0.00     0.166 HD
BRANCH  18  20
HETATM   20  C2  UNL     1       5.003  -0.523  -0.972  1.00  0.00     0.200 C 
HETATM   21  N1  UNL     1       4.794   0.702  -0.612  1.00  0.00    -0.289 NA
HETATM   22  C1  UNL     1       5.875   1.526  -0.170  1.00  0.00     0.179 C 
ENDBRANCH  18  20
ENDBRANCH   1  18
TORSDOF 5
