REMARK  1 active torsions:
REMARK  status: ('A' for Active; 'I' for Inactive)
REMARK    1  A    between atoms: C15_17  and  O1_18 
ROOT
HETATM    1  C1  UNL     1       1.723   4.577   1.831  1.00  0.00     0.038 C 
HETATM    2  C2  UNL     1       0.316   4.172   1.534  1.00  0.00    -0.002 C 
HETATM    3  C3  UNL     1       0.028   2.894   1.623  1.00  0.00     0.030 C 
HETATM    4  C4  UNL     1       0.153   1.487   1.830  1.00  0.00     0.038 C 
HETATM    5  C5  UNL     1      -0.794   0.600   1.787  1.00  0.00    -0.020 C 
HETATM    6  C6  UNL     1      -2.226   0.399   1.600  1.00  0.00     0.315 C 
HETATM    7  N1  UNL     1      -2.240  -0.625   0.603  1.00  0.00     0.130 N 
HETATM    8  C7  UNL     1      -1.278  -0.118  -0.504  1.00  0.00     0.375 C 
HETATM    9  C8  UNL     1      -1.865  -0.861  -1.659  1.00  0.00     0.331 C 
HETATM   10  N2  UNL     1      -1.994  -2.256  -1.149  1.00  0.00     0.090 N 
HETATM   11  C9  UNL     1      -3.336  -2.410  -0.679  1.00  0.00     0.310 C 
HETATM   12  C10 UNL     1      -1.080  -2.529  -0.032  1.00  0.00     0.312 C 
HETATM   13  C11 UNL     1      -1.349  -1.681   1.184  1.00  0.00     0.287 C 
HETATM   14  C12 UNL     1      -0.240  -0.771   1.585  1.00  0.00    -0.018 C 
HETATM   15  C13 UNL     1       0.898  -1.373   1.535  1.00  0.00    -0.010 C 
HETATM   16  C14 UNL     1       1.959  -2.345   1.423  1.00  0.00     0.093 C 
HETATM   17  C15 UNL     1       2.736  -2.203   0.166  1.00  0.00     0.062 C 
HETATM   18  C16 UNL     1       2.857  -1.695  -1.019  1.00  0.00     0.018 C 
HETATM   19  C17 UNL     1       2.444  -0.899  -2.135  1.00  0.00     0.063 C 
HETATM   20  C18 UNL     1       1.852  -0.112  -3.015  1.00  0.00     0.091 C 
HETATM   21  N3  UNL     1       0.739   0.739  -3.401  1.00  0.00    -0.293 N 
HETATM   22  N4  UNL     1       0.152   1.305  -2.289  1.00  0.00    -0.184 NA
HETATM   23  C19 UNL     1       0.108   2.543  -1.985  1.00  0.00     0.188 C 
HETATM   24  C20 UNL     1      -0.660   2.278  -0.690  1.00  0.00     0.144 C 
HETATM   25  N5  UNL     1      -1.071   1.194  -0.367  1.00  0.00    -0.233 NA
HETATM   26  N6  UNL     1      -1.072   2.953   0.596  1.00  0.00    -0.340 N 
HETATM   27  H23 UNL     1       0.720   0.659  -4.436  1.00  0.00     0.187 HD
HETATM   28  H25 UNL     1      -2.047   3.377   0.597  1.00  0.00     0.167 HD
ENDROOT
BRANCH  17  29
HETATM   29  O1  UNL     1       3.886  -3.007   0.351  1.00  0.00    -0.275 OA
HETATM   30 BR1  UNL     1       3.572  -4.840   0.584  1.00  0.00     0.105 Br
ENDBRANCH  17  29
TORSDOF 1
