REMARK  6 active torsions:
REMARK  status: ('A' for Active; 'I' for Inactive)
REMARK    1  A    between atoms: C2_2  and  O1_3 
REMARK    2  A    between atoms: O1_3  and  C3_4 
REMARK    3  A    between atoms: C8_11  and  N3_12 
REMARK    4  A    between atoms: C9_13  and  C10_14 
REMARK    5  A    between atoms: C13_17  and  O2_18 
REMARK    6  A    between atoms: C14_19  and  O3_20 
ROOT
HETATM    1  C3  UNL     1      -3.486   0.401  -0.334  1.00  0.00     0.252 C 
HETATM    2  N1  UNL     1      -3.804  -1.054  -0.290  1.00  0.00    -0.362 N 
HETATM    3  C4  UNL     1      -2.444  -1.598  -0.153  1.00  0.00     0.028 C 
HETATM    4  C5  UNL     1      -1.666  -0.832  -0.969  1.00  0.00     0.037 C 
HETATM    5  C6  UNL     1      -1.997   0.300  -0.052  1.00  0.00     0.088 C 
HETATM    6  C7  UNL     1      -1.276   1.573  -0.383  1.00  0.00     0.047 C 
HETATM    7  N2  UNL     1      -1.726  -0.178   1.278  1.00  0.00    -0.384 N 
HETATM    8  C8  UNL     1      -0.420  -0.593   1.578  1.00  0.00     0.205 C 
HETATM    9  C17 UNL     1      -0.253  -1.924   2.312  1.00  0.00     0.075 C 
HETATM   10  C18 UNL     1      -1.134  -2.979   1.666  1.00  0.00    -0.021 C 
HETATM   11  C19 UNL     1      -2.147  -2.751   0.773  1.00  0.00     0.025 C 
HETATM   12  H7  UNL     1      -4.576  -1.800  -0.310  1.00  0.00     0.162 HD
HETATM   13  H12 UNL     1      -2.233   0.342   2.019  1.00  0.00     0.156 HD
ENDROOT
BRANCH   8  14
HETATM   14  N3  UNL     1       0.536  -0.525   0.481  1.00  0.00    -0.275 NA
HETATM   15  C9  UNL     1       1.778  -0.248   0.688  1.00  0.00     0.124 C 
BRANCH  15  16
HETATM   16  C10 UNL     1       2.755  -0.173  -0.393  1.00  0.00    -0.016 A 
HETATM   17  C11 UNL     1       2.408  -0.395  -1.704  1.00  0.00     0.016 A 
HETATM   18  C12 UNL     1       3.389  -0.307  -2.673  1.00  0.00     0.040 A 
HETATM   19  C13 UNL     1       4.720  -0.004  -2.414  1.00  0.00     0.099 A 
HETATM   20  C14 UNL     1       5.050   0.215  -1.096  1.00  0.00     0.102 A 
HETATM   21  C16 UNL     1       4.069   0.128  -0.115  1.00  0.00     0.052 A 
BRANCH  19  22
HETATM   22  O2  UNL     1       5.624   0.059  -3.466  1.00  0.00    -0.358 OA
HETATM   23  H17 UNL     1       6.616  -0.055  -3.342  1.00  0.00     0.217 HD
ENDBRANCH  19  22
BRANCH  20  24
HETATM   24  O3  UNL     1       6.370   0.520  -0.793  1.00  0.00    -0.353 OA
HETATM   25  C15 UNL     1       6.796   0.762   0.541  1.00  0.00     0.210 C 
ENDBRANCH  20  24
ENDBRANCH  15  16
ENDBRANCH   8  14
BRANCH   1  26
HETATM   26  O1  UNL     1      -4.077   1.052   0.730  1.00  0.00    -0.364 OA
BRANCH  26  27
HETATM   27  C2  UNL     1      -4.834   2.153   0.323  1.00  0.00     0.166 C 
HETATM   28  C1  UNL     1      -5.922   1.667  -0.611  1.00  0.00     0.033 C 
ENDBRANCH  26  27
ENDBRANCH   1  26
TORSDOF 6
