REMARK  4 active torsions:
REMARK  status: ('A' for Active; 'I' for Inactive)
REMARK    1  A    between atoms: C5_8  and  C6_9 
REMARK    2  A    between atoms: C13_16  and  N2_17 
REMARK    3  A    between atoms: N2_17  and  N3_18 
REMARK    4  A    between atoms: C14_19  and  C15_20 
ROOT
HETATM    1  C6  UNL     1      -1.540   1.031   0.832  1.00  0.00     0.032 C 
HETATM    2  C7  UNL     1      -0.261   0.826  -0.073  1.00  0.00     0.024 C 
HETATM    3  C8  UNL     1      -0.295  -0.758   0.380  1.00  0.00     0.011 A 
HETATM    4  C9  UNL     1      -1.414  -1.052   1.464  1.00  0.00     0.020 A 
HETATM    5  C10 UNL     1      -0.525  -1.330   0.678  1.00  0.00     0.024 A 
HETATM    6  C11 UNL     1      -0.169  -2.671   0.529  1.00  0.00    -0.014 A 
HETATM    7  C12 UNL     1       0.822  -2.532  -0.405  1.00  0.00     0.004 A 
HETATM    8  C13 UNL     1       0.700  -1.122  -0.490  1.00  0.00     0.086 A 
HETATM    9  O1  UNL     1      -1.416  -0.420   1.373  1.00  0.00     0.000 OA
ENDROOT
BRANCH   1  10
HETATM   10  C5  UNL     1      -2.707   1.184   0.087  1.00  0.00    -0.007 A 
HETATM   11  C1  UNL     1      -3.960   0.775  -0.282  1.00  0.00     0.059 A 
HETATM   12 CL1  UNL     1      -4.470  -0.591   0.670  1.00  0.00    -0.082 Cl
HETATM   13  C2  UNL     1      -4.843   1.258  -1.209  1.00  0.00     0.140 A 
HETATM   14  N1  UNL     1      -4.457   2.331  -1.913  1.00  0.00    -0.270 NA
HETATM   15  C3  UNL     1      -3.226   2.877  -1.673  1.00  0.00     0.140 A 
HETATM   16  C4  UNL     1      -2.372   2.313  -0.694  1.00  0.00     0.059 A 
HETATM   17 CL2  UNL     1      -0.929   3.354  -0.744  1.00  0.00    -0.082 Cl
ENDBRANCH   1  10
BRANCH   8  18
HETATM   18  N2  UNL     1       1.582  -0.407  -1.396  1.00  0.00    -0.298 N 
HETATM   19  H9  UNL     1       1.005  -0.324  -2.278  1.00  0.00     0.183 HD
BRANCH  18  20
HETATM   20  N3  UNL     1       2.774  -0.143  -0.722  1.00  0.00    -0.189 NA
HETATM   21  C14 UNL     1       3.740  -0.967  -0.676  1.00  0.00     0.169 C 
BRANCH  21  22
HETATM   22  C15 UNL     1       4.908  -0.535   0.070  1.00  0.00     0.067 A 
HETATM   23  C16 UNL     1       6.172  -0.939   0.456  1.00  0.00     0.119 A 
HETATM   24  N4  UNL     1       5.695   0.338   0.852  1.00  0.00    -0.361 N 
HETATM   25  H12 UNL     1       5.672   1.300   1.304  1.00  0.00     0.165 HD
ENDBRANCH  21  22
ENDBRANCH  18  20
ENDBRANCH   8  18
TORSDOF 4
