REMARK  6 active torsions:
REMARK  status: ('A' for Active; 'I' for Inactive)
REMARK    1  A    between atoms: C4_4  and  C5_5 
REMARK    2  A    between atoms: C8_8  and  O1_9 
REMARK    3  A    between atoms: N1_10  and  C9_11 
REMARK    4  A    between atoms: C9_11  and  C10_12 
REMARK    5  A    between atoms: C15_17  and  O2_18 
REMARK    6  A    between atoms: N2_19  and  O3_20 
ROOT
HETATM    1  C1  UNL     1       2.260   2.730   2.120  1.00  0.00     0.047 C 
HETATM    2  C2  UNL     1       1.761   1.812   1.335  1.00  0.00     0.074 A 
HETATM    3  C3  UNL     1       2.266   0.457   1.202  1.00  0.00     0.065 A 
HETATM    4  C4  UNL     1       1.545  -0.206   0.321  1.00  0.00     0.069 A 
HETATM    5  N1  UNL     1       0.490   0.529  -0.261  1.00  0.00    -0.261 N 
HETATM    6  N2  UNL     1       0.672   1.793   0.413  1.00  0.00    -0.160 N 
ENDROOT
BRANCH   5   7
HETATM    7  C9  UNL     1      -0.605   0.547  -1.141  1.00  0.00     0.193 C 
BRANCH   7   8
HETATM    8  C10 UNL     1      -1.802  -0.233  -0.864  1.00  0.00    -0.005 A 
HETATM    9  C11 UNL     1      -2.501   0.391   0.188  1.00  0.00     0.012 A 
HETATM   10  C12 UNL     1      -3.640  -0.124   0.789  1.00  0.00     0.001 A 
HETATM   11  C13 UNL     1      -4.171  -1.334   0.367  1.00  0.00     0.003 A 
HETATM   12  C14 UNL     1      -3.526  -1.983  -0.658  1.00  0.00     0.037 A 
HETATM   13  C15 UNL     1      -2.405  -1.421  -1.212  1.00  0.00     0.073 A 
BRANCH  13  14
HETATM   14  O2  UNL     1      -1.690  -2.000  -2.268  1.00  0.00    -0.360 OA
HETATM   15  H13 UNL     1      -2.056  -1.851  -3.221  1.00  0.00     0.217 HD
ENDBRANCH  13  14
ENDBRANCH   7   8
ENDBRANCH   5   7
BRANCH   4  16
HETATM   16  C5  UNL     1       1.748  -1.580  -0.073  1.00  0.00     0.025 A 
HETATM   17  C6  UNL     1       1.338  -2.565  -0.834  1.00  0.00     0.019 A 
HETATM   18  C7  UNL     1       2.308  -3.559  -0.402  1.00  0.00     0.038 A 
HETATM   19  C8  UNL     1       2.735  -2.571   0.375  1.00  0.00     0.078 A 
BRANCH  19  20
HETATM   20  O1  UNL     1       3.803  -2.576   1.301  1.00  0.00    -0.360 OA
HETATM   21  H6  UNL     1       3.653  -2.991   2.217  1.00  0.00     0.217 HD
ENDBRANCH  19  20
ENDBRANCH   4  16
BRANCH   6  22
HETATM   22  O3  UNL     1      -0.005   2.992   0.360  1.00  0.00    -0.263 OA
HETATM   23  C16 UNL     1       0.611   3.869  -0.513  1.00  0.00     0.240 C 
ENDBRANCH   6  22
TORSDOF 6
