REMARK  5 active torsions:
REMARK  status: ('A' for Active; 'I' for Inactive)
REMARK    1  A    between atoms: C9_11  and  O2_12 
REMARK    2  A    between atoms: O2_12  and  O3_13 
REMARK    3  A    between atoms: N2_14  and  C10_15 
REMARK    4  A    between atoms: C10_15  and  C11_16 
REMARK    5  A    between atoms: C11_16  and  C12_17 
ROOT
HETATM    1  O1  UNL     1       2.094   2.413   0.719  1.00  0.00    -0.247 OA
HETATM    2  C1  UNL     1       0.942   1.909   0.656  1.00  0.00     0.323 C 
HETATM    3  N1  UNL     1       0.081   2.060   1.771  1.00  0.00    -0.337 N 
HETATM    4  C2  UNL     1      -1.273   1.677   1.412  1.00  0.00     0.182 C 
HETATM    5  C3  UNL     1      -1.086   0.854   0.177  1.00  0.00     0.039 C 
HETATM    6  C4  UNL     1      -1.934  -0.001  -0.402  1.00  0.00    -0.020 C 
HETATM    7  C5  UNL     1      -1.984  -0.900  -1.572  1.00  0.00     0.066 C 
HETATM    8  C6  UNL     1      -2.501  -2.253  -1.115  1.00  0.00    -0.026 C 
HETATM    9  C7  UNL     1      -3.109  -2.590  -0.007  1.00  0.00    -0.027 C 
HETATM   10  C8  UNL     1      -3.339  -1.467   0.975  1.00  0.00     0.066 C 
HETATM   11  C9  UNL     1      -3.254  -0.131   0.257  1.00  0.00     0.195 C 
HETATM   12  N2  UNL     1       0.210   1.155  -0.337  1.00  0.00    -0.301 N 
HETATM   13  H1  UNL     1       0.270   2.381   2.735  1.00  0.00     0.164 HD
ENDROOT
BRANCH  12  14
HETATM   14  C10 UNL     1       0.934   0.918  -1.552  1.00  0.00     0.138 C 
BRANCH  14  15
HETATM   15  C11 UNL     1       1.776  -0.320  -1.560  1.00  0.00     0.059 C 
BRANCH  15  16
HETATM   16  C12 UNL     1       2.823  -0.307  -0.503  1.00  0.00    -0.057 A 
HETATM   17  C13 UNL     1       4.070   0.204  -0.718  1.00  0.00     0.007 A 
HETATM   18  C14 UNL     1       5.088   0.247   0.218  1.00  0.00     0.001 A 
HETATM   19  C15 UNL     1       4.811  -0.272   1.472  1.00  0.00     0.000 A 
HETATM   20  C16 UNL     1       3.557  -0.796   1.719  1.00  0.00     0.001 A 
HETATM   21  C17 UNL     1       2.558  -0.827   0.768  1.00  0.00     0.007 A 
ENDBRANCH  15  16
ENDBRANCH  14  15
ENDBRANCH  12  14
BRANCH  11  22
HETATM   22  O2  UNL     1      -3.549   0.926   1.079  1.00  0.00    -0.233 OA
BRANCH  22  23
HETATM   23  O3  UNL     1      -4.627   1.558   0.660  1.00  0.00    -0.250 OA
HETATM   24  H11 UNL     1      -4.611   1.767  -0.303  1.00  0.00     0.253 HD
ENDBRANCH  22  23
ENDBRANCH  11  22
TORSDOF 5
