REMARK  9 active torsions:
REMARK  status: ('A' for Active; 'I' for Inactive)
REMARK       I    between atoms: N1_1  and  C1_2 
REMARK    1  A    between atoms: C1_2  and  C2_4 
REMARK    2  A    between atoms: C2_4  and  N2_13 
REMARK    3  A    between atoms: C3_5  and  C4_6 
REMARK    4  A    between atoms: C7_9  and  O2_10 
REMARK    5  A    between atoms: N2_13  and  C10_14 
REMARK    6  A    between atoms: N2_13  and  C11_16 
REMARK    7  A    between atoms: C11_16  and  C12_17 
REMARK    8  A    between atoms: C12_17  and  C13_18 
REMARK    9  A    between atoms: C13_18  and  C14_19 
ROOT
HETATM    1  C2  UNL     1      -1.496  -0.797  -0.708  1.00  0.00     0.104 C 
HETATM    2  C3  UNL     1      -1.470   0.286   0.025  1.00  0.00     0.046 C 
ENDROOT
BRANCH   1   3
HETATM    3  C1  UNL     1      -2.709  -1.505  -1.046  1.00  0.00     0.266 C 
HETATM    4  N1  UNL     1      -2.707  -2.679  -1.845  1.00  0.00    -0.365 N 
HETATM    5  H1  UNL     1      -2.675  -3.746  -1.858  1.00  0.00     0.159 HD
HETATM    6  H2  UNL     1      -2.712  -3.420  -2.568  1.00  0.00     0.159 HD
HETATM    7  O1  UNL     1      -3.936  -1.701  -1.032  1.00  0.00    -0.266 OA
ENDBRANCH   1   3
BRANCH   1   8
HETATM    8  N2  UNL     1      -0.279  -1.300  -1.199  1.00  0.00    -0.331 N 
BRANCH   8   9
HETATM    9  C10 UNL     1      -0.257  -2.468  -2.001  1.00  0.00     0.477 C 
HETATM   10  O3  UNL     1       0.039  -3.432  -2.697  1.00  0.00    -0.392 OA
ENDBRANCH   8   9
BRANCH   8  11
HETATM   11  C11 UNL     1       1.046  -0.784  -1.008  1.00  0.00     0.134 C 
BRANCH  11  12
HETATM   12  C12 UNL     1       1.685  -1.413   0.235  1.00  0.00     0.050 C 
BRANCH  12  13
HETATM   13  C13 UNL     1       3.018  -0.913   0.449  1.00  0.00     0.012 C 
BRANCH  13  14
HETATM   14  C14 UNL     1       4.145  -0.272   0.360  1.00  0.00     0.071 A 
HETATM   15  C15 UNL     1       4.039   0.628  -0.817  1.00  0.00     0.037 A 
HETATM   16  C16 UNL     1       5.067   1.421  -1.156  1.00  0.00     0.005 A 
HETATM   17  C17 UNL     1       6.246   1.348  -0.332  1.00  0.00     0.025 A 
HETATM   18  C18 UNL     1       6.355   0.542   0.731  1.00  0.00     0.142 A 
HETATM   19  O4  UNL     1       5.314  -0.261   1.074  1.00  0.00    -0.323 OA
ENDBRANCH  13  14
ENDBRANCH  12  13
ENDBRANCH  11  12
ENDBRANCH   8  11
ENDBRANCH   1   8
BRANCH   2  20
HETATM   20  C4  UNL     1      -2.578   0.996   0.635  1.00  0.00    -0.034 A 
HETATM   21  C5  UNL     1      -3.783   1.285  -0.017  1.00  0.00     0.014 A 
HETATM   22  C6  UNL     1      -4.865   1.937   0.532  1.00  0.00     0.037 A 
HETATM   23  C7  UNL     1      -4.742   2.342   1.845  1.00  0.00     0.065 A 
HETATM   24  C8  UNL     1      -3.608   2.117   2.593  1.00  0.00     0.037 A 
HETATM   25  C9  UNL     1      -2.587   1.456   1.947  1.00  0.00     0.014 A 
BRANCH  23  26
HETATM   26  O2  UNL     1      -5.838   3.005   2.409  1.00  0.00    -0.361 OA
HETATM   27  H6  UNL     1      -6.319   3.721   1.863  1.00  0.00     0.217 HD
ENDBRANCH  23  26
ENDBRANCH   2  20
TORSDOF 9
