REMARK  3 active torsions:
REMARK  status: ('A' for Active; 'I' for Inactive)
REMARK    1  A    between atoms: C7_10  and  S1_11 
REMARK    2  A    between atoms: S1_11  and  C8_12 
REMARK    3  A    between atoms: C16_23  and  O2_24 
ROOT
HETATM    1  C1  UNL     1       5.650   0.450  -0.524  1.00  0.00     0.026 C 
HETATM    2  C2  UNL     1       4.392   0.507  -0.127  1.00  0.00    -0.009 A 
HETATM    3  C3  UNL     1       3.893   1.131   1.091  1.00  0.00     0.051 A 
HETATM    4  C4  UNL     1       2.569   0.911   1.019  1.00  0.00     0.089 A 
HETATM    5  O1  UNL     1       1.729   1.382   2.048  1.00  0.00    -0.289 OA
HETATM    6  C5  UNL     1       0.550   0.762   2.469  1.00  0.00     0.201 A 
HETATM    7  N1  UNL     1       0.144   1.201   3.678  1.00  0.00    -0.215 NA
HETATM    8  C6  UNL     1      -0.983   0.685   4.205  1.00  0.00     0.237 A 
HETATM    9  N2  UNL     1      -1.735  -0.249   3.596  1.00  0.00    -0.232 NA
HETATM   10  C7  UNL     1      -1.350  -0.704   2.386  1.00  0.00     0.130 A 
HETATM   11  C13 UNL     1      -0.189  -0.208   1.783  1.00  0.00     0.118 A 
HETATM   12  N3  UNL     1       0.070  -0.787   0.525  1.00  0.00    -0.380 N 
HETATM   13  C14 UNL     1       0.820  -0.217  -0.552  1.00  0.00     0.164 C 
HETATM   14  C15 UNL     1       2.203   0.178  -0.186  1.00  0.00     0.028 A 
HETATM   15  C16 UNL     1       3.289  -0.071  -0.881  1.00  0.00     0.088 A 
HETATM   16  H10 UNL     1      -0.385  -1.747   0.472  1.00  0.00     0.160 HD
ENDROOT
BRANCH  10  17
HETATM   17  S1  UNL     1      -2.324  -1.937   1.561  1.00  0.00    -0.071 SA
BRANCH  17  18
HETATM   18  C8  UNL     1      -3.569  -1.196   0.543  1.00  0.00    -0.001 A 
HETATM   19  P1  UNL     1      -4.579  -2.235  -0.308  1.00  0.00    -0.019 P 
HETATM   20  C9  UNL     1      -5.784  -1.226  -1.289  1.00  0.00     0.031 A 
HETATM   21  C10 UNL     1      -5.566   0.072  -1.087  1.00  0.00    -0.010 A 
HETATM   22 BR1  UNL     1      -6.764   1.243  -2.060  1.00  0.00    -0.056 Br
HETATM   23  C11 UNL     1      -4.647   0.920  -0.310  1.00  0.00     0.051 A 
HETATM   24  C12 UNL     1      -3.625   0.263   0.519  1.00  0.00     0.053 A 
ENDBRANCH  17  18
ENDBRANCH  10  17
BRANCH  15  25
HETATM   25  O2  UNL     1       3.218  -0.762  -2.081  1.00  0.00    -0.354 OA
HETATM   26  C17 UNL     1       4.339  -1.112  -2.867  1.00  0.00     0.210 C 
ENDBRANCH  15  25
TORSDOF 3
