REMARK  5 active torsions:
REMARK  status: ('A' for Active; 'I' for Inactive)
REMARK    1  A    between atoms: C5_7  and  C6_8 
REMARK    2  A    between atoms: C9_11  and  O2_12 
REMARK    3  A    between atoms: N2_15  and  C12_16 
REMARK    4  A    between atoms: C12_16  and  C13_17 
REMARK    5  A    between atoms: C13_17  and  C14_18 
ROOT
HETATM    1  C1  UNL     1      -2.005   3.227   0.028  1.00  0.00     0.056 C 
HETATM    2  C2  UNL     1      -0.640   2.762  -0.407  1.00  0.00     0.183 C 
HETATM    3  N1  UNL     1       0.412   3.228   0.433  1.00  0.00    -0.335 N 
HETATM    4  C3  UNL     1       1.482   2.315   0.359  1.00  0.00     0.269 C 
HETATM    5  O1  UNL     1       2.649   2.607   0.678  1.00  0.00    -0.266 OA
HETATM    6  C4  UNL     1       0.870   1.098  -0.140  1.00  0.00     0.101 C 
HETATM    7  C5  UNL     1       1.471  -0.047  -0.352  1.00  0.00     0.046 C 
HETATM    8  N2  UNL     1      -0.504   1.305  -0.348  1.00  0.00    -0.355 N 
HETATM    9  H5  UNL     1       0.280   4.128   0.971  1.00  0.00     0.164 HD
ENDROOT
BRANCH   7  10
HETATM   10  C6  UNL     1       2.827  -0.506  -0.189  1.00  0.00    -0.034 A 
HETATM   11  C7  UNL     1       3.416  -0.219   1.047  1.00  0.00     0.014 A 
HETATM   12  C8  UNL     1       4.735  -0.588   1.314  1.00  0.00     0.037 A 
HETATM   13  C9  UNL     1       5.468  -1.253   0.330  1.00  0.00     0.065 A 
HETATM   14  C10 UNL     1       4.922  -1.550  -0.891  1.00  0.00     0.037 A 
HETATM   15  C11 UNL     1       3.620  -1.168  -1.112  1.00  0.00     0.014 A 
BRANCH  13  16
HETATM   16  O2  UNL     1       6.785  -1.649   0.530  1.00  0.00    -0.361 OA
HETATM   17  H9  UNL     1       7.075  -2.555   0.221  1.00  0.00     0.217 HD
ENDBRANCH  13  16
ENDBRANCH   7  10
BRANCH   8  18
HETATM   18  C12 UNL     1      -1.687   0.537  -0.482  1.00  0.00     0.130 C 
BRANCH  18  19
HETATM   19  C13 UNL     1      -1.587  -0.938  -0.545  1.00  0.00     0.054 C 
BRANCH  19  20
HETATM   20  C14 UNL     1      -2.996  -1.502  -0.622  1.00  0.00    -0.075 A 
HETATM   21  C15 UNL     1      -3.587  -2.245  -1.545  1.00  0.00     0.003 A 
HETATM   22  C16 UNL     1      -4.949  -2.492  -1.093  1.00  0.00    -0.003 A 
HETATM   23  C17 UNL     1      -5.150  -1.904   0.073  1.00  0.00    -0.022 A 
HETATM   24  C18 UNL     1      -3.907  -1.187   0.526  1.00  0.00     0.061 A 
ENDBRANCH  19  20
ENDBRANCH  18  19
ENDBRANCH   8  18
TORSDOF 5
