REMARK  5 active torsions:
REMARK  status: ('A' for Active; 'I' for Inactive)
REMARK    1  A    between atoms: N2_6  and  C3_7 
REMARK    2  A    between atoms: C3_7  and  C4_8 
REMARK    3  A    between atoms: C4_8  and  C5_9 
REMARK    4  A    between atoms: C11_15  and  C12_16 
REMARK    5  A    between atoms: C15_19  and  O3_20 
ROOT
HETATM    1  O1  UNL     1       1.771   3.627   0.284  1.00  0.00    -0.270 OA
HETATM    2  C1  UNL     1       1.550   2.501  -0.239  1.00  0.00     0.253 C 
HETATM    3  N1  UNL     1       1.466   2.196  -1.644  1.00  0.00    -0.277 N 
HETATM    4  C2  UNL     1       0.675   1.018  -1.777  1.00  0.00     0.326 C 
HETATM    5  O2  UNL     1       0.393   0.462  -2.869  1.00  0.00    -0.247 OA
HETATM    6  N2  UNL     1       0.288   0.618  -0.453  1.00  0.00    -0.316 N 
HETATM    7  C11 UNL     1       1.315   1.169   0.415  1.00  0.00     0.214 C 
HETATM    8  H1  UNL     1       1.921   2.768  -2.413  1.00  0.00     0.173 HD
ENDROOT
BRANCH   6   9
HETATM    9  C3  UNL     1      -0.905  -0.175  -0.151  1.00  0.00     0.133 C 
BRANCH   9  10
HETATM   10  C4  UNL     1      -2.031   0.828   0.079  1.00  0.00     0.058 C 
BRANCH  10  11
HETATM   11  C5  UNL     1      -3.276   0.118   0.391  1.00  0.00    -0.057 A 
HETATM   12  C6  UNL     1      -4.114  -0.238  -0.668  1.00  0.00     0.007 A 
HETATM   13  C7  UNL     1      -5.315  -0.908  -0.524  1.00  0.00     0.001 A 
HETATM   14  C8  UNL     1      -5.711  -1.247   0.748  1.00  0.00     0.000 A 
HETATM   15  C9  UNL     1      -4.890  -0.900   1.815  1.00  0.00     0.001 A 
HETATM   16  C10 UNL     1      -3.697  -0.234   1.656  1.00  0.00     0.007 A 
ENDBRANCH  10  11
ENDBRANCH   9  10
ENDBRANCH   6   9
BRANCH   7  17
HETATM   17  C12 UNL     1       2.543   0.316   0.292  1.00  0.00    -0.026 A 
HETATM   18  C13 UNL     1       2.480  -1.062   0.311  1.00  0.00     0.012 A 
HETATM   19  C14 UNL     1       3.690  -1.747   0.189  1.00  0.00     0.037 A 
HETATM   20  C15 UNL     1       4.885  -1.068   0.057  1.00  0.00     0.065 A 
HETATM   21  C16 UNL     1       4.934   0.313   0.040  1.00  0.00     0.037 A 
HETATM   22  C17 UNL     1       3.739   0.992   0.160  1.00  0.00     0.012 A 
BRANCH  20  23
HETATM   23  O3  UNL     1       6.106  -1.728  -0.067  1.00  0.00    -0.361 OA
HETATM   24  H14 UNL     1       6.829  -1.391  -0.703  1.00  0.00     0.217 HD
ENDBRANCH  20  23
ENDBRANCH   7  17
TORSDOF 5
