REMARK  6 active torsions:
REMARK  status: ('A' for Active; 'I' for Inactive)
REMARK    1  A    between atoms: N1_2  and  C2_3 
REMARK    2  A    between atoms: N1_2  and  C11_15 
REMARK    3  A    between atoms: C2_3  and  N2_4 
REMARK       I    between atoms: N2_4  and  C3_5 
REMARK    4  A    between atoms: C3_5  and  C4_7 
REMARK    5  A    between atoms: C4_7  and  O2_8 
REMARK    6  A    between atoms: O2_8  and  C5_9 
ROOT
HETATM    1  N2  UNL     1       0.386  -1.331   0.829  1.00  0.00    -0.343 N 
HETATM    2  C3  UNL     1       0.070   0.020   0.514  1.00  0.00     0.243 C 
HETATM    3  O1  UNL     1       0.900   0.986   0.438  1.00  0.00    -0.271 OA
HETATM    4  H6  UNL     1      -0.414  -2.000   0.849  1.00  0.00     0.164 HD
ENDROOT
BRANCH   1   5
HETATM    5  C2  UNL     1       1.788  -1.587   1.080  1.00  0.00     0.249 C 
BRANCH   5   6
HETATM    6  N1  UNL     1       2.617  -1.265  -0.058  1.00  0.00    -0.369 N 
HETATM    7  C1  UNL     1       2.303  -2.005  -1.256  1.00  0.00     0.151 C 
BRANCH   6   8
HETATM    8  C11 UNL     1       3.678  -0.325  -0.127  1.00  0.00     0.031 A 
HETATM    9  C12 UNL     1       4.332  -0.185  -1.332  1.00  0.00     0.029 A 
HETATM   10  C13 UNL     1       5.381   0.729  -1.441  1.00  0.00     0.002 A 
HETATM   11  C14 UNL     1       5.813   1.515  -0.401  1.00  0.00     0.000 A 
HETATM   12  C15 UNL     1       5.154   1.366   0.792  1.00  0.00     0.002 A 
HETATM   13  C16 UNL     1       4.119   0.467   0.906  1.00  0.00     0.029 A 
ENDBRANCH   6   8
ENDBRANCH   5   6
ENDBRANCH   1   5
BRANCH   2  14
HETATM   14  C4  UNL     1      -1.270   0.524   0.222  1.00  0.00     0.278 C 
BRANCH  14  15
HETATM   15  O2  UNL     1      -2.294  -0.429   0.267  1.00  0.00    -0.346 OA
BRANCH  15  16
HETATM   16  C5  UNL     1      -3.587   0.011  -0.005  1.00  0.00     0.046 C 
HETATM   17  C6  UNL     1      -4.561  -0.875   0.137  1.00  0.00     0.009 C 
HETATM   18  C7  UNL     1      -5.977  -0.532  -0.121  1.00  0.00     0.056 C 
HETATM   19  C8  UNL     1      -6.252   0.916   0.088  1.00  0.00    -0.027 C 
HETATM   20  C9  UNL     1      -5.270   1.803  -0.061  1.00  0.00    -0.024 C 
HETATM   21  C10 UNL     1      -3.892   1.396  -0.433  1.00  0.00     0.091 C 
ENDBRANCH  15  16
ENDBRANCH  14  15
ENDBRANCH   2  14
TORSDOF 6
