REMARK  5 active torsions:
REMARK  status: ('A' for Active; 'I' for Inactive)
REMARK    1  A    between atoms: O1_2  and  N1_3 
REMARK    2  A    between atoms: C2_4  and  C3_5 
REMARK    3  A    between atoms: C6_8  and  O2_9 
REMARK    4  A    between atoms: N2_12  and  C9_13 
REMARK    5  A    between atoms: C9_13  and  C10_14 
ROOT
HETATM    1  N1  UNL     1       1.383  -0.728   1.040  1.00  0.00    -0.169 N 
HETATM    2  C2  UNL     1       1.473   0.467   0.428  1.00  0.00     0.090 A 
HETATM    3  C8  UNL     1       0.241   1.077   0.546  1.00  0.00     0.129 A 
HETATM    4  N2  UNL     1      -0.616   0.288   1.219  1.00  0.00    -0.301 N 
HETATM    5  C17 UNL     1       0.127  -0.823   1.511  1.00  0.00     0.353 A 
HETATM    6  O3  UNL     1      -0.258  -1.859   2.146  1.00  0.00    -0.244 OA
ENDROOT
BRANCH   4   7
HETATM    7  C9  UNL     1      -2.000   0.378   1.643  1.00  0.00     0.172 C 
BRANCH   7   8
HETATM    8  C10 UNL     1      -2.955  -0.159   0.648  1.00  0.00    -0.034 A 
HETATM    9  C11 UNL     1      -3.508  -1.409   0.826  1.00  0.00     0.009 A 
HETATM   10  C12 UNL     1      -4.399  -2.056  -0.003  1.00  0.00     0.001 A 
HETATM   11  C13 UNL     1      -4.775  -1.352  -1.152  1.00  0.00     0.001 A 
HETATM   12  C14 UNL     1      -4.240  -0.083  -1.374  1.00  0.00     0.007 A 
HETATM   13  C15 UNL     1      -3.352   0.488  -0.487  1.00  0.00    -0.054 A 
HETATM   14  C16 UNL     1      -2.824   1.842  -0.775  1.00  0.00     0.049 C 
ENDBRANCH   7   8
ENDBRANCH   4   7
BRANCH   2  15
HETATM   15  C3  UNL     1       2.609   1.075  -0.254  1.00  0.00    -0.021 A 
HETATM   16  C4  UNL     1       2.720   2.258  -0.867  1.00  0.00     0.012 A 
HETATM   17  C5  UNL     1       4.069   2.373  -1.381  1.00  0.00     0.033 A 
HETATM   18  C6  UNL     1       4.808   1.308  -1.113  1.00  0.00     0.047 A 
HETATM   19  C7  UNL     1       3.931   0.379  -0.363  1.00  0.00     0.105 A 
BRANCH  18  20
HETATM   20  O2  UNL     1       6.125   0.979  -1.399  1.00  0.00    -0.365 OA
HETATM   21  H6  UNL     1       6.807   0.999  -0.657  1.00  0.00     0.217 HD
ENDBRANCH  18  20
ENDBRANCH   2  15
BRANCH   1  22
HETATM   22  O1  UNL     1       2.393  -1.648   1.149  1.00  0.00    -0.274 OA
HETATM   23  C1  UNL     1       2.172  -3.036   0.869  1.00  0.00     0.238 C 
ENDBRANCH   1  22
TORSDOF 5
