REMARK  5 active torsions:
REMARK  status: ('A' for Active; 'I' for Inactive)
REMARK    1  A    between atoms: C2_2  and  C3_4 
REMARK    2  A    between atoms: C4_5  and  C5_6 
REMARK    3  A    between atoms: C6_7  and  N1_8 
REMARK    4  A    between atoms: N1_8  and  C7_9 
REMARK    5  A    between atoms: C12_16  and  C13_17 
ROOT
HETATM    1  C7  UNL     1       0.840  -1.400  -0.067  1.00  0.00     0.141 A 
HETATM    2  N2  UNL     1       1.781  -2.105   0.567  1.00  0.00    -0.224 NA
HETATM    3  C8  UNL     1       1.475  -2.836   1.677  1.00  0.00     0.236 A 
HETATM    4  N3  UNL     1       0.203  -2.825   2.112  1.00  0.00    -0.241 NA
HETATM    5  C9  UNL     1      -0.793  -2.137   1.522  1.00  0.00     0.072 A 
HETATM    6  C10 UNL     1      -2.078  -2.153   1.999  1.00  0.00     0.033 A 
HETATM    7  C11 UNL     1      -3.054  -1.432   1.356  1.00  0.00     0.014 A 
HETATM    8  C12 UNL     1      -2.707  -0.700   0.230  1.00  0.00    -0.022 A 
HETATM    9  C17 UNL     1      -1.422  -0.666  -0.273  1.00  0.00     0.030 A 
HETATM   10  C18 UNL     1      -0.457  -1.397   0.388  1.00  0.00     0.040 A 
ENDROOT
BRANCH   1  11
HETATM   11  N1  UNL     1       1.262  -0.674  -1.212  1.00  0.00    -0.350 N 
HETATM   12  H9  UNL     1       0.733  -0.063  -1.863  1.00  0.00     0.166 HD
BRANCH  11  13
HETATM   13  C6  UNL     1       2.625  -0.735  -1.609  1.00  0.00     0.090 C 
HETATM   14  C5  UNL     1       3.603  -0.166  -0.928  1.00  0.00     0.017 C 
BRANCH  14  15
HETATM   15  C4  UNL     1       3.308   0.567   0.291  1.00  0.00     0.000 C 
HETATM   16  C3  UNL     1       4.256   1.154   1.005  1.00  0.00     0.009 C 
BRANCH  16  17
HETATM   17  C2  UNL     1       5.685   1.095   0.600  1.00  0.00     0.189 C 
HETATM   18  C1  UNL     1       5.913   2.228  -0.400  1.00  0.00     0.049 C 
HETATM   19  F1  UNL     1       6.516   1.291   1.711  1.00  0.00    -0.246 F 
ENDBRANCH  16  17
ENDBRANCH  14  15
ENDBRANCH  11  13
ENDBRANCH   1  11
BRANCH   8  20
HETATM   20  C13 UNL     1      -3.786   0.045  -0.409  1.00  0.00     0.010 A 
HETATM   21  C14 UNL     1      -3.844   0.301  -1.780  1.00  0.00     0.152 A 
HETATM   22  N4  UNL     1      -4.964   1.006  -2.024  1.00  0.00    -0.185 NA
HETATM   23  N5  UNL     1      -5.628   1.220  -0.905  1.00  0.00    -0.285 N 
HETATM   24  C15 UNL     1      -6.885   1.939  -0.734  1.00  0.00     0.179 C 
HETATM   25  C16 UNL     1      -4.922   0.642   0.074  1.00  0.00     0.125 A 
ENDBRANCH   8  20
TORSDOF 5
