REMARK  2 active torsions:
REMARK  status: ('A' for Active; 'I' for Inactive)
REMARK    1  A    between atoms: C10_14  and  N5_15 
REMARK    2  A    between atoms: N5_15  and  C11_16 
ROOT
HETATM    1  C1  UNL     1      -3.906   0.110  -1.518  1.00  0.00     0.179 C 
HETATM    2  N1  UNL     1      -3.368  -0.651  -0.408  1.00  0.00    -0.279 N 
HETATM    3  N2  UNL     1      -2.934  -1.988  -0.628  1.00  0.00    -0.188 NA
HETATM    4  C2  UNL     1      -2.471  -2.618   0.392  1.00  0.00     0.124 C 
HETATM    5  C3  UNL     1      -1.727  -1.625   1.301  1.00  0.00     0.076 C 
HETATM    6  C4  UNL     1      -2.790  -0.822   1.960  1.00  0.00     0.014 C 
HETATM    7  C5  UNL     1      -3.267  -0.102   0.929  1.00  0.00     0.030 C 
HETATM    8  C6  UNL     1      -3.676   1.342   0.804  1.00  0.00     0.088 C 
HETATM    9  C7  UNL     1      -2.366   2.133   0.903  1.00  0.00     0.012 C 
HETATM   10  C8  UNL     1      -1.119   1.742   0.564  1.00  0.00     0.068 A 
HETATM   11  N3  UNL     1      -0.414   2.860   0.346  1.00  0.00    -0.241 NA
HETATM   12  C9  UNL     1       0.879   2.781  -0.014  1.00  0.00     0.235 A 
HETATM   13  N4  UNL     1       1.516   1.612  -0.171  1.00  0.00    -0.224 NA
HETATM   14  C10 UNL     1       0.856   0.467   0.036  1.00  0.00     0.141 A 
HETATM   15  C17 UNL     1      -0.469   0.509   0.405  1.00  0.00     0.036 A 
HETATM   16  C18 UNL     1      -0.828  -0.780   0.516  1.00  0.00     0.005 C 
ENDROOT
BRANCH  14  17
HETATM   17  N5  UNL     1       1.589  -0.738  -0.135  1.00  0.00    -0.340 N 
HETATM   18  H11 UNL     1       1.529  -1.773  -0.084  1.00  0.00     0.167 HD
BRANCH  17  19
HETATM   19  C11 UNL     1       2.964  -0.675  -0.503  1.00  0.00     0.035 A 
HETATM   20  C12 UNL     1       3.690  -1.429  -1.414  1.00  0.00     0.032 A 
HETATM   21  C13 UNL     1       5.030  -1.310  -1.690  1.00  0.00     0.046 A 
HETATM   22  C14 UNL     1       5.727  -0.349  -0.996  1.00  0.00     0.138 A 
HETATM   23  F1  UNL     1       7.046  -0.255  -1.289  1.00  0.00    -0.204 F 
HETATM   24  C15 UNL     1       5.050   0.432  -0.074  1.00  0.00     0.074 A 
HETATM   25 CL1  UNL     1       6.116   1.607   0.712  1.00  0.00    -0.081 Cl
HETATM   26  C16 UNL     1       3.707   0.292   0.183  1.00  0.00     0.056 A 
ENDBRANCH  17  19
ENDBRANCH  14  17
TORSDOF 2
