REMARK  0 active torsions:
REMARK  status: ('A' for Active; 'I' for Inactive)
ROOT
HETATM    1 BR1  UNL     1       4.386   2.927  -0.201  1.00  0.00    -0.050 Br
HETATM    2  C1  UNL     1       3.809   1.106  -0.388  1.00  0.00     0.019 A 
HETATM    3  C2  UNL     1       4.836   0.222  -0.590  1.00  0.00     0.020 A 
HETATM    4  C3  UNL     1       4.684  -1.127  -0.751  1.00  0.00     0.003 A 
HETATM    5  C4  UNL     1       3.326  -1.482  -0.681  1.00  0.00     0.024 A 
HETATM    6  C5  UNL     1       2.238  -0.620  -0.477  1.00  0.00     0.022 A 
HETATM    7  C6  UNL     1       2.486   0.744  -0.321  1.00  0.00    -0.014 A 
HETATM    8  C7  UNL     1       1.603   1.896  -0.091  1.00  0.00     0.088 C 
HETATM    9  C8  UNL     1       0.337   1.601   0.623  1.00  0.00     0.088 C 
HETATM   10  N1  UNL     1      -0.611   2.404   0.411  1.00  0.00    -0.301 NA
HETATM   11  C9  UNL     1      -1.940   2.350   0.968  1.00  0.00     0.183 C 
HETATM   12  C10 UNL     1      -2.639   1.252   0.179  1.00  0.00    -0.046 C 
HETATM   13  C11 UNL     1      -3.603   0.484   0.702  1.00  0.00    -0.014 C 
HETATM   14  C12 UNL     1      -3.855  -0.910   0.184  1.00  0.00     0.089 C 
HETATM   15  C13 UNL     1      -2.539  -1.654   0.310  1.00  0.00     0.069 A 
HETATM   16  N2  UNL     1      -2.642  -2.768   1.054  1.00  0.00    -0.244 NA
HETATM   17  C14 UNL     1      -1.504  -3.445   1.289  1.00  0.00     0.235 A 
HETATM   18  N3  UNL     1      -0.309  -3.045   0.814  1.00  0.00    -0.227 NA
HETATM   19  C15 UNL     1      -0.137  -1.921   0.050  1.00  0.00     0.137 A 
HETATM   20  C16 UNL     1      -1.317  -1.189  -0.219  1.00  0.00     0.094 A 
HETATM   21  N4  UNL     1      -1.169  -0.028  -1.090  1.00  0.00    -0.382 N 
HETATM   22  C17 UNL     1      -2.099   1.110  -1.238  1.00  0.00     0.155 C 
HETATM   23  N5  UNL     1       1.012  -1.317  -0.487  1.00  0.00    -0.241 NA
HETATM   24  H13 UNL     1      -0.302  -0.019  -1.672  1.00  0.00     0.160 HD
HETATM   25  H16 UNL     1       1.194  -1.128   0.550  1.00  0.00     0.135 HD
ENDROOT
TORSDOF 0
