REMARK  5 active torsions:
REMARK  status: ('A' for Active; 'I' for Inactive)
REMARK    1  A    between atoms: C2_3  and  C3_5 
REMARK    2  A    between atoms: C4_6  and  N1_7 
REMARK    3  A    between atoms: N1_7  and  C5_8 
REMARK    4  A    between atoms: C10_15  and  C11_16 
REMARK    5  A    between atoms: C11_16  and  N4_17 
ROOT
HETATM    1  C5  UNL     1       1.123   0.226   0.503  1.00  0.00     0.141 A 
HETATM    2  N2  UNL     1       2.011   0.714   1.386  1.00  0.00    -0.224 NA
HETATM    3  C6  UNL     1       1.744   1.854   2.090  1.00  0.00     0.236 A 
HETATM    4  N3  UNL     1       0.556   2.496   1.885  1.00  0.00    -0.241 NA
HETATM    5  C7  UNL     1      -0.339   1.992   0.987  1.00  0.00     0.072 A 
HETATM    6  C8  UNL     1      -1.541   2.644   0.782  1.00  0.00     0.033 A 
HETATM    7  C9  UNL     1      -2.455   2.145  -0.124  1.00  0.00     0.011 A 
HETATM    8  C10 UNL     1      -2.185   0.978  -0.847  1.00  0.00    -0.038 A 
HETATM    9  C14 UNL     1      -0.983   0.319  -0.647  1.00  0.00     0.026 A 
HETATM   10  C15 UNL     1      -0.089   0.841   0.265  1.00  0.00     0.039 A 
ENDROOT
BRANCH   1  11
HETATM   11  N1  UNL     1       1.512  -0.949  -0.156  1.00  0.00    -0.350 N 
HETATM   12  H4  UNL     1       1.039  -1.538  -0.875  1.00  0.00     0.166 HD
BRANCH  11  13
HETATM   13  C4  UNL     1       2.765  -1.554   0.114  1.00  0.00     0.091 C 
HETATM   14  C3  UNL     1       3.853  -0.785   0.064  1.00  0.00     0.043 C 
BRANCH  14  15
HETATM   15  C2  UNL     1       5.197  -1.292   0.323  1.00  0.00     0.062 C 
HETATM   16  C1  UNL     1       6.336  -0.615   0.299  1.00  0.00     0.212 C 
HETATM   17  F1  UNL     1       7.421  -1.345   0.579  1.00  0.00    -0.218 F 
HETATM   18 CL1  UNL     1       5.444  -2.989   0.724  1.00  0.00    -0.082 Cl
ENDBRANCH  14  15
ENDBRANCH  11  13
ENDBRANCH   1  11
BRANCH   8  19
HETATM   19  C11 UNL     1      -3.187   0.463  -1.816  1.00  0.00     0.183 C 
BRANCH  19  20
HETATM   20  N4  UNL     1      -4.117  -0.467  -1.169  1.00  0.00    -0.297 N 
HETATM   21  C12 UNL     1      -3.787  -1.721  -0.497  1.00  0.00     0.193 A 
HETATM   22  C13 UNL     1      -5.279  -1.686  -0.327  1.00  0.00     0.132 A 
HETATM   23  N5  UNL     1      -5.510  -0.554  -0.941  1.00  0.00    -0.192 NA
ENDBRANCH  19  20
ENDBRANCH   8  19
TORSDOF 5
