REMARK  2 active torsions:
REMARK  status: ('A' for Active; 'I' for Inactive)
REMARK    1  A    between atoms: C2_2  and  C4_4 
REMARK    2  A    between atoms: C9_11  and  N3_12 
ROOT
HETATM    1  C4  UNL     1       2.859  -0.030   0.102  1.00  0.00    -0.030 A 
HETATM    2  C5  UNL     1       3.761  -1.057  -0.199  1.00  0.00     0.014 A 
HETATM    3  C6  UNL     1       3.213  -2.194  -0.805  1.00  0.00     0.033 A 
HETATM    4  C7  UNL     1       1.875  -2.312  -1.095  1.00  0.00     0.072 A 
HETATM    5  N1  UNL     1       1.342  -3.386  -1.684  1.00  0.00    -0.241 NA
HETATM    6  C8  UNL     1       0.030  -3.437  -1.952  1.00  0.00     0.236 A 
HETATM    7  N2  UNL     1      -0.770  -2.410  -1.631  1.00  0.00    -0.224 NA
HETATM    8  C9  UNL     1      -0.323  -1.272  -1.027  1.00  0.00     0.140 A 
HETATM    9  C17 UNL     1       1.027  -1.284  -0.783  1.00  0.00     0.039 A 
HETATM   10  C18 UNL     1       1.530  -0.173  -0.197  1.00  0.00     0.029 A 
ENDROOT
BRANCH   8  11
HETATM   11  N3  UNL     1      -1.337  -0.319  -0.705  1.00  0.00    -0.356 N 
HETATM   12  C10 UNL     1      -2.539  -0.346  -1.574  1.00  0.00     0.153 C 
HETATM   13  C11 UNL     1      -3.507  -1.196  -0.820  1.00  0.00     0.013 C 
HETATM   14  C12 UNL     1      -3.705  -0.634   0.366  1.00  0.00     0.015 C 
HETATM   15 CL1  UNL     1      -4.816  -1.438   1.475  1.00  0.00    -0.089 Cl
HETATM   16  C13 UNL     1      -3.035   0.627   0.777  1.00  0.00     0.048 C 
HETATM   17  C14 UNL     1      -3.101   0.870   2.247  1.00  0.00     0.018 C 
HETATM   18  C15 UNL     1      -1.580   0.697   0.298  1.00  0.00     0.091 C 
HETATM   19  C16 UNL     1      -1.463   2.051  -0.380  1.00  0.00     0.033 C 
ENDBRANCH   8  11
BRANCH   1  20
HETATM   20  C2  UNL     1       3.412   1.174   0.739  1.00  0.00    -0.061 C 
HETATM   21  C1  UNL     1       4.714   1.191   0.976  1.00  0.00     0.019 C 
HETATM   22  C3  UNL     1       2.547   2.298   1.090  1.00  0.00     0.048 C 
ENDBRANCH   1  20
TORSDOF 2
