REMARK  0 active torsions:
REMARK  status: ('A' for Active; 'I' for Inactive)
ROOT
HETATM    1  C1  UNL     1       4.193   1.411  -1.058  1.00  0.00     0.038 C 
HETATM    2  C2  UNL     1       3.533   0.095  -1.141  1.00  0.00    -0.005 C 
HETATM    3  C3  UNL     1       2.314  -0.316  -0.864  1.00  0.00     0.022 C 
HETATM    4  C4  UNL     1       1.868  -1.728  -1.031  1.00  0.00     0.195 A 
HETATM    5  C5  UNL     1       0.573  -2.014  -0.702  1.00  0.00     0.062 A 
HETATM    6 CL1  UNL     1       1.256  -3.593  -1.248  1.00  0.00    -0.200 Cl
HETATM    7  C6  UNL     1      -0.866  -2.024  -0.274  1.00  0.00     0.196 C 
HETATM    8  F1  UNL     1      -1.665  -2.314  -1.413  1.00  0.00    -0.247 F 
HETATM    9  C7  UNL     1      -1.389  -1.075   0.621  1.00  0.00     0.062 C 
HETATM   10  C8  UNL     1      -0.997   0.406   0.664  1.00  0.00     0.072 A 
HETATM   11  C9  UNL     1      -0.400   1.437   1.247  1.00  0.00     0.047 A 
HETATM   12  C10 UNL     1      -1.932   1.319   1.670  1.00  0.00     0.059 A 
HETATM   13  C11 UNL     1      -2.795   2.018   2.543  1.00  0.00     0.107 A 
HETATM   14  N1  UNL     1      -3.820   1.113   2.157  1.00  0.00    -0.269 NA
HETATM   15  C12 UNL     1      -3.127   0.412   1.336  1.00  0.00     0.052 A 
HETATM   16  C13 UNL     1      -2.924  -0.691   0.256  1.00  0.00     0.165 C 
HETATM   17  N2  UNL     1      -2.774  -0.025  -1.056  1.00  0.00    -0.272 NA
HETATM   18  C14 UNL     1      -1.576   0.393  -1.580  1.00  0.00     0.224 C 
HETATM   19  N3  UNL     1      -0.104   0.602  -1.363  1.00  0.00    -0.250 NA
HETATM   20  C15 UNL     1       0.252   0.974  -0.075  1.00  0.00     0.143 A 
HETATM   21  N4  UNL     1       1.595   0.882  -0.411  1.00  0.00    -0.363 N 
HETATM   22  H12 UNL     1       1.702   1.867  -0.226  1.00  0.00     0.162 HD
ENDROOT
TORSDOF 0
