REMARK  2 active torsions:
REMARK  status: ('A' for Active; 'I' for Inactive)
REMARK    1  A    between atoms: C3_4  and  C4_5 
REMARK    2  A    between atoms: C9_12  and  N4_13 
ROOT
HETATM    1  C4  UNL     1      -1.504  -0.602   0.071  1.00  0.00    -0.022 A 
HETATM    2  C5  UNL     1      -2.016  -1.887  -0.136  1.00  0.00     0.014 A 
HETATM    3  C6  UNL     1      -1.202  -2.951  -0.443  1.00  0.00     0.033 A 
HETATM    4  C7  UNL     1       0.173  -2.801  -0.562  1.00  0.00     0.072 A 
HETATM    5  N2  UNL     1       1.030  -3.777  -0.851  1.00  0.00    -0.241 NA
HETATM    6  C8  UNL     1       2.347  -3.522  -0.938  1.00  0.00     0.236 A 
HETATM    7  N3  UNL     1       2.824  -2.261  -0.732  1.00  0.00    -0.223 NA
HETATM    8  C9  UNL     1       1.978  -1.229  -0.434  1.00  0.00     0.143 A 
HETATM    9  C15 UNL     1       0.634  -1.521  -0.351  1.00  0.00     0.040 A 
HETATM   10  C16 UNL     1      -0.139  -0.446  -0.046  1.00  0.00     0.030 A 
ENDROOT
BRANCH   8  11
HETATM   11  N4  UNL     1       2.684  -0.011  -0.286  1.00  0.00    -0.336 N 
HETATM   12  C10 UNL     1       3.491  -0.087   0.910  1.00  0.00     0.120 A 
HETATM   13  C11 UNL     1       4.277   0.871   1.377  1.00  0.00     0.087 A 
HETATM   14 CL1  UNL     1       5.276   0.805   2.839  1.00  0.00    -0.080 Cl
HETATM   15  C12 UNL     1       4.373   2.147   0.641  1.00  0.00     0.137 A 
HETATM   16  F1  UNL     1       5.132   3.191   1.012  1.00  0.00    -0.205 F 
HETATM   17  C13 UNL     1       3.643   2.208  -0.445  1.00  0.00     0.037 A 
HETATM   18  C14 UNL     1       2.738   1.200  -1.050  1.00  0.00     0.160 A 
ENDBRANCH   8  11
BRANCH   1  19
HETATM   19  C3  UNL     1      -2.475   0.440   0.390  1.00  0.00     0.010 A 
HETATM   20  C2  UNL     1      -3.767   0.435  -0.099  1.00  0.00     0.125 A 
HETATM   21  N1  UNL     1      -4.414   1.517   0.368  1.00  0.00    -0.285 N 
HETATM   22  C1  UNL     1      -5.789   1.877   0.088  1.00  0.00     0.179 C 
HETATM   23  N5  UNL     1      -3.583   2.212   1.137  1.00  0.00    -0.185 NA
HETATM   24  C17 UNL     1      -2.383   1.587   1.178  1.00  0.00     0.152 A 
ENDBRANCH   1  19
TORSDOF 2
