REMARK  4 active torsions:
REMARK  status: ('A' for Active; 'I' for Inactive)
REMARK    1  A    between atoms: C3_3  and  N1_4 
REMARK    2  A    between atoms: C9_11  and  N3_12 
REMARK    3  A    between atoms: N3_12  and  C10_13 
REMARK    4  A    between atoms: C15_20  and  C16_21 
ROOT
HETATM    1  C10 UNL     1      -0.185  -0.955   1.593  1.00  0.00     0.139 A 
HETATM    2  N4  UNL     1      -0.794  -1.778   2.451  1.00  0.00    -0.224 NA
HETATM    3  C11 UNL     1      -0.144  -2.691   3.193  1.00  0.00     0.235 A 
HETATM    4  N5  UNL     1       1.212  -2.843   3.119  1.00  0.00    -0.241 NA
HETATM    5  C12 UNL     1       1.901  -2.043   2.269  1.00  0.00     0.072 A 
HETATM    6  C13 UNL     1       3.260  -2.199   2.203  1.00  0.00     0.033 A 
HETATM    7  C14 UNL     1       3.958  -1.380   1.339  1.00  0.00     0.014 A 
HETATM    8  C15 UNL     1       3.294  -0.425   0.560  1.00  0.00    -0.022 A 
HETATM    9  C20 UNL     1       1.926  -0.334   0.688  1.00  0.00     0.030 A 
HETATM   10  C21 UNL     1       1.181  -1.126   1.535  1.00  0.00     0.039 A 
ENDROOT
BRANCH   1  11
HETATM   11  N3  UNL     1      -0.894  -0.001   0.815  1.00  0.00    -0.350 N 
HETATM   12  H12 UNL     1      -0.503   0.652   0.141  1.00  0.00     0.163 HD
BRANCH  11  13
HETATM   13  C9  UNL     1      -2.362   0.037   1.019  1.00  0.00     0.201 A 
HETATM   14  C2  UNL     1      -2.951   1.064   0.129  1.00  0.00    -0.017 A 
HETATM   15  C1  UNL     1      -2.203   2.333   0.435  1.00  0.00     0.050 C 
HETATM   16  C3  UNL     1      -3.835   1.418  -0.823  1.00  0.00     0.031 A 
HETATM   17  C4  UNL     1      -4.898   0.895  -1.668  1.00  0.00     0.029 A 
HETATM   18  C5  UNL     1      -5.585  -0.184  -1.981  1.00  0.00     0.002 A 
HETATM   19  C6  UNL     1      -5.656  -1.569  -1.612  1.00  0.00    -0.002 A 
HETATM   20  C7  UNL     1      -4.921  -2.194  -0.716  1.00  0.00     0.002 A 
HETATM   21  C8  UNL     1      -3.855  -1.577   0.104  1.00  0.00     0.319 A 
HETATM   22  N2  UNL     1      -2.938  -1.236   0.867  1.00  0.00    -0.414 NA
BRANCH  16  23
HETATM   23  N1  UNL     1      -3.585   2.831  -1.037  1.00  0.00    -0.399 N 
HETATM   24  H4  UNL     1      -3.384   3.811  -1.255  1.00  0.00     0.156 HD
HETATM   25  H5  UNL     1      -3.367   3.823  -1.297  1.00  0.00     0.156 HD
ENDBRANCH  16  23
ENDBRANCH  11  13
ENDBRANCH   1  11
BRANCH   8  26
HETATM   26  C16 UNL     1       4.094   0.411  -0.329  1.00  0.00     0.010 A 
HETATM   27  C17 UNL     1       3.791   1.722  -0.688  1.00  0.00     0.152 A 
HETATM   28  N6  UNL     1       4.797   2.101  -1.516  1.00  0.00    -0.185 NA
HETATM   29  N7  UNL     1       5.650   1.092  -1.650  1.00  0.00    -0.285 N 
HETATM   30  C18 UNL     1       6.863   1.093  -2.451  1.00  0.00     0.179 C 
HETATM   31  C19 UNL     1       5.284   0.007  -0.944  1.00  0.00     0.125 A 
ENDBRANCH   8  26
TORSDOF 4
