REMARK  3 active torsions:
REMARK  status: ('A' for Active; 'I' for Inactive)
REMARK    1  A    between atoms: C3_4  and  C4_5 
REMARK    2  A    between atoms: C9_12  and  N4_13 
REMARK    3  A    between atoms: N4_13  and  C10_14 
ROOT
HETATM    1  C4  UNL     1      -2.890  -1.310   0.344  1.00  0.00    -0.022 A 
HETATM    2  C5  UNL     1      -3.198  -2.176   1.371  1.00  0.00     0.014 A 
HETATM    3  C6  UNL     1      -2.202  -2.396   2.314  1.00  0.00     0.033 A 
HETATM    4  C7  UNL     1      -0.984  -1.766   2.199  1.00  0.00     0.072 A 
HETATM    5  N2  UNL     1      -0.041  -2.010   3.138  1.00  0.00    -0.241 NA
HETATM    6  C8  UNL     1       1.168  -1.407   3.051  1.00  0.00     0.236 A 
HETATM    7  N3  UNL     1       1.401  -0.577   2.029  1.00  0.00    -0.224 NA
HETATM    8  C9  UNL     1       0.543  -0.266   1.049  1.00  0.00     0.142 A 
HETATM    9  C18 UNL     1      -0.666  -0.902   1.181  1.00  0.00     0.040 A 
HETATM   10  C19 UNL     1      -1.663  -0.694   0.255  1.00  0.00     0.030 A 
ENDROOT
BRANCH   8  11
HETATM   11  N4  UNL     1       0.799   0.618  -0.032  1.00  0.00    -0.341 N 
HETATM   12  H8  UNL     1       0.017   0.819  -0.687  1.00  0.00     0.167 HD
BRANCH  11  13
HETATM   13  C10 UNL     1       2.025   1.267  -0.327  1.00  0.00     0.020 A 
HETATM   14  C11 UNL     1       1.947   2.447  -1.006  1.00  0.00    -0.050 A 
HETATM   15  B1  UNL     1       3.317   3.370  -1.441  1.00  0.00     0.240 B 
HETATM   16  C12 UNL     1       4.870   2.195  -0.730  1.00  0.00    -0.004 A 
HETATM   17  N5  UNL     1       6.026   2.712  -0.981  1.00  0.00    -0.277 NA
HETATM   18  C16 UNL     1       4.436   1.068  -0.107  1.00  0.00    -0.021 A 
HETATM   19  C13 UNL     1       7.151   2.055  -0.567  1.00  0.00     0.115 A 
HETATM   20  C14 UNL     1       6.858   0.870   0.095  1.00  0.00     0.020 A 
HETATM   21  C15 UNL     1       5.577   0.423   0.301  1.00  0.00     0.014 A 
HETATM   22  C17 UNL     1       3.165   0.677   0.060  1.00  0.00     0.040 A 
ENDBRANCH  11  13
ENDBRANCH   8  11
BRANCH   1  23
HETATM   23  C3  UNL     1      -3.983  -1.115  -0.625  1.00  0.00     0.010 A 
HETATM   24  C2  UNL     1      -4.240   0.030  -1.349  1.00  0.00     0.125 A 
HETATM   25  N1  UNL     1      -5.320  -0.141  -2.144  1.00  0.00    -0.285 N 
HETATM   26  C1  UNL     1      -5.922   0.811  -3.061  1.00  0.00     0.179 C 
HETATM   27  N6  UNL     1      -5.751  -1.394  -1.927  1.00  0.00    -0.185 NA
HETATM   28  C20 UNL     1      -4.963  -1.999  -1.018  1.00  0.00     0.152 A 
ENDBRANCH   1  23
TORSDOF 3
