REMARK  2 active torsions:
REMARK  status: ('A' for Active; 'I' for Inactive)
REMARK    1  A    between atoms: C3_4  and  C4_5 
REMARK    2  A    between atoms: C9_12  and  C10_13 
ROOT
HETATM    1  C4  UNL     1      -1.884  -0.988  -0.225  1.00  0.00    -0.022 A 
HETATM    2  C5  UNL     1      -2.539  -2.196  -0.184  1.00  0.00     0.014 A 
HETATM    3  C6  UNL     1      -1.892  -3.414  -0.213  1.00  0.00     0.033 A 
HETATM    4  C7  UNL     1      -0.515  -3.396  -0.288  1.00  0.00     0.070 A 
HETATM    5  N2  UNL     1       0.199  -4.550  -0.321  1.00  0.00    -0.241 NA
HETATM    6  C8  UNL     1       1.543  -4.452  -0.395  1.00  0.00     0.234 A 
HETATM    7  N3  UNL     1       2.236  -3.277  -0.438  1.00  0.00    -0.240 NA
HETATM    8  C9  UNL     1       1.528  -2.111  -0.405  1.00  0.00     0.082 A 
HETATM    9  C18 UNL     1       0.152  -2.189  -0.330  1.00  0.00     0.023 A 
HETATM   10  C19 UNL     1      -0.486  -0.965  -0.301  1.00  0.00     0.028 A 
ENDROOT
BRANCH   8  11
HETATM   11  C10 UNL     1       2.357  -0.937  -0.456  1.00  0.00     0.008 A 
HETATM   12  C11 UNL     1       3.219  -0.417  -1.287  1.00  0.00     0.020 A 
HETATM   13  C12 UNL     1       3.749   0.711  -0.900  1.00  0.00     0.078 A 
HETATM   14  N4  UNL     1       4.660   1.570  -1.434  1.00  0.00    -0.259 NA
HETATM   15  C16 UNL     1       3.202   1.028   0.343  1.00  0.00    -0.006 A 
HETATM   16  C13 UNL     1       5.043   2.704  -0.801  1.00  0.00     0.117 A 
HETATM   17  C14 UNL     1       4.529   3.069   0.441  1.00  0.00     0.020 A 
HETATM   18  C15 UNL     1       3.607   2.190   0.970  1.00  0.00     0.015 A 
HETATM   19  C17 UNL     1       2.348   0.048   0.648  1.00  0.00     0.028 A 
ENDBRANCH   8  11
BRANCH   1  20
HETATM   20  C3  UNL     1      -2.590   0.287  -0.193  1.00  0.00     0.010 A 
HETATM   21  C2  UNL     1      -3.774   0.671   0.416  1.00  0.00     0.125 A 
HETATM   22  N1  UNL     1      -4.029   1.963   0.163  1.00  0.00    -0.285 N 
HETATM   23  C1  UNL     1      -5.164   2.715   0.625  1.00  0.00     0.179 C 
HETATM   24  N5  UNL     1      -3.043   2.414  -0.589  1.00  0.00    -0.185 NA
HETATM   25  C20 UNL     1      -2.151   1.452  -0.834  1.00  0.00     0.152 A 
ENDBRANCH   1  20
TORSDOF 2
