REMARK  3 active torsions:
REMARK  status: ('A' for Active; 'I' for Inactive)
REMARK    1  A    between atoms: C3_4  and  C4_5 
REMARK    2  A    between atoms: C9_12  and  C10_13 
REMARK    3  A    between atoms: C15_19  and  N5_20 
ROOT
HETATM    1  C4  UNL     1       2.233  -0.726   0.162  1.00  0.00    -0.022 A 
HETATM    2  C5  UNL     1       3.059  -1.743   0.591  1.00  0.00     0.014 A 
HETATM    3  C6  UNL     1       2.496  -2.690   1.417  1.00  0.00     0.033 A 
HETATM    4  C7  UNL     1       1.164  -2.671   1.830  1.00  0.00     0.070 A 
HETATM    5  N2  UNL     1       0.637  -3.607   2.636  1.00  0.00    -0.241 NA
HETATM    6  C8  UNL     1      -0.673  -3.537   3.006  1.00  0.00     0.234 A 
HETATM    7  N3  UNL     1      -1.404  -2.516   2.544  1.00  0.00    -0.240 NA
HETATM    8  C9  UNL     1      -0.895  -1.571   1.737  1.00  0.00     0.082 A 
HETATM    9  C18 UNL     1       0.436  -1.610   1.339  1.00  0.00     0.023 A 
HETATM   10  C19 UNL     1       0.902  -0.614   0.511  1.00  0.00     0.028 A 
ENDROOT
BRANCH   8  11
HETATM   11  C10 UNL     1      -1.839  -0.533   1.331  1.00  0.00     0.008 A 
HETATM   12  C11 UNL     1      -2.158   0.670   1.766  1.00  0.00     0.020 A 
HETATM   13  C12 UNL     1      -3.092   1.253   1.069  1.00  0.00     0.081 A 
HETATM   14  N4  UNL     1      -3.742   2.442   1.110  1.00  0.00    -0.259 NA
HETATM   15  C16 UNL     1      -3.506   0.436   0.039  1.00  0.00     0.021 A 
HETATM   16  C13 UNL     1      -4.695   2.767   0.217  1.00  0.00     0.119 A 
HETATM   17  C14 UNL     1      -5.101   1.936  -0.815  1.00  0.00     0.049 A 
HETATM   18  C15 UNL     1      -4.470   0.700  -0.909  1.00  0.00     0.039 A 
HETATM   19  C17 UNL     1      -2.752  -0.670   0.175  1.00  0.00     0.031 A 
BRANCH  18  20
HETATM   20  N5  UNL     1      -4.808  -0.231  -1.928  1.00  0.00    -0.398 N 
HETATM   21  H10 UNL     1      -5.352   0.137  -2.749  1.00  0.00     0.156 HD
HETATM   22  H11 UNL     1      -4.497  -1.217  -1.801  1.00  0.00     0.156 HD
ENDBRANCH  18  20
ENDBRANCH   8  11
BRANCH   1  23
HETATM   23  C3  UNL     1       2.808   0.289  -0.714  1.00  0.00     0.010 A 
HETATM   24  C2  UNL     1       4.102   0.774  -0.745  1.00  0.00     0.125 A 
HETATM   25  N1  UNL     1       4.291   1.709  -1.679  1.00  0.00    -0.285 N 
HETATM   26  C1  UNL     1       5.506   2.418  -1.981  1.00  0.00     0.179 C 
HETATM   27  N6  UNL     1       3.129   1.840  -2.260  1.00  0.00    -0.185 NA
HETATM   28  C20 UNL     1       2.198   1.025  -1.736  1.00  0.00     0.152 A 
ENDBRANCH   1  23
TORSDOF 3
