REMARK  0 active torsions:
REMARK  status: ('A' for Active; 'I' for Inactive)
ROOT
HETATM    1  C1  UNL     1       3.580  -0.407  -1.509  1.00  0.00     0.179 C 
HETATM    2  N1  UNL     1       3.168  -1.406  -0.533  1.00  0.00    -0.285 N 
HETATM    3  C2  UNL     1       2.553  -2.591  -1.129  1.00  0.00     0.125 C 
HETATM    4  C3  UNL     1       1.572  -2.422  -1.972  1.00  0.00     0.006 C 
HETATM    5  P1  UNL     1       0.754  -0.975  -1.798  1.00  0.00    -0.021 P 
HETATM    6  C4  UNL     1       0.362  -0.628  -0.042  1.00  0.00     0.129 C 
HETATM    7  C5  UNL     1       0.058   0.742   0.395  1.00  0.00     0.052 C 
HETATM    8  C6  UNL     1       1.122   1.773   0.440  1.00  0.00     0.039 C 
HETATM    9  C7  UNL     1       0.260   2.898   0.929  1.00  0.00     0.089 C 
HETATM   10  N2  UNL     1      -0.935   2.735   0.423  1.00  0.00    -0.295 NA
HETATM   11  C8  UNL     1      -0.936   1.553  -0.391  1.00  0.00     0.145 C 
HETATM   12  C9  UNL     1      -2.203   0.834  -0.483  1.00  0.00    -0.027 C 
HETATM   13  C10 UNL     1      -3.387   1.525  -0.236  1.00  0.00     0.026 C 
HETATM   14  C11 UNL     1      -4.585   0.807   0.388  1.00  0.00     0.117 C 
HETATM   15  N3  UNL     1      -4.643  -0.562   0.620  1.00  0.00    -0.261 NA
HETATM   16  C12 UNL     1      -3.453  -1.378   0.297  1.00  0.00     0.056 C 
HETATM   17  C13 UNL     1      -3.063  -1.445  -1.003  1.00  0.00     0.034 C 
HETATM   18  C14 UNL     1      -1.888  -0.570  -0.875  1.00  0.00     0.141 C 
HETATM   19  N4  UNL     1      -0.988  -1.264   0.075  1.00  0.00    -0.368 N 
HETATM   20  C15 UNL     1      -1.442  -2.369   0.969  1.00  0.00     0.090 C 
HETATM   21  C16 UNL     1      -2.601  -1.896   1.431  1.00  0.00     0.048 C 
HETATM   22  C17 UNL     1       2.252   1.499   1.358  1.00  0.00     0.059 C 
HETATM   23  C18 UNL     1       2.994   0.264   1.036  1.00  0.00     0.112 C 
HETATM   24  N5  UNL     1       3.576  -0.810   0.669  1.00  0.00    -0.190 NA
ENDROOT
TORSDOF 0
