REMARK  1 active torsions:
REMARK  status: ('A' for Active; 'I' for Inactive)
REMARK    1  A    between atoms: C3_4  and  C4_5 
ROOT
HETATM    1  C4  UNL     1      -1.827  -0.421   0.277  1.00  0.00    -0.039 C 
HETATM    2  C5  UNL     1      -1.394   0.823   0.336  1.00  0.00     0.040 C 
HETATM    3  C6  UNL     1      -0.678   2.134   0.353  1.00  0.00     0.104 C 
HETATM    4  C7  UNL     1       0.732   1.956   0.153  1.00  0.00    -0.101 C 
HETATM    5  C8  UNL     1       1.836   1.795  -0.006  1.00  0.00    -0.069 C 
HETATM    6  C9  UNL     1       3.187   1.573  -0.203  1.00  0.00     0.019 C 
HETATM    7  C10 UNL     1       4.016   2.513  -0.547  1.00  0.00    -0.004 C 
HETATM    8  C11 UNL     1       5.438   2.286  -0.756  1.00  0.00     0.056 C 
HETATM    9  C12 UNL     1       5.833   0.861  -0.916  1.00  0.00    -0.009 C 
HETATM   10  P1  UNL     1       4.856  -0.472  -0.549  1.00  0.00    -0.034 P 
HETATM   11  C13 UNL     1       3.185   0.093   0.096  1.00  0.00     0.161 C 
HETATM   12  N2  UNL     1       2.054  -0.492  -0.591  1.00  0.00    -0.360 N 
HETATM   13  C14 UNL     1       1.224  -1.655  -0.529  1.00  0.00     0.133 A 
HETATM   14  N3  UNL     1       2.246  -2.357  -0.818  1.00  0.00    -0.225 NA
HETATM   15  C15 UNL     1       2.188  -3.764  -0.949  1.00  0.00     0.229 A 
HETATM   16  N4  UNL     1       1.046  -4.203  -0.754  1.00  0.00    -0.278 NA
HETATM   17  C16 UNL     1      -0.206  -3.645  -0.436  1.00  0.00     0.192 A 
HETATM   18  C17 UNL     1      -0.114  -2.153  -0.287  1.00  0.00     0.008 A 
HETATM   19  C18 UNL     1      -1.333  -1.767   0.016  1.00  0.00     0.021 C 
HETATM   20  H13 UNL     1       1.642   0.051  -1.416  1.00  0.00     0.162 HD
ENDROOT
BRANCH   1  21
HETATM   21  C3  UNL     1      -3.230  -0.178   0.557  1.00  0.00     0.007 A 
HETATM   22  C2  UNL     1      -4.009   0.923   0.816  1.00  0.00     0.125 A 
HETATM   23  N1  UNL     1      -5.318   0.646   1.024  1.00  0.00    -0.285 N 
HETATM   24  C1  UNL     1      -6.333   1.620   1.311  1.00  0.00     0.179 C 
HETATM   25  N5  UNL     1      -5.388  -0.645   0.899  1.00  0.00    -0.185 NA
HETATM   26  C19 UNL     1      -4.207  -1.186   0.627  1.00  0.00     0.152 A 
ENDBRANCH   1  21
TORSDOF 1
