REMARK  8 active torsions:
REMARK  status: ('A' for Active; 'I' for Inactive)
REMARK    1  A    between atoms: C1_2  and  C2_3 
REMARK    2  A    between atoms: C2_3  and  C3_4 
REMARK    3  A    between atoms: N2_7  and  C5_8 
REMARK    4  A    between atoms: C10_14  and  C11_15 
REMARK    5  A    between atoms: C12_16  and  N4_17 
REMARK    6  A    between atoms: C13_18  and  N5_19 
REMARK    7  A    between atoms: C14_20  and  N6_21 
REMARK    8  A    between atoms: N6_21  and  C15_22 
ROOT
HETATM    1  C5  UNL     1      -2.914  -1.287   0.917  1.00  0.00     0.142 C 
HETATM    2  C6  UNL     1      -3.417  -2.678   0.813  1.00  0.00     0.062 C 
HETATM    3  C7  UNL     1      -3.060  -3.395  -0.451  1.00  0.00     0.272 C 
HETATM    4  N3  UNL     1      -1.944  -2.823  -1.154  1.00  0.00     0.087 N 
HETATM    5  C8  UNL     1      -0.931  -2.370  -0.186  1.00  0.00     0.306 C 
HETATM    6  C9  UNL     1      -1.513  -1.138   0.407  1.00  0.00    -0.028 C 
HETATM    7  C10 UNL     1      -0.891   0.022   0.504  1.00  0.00     0.008 C 
HETATM    8  H11 UNL     1      -2.247  -1.960  -1.663  1.00  0.00     0.316 HD
ENDROOT
BRANCH   7   9
HETATM    9  C11 UNL     1       0.466   0.230   0.029  1.00  0.00     0.020 C 
HETATM   10  C12 UNL     1       1.066   1.403   0.138  1.00  0.00     0.118 C 
BRANCH  10  11
HETATM   11  N4  UNL     1       2.375   1.727  -0.284  1.00  0.00    -0.254 NA
HETATM   12  C13 UNL     1       3.437   1.060   0.097  1.00  0.00     0.233 C 
BRANCH  12  13
HETATM   13  N5  UNL     1       2.946   0.042   0.951  1.00  0.00    -0.237 NA
HETATM   14  C14 UNL     1       3.567  -1.021   1.275  1.00  0.00     0.208 C 
BRANCH  14  15
HETATM   15  N6  UNL     1       4.812  -1.612   1.006  1.00  0.00    -0.351 N 
HETATM   16  H19 UNL     1       4.792  -2.553   1.458  1.00  0.00     0.166 HD
BRANCH  15  17
HETATM   17  C15 UNL     1       5.586  -0.700   0.236  1.00  0.00     0.034 A 
HETATM   18  C16 UNL     1       6.352   0.155   1.035  1.00  0.00     0.029 A 
HETATM   19  C17 UNL     1       7.171   1.112   0.432  1.00  0.00     0.004 A 
HETATM   20  C18 UNL     1       7.159   1.141  -0.946  1.00  0.00     0.024 A 
HETATM   21  C19 UNL     1       6.416   0.314  -1.761  1.00  0.00     0.036 A 
HETATM   22 CL1  UNL     1       6.456   0.414  -3.505  1.00  0.00    -0.084 Cl
HETATM   23  C20 UNL     1       5.616  -0.623  -1.141  1.00  0.00     0.053 A 
ENDBRANCH  15  17
ENDBRANCH  14  15
ENDBRANCH  12  13
ENDBRANCH  10  11
ENDBRANCH   7   9
BRANCH   1  24
HETATM   24  N2  UNL     1      -3.802  -0.286   0.324  1.00  0.00    -0.272 N 
HETATM   25  N1  UNL     1      -4.469  -0.480  -0.806  1.00  0.00    -0.184 NA
HETATM   26  C4  UNL     1      -5.205   0.588  -1.125  1.00  0.00     0.147 A 
HETATM   27  C3  UNL     1      -4.965   1.495  -0.114  1.00  0.00    -0.019 A 
HETATM   28  C21 UNL     1      -4.077   0.948   0.808  1.00  0.00     0.121 A 
BRANCH  27  29
HETATM   29  C2  UNL     1      -5.586   2.844  -0.060  1.00  0.00     0.073 C 
BRANCH  29  30
HETATM   30  C1  UNL     1      -4.658   3.800  -0.798  1.00  0.00     0.227 C 
HETATM   31  F1  UNL     1      -4.520   3.380  -2.102  1.00  0.00    -0.255 F 
ENDBRANCH  29  30
ENDBRANCH  27  29
ENDBRANCH   1  24
TORSDOF 8
