REMARK  2 active torsions:
REMARK  status: ('A' for Active; 'I' for Inactive)
REMARK    1  A    between atoms: C2_2  and  C3_4 
REMARK    2  A    between atoms: C3_4  and  C4_6 
ROOT
HETATM    1  C4  UNL     1      -1.385  -0.320  -0.277  1.00  0.00     0.076 C 
HETATM    2  C5  UNL     1      -0.619   0.794  -0.212  1.00  0.00     0.066 C 
HETATM    3  N1  UNL     1      -1.465   1.917  -0.649  1.00  0.00    -0.389 N 
HETATM    4  C6  UNL     1      -0.713   2.902  -1.451  1.00  0.00     0.123 C 
HETATM    5  C7  UNL     1       0.716   2.394  -1.246  1.00  0.00     0.064 C 
HETATM    6  C8  UNL     1       0.557   1.594   0.017  1.00  0.00     0.122 C 
HETATM    7  N2  UNL     1       0.260   2.629   1.083  1.00  0.00    -0.279 NA
HETATM    8  C9  UNL     1      -0.018   1.871   2.128  1.00  0.00     0.120 C 
HETATM    9  C10 UNL     1       0.983   0.913   1.702  1.00  0.00    -0.032 C 
HETATM   10  C11 UNL     1       1.761   1.043   0.598  1.00  0.00    -0.033 C 
HETATM   11  C12 UNL     1       3.212   0.736   0.286  1.00  0.00     0.067 C 
HETATM   12  C13 UNL     1       3.399  -0.764   0.081  1.00  0.00     0.010 C 
HETATM   13  C14 UNL     1       2.244  -1.259  -0.432  1.00  0.00     0.068 A 
HETATM   14  N3  UNL     1       2.551  -1.265  -1.741  1.00  0.00    -0.241 NA
HETATM   15  C15 UNL     1       1.549  -1.524  -2.641  1.00  0.00     0.235 A 
HETATM   16  N4  UNL     1       0.306  -1.752  -2.112  1.00  0.00    -0.224 NA
HETATM   17  C16 UNL     1       0.143  -1.714  -0.790  1.00  0.00     0.141 A 
HETATM   18  C17 UNL     1       1.023  -1.485   0.235  1.00  0.00     0.035 A 
HETATM   19  C18 UNL     1       0.869  -1.512   1.554  1.00  0.00    -0.005 C 
HETATM   20  C19 UNL     1       1.072  -0.364   2.537  1.00  0.00     0.068 C 
HETATM   21  N5  UNL     1      -1.058  -1.700  -0.028  1.00  0.00    -0.339 N 
HETATM   22  H4  UNL     1      -2.480   2.304  -0.607  1.00  0.00     0.159 HD
HETATM   23  H17 UNL     1      -1.364  -2.548   0.461  1.00  0.00     0.167 HD
ENDROOT
BRANCH   1  24
HETATM   24  C3  UNL     1      -2.763  -0.694  -0.643  1.00  0.00     0.265 C 
HETATM   25  F1  UNL     1      -3.551   0.436  -0.684  1.00  0.00    -0.237 F 
BRANCH  24  26
HETATM   26  C2  UNL     1      -3.347  -1.534   0.450  1.00  0.00     0.042 C 
HETATM   27  C1  UNL     1      -3.802  -2.747   0.162  1.00  0.00     0.035 C 
HETATM   28 CL1  UNL     1      -3.245  -0.569   1.926  1.00  0.00    -0.086 Cl
ENDBRANCH  24  26
ENDBRANCH   1  24
TORSDOF 2
