REMARK  8 active torsions:
REMARK  status: ('A' for Active; 'I' for Inactive)
REMARK    1  A    between atoms: C2_2  and  C3_3 
REMARK    2  A    between atoms: C3_3  and  C4_4 
REMARK    3  A    between atoms: C6_8  and  N3_9 
REMARK    4  A    between atoms: N3_9  and  C7_10 
REMARK    5  A    between atoms: C13_18  and  C14_19 
REMARK    6  A    between atoms: C16_21  and  N4_22 
REMARK    7  A    between atoms: N4_22  and  C17_23 
REMARK    8  A    between atoms: P1_26  and  N5_27 
ROOT
HETATM    1  C4  UNL     1      -0.228   2.024  -0.975  1.00  0.00     0.068 A 
HETATM    2  N1  UNL     1      -1.172   2.921  -1.278  1.00  0.00    -0.241 NA
HETATM    3  C5  UNL     1      -2.375   2.884  -0.655  1.00  0.00     0.235 A 
HETATM    4  N2  UNL     1      -2.611   1.946   0.265  1.00  0.00    -0.224 NA
HETATM    5  C6  UNL     1      -1.676   1.033   0.585  1.00  0.00     0.142 A 
HETATM    6  C13 UNL     1      -0.464   1.071  -0.043  1.00  0.00     0.039 A 
ENDROOT
BRANCH   6   7
HETATM    7  C14 UNL     1       0.404   0.168   0.309  1.00  0.00     0.029 C 
HETATM    8  C15 UNL     1       0.610  -0.958   1.176  1.00  0.00    -0.011 A 
HETATM    9  C16 UNL     1       1.737  -1.641   1.189  1.00  0.00     0.156 A 
HETATM   10  P1  UNL     1       0.001  -2.028   2.421  1.00  0.00    -0.018 P 
HETATM   11  H20 UNL     1      -0.619  -3.244   2.057  1.00  0.00     0.081 HD
BRANCH   9  12
HETATM   12  N4  UNL     1       2.626  -1.046   0.219  1.00  0.00    -0.404 N 
HETATM   13  H14 UNL     1       2.412  -1.288  -0.805  1.00  0.00     0.154 HD
BRANCH  12  14
HETATM   14  C17 UNL     1       3.787  -0.153   0.404  1.00  0.00     0.077 A 
HETATM   15  C18 UNL     1       4.520   0.278  -0.822  1.00  0.00     0.027 A 
HETATM   16  C19 UNL     1       5.133  -0.702   0.110  1.00  0.00     0.027 A 
ENDBRANCH  12  14
ENDBRANCH   9  12
BRANCH  10  17
HETATM   17  N5  UNL     1      -0.131  -1.493   4.065  1.00  0.00    -0.408 N 
HETATM   18  H21 UNL     1       0.438  -1.939   4.786  1.00  0.00     0.154 HD
HETATM   19  H22 UNL     1      -0.261  -0.477   4.114  1.00  0.00     0.154 HD
ENDBRANCH  10  17
ENDBRANCH   6   7
BRANCH   1  20
HETATM   20  C3  UNL     1       0.939   2.046  -1.566  1.00  0.00     0.005 C 
BRANCH  20  21
HETATM   21  C2  UNL     1       1.116   3.117  -2.566  1.00  0.00     0.025 C 
HETATM   22  C1  UNL     1       1.417   2.511  -3.933  1.00  0.00     0.009 C 
ENDBRANCH  20  21
ENDBRANCH   1  20
BRANCH   5  23
HETATM   23  N3  UNL     1      -2.220   0.183   1.578  1.00  0.00    -0.340 N 
HETATM   24  H8  UNL     1      -1.993   0.348   2.580  1.00  0.00     0.167 HD
BRANCH  23  25
HETATM   25  C7  UNL     1      -3.081  -0.867   1.086  1.00  0.00     0.035 A 
HETATM   26  C8  UNL     1      -3.358  -0.957  -0.240  1.00  0.00     0.032 A 
HETATM   27  C9  UNL     1      -4.196  -1.994  -0.657  1.00  0.00     0.046 A 
HETATM   28  C10 UNL     1      -4.733  -2.907   0.253  1.00  0.00     0.138 A 
HETATM   29  F1  UNL     1      -5.549  -3.915  -0.140  1.00  0.00    -0.204 F 
HETATM   30  C11 UNL     1      -4.454  -2.817   1.597  1.00  0.00     0.074 A 
HETATM   31 CL1  UNL     1      -5.059  -3.891   2.834  1.00  0.00    -0.081 Cl
HETATM   32  C12 UNL     1      -3.622  -1.782   1.979  1.00  0.00     0.056 A 
ENDBRANCH  23  25
ENDBRANCH   5  23
TORSDOF 8
