REMARK  2 active torsions:
REMARK  status: ('A' for Active; 'I' for Inactive)
REMARK    1  A    between atoms: C4_5  and  N1_6 
REMARK    2  A    between atoms: N1_6  and  N2_7 
ROOT
HETATM    1  N2  UNL     1       1.752  -1.523  -0.102  1.00  0.00    -0.272 N 
HETATM    2  C5  UNL     1       1.481  -2.326   1.039  1.00  0.00     0.227 A 
HETATM    3  N3  UNL     1       0.244  -2.690   1.045  1.00  0.00    -0.245 NA
HETATM    4  C6  UNL     1      -0.438  -2.153  -0.114  1.00  0.00     0.063 A 
HETATM    5  C7  UNL     1      -1.720  -2.566  -0.149  1.00  0.00     0.030 C 
HETATM    6  C8  UNL     1      -2.949  -1.918  -0.668  1.00  0.00     0.008 C 
HETATM    7  C9  UNL     1      -3.188  -0.724  -1.243  1.00  0.00    -0.045 C 
HETATM    8  C10 UNL     1      -4.534  -0.655  -0.611  1.00  0.00     0.150 C 
HETATM    9  N4  UNL     1      -4.484   0.178   0.578  1.00  0.00    -0.417 N 
HETATM   10  C11 UNL     1      -3.816   1.423   0.435  1.00  0.00     0.120 C 
HETATM   11  C12 UNL     1      -2.465   1.597   1.003  1.00  0.00     0.076 C 
HETATM   12  C13 UNL     1      -1.359   0.996   0.214  1.00  0.00     0.008 A 
HETATM   13  C14 UNL     1      -0.062   0.790   0.402  1.00  0.00     0.025 A 
HETATM   14  C15 UNL     1       0.213   0.147  -0.891  1.00  0.00     0.140 A 
HETATM   15  C16 UNL     1       0.539  -1.336  -0.857  1.00  0.00     0.187 A 
HETATM   16  N5  UNL     1      -1.182   0.364  -1.074  1.00  0.00    -0.370 N 
HETATM   17  C17 UNL     1      -2.212   0.054  -2.113  1.00  0.00     0.159 C 
HETATM   18  H9  UNL     1      -5.384   0.178   1.067  1.00  0.00     0.153 HD
ENDROOT
BRANCH   1  19
HETATM   19  N1  UNL     1       3.025  -1.022  -0.391  1.00  0.00    -0.297 N 
HETATM   20  H3  UNL     1       3.439  -1.688  -1.082  1.00  0.00     0.187 HD
BRANCH  19  21
HETATM   21  C4  UNL     1       3.786   0.083   0.016  1.00  0.00     0.050 A 
HETATM   22  C3  UNL     1       3.755   1.304  -0.646  1.00  0.00     0.034 A 
HETATM   23  C2  UNL     1       4.538   2.366  -0.187  1.00  0.00     0.046 A 
HETATM   24  C1  UNL     1       5.330   2.192   0.913  1.00  0.00     0.138 A 
HETATM   25  F1  UNL     1       6.062   3.279   1.294  1.00  0.00    -0.204 F 
HETATM   26  C19 UNL     1       5.381   0.989   1.591  1.00  0.00     0.074 A 
HETATM   27  C18 UNL     1       4.595  -0.065   1.125  1.00  0.00     0.057 A 
HETATM   28 CL1  UNL     1       6.431   0.841   3.006  1.00  0.00    -0.081 Cl
ENDBRANCH  19  21
ENDBRANCH   1  19
TORSDOF 2
