REMARK  3 active torsions:
REMARK  status: ('A' for Active; 'I' for Inactive)
REMARK    1  A    between atoms: C3_3  and  N1_4 
REMARK    2  A    between atoms: N1_4  and  C4_5 
REMARK    3  A    between atoms: C8_11  and  C9_13 
ROOT
HETATM    1  C4  UNL     1       2.438  -0.575   0.533  1.00  0.00     0.135 C 
HETATM    2  N2  UNL     1       2.376  -0.821  -0.771  1.00  0.00    -0.224 NA
HETATM    3  C5  UNL     1       1.383  -0.474  -1.771  1.00  0.00     0.229 C 
HETATM    4  N3  UNL     1       0.181   0.043  -1.568  1.00  0.00    -0.272 NA
HETATM    5  C6  UNL     1      -0.569   0.621  -0.496  1.00  0.00     0.159 C 
HETATM    6  C7  UNL     1       0.186   1.662   0.295  1.00  0.00     0.004 C 
HETATM    7  C8  UNL     1       0.022   2.897  -0.256  1.00  0.00     0.120 C 
HETATM    8  F1  UNL     1      -0.786   2.764  -1.358  1.00  0.00    -0.209 F 
HETATM    9  C11 UNL     1       0.999   1.359   1.518  1.00  0.00     0.023 C 
HETATM   10  C12 UNL     1       1.206   0.014   1.206  1.00  0.00    -0.010 C 
HETATM   11  C13 UNL     1      -0.097  -0.760   1.547  1.00  0.00     0.060 C 
HETATM   12  C14 UNL     1      -1.138  -0.340   0.515  1.00  0.00     0.028 C 
HETATM   13  C15 UNL     1      -2.200   0.384   1.269  1.00  0.00     0.098 C 
HETATM   14  N4  UNL     1      -3.309  -0.171   1.616  1.00  0.00    -0.270 NA
HETATM   15  C16 UNL     1      -3.661  -1.522   1.402  1.00  0.00     0.341 C 
HETATM   16  C17 UNL     1      -2.510  -2.354   0.873  1.00  0.00     0.065 C 
HETATM   17  C18 UNL     1      -1.807  -1.506  -0.166  1.00  0.00     0.007 C 
HETATM   18  C19 UNL     1      -2.907  -0.944  -1.054  1.00  0.00     0.036 C 
HETATM   19  C20 UNL     1      -4.180  -1.787  -0.914  1.00  0.00     0.273 C 
HETATM   20  N5  UNL     1      -4.726  -1.654   0.425  1.00  0.00     0.108 N 
HETATM   21  H25 UNL     1      -5.340  -0.800   0.507  1.00  0.00     0.318 HD
ENDROOT
BRANCH   7  22
HETATM   22  C9  UNL     1       0.372   4.312  -0.133  1.00  0.00     0.141 C 
HETATM   23  C10 UNL     1      -0.959   5.063   0.005  1.00  0.00     0.034 C 
HETATM   24 CL1  UNL     1       1.427   4.682   1.249  1.00  0.00    -0.118 Cl
ENDBRANCH   7  22
BRANCH   1  25
HETATM   25  N1  UNL     1       3.755  -0.957   0.979  1.00  0.00    -0.351 N 
HETATM   26  H6  UNL     1       3.721  -0.964   2.023  1.00  0.00     0.166 HD
BRANCH  25  27
HETATM   27  C3  UNL     1       4.752  -1.233   0.037  1.00  0.00     0.085 C 
HETATM   28  C2  UNL     1       4.987  -2.259  -0.741  1.00  0.00    -0.014 C 
HETATM   29  C1  UNL     1       6.187  -2.124  -1.605  1.00  0.00     0.037 C 
ENDBRANCH  25  27
ENDBRANCH   1  25
TORSDOF 3
