REMARK  7 active torsions:
REMARK  status: ('A' for Active; 'I' for Inactive)
REMARK    1  A    between atoms: C3_3  and  N1_4 
REMARK    2  A    between atoms: N1_4  and  C4_5 
REMARK    3  A    between atoms: C11_16  and  C12_17 
REMARK    4  A    between atoms: C12_17  and  C13_18 
REMARK    5  A    between atoms: C13_18  and  C14_19 
REMARK    6  A    between atoms: C15_20  and  C16_21 
REMARK    7  A    between atoms: N5_24  and  C18_25 
ROOT
HETATM    1  C1  UNL     1      -1.071  -0.231   1.110  1.00  0.00     0.030 C 
HETATM    2  C2  UNL     1      -1.382  -0.134  -0.151  1.00  0.00     0.029 A 
HETATM    3  C3  UNL     1      -2.713  -0.088  -0.499  1.00  0.00     0.141 A 
HETATM    4  N2  UNL     1      -2.957   0.012  -1.807  1.00  0.00    -0.224 NA
HETATM    5  C10 UNL     1      -1.971   0.063  -2.704  1.00  0.00     0.235 A 
HETATM    6  N3  UNL     1      -0.675   0.018  -2.344  1.00  0.00    -0.241 NA
HETATM    7  C11 UNL     1      -0.335  -0.084  -1.028  1.00  0.00     0.068 A 
ENDROOT
BRANCH   7   8
HETATM    8  C12 UNL     1       0.922  -0.132  -0.637  1.00  0.00     0.018 C 
BRANCH   8   9
HETATM    9  C13 UNL     1       1.982  -0.071  -1.674  1.00  0.00     0.123 C 
BRANCH   9  10
HETATM   10  C14 UNL     1       3.267  -0.051  -0.951  1.00  0.00    -0.097 C 
HETATM   11  C15 UNL     1       4.323  -0.044  -0.359  1.00  0.00    -0.064 C 
BRANCH  11  12
HETATM   12  C16 UNL     1       5.581  -0.024   0.339  1.00  0.00     0.054 A 
HETATM   13  C17 UNL     1       5.622  -0.123   1.728  1.00  0.00     0.161 A 
HETATM   14  N4  UNL     1       6.943  -0.070   2.022  1.00  0.00    -0.181 NA
HETATM   15  N5  UNL     1       7.644   0.052   0.888  1.00  0.00    -0.251 N 
HETATM   16  C19 UNL     1       6.848   0.086  -0.196  1.00  0.00     0.137 A 
BRANCH  15  17
HETATM   17  C18 UNL     1       9.093   0.132   0.904  1.00  0.00     0.372 C 
HETATM   18  F2  UNL     1       9.470   1.447   1.003  1.00  0.00    -0.232 F 
ENDBRANCH  15  17
ENDBRANCH  11  12
ENDBRANCH   9  10
ENDBRANCH   8   9
ENDBRANCH   7   8
BRANCH   3  19
HETATM   19  N1  UNL     1      -3.713  -0.147   0.502  1.00  0.00    -0.340 N 
HETATM   20  H3  UNL     1      -3.375  -0.226   1.505  1.00  0.00     0.167 HD
BRANCH  19  21
HETATM   21  C4  UNL     1      -5.115  -0.116   0.353  1.00  0.00     0.035 A 
HETATM   22  C5  UNL     1      -5.808  -0.017  -0.832  1.00  0.00     0.032 A 
HETATM   23  C6  UNL     1      -7.174   0.013  -0.969  1.00  0.00     0.046 A 
HETATM   24  C7  UNL     1      -7.932  -0.061   0.178  1.00  0.00     0.138 A 
HETATM   25  F1  UNL     1      -9.284  -0.035   0.095  1.00  0.00    -0.204 F 
HETATM   26  C8  UNL     1      -7.304  -0.160   1.382  1.00  0.00     0.074 A 
HETATM   27 CL1  UNL     1      -8.281  -0.253   2.829  1.00  0.00    -0.081 Cl
HETATM   28  C9  UNL     1      -5.950  -0.185   1.447  1.00  0.00     0.056 A 
ENDBRANCH  19  21
ENDBRANCH   3  19
TORSDOF 7
