REMARK  8 active torsions:
REMARK  status: ('A' for Active; 'I' for Inactive)
REMARK    1  A    between atoms: C2_3  and  N2_4 
REMARK    2  A    between atoms: C2_3  and  C12_15 
REMARK    3  A    between atoms: N2_4  and  C3_5 
REMARK    4  A    between atoms: C6_8  and  C7_9 
REMARK    5  A    between atoms: C7_9  and  C8_10 
REMARK    6  A    between atoms: C8_10  and  N3_11 
REMARK    7  A    between atoms: C14_17  and  C15_18 
REMARK    8  A    between atoms: N5_21  and  C17_22 
ROOT
HETATM    1  C12 UNL     1       0.887   0.579   1.150  1.00  0.00     0.183 A 
HETATM    2  C13 UNL     1      -0.110   0.912   0.090  1.00  0.00     0.095 A 
HETATM    3  C14 UNL     1      -1.109   0.187   0.914  1.00  0.00     0.045 A 
HETATM    4  N7  UNL     1      -0.224  -0.085   1.811  1.00  0.00    -0.280 NA
ENDROOT
BRANCH   1   5
HETATM    5  C2  UNL     1       1.921  -0.437   0.753  1.00  0.00     0.124 C 
HETATM    6  N1  UNL     1       1.812  -0.882  -0.436  1.00  0.00    -0.280 NA
HETATM    7  C1  UNL     1       2.634  -1.851  -1.085  1.00  0.00     0.179 C 
BRANCH   5   8
HETATM    8  N2  UNL     1       2.921  -0.847   1.674  1.00  0.00    -0.343 N 
HETATM    9  H4  UNL     1       2.632  -0.975   2.668  1.00  0.00     0.167 HD
BRANCH   8  10
HETATM   10  C3  UNL     1       4.252  -1.065   1.230  1.00  0.00     0.033 A 
HETATM   11  C4  UNL     1       4.962  -0.372   0.372  1.00  0.00     0.037 A 
HETATM   12  C5  UNL     1       6.331  -0.725   0.015  1.00  0.00    -0.052 A 
HETATM   13  C6  UNL     1       6.952   0.031  -0.876  1.00  0.00     0.017 C 
HETATM   14  C9  UNL     1       7.027  -1.885   0.612  1.00  0.00     0.066 A 
HETATM   15  C10 UNL     1       6.158  -2.601   1.561  1.00  0.00    -0.020 A 
HETATM   16  C11 UNL     1       4.936  -2.232   1.827  1.00  0.00     0.026 A 
BRANCH  13  17
HETATM   17  C7  UNL     1       6.247   1.182  -1.462  1.00  0.00     0.076 C 
BRANCH  17  18
HETATM   18  C8  UNL     1       6.653   2.328  -0.953  1.00  0.00    -0.025 C 
BRANCH  18  19
HETATM   19  N3  UNL     1       7.128   3.491  -0.684  1.00  0.00    -0.258 NA
HETATM   20  H8  UNL     1       7.988   3.799  -1.226  1.00  0.00     0.197 HD
ENDBRANCH  18  19
ENDBRANCH  17  18
ENDBRANCH  13  17
ENDBRANCH   8  10
ENDBRANCH   5   8
ENDBRANCH   1   5
BRANCH   3  21
HETATM   21  C15 UNL     1      -2.528  -0.140   0.831  1.00  0.00     0.025 A 
HETATM   22  C16 UNL     1      -3.240  -0.852   1.765  1.00  0.00     0.153 A 
HETATM   23  N4  UNL     1      -4.505  -0.901   1.262  1.00  0.00    -0.184 NA
HETATM   24  N5  UNL     1      -4.557  -0.270   0.115  1.00  0.00    -0.276 N 
HETATM   25  C22 UNL     1      -3.346   0.236  -0.219  1.00  0.00     0.127 A 
BRANCH  24  26
HETATM   26  C17 UNL     1      -5.709  -0.074  -0.772  1.00  0.00     0.113 C 
HETATM   27  C18 UNL     1      -6.979  -0.265   0.026  1.00  0.00     0.057 C 
HETATM   28  C19 UNL     1      -7.359   1.021   0.741  1.00  0.00     0.271 C 
HETATM   29  N6  UNL     1      -7.729   2.040  -0.199  1.00  0.00     0.083 N 
HETATM   30  C20 UNL     1      -7.061   1.928  -1.480  1.00  0.00     0.271 C 
HETATM   31  H22 UNL     1      -8.765   2.107  -0.310  1.00  0.00     0.315 HD
HETATM   32  C21 UNL     1      -5.712   1.293  -1.377  1.00  0.00     0.057 C 
ENDBRANCH  24  26
ENDBRANCH   3  21
TORSDOF 8
