REMARK  4 active torsions:
REMARK  status: ('A' for Active; 'I' for Inactive)
REMARK    1  A    between atoms: C5_6  and  C6_7 
REMARK    2  A    between atoms: N3_10  and  C8_11 
REMARK    3  A    between atoms: C15_19  and  N5_20 
REMARK    4  A    between atoms: N5_20  and  C16_21 
ROOT
HETATM    1  C1  UNL     1       4.717  -0.239   1.673  1.00  0.00     0.235 C 
HETATM    2  N1  UNL     1       4.204   0.431   2.690  1.00  0.00    -0.245 NA
HETATM    3  C2  UNL     1       2.801   0.683   2.637  1.00  0.00     0.051 C 
HETATM    4  C3  UNL     1       2.045   1.451   3.390  1.00  0.00     0.029 C 
HETATM    5  C4  UNL     1       0.702   1.357   2.862  1.00  0.00     0.011 C 
HETATM    6  C5  UNL     1       0.560   0.550   1.782  1.00  0.00    -0.028 C 
HETATM    7  C14 UNL     1       1.867   0.023   1.717  1.00  0.00     0.141 C 
HETATM    8  C15 UNL     1       2.561  -0.588   0.612  1.00  0.00     0.120 C 
HETATM    9  N7  UNL     1       3.860  -0.697   0.655  1.00  0.00    -0.228 NA
ENDROOT
BRANCH   6  10
HETATM   10  C6  UNL     1      -0.779   0.477   1.246  1.00  0.00     0.008 A 
HETATM   11  C7  UNL     1      -1.174  -0.218   0.133  1.00  0.00     0.152 A 
HETATM   12  N2  UNL     1      -2.502  -0.083  -0.083  1.00  0.00    -0.184 NA
HETATM   13  N3  UNL     1      -2.982   0.704   0.894  1.00  0.00    -0.276 N 
HETATM   14  C13 UNL     1      -1.960   1.039   1.686  1.00  0.00     0.126 A 
BRANCH  13  15
HETATM   15  C8  UNL     1      -4.350   1.141   1.100  1.00  0.00     0.113 C 
HETATM   16  C9  UNL     1      -4.577   1.424   2.565  1.00  0.00     0.057 C 
HETATM   17  C10 UNL     1      -5.951   1.027   3.019  1.00  0.00     0.271 C 
HETATM   18  N4  UNL     1      -6.084  -0.388   2.765  1.00  0.00     0.083 N 
HETATM   19  C11 UNL     1      -5.986  -0.765   1.392  1.00  0.00     0.271 C 
HETATM   20  H10 UNL     1      -5.523  -0.972   3.424  1.00  0.00     0.315 HD
HETATM   21  C12 UNL     1      -5.339   0.217   0.481  1.00  0.00     0.057 C 
ENDBRANCH  13  15
ENDBRANCH   6  10
BRANCH   8  22
HETATM   22  N5  UNL     1       2.060  -1.160  -0.592  1.00  0.00    -0.344 N 
HETATM   23  H17 UNL     1       1.296  -1.882  -0.400  1.00  0.00     0.167 HD
BRANCH  22  24
HETATM   24  C16 UNL     1       2.546  -0.793  -1.877  1.00  0.00     0.034 A 
HETATM   25  C17 UNL     1       1.935   0.248  -2.519  1.00  0.00     0.032 A 
HETATM   26  C18 UNL     1       2.448   0.559  -3.762  1.00  0.00     0.035 A 
HETATM   27  C19 UNL     1       3.498  -0.087  -4.377  1.00  0.00     0.066 A 
HETATM   28  N6  UNL     1       3.969   0.245  -5.589  1.00  0.00    -0.260 NA
HETATM   29  C23 UNL     1       4.054  -1.136  -3.640  1.00  0.00    -0.005 A 
HETATM   30  C20 UNL     1       4.995  -0.450  -6.095  1.00  0.00     0.117 A 
HETATM   31  C21 UNL     1       5.579  -1.489  -5.414  1.00  0.00     0.020 A 
HETATM   32  C22 UNL     1       5.114  -1.854  -4.161  1.00  0.00     0.015 A 
HETATM   33  C24 UNL     1       3.603  -1.519  -2.381  1.00  0.00     0.043 A 
ENDBRANCH  22  24
ENDBRANCH   8  22
TORSDOF 4
