REMARK  5 active torsions:
REMARK  status: ('A' for Active; 'I' for Inactive)
REMARK    1  A    between atoms: N1_1  and  C1_2 
REMARK    2  A    between atoms: N3_11  and  C9_12 
REMARK    3  A    between atoms: C10_13  and  C24_31 
REMARK    4  A    between atoms: C13_17  and  C14_18 
REMARK    5  A    between atoms: N6_21  and  C16_22 
ROOT
HETATM    1  C9  UNL     1       3.346  -1.120  -1.746  1.00  0.00     0.109 A 
HETATM    2  C10 UNL     1       3.475  -2.533  -2.193  1.00  0.00     0.023 A 
HETATM    3  N4  UNL     1       2.239  -2.004  -2.049  1.00  0.00     0.000 N 
HETATM    4  C11 UNL     1       0.940  -2.787  -2.278  1.00  0.00    -0.019 A 
HETATM    5  C12 UNL     1      -0.247  -2.006  -2.056  1.00  0.00    -0.009 A 
HETATM    6  C13 UNL     1      -0.416  -0.737  -1.690  1.00  0.00    -0.029 A 
HETATM    7  C22 UNL     1       0.768  -0.035  -1.481  1.00  0.00    -0.002 A 
HETATM    8  C23 UNL     1       1.783  -1.067  -1.776  1.00  0.00     0.018 A 
HETATM    9  C24 UNL     1       2.128  -2.546  -2.205  1.00  0.00     0.056 A 
ENDROOT
BRANCH   1  10
HETATM   10  N3  UNL     1       3.791  -0.860  -0.414  1.00  0.00    -0.341 N 
HETATM   11  C1  UNL     1       4.049  -1.906   0.505  1.00  0.00     0.082 A 
HETATM   12  C2  UNL     1       4.411  -1.599   1.783  1.00  0.00     0.074 A 
HETATM   13  C3  UNL     1       4.487  -0.191   2.058  1.00  0.00     0.067 A 
HETATM   14  N2  UNL     1       4.797   0.086   3.307  1.00  0.00    -0.261 NA
HETATM   15  C7  UNL     1       4.236   0.905   1.154  1.00  0.00    -0.010 A 
HETATM   16  C4  UNL     1       4.893   1.459   3.666  1.00  0.00     0.113 A 
HETATM   17  C5  UNL     1       4.715   2.559   2.924  1.00  0.00    -0.003 A 
HETATM   18  C6  UNL     1       4.360   2.329   1.493  1.00  0.00     0.071 A 
HETATM   19  C8  UNL     1       3.889   0.544  -0.085  1.00  0.00     0.102 A 
BRANCH  11  20
HETATM   20  N1  UNL     1       3.933  -3.289   0.125  1.00  0.00    -0.288 NA
HETATM   21  H1  UNL     1       4.869  -3.770   0.303  1.00  0.00     0.125 HD
HETATM   22  H2  UNL     1       4.839  -3.848   0.272  1.00  0.00     0.125 HD
ENDBRANCH  11  20
ENDBRANCH   1  10
BRANCH   6  23
HETATM   23  C14 UNL     1      -1.414   0.240  -1.425  1.00  0.00     0.010 A 
HETATM   24  C15 UNL     1      -1.535   1.590  -1.537  1.00  0.00     0.152 A 
HETATM   25  N5  UNL     1      -2.783   1.806  -1.104  1.00  0.00    -0.184 NA
HETATM   26  N6  UNL     1      -3.371   0.685  -0.754  1.00  0.00    -0.276 N 
HETATM   27  C21 UNL     1      -2.538  -0.354  -0.940  1.00  0.00     0.126 A 
BRANCH  26  28
HETATM   28  C16 UNL     1      -4.772   0.710  -0.260  1.00  0.00     0.113 C 
HETATM   29  C17 UNL     1      -4.894   0.012   1.039  1.00  0.00     0.057 C 
HETATM   30  C18 UNL     1      -6.302   0.103   1.564  1.00  0.00     0.271 C 
HETATM   31  N7  UNL     1      -6.703   1.512   1.642  1.00  0.00     0.083 N 
HETATM   32  C19 UNL     1      -6.710   2.089   0.311  1.00  0.00     0.271 C 
HETATM   33  H18 UNL     1      -6.043   2.042   2.266  1.00  0.00     0.315 HD
HETATM   34  C20 UNL     1      -5.294   2.097  -0.212  1.00  0.00     0.057 C 
ENDBRANCH  26  28
ENDBRANCH   6  23
TORSDOF 5
