REMARK  6 active torsions:
REMARK  status: ('A' for Active; 'I' for Inactive)
REMARK    1  A    between atoms: O1_2  and  C2_3 
REMARK    2  A    between atoms: C5_7  and  N2_8 
REMARK    3  A    between atoms: N2_8  and  C6_9 
REMARK    4  A    between atoms: C14_20  and  C15_21 
REMARK    5  A    between atoms: C15_21  and  C16_22 
REMARK    6  A    between atoms: C16_22  and  N3_23 
ROOT
HETATM    1  C2  UNL     1       0.030  -2.331   0.392  1.00  0.00     0.159 C 
HETATM    2  C3  UNL     1       0.677  -2.605  -0.890  1.00  0.00     0.061 C 
HETATM    3  C4  UNL     1       2.205  -2.539  -0.801  1.00  0.00     0.094 C 
HETATM    4  N1  UNL     1       3.001  -1.749  -1.484  1.00  0.00    -0.275 NA
HETATM    5  C5  UNL     1       2.546  -0.499  -2.045  1.00  0.00     0.236 C 
HETATM    6  C12 UNL     1       1.140  -0.434  -1.540  1.00  0.00    -0.014 C 
HETATM    7  C13 UNL     1       0.681   0.519  -0.740  1.00  0.00     0.142 C 
HETATM    8  O2  UNL     1      -0.292   0.124   0.194  1.00  0.00    -0.355 OA
HETATM    9  C14 UNL     1      -0.715  -1.098   0.676  1.00  0.00     0.159 C 
HETATM   10  C21 UNL     1       0.354  -1.651  -2.036  1.00  0.00     0.052 C 
ENDROOT
BRANCH   5  11
HETATM   11  N2  UNL     1       3.243   0.662  -1.704  1.00  0.00    -0.364 N 
HETATM   12  H8  UNL     1       3.555   1.250  -2.543  1.00  0.00     0.162 HD
BRANCH  11  13
HETATM   13  C6  UNL     1       3.618   1.214  -0.470  1.00  0.00     0.031 A 
HETATM   14  C7  UNL     1       3.388   0.659   0.772  1.00  0.00     0.032 A 
HETATM   15  C8  UNL     1       3.744   1.205   1.978  1.00  0.00     0.046 A 
HETATM   16  C9  UNL     1       4.385   2.405   1.958  1.00  0.00     0.138 A 
HETATM   17  F1  UNL     1       4.768   3.006   3.104  1.00  0.00    -0.204 F 
HETATM   18  C10 UNL     1       4.661   3.037   0.791  1.00  0.00     0.074 A 
HETATM   19 CL1  UNL     1       5.484   4.576   0.778  1.00  0.00    -0.081 Cl
HETATM   20  C11 UNL     1       4.276   2.435  -0.383  1.00  0.00     0.056 A 
ENDBRANCH  11  13
ENDBRANCH   5  11
BRANCH   1  21
HETATM   21  O1  UNL     1      -0.841  -3.369   0.807  1.00  0.00    -0.387 OA
HETATM   22  C1  UNL     1      -0.397  -4.057   1.907  1.00  0.00     0.202 C 
ENDBRANCH   1  21
BRANCH   9  23
HETATM   23  C15 UNL     1      -2.223  -1.267   0.432  1.00  0.00     0.065 C 
BRANCH  23  24
HETATM   24  C16 UNL     1      -2.946   0.039   0.735  1.00  0.00     0.275 C 
BRANCH  24  25
HETATM   25  N3  UNL     1      -2.474   1.111  -0.100  1.00  0.00     0.092 N 
HETATM   26  C17 UNL     1      -2.810   0.989  -1.482  1.00  0.00     0.298 C 
HETATM   27  C18 UNL     1      -4.247   1.383  -1.778  1.00  0.00     0.198 C 
HETATM   28  O3  UNL     1      -4.556   2.599  -1.200  1.00  0.00    -0.388 OA
HETATM   29  C19 UNL     1      -4.295   2.666   0.156  1.00  0.00     0.198 C 
HETATM   30  C20 UNL     1      -2.835   2.415   0.391  1.00  0.00     0.298 C 
ENDBRANCH  24  25
ENDBRANCH  23  24
ENDBRANCH   9  23
TORSDOF 6
