REMARK  2 active torsions:
REMARK  status: ('A' for Active; 'I' for Inactive)
REMARK    1  A    between atoms: C4_5  and  N1_6 
REMARK    2  A    between atoms: N1_6  and  C5_7 
ROOT
HETATM    1  C5  UNL     1       3.303  -0.522   0.941  1.00  0.00     0.142 A 
HETATM    2  N2  UNL     1       3.908  -1.164   1.916  1.00  0.00    -0.224 NA
HETATM    3  C6  UNL     1       3.292  -1.800   2.917  1.00  0.00     0.236 A 
HETATM    4  N3  UNL     1       1.953  -1.793   2.944  1.00  0.00    -0.241 NA
HETATM    5  C7  UNL     1       1.255  -1.161   1.987  1.00  0.00     0.074 A 
HETATM    6  C8  UNL     1      -0.126  -1.166   2.034  1.00  0.00     0.070 A 
HETATM    7  C9  UNL     1      -0.918  -0.546   1.095  1.00  0.00     0.079 A 
HETATM    8  C10 UNL     1      -0.311   0.133   0.025  1.00  0.00    -0.024 A 
HETATM    9  C11 UNL     1       1.104   0.092   0.050  1.00  0.00     0.027 A 
HETATM   10  C12 UNL     1       1.929  -0.517   0.973  1.00  0.00     0.039 A 
HETATM   11  C13 UNL     1      -0.693   0.875  -1.167  1.00  0.00     0.041 C 
HETATM   12  C14 UNL     1      -2.085   1.087  -1.559  1.00  0.00     0.005 C 
HETATM   13  C15 UNL     1      -2.899   1.991  -0.691  1.00  0.00     0.002 C 
HETATM   14  C16 UNL     1      -4.277   2.317  -1.303  1.00  0.00     0.026 C 
HETATM   15  C17 UNL     1      -4.999   0.984  -1.475  1.00  0.00     0.167 C 
HETATM   16  O1  UNL     1      -5.196   0.388  -0.257  1.00  0.00    -0.389 OA
HETATM   17  C18 UNL     1      -5.555  -0.923  -0.361  1.00  0.00     0.197 C 
HETATM   18  C19 UNL     1      -5.665  -1.394   1.108  1.00  0.00     0.298 C 
HETATM   19  N4  UNL     1      -4.473  -0.947   1.772  1.00  0.00     0.108 N 
HETATM   20  C20 UNL     1      -3.285  -1.512   1.256  1.00  0.00     0.444 C 
HETATM   21  O2  UNL     1      -2.213  -0.686   1.353  1.00  0.00    -0.321 OA
HETATM   22  H21 UNL     1      -4.427   0.068   1.889  1.00  0.00     0.318 HD
ENDROOT
BRANCH   1  23
HETATM   23  N1  UNL     1       3.968   0.137  -0.099  1.00  0.00    -0.340 N 
HETATM   24  H3  UNL     1       3.558   0.681  -0.861  1.00  0.00     0.167 HD
BRANCH  23  25
HETATM   25  C4  UNL     1       5.373   0.171  -0.297  1.00  0.00     0.035 A 
HETATM   26  C3  UNL     1       6.245  -0.733   0.275  1.00  0.00     0.032 A 
HETATM   27  C2  UNL     1       7.614  -0.724   0.123  1.00  0.00     0.046 A 
HETATM   28  C1  UNL     1       8.175   0.257  -0.657  1.00  0.00     0.138 A 
HETATM   29  F1  UNL     1       9.510   0.324  -0.849  1.00  0.00    -0.204 F 
HETATM   30  C22 UNL     1       7.402   1.209  -1.275  1.00  0.00     0.074 A 
HETATM   31  C21 UNL     1       6.047   1.118  -1.064  1.00  0.00     0.056 A 
HETATM   32 CL1  UNL     1       8.073   2.472  -2.274  1.00  0.00    -0.081 Cl
ENDBRANCH  23  25
ENDBRANCH   1  23
TORSDOF 2
