REMARK  2 active torsions:
REMARK  status: ('A' for Active; 'I' for Inactive)
REMARK    1  A    between atoms: C1_2  and  N1_3 
REMARK    2  A    between atoms: C11_16  and  N4_17 
ROOT
HETATM    1  N1  UNL     1      -0.191   1.113  -0.549  1.00  0.00    -0.344 N 
HETATM    2  C2  UNL     1       0.483   2.144   0.152  1.00  0.00     0.091 C 
HETATM    3  C3  UNL     1       1.446   2.835   0.720  1.00  0.00     0.036 C 
HETATM    4  C4  UNL     1       2.846   2.528   0.825  1.00  0.00     0.119 C 
HETATM    5  N2  UNL     1       2.605   1.443   0.191  1.00  0.00    -0.254 NA
HETATM    6  C5  UNL     1       3.740   0.597  -0.046  1.00  0.00     0.232 C 
HETATM    7  N3  UNL     1       3.429  -0.069   1.031  1.00  0.00    -0.253 NA
HETATM    8  C6  UNL     1       4.283  -1.174   1.381  1.00  0.00     0.132 C 
HETATM    9  C7  UNL     1       3.498  -2.115   0.888  1.00  0.00     0.017 C 
HETATM   10  C8  UNL     1       3.480  -2.158  -0.429  1.00  0.00     0.148 C 
HETATM   11  O1  UNL     1       2.177  -1.709  -0.108  1.00  0.00    -0.362 OA
HETATM   12  C9  UNL     1       1.325  -1.484  -1.212  1.00  0.00     0.178 C 
HETATM   13  C10 UNL     1      -0.116  -1.338  -0.904  1.00  0.00     0.073 C 
HETATM   14  C11 UNL     1      -0.543  -0.221  -0.032  1.00  0.00     0.185 C 
ENDROOT
BRANCH  14  15
HETATM   15  N4  UNL     1      -1.950  -0.225   0.119  1.00  0.00    -0.388 N 
HETATM   16  C12 UNL     1      -2.529   0.745   0.973  1.00  0.00     0.145 C 
HETATM   17  C13 UNL     1      -3.579   0.045   1.834  1.00  0.00     0.187 C 
HETATM   18  O2  UNL     1      -4.552  -0.539   1.066  1.00  0.00    -0.388 OA
HETATM   19  C14 UNL     1      -4.137  -1.076  -0.126  1.00  0.00     0.187 C 
HETATM   20  C15 UNL     1      -2.651  -1.446   0.023  1.00  0.00     0.145 C 
ENDBRANCH  14  15
BRANCH   1  21
HETATM   21  C1  UNL     1      -0.589   1.442  -1.934  1.00  0.00     0.349 C 
HETATM   22  F1  UNL     1      -1.435   2.561  -1.854  1.00  0.00    -0.234 F 
ENDBRANCH   1  21
TORSDOF 2
