REMARK  3 active torsions:
REMARK  status: ('A' for Active; 'I' for Inactive)
REMARK    1  A    between atoms: C2_4  and  P1_5 
REMARK    2  A    between atoms: P1_5  and  N2_6 
REMARK    3  A    between atoms: N2_6  and  C3_7 
ROOT
HETATM    1  F1  UNL     1       0.946   2.394  -1.358  1.00  0.00    -0.175 F 
HETATM    2  C1  UNL     1       0.723   1.431  -0.412  1.00  0.00     0.239 C 
HETATM    3  N1  UNL     1       0.996   0.244  -0.345  1.00  0.00    -0.376 NA
HETATM    4  C2  UNL     1       1.467  -0.945  -0.675  1.00  0.00     0.152 C 
HETATM    5  C9  UNL     1       0.839  -2.078  -0.948  1.00  0.00     0.181 C 
HETATM    6  O1  UNL     1      -0.247  -3.006  -1.149  1.00  0.00    -0.358 OA
HETATM    7  C10 UNL     1      -1.394  -2.535  -0.631  1.00  0.00     0.192 C 
HETATM    8  C11 UNL     1      -2.812  -2.973  -0.766  1.00  0.00     0.166 C 
HETATM    9  N3  UNL     1      -3.469  -1.974   0.059  1.00  0.00    -0.125 NA
HETATM   10  N4  UNL     1      -4.816  -1.850   0.103  1.00  0.00    -0.235 NA
HETATM   11  C12 UNL     1      -5.159  -0.416   0.246  1.00  0.00     0.109 C 
HETATM   12  C13 UNL     1      -4.985   0.427  -0.944  1.00  0.00     0.042 C 
HETATM   13  C14 UNL     1      -4.810   1.938  -0.725  1.00  0.00     0.175 C 
HETATM   14  O2  UNL     1      -3.750   2.357  -0.073  1.00  0.00    -0.363 OA
HETATM   15  C15 UNL     1      -2.696   2.774   0.576  1.00  0.00     0.138 C 
HETATM   16  C16 UNL     1      -1.476   2.155   0.557  1.00  0.00    -0.047 C 
HETATM   17  C17 UNL     1      -1.973   1.104  -0.373  1.00  0.00     0.065 C 
HETATM   18  C18 UNL     1      -2.339   0.002   0.598  1.00  0.00     0.200 C 
HETATM   19  O3  UNL     1      -2.976  -0.827  -0.180  1.00  0.00    -0.288 OA
HETATM   20  C19 UNL     1      -0.044   1.859   0.808  1.00  0.00     0.141 C 
HETATM   21  H12 UNL     1      -5.356  -2.256  -0.687  1.00  0.00     0.142 HD
ENDROOT
BRANCH   4  22
HETATM   22  P1  UNL     1       3.308  -1.080  -0.783  1.00  0.00     0.040 P 
HETATM   23  H1  UNL     1       3.668  -0.305  -1.982  1.00  0.00     0.088 HD
BRANCH  22  24
HETATM   24  N2  UNL     1       4.110  -0.352   0.616  1.00  0.00    -0.361 N 
HETATM   25  H2  UNL     1       3.779  -0.060   1.570  1.00  0.00     0.164 HD
BRANCH  24  26
HETATM   26  C3  UNL     1       5.509  -0.121   0.373  1.00  0.00     0.033 A 
HETATM   27  C4  UNL     1       6.523  -1.022   0.640  1.00  0.00     0.029 A 
HETATM   28  C5  UNL     1       7.822  -0.651   0.350  1.00  0.00     0.004 A 
HETATM   29  C6  UNL     1       8.172   0.566  -0.191  1.00  0.00     0.024 A 
HETATM   30  C7  UNL     1       7.142   1.473  -0.458  1.00  0.00     0.036 A 
HETATM   31 CL1  UNL     1       7.573   3.031  -1.148  1.00  0.00    -0.084 Cl
HETATM   32  C8  UNL     1       5.836   1.110  -0.171  1.00  0.00     0.053 A 
ENDBRANCH  24  26
ENDBRANCH  22  24
ENDBRANCH   4  22
TORSDOF 3
