REMARK  2 active torsions:
REMARK  status: ('A' for Active; 'I' for Inactive)
REMARK    1  A    between atoms: N1_1  and  C1_2 
REMARK    2  A    between atoms: C1_2  and  C2_3 
ROOT
HETATM    1  C2  UNL     1       0.652   2.211  -0.615  1.00  0.00     0.006 C 
HETATM    2  C3  UNL     1       1.212   1.064  -0.260  1.00  0.00    -0.068 C 
HETATM    3  C4  UNL     1       2.151  -0.045  -0.741  1.00  0.00     0.153 C 
HETATM    4  N2  UNL     1       1.522  -1.315  -0.238  1.00  0.00    -0.382 N 
HETATM    5  C5  UNL     1       1.033  -1.801   1.111  1.00  0.00     0.087 A 
HETATM    6  C6  UNL     1       1.455  -1.177   2.269  1.00  0.00     0.017 A 
HETATM    7  N3  UNL     1       1.417  -2.022   3.275  1.00  0.00    -0.257 NA
HETATM    8  C7  UNL     1       0.970  -3.284   2.944  1.00  0.00     0.234 A 
HETATM    9  N4  UNL     1       0.556  -3.789   1.731  1.00  0.00    -0.222 NA
HETATM   10  C8  UNL     1       0.566  -2.988   0.652  1.00  0.00     0.157 A 
HETATM   11  N5  UNL     1      -0.008  -3.171  -0.610  1.00  0.00    -0.339 N 
HETATM   12  C9  UNL     1      -0.804  -2.030  -0.902  1.00  0.00     0.035 A 
HETATM   13  C10 UNL     1      -1.128  -1.864  -2.227  1.00  0.00     0.048 A 
HETATM   14  C11 UNL     1      -1.842  -0.758  -2.624  1.00  0.00     0.013 A 
HETATM   15 BR1  UNL     1      -2.331  -0.419  -4.441  1.00  0.00    -0.051 Br
HETATM   16  C12 UNL     1      -2.276   0.242  -1.753  1.00  0.00     0.026 A 
HETATM   17  C13 UNL     1      -2.003   0.169  -0.410  1.00  0.00    -0.054 A 
HETATM   18  C14 UNL     1      -1.273  -1.011  -0.144  1.00  0.00     0.036 A 
HETATM   19  C15 UNL     1      -2.173   0.994   0.850  1.00  0.00     0.044 C 
HETATM   20  C16 UNL     1      -0.815   1.030   1.581  1.00  0.00     0.020 C 
HETATM   21  C17 UNL     1       0.458   1.046   1.062  1.00  0.00    -0.043 C 
HETATM   22  B1  UNL     1       1.575   0.467   2.212  1.00  0.00     0.231 B 
HETATM   23  H8  UNL     1       1.506  -1.937  -1.117  1.00  0.00     0.160 HD
HETATM   24  H10 UNL     1       0.220  -4.017  -1.071  1.00  0.00     0.167 HD
HETATM   25  H17 UNL     1       1.320   0.940   3.265  1.00  0.00    -0.018 HD
ENDROOT
BRANCH   1  26
HETATM   26  C1  UNL     1      -0.166   3.430  -0.528  1.00  0.00     0.294 C 
BRANCH  26  27
HETATM   27  N1  UNL     1       0.672   4.615  -0.683  1.00  0.00     0.081 N 
HETATM   28  H1  UNL     1       1.654   4.300  -0.938  1.00  0.00     0.313 HD
HETATM   29  H2  UNL     1       0.825   5.073   0.264  1.00  0.00     0.313 HD
ENDBRANCH  26  27
ENDBRANCH   1  26
TORSDOF 2
