REMARK  5 active torsions:
REMARK  status: ('A' for Active; 'I' for Inactive)
REMARK    1  A    between atoms: C4_5  and  C5_6 
REMARK    2  A    between atoms: C5_6  and  N1_7 
REMARK    3  A    between atoms: C9_11  and  C10_12 
REMARK    4  A    between atoms: C14_17  and  N2_18 
REMARK    5  A    between atoms: C22_28  and  O2_29 
ROOT
HETATM    1  C1  UNL     1      -6.585  -4.061   1.764  1.00  0.00     0.019 C 
HETATM    2  C2  UNL     1      -5.701  -3.864   0.938  1.00  0.00    -0.066 C 
HETATM    3  C3  UNL     1      -4.664  -3.658  -0.034  1.00  0.00     0.084 C 
HETATM    4 CL1  UNL     1      -3.891  -4.967  -0.903  1.00  0.00    -0.075 Cl
HETATM    5  C4  UNL     1      -4.266  -2.416  -0.291  1.00  0.00     0.026 C 
ENDROOT
BRANCH   5   6
HETATM    6  C5  UNL     1      -3.195  -2.063  -1.280  1.00  0.00     0.150 C 
BRANCH   6   7
HETATM    7  N1  UNL     1      -2.103  -1.371  -0.639  1.00  0.00    -0.372 N 
HETATM    8  C6  UNL     1      -1.883  -0.110  -0.017  1.00  0.00     0.040 C 
HETATM    9  C7  UNL     1      -1.898   0.809  -1.027  1.00  0.00     0.110 C 
HETATM   10  C21 UNL     1      -1.803  -0.572   1.464  1.00  0.00     0.175 C 
HETATM   11  C8  UNL     1      -1.705   2.283  -1.022  1.00  0.00    -0.014 C 
HETATM   12  C9  UNL     1      -1.387   3.348  -0.241  1.00  0.00    -0.060 C 
HETATM   13  C12 UNL     1      -0.347   2.781   0.761  1.00  0.00     0.201 C 
HETATM   14  O1  UNL     1      -0.038   1.496   0.502  1.00  0.00    -0.384 OA
HETATM   15  C13 UNL     1       0.837   0.878   1.324  1.00  0.00     0.210 C 
HETATM   16  C14 UNL     1       1.320  -0.463   0.744  1.00  0.00     0.298 C 
HETATM   17  C20 UNL     1       0.140  -1.263   0.384  1.00  0.00     0.090 C 
HETATM   18  N4  UNL     1      -0.576  -1.352   1.497  1.00  0.00    -0.289 NA
HETATM   19  C22 UNL     1      -0.776  -2.042  -0.521  1.00  0.00     0.267 C 
BRANCH  12  20
HETATM   20  C10 UNL     1      -1.187   4.813  -0.061  1.00  0.00     0.031 C 
HETATM   21  C11 UNL     1      -2.124   5.282   1.027  1.00  0.00     0.010 C 
ENDBRANCH  12  20
BRANCH  16  22
HETATM   22  N2  UNL     1       2.067  -0.098  -0.463  1.00  0.00     0.104 N 
HETATM   23  C15 UNL     1       3.149   0.768  -0.031  1.00  0.00     0.303 C 
HETATM   24  C16 UNL     1       4.439   0.477  -0.789  1.00  0.00     0.302 C 
HETATM   25  N3  UNL     1       4.958  -0.804  -0.343  1.00  0.00     0.087 N 
HETATM   26  C17 UNL     1       6.144  -1.110  -1.080  1.00  0.00     0.310 C 
HETATM   27  C18 UNL     1       3.901  -1.759  -0.443  1.00  0.00     0.302 C 
HETATM   28  C19 UNL     1       2.654  -1.222  -1.115  1.00  0.00     0.303 C 
ENDBRANCH  16  22
BRANCH  19  29
HETATM   29  O2  UNL     1      -1.018  -3.320  -0.097  1.00  0.00    -0.371 OA
HETATM   30  H31 UNL     1      -0.862  -3.958  -0.849  1.00  0.00     0.212 HD
ENDBRANCH  19  29
ENDBRANCH   6   7
ENDBRANCH   5   6
TORSDOF 5
