REMARK  7 active torsions:
REMARK  status: ('A' for Active; 'I' for Inactive)
REMARK    1  A    between atoms: B1_2  and  C2_3 
REMARK    2  A    between atoms: C3_4  and  C4_5 
REMARK    3  A    between atoms: C3_4  and  C17_22 
REMARK    4  A    between atoms: C5_6  and  C6_7 
REMARK    5  A    between atoms: C9_12  and  N3_13 
REMARK    6  A    between atoms: N3_13  and  C10_14 
REMARK    7  A    between atoms: C17_22  and  N4_23 
ROOT
HETATM    1  C6  UNL     1       1.048   1.217  -0.472  1.00  0.00     0.027 A 
HETATM    2  C7  UNL     1       0.294   1.538  -1.578  1.00  0.00     0.133 A 
HETATM    3  N1  UNL     1       0.590   2.499  -2.469  1.00  0.00    -0.253 NA
HETATM    4  C8  UNL     1       1.707   3.229  -2.302  1.00  0.00     0.234 A 
HETATM    5  N2  UNL     1       2.481   2.956  -1.238  1.00  0.00    -0.224 NA
HETATM    6  C9  UNL     1       2.179   1.993  -0.351  1.00  0.00     0.141 A 
ENDROOT
BRANCH   1   7
HETATM    7  C5  UNL     1       0.711   0.193   0.506  1.00  0.00     0.017 C 
HETATM    8  C4  UNL     1      -0.302  -0.607   0.728  1.00  0.00     0.009 C 
BRANCH   8   9
HETATM    9  C3  UNL     1      -1.618  -1.069   0.333  1.00  0.00    -0.044 C 
HETATM   10  C2  UNL     1      -2.154  -2.056   1.091  1.00  0.00    -0.075 C 
BRANCH  10  11
HETATM   11  B1  UNL     1      -3.516  -2.729   0.906  1.00  0.00     0.178 B 
HETATM   12  C1  UNL     1      -3.612  -4.305   0.788  1.00  0.00    -0.055 C 
HETATM   13  H4  UNL     1      -4.531  -2.097   0.793  1.00  0.00    -0.022 HD
ENDBRANCH  10  11
BRANCH   9  14
HETATM   14  C17 UNL     1      -2.564  -0.704  -0.739  1.00  0.00     0.309 C 
BRANCH  14  15
HETATM   15  N4  UNL     1      -3.018   0.679  -0.669  1.00  0.00     0.096 N 
HETATM   16  C18 UNL     1      -3.932   0.943  -1.746  1.00  0.00     0.299 C 
HETATM   17  C19 UNL     1      -4.687   2.218  -1.444  1.00  0.00     0.198 C 
HETATM   18  O1  UNL     1      -5.572   2.048  -0.384  1.00  0.00    -0.388 OA
HETATM   19  C20 UNL     1      -5.139   1.091   0.516  1.00  0.00     0.198 C 
HETATM   20  C21 UNL     1      -3.633   0.989   0.585  1.00  0.00     0.299 C 
ENDBRANCH  14  15
ENDBRANCH   9  14
ENDBRANCH   8   9
ENDBRANCH   1   7
BRANCH   6  21
HETATM   21  N3  UNL     1       3.015   1.731   0.769  1.00  0.00    -0.340 N 
HETATM   22  H10 UNL     1       2.963   2.156   1.700  1.00  0.00     0.167 HD
BRANCH  21  23
HETATM   23  C10 UNL     1       4.034   0.748   0.511  1.00  0.00     0.034 A 
HETATM   24  C11 UNL     1       4.150   0.144  -0.725  1.00  0.00     0.031 A 
HETATM   25  C12 UNL     1       5.134  -0.812  -0.994  1.00  0.00     0.026 A 
HETATM   26  C13 UNL     1       6.003  -1.143   0.028  1.00  0.00     0.040 A 
HETATM   27 CL1  UNL     1       7.210  -2.337  -0.352  1.00  0.00    -0.084 Cl
HETATM   28  C14 UNL     1       5.918  -0.558   1.284  1.00  0.00    -0.038 A 
HETATM   29  C15 UNL     1       6.867  -0.940   2.351  1.00  0.00     0.050 C 
HETATM   30  C16 UNL     1       4.925   0.386   1.500  1.00  0.00     0.038 A 
ENDBRANCH  21  23
ENDBRANCH   6  21
TORSDOF 7
