REMARK  0 active torsions:
REMARK  status: ('A' for Active; 'I' for Inactive)
ROOT
HETATM    1  C1  UNL     1      -0.454  -1.465  -1.666  1.00  0.00    -0.015 C 
HETATM    2  C2  UNL     1      -1.255  -1.527  -0.672  1.00  0.00     0.005 C 
HETATM    3  C3  UNL     1      -1.766  -0.101  -0.860  1.00  0.00     0.108 C 
HETATM    4  C4  UNL     1      -1.746   0.469   0.480  1.00  0.00     0.065 C 
HETATM    5  O1  UNL     1      -2.156   2.014   0.362  1.00  0.00    -0.311 OA
HETATM    6  C5  UNL     1      -0.998   2.261  -0.557  1.00  0.00     0.257 A 
HETATM    7  N1  UNL     1      -1.462   2.757  -1.684  1.00  0.00    -0.234 NA
HETATM    8  C6  UNL     1      -0.559   2.899  -2.722  1.00  0.00     0.228 A 
HETATM    9  N2  UNL     1       0.608   2.402  -2.135  1.00  0.00    -0.239 NA
HETATM   10  C7  UNL     1       0.378   2.038  -0.862  1.00  0.00     0.235 A 
HETATM   11  C8  UNL     1       0.018   1.757   0.268  1.00  0.00     0.103 A 
HETATM   12  N3  UNL     1       0.530   1.365   1.482  1.00  0.00    -0.384 N 
HETATM   13  C9  UNL     1      -0.543   1.115   2.595  1.00  0.00     0.162 C 
HETATM   14  C10 UNL     1      -1.409  -0.007   1.940  1.00  0.00     0.004 C 
HETATM   15  C11 UNL     1      -1.638  -1.168   2.527  1.00  0.00     0.094 C 
HETATM   16  N4  UNL     1      -1.637  -2.321   1.620  1.00  0.00    -0.398 N 
HETATM   17  C12 UNL     1      -1.401  -2.728   0.219  1.00  0.00     0.129 C 
HETATM   18  N5  UNL     1       0.936   0.623  -1.005  1.00  0.00    -0.318 N 
HETATM   19  C13 UNL     1       2.310   0.736  -0.759  1.00  0.00     0.094 A 
HETATM   20  C14 UNL     1       3.269  -0.174  -0.778  1.00  0.00     0.017 A 
HETATM   21  C15 UNL     1       2.965  -1.556  -1.098  1.00  0.00     0.004 A 
HETATM   22  C16 UNL     1       1.688  -1.762  -1.350  1.00  0.00     0.030 A 
HETATM   23  C17 UNL     1       0.677  -0.738  -1.316  1.00  0.00     0.044 A 
HETATM   24  H3  UNL     1       1.556   1.319   1.403  1.00  0.00     0.159 HD
HETATM   25  H7  UNL     1      -1.908  -3.077   2.317  1.00  0.00     0.158 HD
ENDROOT
TORSDOF 0
