REMARK  2 active torsions:
REMARK  status: ('A' for Active; 'I' for Inactive)
REMARK    1  A    between atoms: C2_2  and  O1_3 
REMARK    2  A    between atoms: O1_3  and  C3_4 
ROOT
HETATM    1  C3  UNL     1      -1.427  -0.237   0.102  1.00  0.00     0.228 C 
HETATM    2  C4  UNL     1      -1.170   1.238   0.298  1.00  0.00     0.052 C 
HETATM    3  N1  UNL     1      -1.941   2.206   0.447  1.00  0.00    -0.248 NA
HETATM    4  C5  UNL     1      -1.429   3.525   0.641  1.00  0.00     0.233 C 
HETATM    5  N2  UNL     1      -0.156   3.833   0.680  1.00  0.00    -0.244 NA
HETATM    6  C6  UNL     1       0.830   2.863   0.338  1.00  0.00     0.063 C 
HETATM    7  C7  UNL     1       2.107   2.926   0.046  1.00  0.00     0.162 C 
HETATM    8  O2  UNL     1       3.119   2.060  -0.289  1.00  0.00    -0.361 OA
HETATM    9  C8  UNL     1       2.948   0.783  -0.593  1.00  0.00     0.176 C 
HETATM   10  C9  UNL     1       3.216  -0.561  -0.881  1.00  0.00     0.057 C 
HETATM   11  C10 UNL     1       1.797  -1.233  -1.090  1.00  0.00     0.278 C 
HETATM   12  N3  UNL     1       1.040  -1.051   0.072  1.00  0.00     0.122 N 
HETATM   13  C11 UNL     1       1.586  -2.038   1.024  1.00  0.00     0.302 C 
HETATM   14  C12 UNL     1       0.386  -2.996   1.096  1.00  0.00     0.201 C 
HETATM   15  O3  UNL     1      -0.567  -2.455   0.231  1.00  0.00    -0.353 OA
HETATM   16  C13 UNL     1      -0.255  -1.107   0.389  1.00  0.00     0.393 C 
HETATM   17  C14 UNL     1       0.295   1.543   0.304  1.00  0.00     0.118 C 
ENDROOT
BRANCH   1  18
HETATM   18  O1  UNL     1      -2.498  -0.671   0.801  1.00  0.00    -0.376 OA
BRANCH  18  19
HETATM   19  C2  UNL     1      -3.533  -1.046  -0.033  1.00  0.00     0.164 C 
HETATM   20  C1  UNL     1      -4.106   0.059  -0.879  1.00  0.00     0.033 C 
ENDBRANCH  18  19
ENDBRANCH   1  18
TORSDOF 2
