REMARK  6 active torsions:
REMARK  status: ('A' for Active; 'I' for Inactive)
REMARK    1  A    between atoms: O1_2  and  C2_3 
REMARK    2  A    between atoms: C6_8  and  N2_9 
REMARK    3  A    between atoms: N2_9  and  C7_10 
REMARK    4  A    between atoms: C8_11  and  C9_12 
REMARK    5  A    between atoms: C16_20  and  C17_21 
REMARK    6  A    between atoms: C17_21  and  N3_22 
ROOT
HETATM    1  C2  UNL     1      -0.651  -1.658  -1.042  1.00  0.00     0.071 C 
HETATM    2  C3  UNL     1      -1.669  -2.214  -0.423  1.00  0.00     0.021 C 
HETATM    3  C4  UNL     1      -1.692  -1.254   0.711  1.00  0.00     0.057 C 
HETATM    4  C5  UNL     1      -0.270  -1.079   1.167  1.00  0.00     0.101 C 
HETATM    5  N1  UNL     1       0.912  -1.545   0.638  1.00  0.00    -0.247 NA
HETATM    6  C6  UNL     1       2.069  -1.135   1.396  1.00  0.00     0.126 C 
HETATM    7  C12 UNL     1       1.973   0.101   0.847  1.00  0.00     0.051 C 
HETATM    8  C13 UNL     1       0.932   0.441  -0.158  1.00  0.00     0.013 C 
HETATM    9  C14 UNL     1       0.043  -0.373  -0.733  1.00  0.00    -0.025 C 
HETATM   10  C15 UNL     1      -1.225   0.371  -1.079  1.00  0.00     0.049 C 
HETATM   11  C16 UNL     1      -2.177   0.054   0.121  1.00  0.00     0.031 C 
ENDROOT
BRANCH   6  12
HETATM   12  N2  UNL     1       3.050  -1.495   2.312  1.00  0.00    -0.351 N 
HETATM   13  H7  UNL     1       2.920  -1.738   3.337  1.00  0.00     0.166 HD
BRANCH  12  14
HETATM   14  C7  UNL     1       4.400  -1.545   1.814  1.00  0.00     0.090 C 
HETATM   15  C8  UNL     1       5.225  -0.511   1.801  1.00  0.00     0.020 C 
BRANCH  15  16
HETATM   16  C9  UNL     1       6.600  -0.470   1.319  1.00  0.00     0.038 C 
HETATM   17  C10 UNL     1       7.333   0.630   1.357  1.00  0.00     0.090 C 
HETATM   18  C11 UNL     1       8.720   0.522   0.830  1.00  0.00     0.082 C 
HETATM   19  F1  UNL     1       6.759   1.746   1.868  1.00  0.00    -0.211 F 
ENDBRANCH  15  16
ENDBRANCH  12  14
ENDBRANCH   6  12
BRANCH  11  20
HETATM   20  C17 UNL     1      -3.552  -0.042  -0.471  1.00  0.00     0.278 C 
BRANCH  20  21
HETATM   21  N3  UNL     1      -3.864   1.294  -0.988  1.00  0.00     0.092 N 
HETATM   22  C18 UNL     1      -5.166   1.317  -1.621  1.00  0.00     0.298 C 
HETATM   23  C19 UNL     1      -6.189   1.619  -0.548  1.00  0.00     0.198 C 
HETATM   24  O2  UNL     1      -6.083   2.943  -0.139  1.00  0.00    -0.388 OA
HETATM   25  C20 UNL     1      -4.762   3.374  -0.084  1.00  0.00     0.198 C 
HETATM   26  C21 UNL     1      -3.801   2.224   0.125  1.00  0.00     0.298 C 
ENDBRANCH  20  21
ENDBRANCH  11  20
BRANCH   1  27
HETATM   27  O1  UNL     1       0.162  -1.945  -2.127  1.00  0.00    -0.356 OA
HETATM   28  C1  UNL     1       0.013  -3.135  -2.872  1.00  0.00     0.210 C 
ENDBRANCH   1  27
TORSDOF 6
