REMARK  7 active torsions:
REMARK  status: ('A' for Active; 'I' for Inactive)
REMARK    1  A    between atoms: O1_2  and  C2_3 
REMARK    2  A    between atoms: C6_9  and  N3_10 
REMARK    3  A    between atoms: C9_14  and  O2_15 
REMARK    4  A    between atoms: O2_15  and  C10_16 
REMARK    5  A    between atoms: C10_16  and  C11_17 
REMARK    6  A    between atoms: C11_17  and  C12_18 
REMARK    7  A    between atoms: C12_18  and  N4_19 
ROOT
HETATM    1  C2  UNL     1      -3.369  -1.521   0.199  1.00  0.00     0.103 A 
HETATM    2  C3  UNL     1      -4.491  -0.890  -0.317  1.00  0.00     0.072 A 
HETATM    3  C4  UNL     1      -4.481   0.488  -0.299  1.00  0.00     0.075 A 
HETATM    4  N1  UNL     1      -5.554   1.116  -0.795  1.00  0.00    -0.241 NA
HETATM    5  C5  UNL     1      -5.645   2.465  -0.826  1.00  0.00     0.236 A 
HETATM    6  N2  UNL     1      -4.633   3.208  -0.348  1.00  0.00    -0.222 NA
HETATM    7  C6  UNL     1      -3.530   2.625   0.162  1.00  0.00     0.165 A 
HETATM    8  C7  UNL     1      -3.450   1.257   0.188  1.00  0.00     0.043 A 
HETATM    9  C8  UNL     1      -2.382   0.551   0.678  1.00  0.00     0.057 A 
HETATM   10  C9  UNL     1      -2.267  -0.822   0.718  1.00  0.00     0.103 A 
ENDROOT
BRANCH  10  11
HETATM   11  O2  UNL     1      -1.313  -1.557   1.151  1.00  0.00    -0.348 OA
BRANCH  11  12
HETATM   12  C10 UNL     1      -0.195  -2.020   1.659  1.00  0.00     0.177 C 
BRANCH  12  13
HETATM   13  C11 UNL     1       1.130  -1.671   0.962  1.00  0.00     0.057 C 
BRANCH  13  14
HETATM   14  C12 UNL     1       1.275  -0.194   0.957  1.00  0.00     0.274 C 
BRANCH  14  15
HETATM   15  N4  UNL     1       2.500   0.263   0.336  1.00  0.00     0.091 N 
HETATM   16  C13 UNL     1       2.508   0.013  -1.091  1.00  0.00     0.302 C 
HETATM   17  C14 UNL     1       3.751   0.664  -1.655  1.00  0.00     0.302 C 
HETATM   18  N5  UNL     1       4.479   1.398  -0.637  1.00  0.00     0.087 N 
HETATM   19  C15 UNL     1       5.740   1.854  -1.237  1.00  0.00     0.310 C 
HETATM   20  C16 UNL     1       4.842   0.548   0.480  1.00  0.00     0.302 C 
HETATM   21  C17 UNL     1       3.678  -0.254   0.989  1.00  0.00     0.302 C 
ENDBRANCH  14  15
ENDBRANCH  13  14
ENDBRANCH  12  13
ENDBRANCH  11  12
ENDBRANCH  10  11
BRANCH   1  22
HETATM   22  O1  UNL     1      -3.379  -2.903   0.182  1.00  0.00    -0.353 OA
HETATM   23  C1  UNL     1      -4.426  -3.686  -0.311  1.00  0.00     0.210 C 
ENDBRANCH   1  22
BRANCH   7  24
HETATM   24  N3  UNL     1      -2.420   3.343   0.685  1.00  0.00    -0.205 N 
HETATM   25  F1  UNL     1      -1.584   3.524  -0.332  1.00  0.00    -0.100 F 
HETATM   26  H6  UNL     1      -2.221   3.695   1.662  1.00  0.00     0.201 HD
ENDBRANCH   7  24
TORSDOF 7
