REMARK  0 active torsions:
REMARK  status: ('A' for Active; 'I' for Inactive)
ROOT
HETATM    1 BR1  UNL     1       4.144   0.499  -3.114  1.00  0.00    -0.051 Br
HETATM    2  C1  UNL     1       3.529  -0.133  -1.424  1.00  0.00     0.014 A 
HETATM    3  C2  UNL     1       2.647   0.515  -0.670  1.00  0.00     0.081 A 
HETATM    4  C3  UNL     1       2.136   0.084   0.634  1.00  0.00     0.348 A 
HETATM    5  N1  UNL     1       2.543   1.067   1.630  1.00  0.00    -0.218 NA
HETATM    6  C4  UNL     1       1.947   2.211   1.652  1.00  0.00     0.233 C 
HETATM    7  N2  UNL     1       0.966   2.258   0.636  1.00  0.00    -0.230 NA
HETATM    8  C5  UNL     1       0.292   3.274   0.284  1.00  0.00     0.259 C 
HETATM    9  O1  UNL     1      -0.366   2.517  -0.676  1.00  0.00    -0.315 OA
HETATM   10  C6  UNL     1      -1.615   2.011  -0.334  1.00  0.00     0.156 C 
HETATM   11  C7  UNL     1      -2.185   0.834  -0.129  1.00  0.00     0.011 C 
HETATM   12  C8  UNL     1      -3.597   0.976   0.220  1.00  0.00     0.124 C 
HETATM   13  N3  UNL     1      -4.481   0.019   0.069  1.00  0.00    -0.300 NA
HETATM   14  C9  UNL     1      -4.385  -1.308  -0.420  1.00  0.00     0.152 C 
HETATM   15  C10 UNL     1      -3.256  -2.137   0.047  1.00  0.00     0.049 C 
HETATM   16  C11 UNL     1      -1.909  -1.640  -0.178  1.00  0.00    -0.015 C 
HETATM   17  C12 UNL     1      -1.417  -0.402  -0.259  1.00  0.00    -0.020 C 
HETATM   18  C13 UNL     1       0.047  -0.371  -0.503  1.00  0.00     0.315 C 
HETATM   19  N4  UNL     1       0.693   0.009   0.713  1.00  0.00     0.143 N 
HETATM   20  N5  UNL     1       2.752  -1.178   0.977  1.00  0.00    -0.344 N 
HETATM   21  C14 UNL     1       3.698  -1.944   0.242  1.00  0.00     0.089 A 
HETATM   22  C15 UNL     1       4.046  -1.400  -0.913  1.00  0.00     0.035 A 
HETATM   23  H13 UNL     1       0.432  -0.606   1.492  1.00  0.00     0.322 HD
HETATM   24  H14 UNL     1       2.386  -1.495   1.918  1.00  0.00     0.163 HD
ENDROOT
TORSDOF 0
