REMARK  4 active torsions:
REMARK  status: ('A' for Active; 'I' for Inactive)
REMARK    1  A    between atoms: O1_2  and  C2_3 
REMARK    2  A    between atoms: C6_9  and  N3_10 
REMARK    3  A    between atoms: C11_16  and  S1_17 
REMARK    4  A    between atoms: S1_17  and  C12_18 
ROOT
HETATM    1  N3  UNL     1       0.191  -0.334   0.356  1.00  0.00    -0.348 N 
HETATM    2  C7  UNL     1      -0.131  -1.711   0.669  1.00  0.00     0.152 C 
HETATM    3  C8  UNL     1      -0.507  -1.920   2.078  1.00  0.00    -0.009 C 
HETATM    4  C9  UNL     1      -1.047  -0.889   2.712  1.00  0.00     0.000 C 
HETATM    5  C10 UNL     1      -1.307   0.438   2.147  1.00  0.00     0.161 A 
HETATM    6  N4  UNL     1      -2.514   0.416   1.378  1.00  0.00    -0.273 NA
HETATM    7  C11 UNL     1      -2.067   0.650   0.201  1.00  0.00     0.096 A 
HETATM    8  C18 UNL     1      -0.691   0.717   0.819  1.00  0.00     0.173 A 
ENDROOT
BRANCH   1   9
HETATM    9  C6  UNL     1       1.325   0.123  -0.395  1.00  0.00     0.140 A 
HETATM   10  N2  UNL     1       0.940   0.739  -1.528  1.00  0.00    -0.224 NA
HETATM   11  C5  UNL     1       1.878   1.239  -2.385  1.00  0.00     0.236 A 
HETATM   12  N1  UNL     1       3.197   1.141  -2.141  1.00  0.00    -0.241 NA
HETATM   13  C4  UNL     1       3.587   0.527  -1.010  1.00  0.00     0.075 A 
HETATM   14  C3  UNL     1       4.910   0.365  -0.644  1.00  0.00     0.072 A 
HETATM   15  C19 UNL     1       2.660   0.014  -0.128  1.00  0.00     0.042 A 
HETATM   16  C2  UNL     1       5.261  -0.281   0.546  1.00  0.00     0.108 A 
HETATM   17  C21 UNL     1       4.276  -0.783   1.405  1.00  0.00     0.150 A 
HETATM   18  C20 UNL     1       2.950  -0.630   1.055  1.00  0.00     0.062 A 
HETATM   19  F1  UNL     1       4.656  -1.402   2.548  1.00  0.00    -0.203 F 
BRANCH  16  20
HETATM   20  O1  UNL     1       6.582  -0.451   0.926  1.00  0.00    -0.353 OA
HETATM   21  C1  UNL     1       7.634   0.031   0.107  1.00  0.00     0.210 C 
ENDBRANCH  16  20
ENDBRANCH   1   9
BRANCH   7  22
HETATM   22  S1  UNL     1      -2.860   0.803  -1.390  1.00  0.00    -0.073 SA
BRANCH  22  23
HETATM   23  C12 UNL     1      -4.627   0.574  -1.264  1.00  0.00     0.006 A 
HETATM   24  C13 UNL     1      -5.278   0.689  -2.498  1.00  0.00     0.019 A 
HETATM   25  C14 UNL     1      -6.644   0.534  -2.542  1.00  0.00     0.001 A 
HETATM   26  C15 UNL     1      -7.426   0.270  -1.442  1.00  0.00     0.000 A 
HETATM   27  C16 UNL     1      -6.752   0.165  -0.248  1.00  0.00     0.001 A 
HETATM   28  C17 UNL     1      -5.385   0.310  -0.143  1.00  0.00     0.019 A 
ENDBRANCH  22  23
ENDBRANCH   7  22
TORSDOF 4
