REMARK  0 active torsions:
REMARK  status: ('A' for Active; 'I' for Inactive)
ROOT
HETATM    1  C1  UNL     1      -4.471  -1.226  -1.019  1.00  0.00     0.043 C 
HETATM    2  C2  UNL     1      -2.954  -1.059  -1.009  1.00  0.00    -0.082 C 
HETATM    3  C3  UNL     1      -2.570  -2.330  -1.183  1.00  0.00    -0.011 C 
HETATM    4  C4  UNL     1      -1.281  -3.047  -1.011  1.00  0.00     0.135 C 
HETATM    5  S1  UNL     1      -0.113  -2.036  -0.100  1.00  0.00    -0.019 SA
HETATM    6  C5  UNL     1      -0.987  -1.561   1.186  1.00  0.00     0.105 C 
HETATM    7  C6  UNL     1      -1.631  -0.262   1.501  1.00  0.00     0.075 A 
HETATM    8  N1  UNL     1      -1.427  -0.052   2.791  1.00  0.00    -0.241 NA
HETATM    9  C7  UNL     1      -1.812   1.155   3.309  1.00  0.00     0.234 A 
HETATM   10  N2  UNL     1      -2.379   2.086   2.479  1.00  0.00    -0.242 NA
HETATM   11  C8  UNL     1      -2.569   1.847   1.186  1.00  0.00     0.067 A 
HETATM   12  C9  UNL     1      -2.213   0.623   0.579  1.00  0.00     0.004 A 
HETATM   13  C10 UNL     1      -2.616   0.396  -0.822  1.00  0.00     0.077 C 
HETATM   14  C11 UNL     1      -2.957   2.594  -0.000  1.00  0.00     0.030 C 
HETATM   15  C12 UNL     1      -1.691   2.909  -0.379  1.00  0.00     0.001 C 
HETATM   16  C13 UNL     1      -0.342   2.699   0.100  1.00  0.00     0.174 C 
HETATM   17  C14 UNL     1       0.011   3.145   1.439  1.00  0.00     0.074 C 
HETATM   18  N3  UNL     1       0.311   3.509   2.505  1.00  0.00    -0.196 NA
HETATM   19  C15 UNL     1       0.579   1.756  -0.457  1.00  0.00     0.090 C 
HETATM   20  C16 UNL     1       0.619   0.517  -0.883  1.00  0.00     0.186 C 
HETATM   21  O1  UNL     1       0.051  -0.680  -1.128  1.00  0.00    -0.287 OA
HETATM   22  O2  UNL     1       1.942   1.865  -0.760  1.00  0.00    -0.352 OA
HETATM   23  C17 UNL     1       2.887   2.142   0.221  1.00  0.00     0.177 C 
HETATM   24  C18 UNL     1       4.156   1.401   0.268  1.00  0.00     0.046 C 
HETATM   25  C19 UNL     1       4.112  -0.074   0.523  1.00  0.00     0.116 C 
HETATM   26  N4  UNL     1       3.506  -0.803  -0.502  1.00  0.00    -0.419 N 
HETATM   27  C20 UNL     1       3.363  -2.188  -0.445  1.00  0.00     0.136 C 
HETATM   28  C21 UNL     1       2.431  -2.832   0.508  1.00  0.00     0.177 C 
HETATM   29  N5  UNL     1       1.111  -2.649   0.364  1.00  0.00    -0.248 NA
HETATM   30  H21 UNL     1       3.523  -0.372  -1.450  1.00  0.00     0.153 HD
ENDROOT
TORSDOF 0
