REMARK  4 active torsions:
REMARK  status: ('A' for Active; 'I' for Inactive)
REMARK    1  A    between atoms: O1_2  and  C2_3 
REMARK    2  A    between atoms: C5_6  and  C7_8 
REMARK    3  A    between atoms: C15_18  and  C16_19 
REMARK    4  A    between atoms: C22_29  and  O2_30 
ROOT
HETATM    1  C2  UNL     1      -0.821   0.687  -0.358  1.00  0.00     0.088 C 
HETATM    2  C3  UNL     1       0.176  -0.123  -0.058  1.00  0.00     0.094 C 
HETATM    3  C4  UNL     1       0.560  -1.464   0.339  1.00  0.00    -0.036 C 
HETATM    4  C5  UNL     1       1.886  -1.389   0.461  1.00  0.00    -0.019 C 
HETATM    5  C6  UNL     1       2.613  -2.645   0.876  1.00  0.00     0.052 C 
HETATM    6  C14 UNL     1      -0.012  -2.799   0.634  1.00  0.00     0.036 C 
HETATM    7  C15 UNL     1      -1.264  -3.088   0.542  1.00  0.00     0.040 C 
HETATM    8  N2  UNL     1      -2.384  -2.396   0.108  1.00  0.00    -0.342 N 
HETATM    9  C17 UNL     1      -3.629  -1.757   0.123  1.00  0.00     0.141 A 
HETATM   10  N3  UNL     1      -4.429  -2.762   0.487  1.00  0.00    -0.224 NA
HETATM   11  C18 UNL     1      -5.753  -2.598   0.628  1.00  0.00     0.234 A 
HETATM   12  N4  UNL     1      -6.294  -1.391   0.399  1.00  0.00    -0.253 NA
HETATM   13  C19 UNL     1      -5.430  -0.402   0.031  1.00  0.00     0.133 A 
HETATM   14  C20 UNL     1      -4.055  -0.497  -0.135  1.00  0.00     0.030 A 
HETATM   15  C21 UNL     1      -3.434   0.751  -0.511  1.00  0.00     0.056 C 
HETATM   16  C22 UNL     1      -2.202   1.170  -0.583  1.00  0.00     0.099 C 
HETATM   17  H15 UNL     1      -2.172  -2.271  -0.905  1.00  0.00     0.167 HD
ENDROOT
BRANCH   4  18
HETATM   18  C7  UNL     1       2.861  -0.324   0.228  1.00  0.00     0.105 A 
HETATM   19  N1  UNL     1       3.135   0.534  -0.657  1.00  0.00    -0.240 NA
HETATM   20  C8  UNL     1       4.138   1.382  -0.473  1.00  0.00     0.075 A 
HETATM   21  C9  UNL     1       4.437   2.330  -1.461  1.00  0.00     0.033 A 
HETATM   22  C13 UNL     1       4.923   1.367   0.684  1.00  0.00     0.035 A 
HETATM   23  C10 UNL     1       5.492   3.200  -1.239  1.00  0.00     0.002 A 
HETATM   24  C11 UNL     1       6.276   3.214  -0.126  1.00  0.00     0.002 A 
HETATM   25  C12 UNL     1       5.980   2.283   0.840  1.00  0.00     0.021 A 
HETATM   26  S1  UNL     1       4.164   0.050   1.553  1.00  0.00    -0.068 SA
ENDBRANCH   4  18
BRANCH   1  27
HETATM   27  O1  UNL     1       0.293   1.495  -0.505  1.00  0.00    -0.357 OA
HETATM   28  C1  UNL     1       0.549   2.610   0.323  1.00  0.00     0.209 C 
ENDBRANCH   1  27
BRANCH   7  29
HETATM   29  C16 UNL     1      -1.831  -4.433   0.848  1.00  0.00     0.279 C 
HETATM   30  F1  UNL     1      -0.763  -5.255   1.229  1.00  0.00    -0.249 F 
ENDBRANCH   7  29
BRANCH  16  31
HETATM   31  O2  UNL     1      -1.997   2.483  -0.993  1.00  0.00    -0.353 OA
HETATM   32  C23 UNL     1      -2.987   3.464  -1.008  1.00  0.00     0.210 C 
ENDBRANCH  16  31
TORSDOF 4
