REMARK  3 active torsions:
REMARK  status: ('A' for Active; 'I' for Inactive)
REMARK    1  A    between atoms: C8_8  and  O1_9 
REMARK    2  A    between atoms: C14_18  and  C15_19 
REMARK    3  A    between atoms: C23_29  and  O2_30 
ROOT
HETATM    1  C1  UNL     1       0.486  -4.455   0.067  1.00  0.00     0.041 C 
HETATM    2  C2  UNL     1       0.467  -3.136   0.025  1.00  0.00    -0.046 C 
HETATM    3  C3  UNL     1      -0.971  -2.730  -0.147  1.00  0.00     0.037 C 
HETATM    4  C4  UNL     1      -1.251  -2.047  -1.438  1.00  0.00     0.005 C 
HETATM    5  C5  UNL     1      -2.723  -1.755  -1.563  1.00  0.00     0.004 C 
HETATM    6  C6  UNL     1      -3.159  -0.927  -0.377  1.00  0.00     0.030 C 
HETATM    7  C7  UNL     1      -4.545  -0.460  -0.486  1.00  0.00     0.010 C 
HETATM    8  C8  UNL     1      -5.544   0.371  -0.566  1.00  0.00     0.065 C 
HETATM    9  C10 UNL     1      -5.188   1.821  -0.547  1.00  0.00     0.055 C 
HETATM   10  C11 UNL     1      -4.188   2.738  -0.476  1.00  0.00     0.112 C 
HETATM   11  N1  UNL     1      -3.172   3.757  -0.403  1.00  0.00    -0.288 N 
HETATM   12  N2  UNL     1      -1.858   3.430   0.068  1.00  0.00    -0.171 NA
HETATM   13  C12 UNL     1      -1.304   2.481  -0.681  1.00  0.00     0.225 C 
HETATM   14  N3  UNL     1      -0.026   2.132  -0.257  1.00  0.00    -0.372 N 
HETATM   15  C13 UNL     1       0.957   1.211  -0.057  1.00  0.00     0.145 C 
HETATM   16  C14 UNL     1       1.743   0.219   0.100  1.00  0.00     0.005 C 
HETATM   17  C22 UNL     1       1.949  -1.185   0.173  1.00  0.00     0.049 C 
HETATM   18  C23 UNL     1       1.740  -2.438   0.182  1.00  0.00     0.071 C 
HETATM   19  H17 UNL     1      -4.050   4.146  -0.761  1.00  0.00     0.188 HD
HETATM   20  H19 UNL     1       0.657   2.784   0.121  1.00  0.00     0.161 HD
ENDROOT
BRANCH  16  21
HETATM   21  C15 UNL     1       2.891   1.154   0.358  1.00  0.00     0.107 A 
HETATM   22  N4  UNL     1       4.013   0.819   0.593  1.00  0.00    -0.240 NA
HETATM   23  C16 UNL     1       5.074   1.511   0.835  1.00  0.00     0.075 A 
HETATM   24  C17 UNL     1       6.371   1.044   1.104  1.00  0.00     0.033 A 
HETATM   25  C21 UNL     1       4.928   2.868   0.832  1.00  0.00     0.035 A 
HETATM   26  C18 UNL     1       7.339   1.955   1.328  1.00  0.00     0.002 A 
HETATM   27  C19 UNL     1       7.218   3.323   1.330  1.00  0.00     0.002 A 
HETATM   28  C20 UNL     1       5.952   3.785   1.070  1.00  0.00     0.021 A 
HETATM   29  S1  UNL     1       3.196   2.929   0.460  1.00  0.00    -0.068 SA
ENDBRANCH  16  21
BRANCH  18  30
HETATM   30  O2  UNL     1       2.752  -3.402   0.353  1.00  0.00    -0.356 OA
HETATM   31  C24 UNL     1       3.878  -3.435  -0.516  1.00  0.00     0.210 C 
ENDBRANCH  18  30
BRANCH   8  32
HETATM   32  O1  UNL     1      -6.925   0.465  -0.672  1.00  0.00    -0.356 OA
HETATM   33  C9  UNL     1      -7.612   0.592   0.586  1.00  0.00     0.210 C 
ENDBRANCH   8  32
TORSDOF 3
