REMARK  1 active torsions:
REMARK  status: ('A' for Active; 'I' for Inactive)
REMARK    1  A    between atoms: O1_2  and  C2_3 
ROOT
HETATM    1  C2  UNL     1       4.069   0.574  -0.314  1.00  0.00     0.076 A 
HETATM    2  C3  UNL     1       4.699  -0.533   0.227  1.00  0.00     0.070 A 
HETATM    3  C4  UNL     1       4.064  -1.758   0.347  1.00  0.00     0.075 A 
HETATM    4  N1  UNL     1       4.792  -2.736   0.905  1.00  0.00    -0.241 NA
HETATM    5  C5  UNL     1       4.219  -3.942   1.061  1.00  0.00     0.236 A 
HETATM    6  N2  UNL     1       2.930  -4.122   0.650  1.00  0.00    -0.222 NA
HETATM    7  C6  UNL     1       2.197  -3.146   0.090  1.00  0.00     0.159 A 
HETATM    8  C7  UNL     1       2.769  -1.906  -0.078  1.00  0.00     0.041 A 
HETATM    9  C8  UNL     1       2.217  -0.783  -0.597  1.00  0.00     0.027 A 
HETATM   10  C9  UNL     1       2.776   0.463  -0.747  1.00  0.00    -0.024 A 
HETATM   11  C10 UNL     1       1.889   1.563  -1.317  1.00  0.00     0.043 C 
HETATM   12  C11 UNL     1       0.499   1.375  -0.691  1.00  0.00     0.035 C 
HETATM   13  C12 UNL     1      -0.464   2.433  -1.089  1.00  0.00     0.273 C 
HETATM   14  N3  UNL     1      -1.797   2.197  -0.541  1.00  0.00     0.096 N 
HETATM   15  C13 UNL     1      -1.848   2.433   0.860  1.00  0.00     0.292 C 
HETATM   16  C14 UNL     1      -3.075   1.862   1.503  1.00  0.00     0.147 C 
HETATM   17  N4  UNL     1      -3.249   0.442   1.297  1.00  0.00    -0.408 N 
HETATM   18  C15 UNL     1      -4.566  -0.019   1.428  1.00  0.00     0.143 C 
HETATM   19  C16 UNL     1      -2.408   0.026   0.268  1.00  0.00     0.121 C 
HETATM   20  C17 UNL     1      -2.433  -1.435  -0.102  1.00  0.00    -0.006 C 
HETATM   21  C18 UNL     1      -3.543  -2.318  -0.494  1.00  0.00     0.019 C 
HETATM   22  C19 UNL     1      -1.508  -2.409  -0.222  1.00  0.00     0.031 C 
HETATM   23  C20 UNL     1      -0.173  -2.983  -0.187  1.00  0.00     0.141 C 
HETATM   24  N5  UNL     1       0.913  -3.662  -0.212  1.00  0.00    -0.263 NA
HETATM   25  C21 UNL     1      -2.344   0.914  -0.937  1.00  0.00     0.242 C 
HETATM   26  C22 UNL     1      -3.662   1.180  -1.608  1.00  0.00     0.045 C 
ENDROOT
BRANCH   1  27
HETATM   27  O1  UNL     1       4.641   1.841  -0.468  1.00  0.00    -0.355 OA
HETATM   28  C1  UNL     1       5.973   2.025  -0.042  1.00  0.00     0.210 C 
ENDBRANCH   1  27
TORSDOF 1
