REMARK  5 active torsions:
REMARK  status: ('A' for Active; 'I' for Inactive)
REMARK    1  A    between atoms: N2_5  and  C4_6 
REMARK    2  A    between atoms: C4_6  and  C5_7 
REMARK    3  A    between atoms: C5_7  and  C6_8 
REMARK    4  A    between atoms: C6_8  and  O1_9 
REMARK    5  A    between atoms: O1_9  and  C7_10 
ROOT
HETATM    1  O1  UNL     1       1.772  -0.083   0.110  1.00  0.00    -0.350 OA
ENDROOT
BRANCH   1   2
HETATM    2  C6  UNL     1       1.210   1.180   0.479  1.00  0.00     0.177 C 
BRANCH   2   3
HETATM    3  C5  UNL     1      -0.200   0.961   1.054  1.00  0.00     0.046 C 
BRANCH   3   4
HETATM    4  C4  UNL     1      -1.008   0.313   0.001  1.00  0.00     0.119 C 
BRANCH   4   5
HETATM    5  N2  UNL     1      -2.340  -0.012   0.226  1.00  0.00    -0.409 N 
HETATM    6  C3  UNL     1      -3.333   0.968   0.373  1.00  0.00     0.147 C 
HETATM    7  C2  UNL     1      -4.407   0.820  -0.677  1.00  0.00     0.291 C 
HETATM    8  N1  UNL     1      -5.174  -0.380  -0.404  1.00  0.00     0.087 N 
HETATM    9  C1  UNL     1      -6.144  -0.084   0.626  1.00  0.00     0.310 C 
HETATM   10  C16 UNL     1      -4.294  -1.468  -0.022  1.00  0.00     0.291 C 
HETATM   11  C15 UNL     1      -2.863  -1.195  -0.377  1.00  0.00     0.147 C 
ENDBRANCH   4   5
ENDBRANCH   3   4
ENDBRANCH   2   3
ENDBRANCH   1   2
BRANCH   1  12
HETATM   12  C7  UNL     1       3.080  -0.078  -0.263  1.00  0.00     0.077 C 
HETATM   13  C8  UNL     1       3.796   0.486  -1.292  1.00  0.00     0.051 C 
HETATM   14  C9  UNL     1       5.133  -0.070  -0.910  1.00  0.00    -0.004 C 
HETATM   15  C10 UNL     1       4.577  -1.289  -0.587  1.00  0.00    -0.003 C 
HETATM   16  C13 UNL     1       6.565  -0.169  -0.642  1.00  0.00     0.022 C 
HETATM   17  C11 UNL     1       4.024  -0.823   0.577  1.00  0.00    -0.003 C 
HETATM   18  C12 UNL     1       4.985  -1.582   1.385  1.00  0.00     0.121 C 
HETATM   19  S1  UNL     1       6.734  -1.291   0.771  1.00  0.00    -0.123 SA
HETATM   20  C14 UNL     1       7.020   0.636  -1.580  1.00  0.00     0.104 C 
HETATM   21 CL1  UNL     1       8.731   0.908  -1.737  1.00  0.00    -0.096 Cl
ENDBRANCH   1  12
TORSDOF 5
