REMARK  5 active torsions:
REMARK  status: ('A' for Active; 'I' for Inactive)
REMARK    1  A    between atoms: C3_3  and  N1_4 
REMARK    2  A    between atoms: N1_4  and  C4_5 
REMARK    3  A    between atoms: C4_5  and  C5_6 
REMARK    4  A    between atoms: C6_7  and  C7_8 
REMARK    5  A    between atoms: C9_13  and  C10_14 
ROOT
HETATM    1  C1  UNL     1       1.612   0.772   1.527  1.00  0.00     0.054 C 
HETATM    2  C2  UNL     1       1.188  -0.170   0.488  1.00  0.00     0.009 A 
HETATM    3  C3  UNL     1       2.271  -0.654  -0.252  1.00  0.00     0.133 A 
HETATM    4  N2  UNL     1       2.066  -1.545  -1.266  1.00  0.00    -0.224 NA
HETATM    5  C8  UNL     1       0.834  -1.981  -1.581  1.00  0.00     0.235 A 
HETATM    6  N3  UNL     1      -0.206  -1.516  -0.869  1.00  0.00    -0.245 NA
HETATM    7  C9  UNL     1      -0.040  -0.640   0.132  1.00  0.00     0.054 A 
ENDROOT
BRANCH   7   8
HETATM    8  C10 UNL     1      -1.161  -0.081   0.965  1.00  0.00     0.097 C 
HETATM    9  C11 UNL     1      -1.670   1.194   0.264  1.00  0.00     0.180 C 
HETATM   10  O1  UNL     1      -2.583   1.720   1.075  1.00  0.00    -0.390 OA
HETATM   11  C12 UNL     1      -3.400   2.738   0.712  1.00  0.00     0.169 C 
HETATM   12  C13 UNL     1      -4.271   2.348  -0.478  1.00  0.00     0.046 C 
HETATM   13  C14 UNL     1      -4.944   1.009  -0.181  1.00  0.00     0.120 C 
HETATM   14  N4  UNL     1      -4.102  -0.056   0.019  1.00  0.00    -0.387 N 
HETATM   15  C15 UNL     1      -3.599  -0.493   1.242  1.00  0.00     0.155 C 
HETATM   16  C18 UNL     1      -3.623  -0.859  -1.040  1.00  0.00     0.393 C 
HETATM   17  C16 UNL     1      -2.286  -1.122   0.870  1.00  0.00     0.254 C 
HETATM   18  N5  UNL     1      -2.437  -1.548  -0.516  1.00  0.00     0.108 N 
HETATM   19  C17 UNL     1      -2.597  -3.006  -0.579  1.00  0.00     0.312 C 
ENDBRANCH   7   8
BRANCH   3  20
HETATM   20  N1  UNL     1       3.628  -0.327  -0.084  1.00  0.00    -0.371 N 
HETATM   21  H4  UNL     1       3.809   0.351   0.684  1.00  0.00     0.161 HD
BRANCH  20  22
HETATM   22  C4  UNL     1       4.760  -0.822  -0.846  1.00  0.00     0.148 C 
BRANCH  22  23
HETATM   23  C5  UNL     1       6.024  -0.236  -0.359  1.00  0.00    -0.009 C 
HETATM   24  C6  UNL     1       6.424   0.605   0.566  1.00  0.00     0.002 C 
BRANCH  24  25
HETATM   25  C7  UNL     1       7.833   1.043   0.856  1.00  0.00     0.249 C 
HETATM   26  F1  UNL     1       8.694   0.406  -0.028  1.00  0.00    -0.251 F 
ENDBRANCH  24  25
ENDBRANCH  22  23
ENDBRANCH  20  22
ENDBRANCH   3  20
TORSDOF 5
