REMARK  3 active torsions:
REMARK  status: ('A' for Active; 'I' for Inactive)
REMARK    1  A    between atoms: O1_1  and  C1_2 
REMARK    2  A    between atoms: C1_2  and  C2_3 
REMARK    3  A    between atoms: C10_11  and  C11_12 
ROOT
HETATM    1  C2  UNL     1       5.252   1.214  -1.107  1.00  0.00     0.024 C 
HETATM    2  C3  UNL     1       4.280   0.475  -0.650  1.00  0.00     0.011 C 
HETATM    3  C4  UNL     1       3.409   0.705   0.516  1.00  0.00     0.084 C 
HETATM    4  C5  UNL     1       3.494  -0.367   1.516  1.00  0.00    -0.020 C 
HETATM    5  C6  UNL     1       2.425  -1.083   1.815  1.00  0.00     0.010 C 
HETATM    6  C7  UNL     1       1.082  -0.975   1.277  1.00  0.00    -0.008 A 
HETATM    7  C8  UNL     1       0.106  -0.511   2.128  1.00  0.00     0.014 A 
HETATM    8  C9  UNL     1      -1.244  -0.331   1.805  1.00  0.00     0.015 A 
HETATM    9  C10 UNL     1      -1.558  -0.665   0.505  1.00  0.00     0.002 A 
HETATM   10  C18 UNL     1      -0.610  -1.130  -0.367  1.00  0.00     0.046 A 
HETATM   11  C19 UNL     1       0.721  -1.296  -0.008  1.00  0.00     0.069 A 
HETATM   12  N2  UNL     1       1.478  -1.795  -1.097  1.00  0.00    -0.243 NA
HETATM   13  C20 UNL     1       2.667  -1.347  -1.274  1.00  0.00     0.208 C 
HETATM   14  N3  UNL     1       3.951  -0.738  -1.310  1.00  0.00    -0.354 N 
HETATM   15  H16 UNL     1       4.640  -1.270  -1.872  1.00  0.00     0.166 HD
ENDROOT
BRANCH   9  16
HETATM   16  C11 UNL     1      -2.970  -0.477   0.161  1.00  0.00     0.109 A 
HETATM   17  N1  UNL     1      -3.950  -0.141   0.593  1.00  0.00    -0.240 NA
HETATM   18  C12 UNL     1      -5.158  -0.043   0.093  1.00  0.00     0.076 A 
HETATM   19  C13 UNL     1      -6.332   0.390   0.709  1.00  0.00     0.057 A 
HETATM   20  C17 UNL     1      -5.269  -0.415  -1.193  1.00  0.00     0.036 A 
HETATM   21  C14 UNL     1      -7.488   0.412  -0.003  1.00  0.00     0.036 A 
HETATM   22 CL1  UNL     1      -9.021   0.948   0.706  1.00  0.00    -0.084 Cl
HETATM   23  C15 UNL     1      -7.635   0.033  -1.336  1.00  0.00     0.025 A 
HETATM   24  C16 UNL     1      -6.457  -0.402  -1.954  1.00  0.00     0.023 A 
HETATM   25  S1  UNL     1      -3.617  -0.877  -1.579  1.00  0.00    -0.068 SA
ENDBRANCH   9  16
BRANCH   1  26
HETATM   26  C1  UNL     1       5.749   2.498  -0.569  1.00  0.00     0.193 C 
BRANCH  26  27
HETATM   27  O1  UNL     1       7.094   2.328  -0.229  1.00  0.00    -0.397 OA
HETATM   28  H1  UNL     1       7.251   1.464   0.203  1.00  0.00     0.209 HD
ENDBRANCH  26  27
ENDBRANCH   1  26
TORSDOF 3
