REMARK  1 active torsions:
REMARK  status: ('A' for Active; 'I' for Inactive)
REMARK    1  A    between atoms: C2_2  and  C3_4 
ROOT
HETATM    1  C3  UNL     1       1.876  -0.463   0.366  1.00  0.00    -0.036 C 
HETATM    2  C4  UNL     1       1.585  -1.784   0.606  1.00  0.00     0.053 C 
HETATM    3  C5  UNL     1       0.469  -2.678   0.720  1.00  0.00     0.000 C 
HETATM    4  C6  UNL     1      -0.754  -3.243   0.781  1.00  0.00     0.086 C 
HETATM    5  N1  UNL     1      -2.148  -2.802   0.691  1.00  0.00    -0.350 N 
HETATM    6  C7  UNL     1      -1.871  -1.659   1.570  1.00  0.00     0.141 A 
HETATM    7  N2  UNL     1      -1.610  -1.768   2.889  1.00  0.00    -0.224 NA
HETATM    8  C8  UNL     1      -1.086  -0.697   3.563  1.00  0.00     0.236 A 
HETATM    9  N3  UNL     1      -0.870   0.395   2.821  1.00  0.00    -0.241 NA
HETATM   10  C9  UNL     1      -1.155   0.432   1.526  1.00  0.00     0.073 A 
HETATM   11  C10 UNL     1      -0.815   1.614   0.918  1.00  0.00     0.045 A 
HETATM   12  C11 UNL     1      -1.297   0.993  -0.199  1.00  0.00     0.002 A 
HETATM   13  C12 UNL     1      -1.779   0.376  -1.326  1.00  0.00     0.078 A 
HETATM   14  C13 UNL     1      -2.016  -0.688  -0.550  1.00  0.00     0.055 A 
HETATM   15  C14 UNL     1      -1.689  -0.571   0.757  1.00  0.00     0.041 A 
HETATM   16  O1  UNL     1      -1.886   0.927  -2.629  1.00  0.00    -0.350 OA
HETATM   17  C15 UNL     1      -2.134   2.381  -2.658  1.00  0.00     0.178 C 
HETATM   18  C16 UNL     1      -1.198   2.965  -1.571  1.00  0.00     0.059 C 
HETATM   19  C17 UNL     1      -0.385   1.827  -1.071  1.00  0.00     0.145 C 
HETATM   20  N4  UNL     1       0.894   2.037  -0.539  1.00  0.00    -0.291 NA
HETATM   21  C18 UNL     1       1.475   0.922  -0.074  1.00  0.00     0.116 C 
HETATM   22  H8  UNL     1      -2.863  -3.280   0.148  1.00  0.00     0.166 HD
ENDROOT
BRANCH   1  23
HETATM   23  C2  UNL     1       3.377  -0.477   0.465  1.00  0.00     0.109 C 
HETATM   24  C1  UNL     1       3.961  -0.264  -0.924  1.00  0.00     0.031 C 
HETATM   25 CL1  UNL     1       3.819   1.001   1.407  1.00  0.00    -0.121 Cl
ENDBRANCH   1  23
TORSDOF 1
