REMARK  5 active torsions:
REMARK  status: ('A' for Active; 'I' for Inactive)
REMARK    1  A    between atoms: C3_3  and  C4_4 
REMARK    2  A    between atoms: C5_6  and  C6_7 
REMARK    3  A    between atoms: C6_7  and  N1_8 
REMARK    4  A    between atoms: N1_8  and  C7_9 
REMARK    5  A    between atoms: C12_15  and  N3_16 
ROOT
HETATM    1  C7  UNL     1       0.543   0.490  -0.331  1.00  0.00     0.056 A 
HETATM    2  C8  UNL     1      -0.693   0.036  -0.072  1.00  0.00     0.106 A 
HETATM    3  N2  UNL     1      -1.457  -0.712  -1.033  1.00  0.00    -0.380 N 
HETATM    4  C9  UNL     1      -2.585  -1.620  -0.779  1.00  0.00     0.161 C 
HETATM    5  C10 UNL     1      -3.618  -0.976   0.083  1.00  0.00    -0.004 A 
HETATM    6  C11 UNL     1      -4.882  -1.206  -0.419  1.00  0.00     0.040 A 
HETATM    7  C12 UNL     1      -6.050  -0.744   0.147  1.00  0.00     0.026 A 
HETATM    8  C13 UNL     1      -5.924   0.007   1.309  1.00  0.00     0.032 A 
HETATM    9  C14 UNL     1      -4.672   0.266   1.853  1.00  0.00     0.040 A 
HETATM   10  C15 UNL     1      -3.525  -0.228   1.235  1.00  0.00     0.086 A 
HETATM   11  O1  UNL     1      -2.328   0.111   1.896  1.00  0.00    -0.290 OA
HETATM   12  C16 UNL     1      -1.101   0.412   1.276  1.00  0.00     0.194 A 
HETATM   13  N4  UNL     1      -0.120   1.080   1.809  1.00  0.00    -0.259 NA
HETATM   14  C17 UNL     1       0.989   1.198   0.882  1.00  0.00     0.210 A 
HETATM   15  H10 UNL     1      -1.136  -0.560  -2.022  1.00  0.00     0.160 HD
ENDROOT
BRANCH   1  16
HETATM   16  N1  UNL     1       1.204   0.279  -1.562  1.00  0.00    -0.386 N 
HETATM   17  H9  UNL     1       0.602   0.547  -2.398  1.00  0.00     0.159 HD
BRANCH  16  18
HETATM   18  C6  UNL     1       2.522  -0.230  -1.726  1.00  0.00     0.148 C 
BRANCH  18  19
HETATM   19  C5  UNL     1       3.621   0.611  -1.289  1.00  0.00     0.011 C 
HETATM   20  C4  UNL     1       4.590   0.477  -0.404  1.00  0.00     0.008 C 
HETATM   21 BR1  UNL     1       4.404  -1.228   0.421  1.00  0.00    -0.051 Br
BRANCH  20  22
HETATM   22  C3  UNL     1       5.581   1.510  -0.169  1.00  0.00     0.014 C 
HETATM   23  C2  UNL     1       6.548   1.377   0.714  1.00  0.00    -0.030 C 
HETATM   24  C1  UNL     1       6.731   0.170   1.558  1.00  0.00     0.036 C 
ENDBRANCH  20  22
ENDBRANCH  18  19
ENDBRANCH  16  18
ENDBRANCH   1  16
BRANCH   7  25
HETATM   25  N3  UNL     1      -7.317  -1.026  -0.434  1.00  0.00    -0.399 N 
HETATM   26  H14 UNL     1      -8.009  -1.563   0.139  1.00  0.00     0.156 HD
HETATM   27  H15 UNL     1      -7.310  -0.604  -1.405  1.00  0.00     0.156 HD
ENDBRANCH   7  25
TORSDOF 5
