REMARK  4 active torsions:
REMARK  status: ('A' for Active; 'I' for Inactive)
REMARK    1  A    between atoms: O1_1  and  C1_2 
REMARK    2  A    between atoms: C3_4  and  N1_5 
REMARK    3  A    between atoms: N1_5  and  C4_6 
REMARK    4  A    between atoms: C5_7  and  C6_8 
ROOT
HETATM    1  C1  UNL     1      -0.748  -2.243   0.130  1.00  0.00     0.061 C 
HETATM    2  C2  UNL     1       0.237  -1.367  -0.336  1.00  0.00     0.062 C 
HETATM    3  C3  UNL     1       0.480   0.051  -0.730  1.00  0.00     0.034 C 
HETATM    4  C7  UNL     1       0.065   1.258  -0.871  1.00  0.00     0.029 C 
HETATM    5  C8  UNL     1      -0.682   2.482  -0.905  1.00  0.00     0.005 C 
HETATM    6  C9  UNL     1      -1.876   3.026  -0.560  1.00  0.00     0.039 C 
HETATM    7  C10 UNL     1      -2.629   1.949   0.108  1.00  0.00     0.093 A 
HETATM    8  N2  UNL     1      -2.350   0.807  -0.218  1.00  0.00    -0.264 NA
HETATM    9  C11 UNL     1      -2.704  -0.246   0.381  1.00  0.00     0.111 A 
HETATM   10  C12 UNL     1      -1.914  -0.895  -0.465  1.00  0.00     0.053 A 
HETATM   11  C13 UNL     1      -2.216  -1.863   0.424  1.00  0.00     0.066 A 
HETATM   12  C14 UNL     1      -2.741  -2.533   1.478  1.00  0.00    -0.006 A 
HETATM   13  C15 UNL     1      -3.538  -1.597   2.160  1.00  0.00     0.014 A 
HETATM   14  C16 UNL     1      -3.459  -0.336   1.494  1.00  0.00     0.017 A 
HETATM   15  S1  UNL     1      -3.727   1.575   1.690  1.00  0.00    -0.073 SA
ENDROOT
BRANCH   3  16
HETATM   16  N1  UNL     1       1.855   0.034  -1.233  1.00  0.00    -0.366 N 
HETATM   17  H3  UNL     1       2.462  -0.684  -1.657  1.00  0.00     0.165 HD
BRANCH  16  18
HETATM   18  C4  UNL     1       2.905   0.932  -1.381  1.00  0.00     0.085 C 
HETATM   19  C5  UNL     1       3.995   1.148  -0.645  1.00  0.00     0.000 C 
BRANCH  19  20
HETATM   20  C6  UNL     1       4.658   0.662   0.573  1.00  0.00     0.108 C 
HETATM   21  I1  UNL     1       3.532  -0.917   1.493  1.00  0.00    -0.086 I 
ENDBRANCH  19  20
ENDBRANCH  16  18
ENDBRANCH   3  16
BRANCH   1  22
HETATM   22  O1  UNL     1      -0.473  -3.546   0.367  1.00  0.00    -0.364 OA
HETATM   23  H1  UNL     1       0.363  -4.064   0.247  1.00  0.00     0.217 HD
ENDBRANCH   1  22
TORSDOF 4
