REMARK  6 active torsions:
REMARK  status: ('A' for Active; 'I' for Inactive)
REMARK    1  A    between atoms: O1_2  and  C2_3 
REMARK    2  A    between atoms: C6_7  and  C7_8 
REMARK    3  A    between atoms: C7_8  and  N1_9 
REMARK    4  A    between atoms: N1_9  and  C8_10 
REMARK    5  A    between atoms: C10_12  and  N2_13 
REMARK    6  A    between atoms: N2_13  and  C11_14 
ROOT
HETATM    1  C8  UNL     1      -0.271   2.486  -0.317  1.00  0.00     0.120 C 
HETATM    2  C9  UNL     1      -1.610   2.443  -0.422  1.00  0.00     0.068 C 
HETATM    3  C10 UNL     1      -2.443   1.299  -0.107  1.00  0.00     0.142 C 
HETATM    4  N3  UNL     1      -3.687   1.546  -0.021  1.00  0.00    -0.224 NA
HETATM    5  C17 UNL     1      -4.242   2.830  -0.254  1.00  0.00     0.230 C 
HETATM    6  N4  UNL     1      -3.516   3.873  -0.628  1.00  0.00    -0.260 NA
HETATM    7  C18 UNL     1      -2.142   3.790  -0.857  1.00  0.00     0.232 C 
HETATM    8  S1  UNL     1      -0.964   4.826   0.014  1.00  0.00    -0.021 SA
HETATM    9  N5  UNL     1       0.430   3.750  -0.542  1.00  0.00    -0.314 N 
HETATM   10  H17 UNL     1       1.372   3.919  -0.891  1.00  0.00     0.175 HD
ENDROOT
BRANCH   1  11
HETATM   11  N1  UNL     1       0.620   1.414   0.113  1.00  0.00    -0.371 N 
HETATM   12  H9  UNL     1       0.775   0.940   1.030  1.00  0.00     0.161 HD
BRANCH  11  13
HETATM   13  C7  UNL     1       1.411   0.977  -1.021  1.00  0.00     0.160 C 
BRANCH  13  14
HETATM   14  C6  UNL     1       2.358  -0.116  -0.688  1.00  0.00    -0.038 A 
HETATM   15  C5  UNL     1       2.020  -1.456  -0.783  1.00  0.00     0.009 A 
HETATM   16  C4  UNL     1       2.977  -2.381  -0.450  1.00  0.00     0.003 A 
HETATM   17  C3  UNL     1       4.252  -2.097  -0.027  1.00  0.00     0.037 A 
HETATM   18  C2  UNL     1       4.559  -0.759   0.057  1.00  0.00     0.068 A 
HETATM   19  C19 UNL     1       3.630   0.222  -0.267  1.00  0.00     0.045 A 
BRANCH  18  20
HETATM   20  O1  UNL     1       5.816  -0.304   0.471  1.00  0.00    -0.356 OA
HETATM   21  C1  UNL     1       6.876  -1.135   0.838  1.00  0.00     0.210 C 
ENDBRANCH  18  20
ENDBRANCH  13  14
ENDBRANCH  11  13
ENDBRANCH   1  11
BRANCH   3  22
HETATM   22  N2  UNL     1      -2.010  -0.020   0.101  1.00  0.00    -0.340 N 
HETATM   23  H10 UNL     1      -1.025  -0.247  -0.037  1.00  0.00     0.167 HD
BRANCH  22  24
HETATM   24  C11 UNL     1      -2.953  -1.020   0.499  1.00  0.00     0.035 A 
HETATM   25  C12 UNL     1      -3.366  -1.420   1.753  1.00  0.00     0.029 A 
HETATM   26  C13 UNL     1      -4.294  -2.415   1.875  1.00  0.00     0.004 A 
HETATM   27  C14 UNL     1      -4.855  -3.059   0.794  1.00  0.00     0.024 A 
HETATM   28  C15 UNL     1      -4.440  -2.657  -0.465  1.00  0.00     0.036 A 
HETATM   29 CL1  UNL     1      -5.156  -3.478  -1.849  1.00  0.00    -0.084 Cl
HETATM   30  C16 UNL     1      -3.495  -1.645  -0.627  1.00  0.00     0.053 A 
ENDBRANCH  22  24
ENDBRANCH   3  22
TORSDOF 6
