REMARK  5 active torsions:
REMARK  status: ('A' for Active; 'I' for Inactive)
REMARK    1  A    between atoms: C1_3  and  C2_4 
REMARK    2  A    between atoms: C5_7  and  N1_8 
REMARK    3  A    between atoms: N1_8  and  C6_9 
REMARK    4  A    between atoms: C10_15  and  O1_16 
REMARK    5  A    between atoms: C12_18  and  O2_19 
ROOT
HETATM    1  B1  UNL     1       8.085   1.664   1.969  1.00  0.00     0.182 B 
HETATM    2  S1  UNL     1       7.263   0.580   0.759  1.00  0.00    -0.244 SA
HETATM    3  C1  UNL     1       6.542  -0.377  -0.271  1.00  0.00     0.096 C 
ENDROOT
BRANCH   3   4
HETATM    4  C2  UNL     1       5.080  -0.316  -0.228  1.00  0.00    -0.050 A 
HETATM    5  C3  UNL     1       4.285  -1.093   0.556  1.00  0.00     0.010 A 
HETATM    6  C4  UNL     1       2.915  -0.956   0.522  1.00  0.00     0.030 A 
HETATM    7  C5  UNL     1       2.236  -0.059  -0.272  1.00  0.00     0.033 A 
HETATM    8  C16 UNL     1       3.092   0.698  -1.041  1.00  0.00     0.030 A 
HETATM    9  C17 UNL     1       4.463   0.604  -1.047  1.00  0.00     0.010 A 
BRANCH   7  10
HETATM   10  N1  UNL     1       0.830   0.046  -0.282  1.00  0.00    -0.340 N 
HETATM   11  H5  UNL     1       0.553   0.851  -0.875  1.00  0.00     0.167 HD
BRANCH  10  12
HETATM   12  C6  UNL     1      -0.108  -0.757   0.371  1.00  0.00     0.142 A 
HETATM   13  N2  UNL     1       0.151  -1.817   1.131  1.00  0.00    -0.224 NA
HETATM   14  C7  UNL     1      -0.750  -2.582   1.754  1.00  0.00     0.236 A 
HETATM   15  N3  UNL     1      -2.073  -2.272   1.615  1.00  0.00    -0.241 NA
HETATM   16  C8  UNL     1      -2.432  -1.214   0.863  1.00  0.00     0.075 A 
HETATM   17  C9  UNL     1      -3.778  -0.959   0.767  1.00  0.00     0.072 A 
HETATM   18  C15 UNL     1      -1.447  -0.468   0.249  1.00  0.00     0.042 A 
HETATM   19  C10 UNL     1      -4.224   0.095   0.025  1.00  0.00     0.103 A 
HETATM   20  C12 UNL     1      -3.297   0.887  -0.619  1.00  0.00     0.102 A 
HETATM   21  C14 UNL     1      -1.960   0.579  -0.484  1.00  0.00     0.057 A 
BRANCH  19  22
HETATM   22  O1  UNL     1      -5.563   0.402  -0.109  1.00  0.00    -0.353 OA
HETATM   23  C11 UNL     1      -6.642  -0.265   0.453  1.00  0.00     0.210 C 
ENDBRANCH  19  22
BRANCH  20  24
HETATM   24  O2  UNL     1      -3.747   1.960  -1.375  1.00  0.00    -0.353 OA
HETATM   25  C13 UNL     1      -2.919   2.837  -2.074  1.00  0.00     0.210 C 
ENDBRANCH  20  24
ENDBRANCH  10  12
ENDBRANCH   7  10
ENDBRANCH   3   4
TORSDOF 5
