REMARK  6 active torsions:
REMARK  status: ('A' for Active; 'I' for Inactive)
REMARK    1  A    between atoms: C2_2  and  C3_3 
REMARK    2  A    between atoms: C2_2  and  C17_21 
REMARK    3  A    between atoms: C4_4  and  C5_5 
REMARK    4  A    between atoms: C12_14  and  C13_15 
REMARK    5  A    between atoms: C12_14  and  O2_18 
REMARK    6  A    between atoms: C13_15  and  O1_16 
ROOT
HETATM    1  C5  UNL     1      -0.441  -1.444  -0.764  1.00  0.00     0.032 C 
HETATM    2  C6  UNL     1      -1.118  -2.583  -0.741  1.00  0.00    -0.048 C 
HETATM    3  C7  UNL     1      -0.474  -3.918  -0.734  1.00  0.00     0.046 C 
HETATM    4  C8  UNL     1      -2.636  -2.629  -0.729  1.00  0.00     0.061 C 
HETATM    5  C9  UNL     1      -3.014  -2.082  -2.087  1.00  0.00     0.095 C 
HETATM    6  N1  UNL     1      -2.668  -0.909  -2.461  1.00  0.00    -0.275 NA
HETATM    7  C10 UNL     1      -2.355   0.121  -1.466  1.00  0.00     0.237 C 
HETATM    8  N2  UNL     1      -0.937  -0.141  -1.172  1.00  0.00    -0.363 N 
HETATM    9  C11 UNL     1      -3.240  -0.240  -0.331  1.00  0.00    -0.004 C 
HETATM   10  C12 UNL     1      -4.151   0.539   0.245  1.00  0.00     0.075 C 
HETATM   11  C16 UNL     1      -3.135  -1.620   0.259  1.00  0.00     0.055 C 
HETATM   12  H11 UNL     1      -0.277   0.640  -1.264  1.00  0.00     0.162 HD
ENDROOT
BRANCH   1  13
HETATM   13  C4  UNL     1       0.951  -1.348  -0.362  1.00  0.00     0.030 C 
HETATM   14  C3  UNL     1       2.090  -1.789   0.071  1.00  0.00     0.012 C 
BRANCH  14  15
HETATM   15  C2  UNL     1       3.477  -1.721   0.476  1.00  0.00    -0.022 C 
HETATM   16  C1  UNL     1       4.084  -2.819   0.879  1.00  0.00     0.046 C 
BRANCH  15  17
HETATM   17  C17 UNL     1       4.276  -0.509   0.474  1.00  0.00     0.105 A 
HETATM   18  N3  UNL     1       5.439  -0.231   0.770  1.00  0.00    -0.240 NA
HETATM   19  C18 UNL     1       5.933   0.984   0.676  1.00  0.00     0.075 A 
HETATM   20  C19 UNL     1       7.212   1.402   0.979  1.00  0.00     0.033 A 
HETATM   21  C23 UNL     1       5.104   2.019   0.219  1.00  0.00     0.035 A 
HETATM   22  C20 UNL     1       7.569   2.702   0.826  1.00  0.00     0.002 A 
HETATM   23  C21 UNL     1       6.732   3.719   0.370  1.00  0.00     0.002 A 
HETATM   24  C22 UNL     1       5.439   3.376   0.048  1.00  0.00     0.021 A 
HETATM   25  S1  UNL     1       3.506   1.065  -0.073  1.00  0.00    -0.068 SA
ENDBRANCH  15  17
ENDBRANCH  14  15
ENDBRANCH   1  13
BRANCH  10  26
HETATM   26  C13 UNL     1      -4.637   1.918   0.055  1.00  0.00     0.231 C 
BRANCH  26  27
HETATM   27  O1  UNL     1      -4.011   2.606  -0.974  1.00  0.00    -0.390 OA
HETATM   28  C14 UNL     1      -4.470   3.902  -1.150  1.00  0.00     0.201 C 
ENDBRANCH  26  27
ENDBRANCH  10  26
BRANCH  10  29
HETATM   29  O2  UNL     1      -4.921   0.054   1.321  1.00  0.00    -0.358 OA
HETATM   30  C15 UNL     1      -4.406   0.316   2.613  1.00  0.00     0.209 C 
ENDBRANCH  10  29
TORSDOF 6
