REMARK  3 active torsions:
REMARK  status: ('A' for Active; 'I' for Inactive)
REMARK    1  A    between atoms: C4_5  and  C5_6 
REMARK    2  A    between atoms: C6_8  and  C7_9 
REMARK    3  A    between atoms: C10_13  and  C11_14 
ROOT
HETATM    1  C7  UNL     1      -0.908  -0.688  -0.096  1.00  0.00     0.090 A 
HETATM    2  N2  UNL     1      -0.057   0.080  -0.019  1.00  0.00    -0.244 NA
HETATM    3  C8  UNL     1       1.234  -0.052  -0.243  1.00  0.00     0.075 A 
HETATM    4  C9  UNL     1       2.232   0.926  -0.132  1.00  0.00     0.045 A 
HETATM    5  C10 UNL     1       3.543   0.547  -0.424  1.00  0.00     0.008 A 
HETATM    6  C12 UNL     1       3.962  -0.728  -0.821  1.00  0.00     0.014 A 
HETATM    7  C13 UNL     1       2.941  -1.640  -0.911  1.00  0.00     0.022 A 
HETATM    8  C14 UNL     1       1.638  -1.305  -0.632  1.00  0.00     0.035 A 
HETATM    9  S1  UNL     1       0.130  -2.208  -0.648  1.00  0.00    -0.071 SA
ENDROOT
BRANCH   1  10
HETATM   10  C6  UNL     1      -2.375  -0.717   0.112  1.00  0.00     0.124 C 
HETATM   11  C2  UNL     1      -3.046   0.352  -0.708  1.00  0.00    -0.053 C 
HETATM   12  C1  UNL     1      -3.663   0.056  -1.862  1.00  0.00     0.017 C 
HETATM   13  C3  UNL     1      -2.792   1.579   0.116  1.00  0.00     0.183 C 
HETATM   14  N1  UNL     1      -2.858   1.059   1.436  1.00  0.00    -0.291 NA
HETATM   15  C4  UNL     1      -2.637  -0.192   1.482  1.00  0.00     0.050 C 
BRANCH  15  16
HETATM   16  C5  UNL     1      -2.616  -1.108   2.675  1.00  0.00     0.277 C 
HETATM   17  F1  UNL     1      -3.577  -2.097   2.517  1.00  0.00    -0.249 F 
ENDBRANCH  15  16
ENDBRANCH   1  10
BRANCH   5  18
HETATM   18  C11 UNL     1       4.585   1.618  -0.295  1.00  0.00     0.386 C 
HETATM   19  F2  UNL     1       4.344   2.668  -1.144  1.00  0.00    -0.209 F 
HETATM   20  F3  UNL     1       4.697   2.031   1.037  1.00  0.00    -0.209 F 
ENDBRANCH   5  18
TORSDOF 3
