REMARK  4 active torsions:
REMARK  status: ('A' for Active; 'I' for Inactive)
REMARK    1  A    between atoms: O1_2  and  C2_3 
REMARK    2  A    between atoms: C6_9  and  N3_10 
REMARK    3  A    between atoms: N3_10  and  C7_11 
REMARK    4  A    between atoms: C21_27  and  O2_28 
ROOT
HETATM    1  N3  UNL     1       0.588  -0.084  -0.295  1.00  0.00    -0.343 N 
HETATM    2  H6  UNL     1       0.707  -0.772  -1.071  1.00  0.00     0.167 HD
ENDROOT
BRANCH   1   3
HETATM    3  C6  UNL     1       1.538   0.642   0.473  1.00  0.00     0.141 A 
HETATM    4  N2  UNL     1       1.005   1.440   1.422  1.00  0.00    -0.224 NA
HETATM    5  C5  UNL     1       1.798   2.186   2.221  1.00  0.00     0.236 A 
HETATM    6  N1  UNL     1       3.156   2.169   2.110  1.00  0.00    -0.241 NA
HETATM    7  C4  UNL     1       3.670   1.367   1.159  1.00  0.00     0.075 A 
HETATM    8  C3  UNL     1       5.046   1.266   0.949  1.00  0.00     0.072 A 
HETATM    9  C19 UNL     1       2.890   0.592   0.325  1.00  0.00     0.042 A 
HETATM   10  C2  UNL     1       5.558   0.438  -0.034  1.00  0.00     0.103 A 
HETATM   11  C21 UNL     1       4.720  -0.327  -0.853  1.00  0.00     0.102 A 
HETATM   12  C20 UNL     1       3.345  -0.238  -0.656  1.00  0.00     0.057 A 
BRANCH  10  13
HETATM   13  O1  UNL     1       6.924   0.309  -0.276  1.00  0.00    -0.353 OA
HETATM   14  C1  UNL     1       7.891   1.022   0.473  1.00  0.00     0.210 C 
ENDBRANCH  10  13
BRANCH  11  15
HETATM   15  O2  UNL     1       5.258  -1.150  -1.832  1.00  0.00    -0.353 OA
HETATM   16  C22 UNL     1       4.368  -1.898  -2.627  1.00  0.00     0.210 C 
ENDBRANCH  11  15
ENDBRANCH   1   3
BRANCH   1  17
HETATM   17  C7  UNL     1      -0.807   0.060  -0.074  1.00  0.00     0.021 C 
HETATM   18  C8  UNL     1      -1.601  -0.930   0.321  1.00  0.00     0.055 C 
HETATM   19  C9  UNL     1      -2.538  -0.138   1.218  1.00  0.00     0.031 C 
HETATM   20  C10 UNL     1      -2.229   1.154   1.302  1.00  0.00     0.014 C 
HETATM   21  N4  UNL     1      -3.640  -1.041   1.641  1.00  0.00    -0.359 N 
HETATM   22  C11 UNL     1      -1.963   1.074  -0.136  1.00  0.00     0.069 C 
HETATM   23  C12 UNL     1      -3.039   0.807  -1.070  1.00  0.00     0.082 C 
HETATM   24  S1  UNL     1      -4.831   0.890  -0.559  1.00  0.00    -0.190 SA
HETATM   25  C13 UNL     1      -5.365  -0.361  -1.579  1.00  0.00     0.035 C 
HETATM   26  C18 UNL     1      -5.615   0.759   1.214  1.00  0.00     0.124 C 
HETATM   27  C14 UNL     1      -6.216  -1.588  -1.309  1.00  0.00     0.006 C 
HETATM   28  C15 UNL     1      -6.357  -2.192  -0.079  1.00  0.00     0.002 C 
HETATM   29  C16 UNL     1      -5.522  -1.929   1.157  1.00  0.00     0.026 C 
HETATM   30  C17 UNL     1      -5.085  -0.693   1.374  1.00  0.00     0.018 C 
HETATM   31  H18 UNL     1      -3.514  -1.960   2.053  1.00  0.00     0.166 HD
ENDBRANCH   1  17
TORSDOF 4
