REMARK  7 active torsions:
REMARK  status: ('A' for Active; 'I' for Inactive)
REMARK    1  A    between atoms: O1_2  and  C2_3 
REMARK    2  A    between atoms: C6_9  and  N3_10 
REMARK    3  A    between atoms: N3_10  and  C7_11 
REMARK    4  A    between atoms: C10_14  and  C11_15 
REMARK    5  A    between atoms: C11_15  and  S1_16 
REMARK    6  A    between atoms: S1_16  and  C12_17 
REMARK    7  A    between atoms: C12_17  and  C13_18 
REMARK       I    between atoms: C13_18  and  N4_19 
ROOT
HETATM    1  N3  UNL     1      -0.657  -0.431   0.152  1.00  0.00    -0.340 N 
HETATM    2  H6  UNL     1      -0.765  -1.386   0.546  1.00  0.00     0.167 HD
ENDROOT
BRANCH   1   3
HETATM    3  C6  UNL     1      -1.716   0.409  -0.279  1.00  0.00     0.142 A 
HETATM    4  N2  UNL     1      -1.491   1.607  -0.831  1.00  0.00    -0.224 NA
HETATM    5  C5  UNL     1      -2.456   2.417  -1.255  1.00  0.00     0.236 A 
HETATM    6  N1  UNL     1      -3.726   2.018  -1.125  1.00  0.00    -0.241 NA
HETATM    7  C4  UNL     1      -4.066   0.829  -0.581  1.00  0.00     0.074 A 
HETATM    8  C3  UNL     1      -5.385   0.477  -0.472  1.00  0.00     0.070 A 
HETATM    9  C16 UNL     1      -3.029   0.022  -0.155  1.00  0.00     0.039 A 
HETATM   10  C2  UNL     1      -5.757  -0.730   0.083  1.00  0.00     0.076 A 
HETATM   11  C18 UNL     1      -4.723  -1.538   0.510  1.00  0.00    -0.028 A 
HETATM   12  C17 UNL     1      -3.400  -1.177   0.396  1.00  0.00     0.027 A 
HETATM   13  C19 UNL     1      -5.066  -2.852   1.123  1.00  0.00     0.051 C 
BRANCH  10  14
HETATM   14  O1  UNL     1      -7.063  -1.169   0.234  1.00  0.00    -0.355 OA
HETATM   15  C1  UNL     1      -8.104  -0.339  -0.205  1.00  0.00     0.210 C 
ENDBRANCH  10  14
ENDBRANCH   1   3
BRANCH   1  16
HETATM   16  C7  UNL     1       0.716  -0.077   0.106  1.00  0.00     0.033 A 
HETATM   17  C8  UNL     1       1.742  -1.013   0.000  1.00  0.00     0.030 A 
HETATM   18  C9  UNL     1       3.091  -0.747  -0.041  1.00  0.00     0.010 A 
HETATM   19  C10 UNL     1       3.464   0.577   0.028  1.00  0.00    -0.049 A 
HETATM   20  C14 UNL     1       2.519   1.573   0.135  1.00  0.00     0.010 A 
HETATM   21  C15 UNL     1       1.186   1.216   0.170  1.00  0.00     0.030 A 
BRANCH  19  22
HETATM   22  C11 UNL     1       4.893   0.908  -0.035  1.00  0.00     0.112 C 
BRANCH  22  23
HETATM   23  S1  UNL     1       5.688   0.878   1.575  1.00  0.00    -0.155 SA
BRANCH  23  24
HETATM   24  C12 UNL     1       7.444   1.319   1.467  1.00  0.00     0.176 C 
BRANCH  24  25
HETATM   25  C13 UNL     1       8.230   0.315   0.698  1.00  0.00     0.224 C 
HETATM   26  N4  UNL     1       8.962  -0.812   1.180  1.00  0.00    -0.369 N 
HETATM   27  H13 UNL     1       9.065  -1.597   0.518  1.00  0.00     0.159 HD
HETATM   28  H14 UNL     1       9.384  -0.884   2.130  1.00  0.00     0.159 HD
HETATM   29  O2  UNL     1       8.191   0.567  -0.533  1.00  0.00    -0.273 OA
ENDBRANCH  24  25
ENDBRANCH  23  24
ENDBRANCH  22  23
ENDBRANCH  19  22
ENDBRANCH   1  16
TORSDOF 7
