REMARK  1 active torsions:
REMARK  status: ('A' for Active; 'I' for Inactive)
REMARK    1  A    between atoms: O1_2  and  C2_3 
ROOT
HETATM    1  C2  UNL     1      -3.329   2.062   0.322  1.00  0.00     0.104 A 
HETATM    2  C3  UNL     1      -4.106   0.969  -0.046  1.00  0.00     0.072 A 
HETATM    3  C4  UNL     1      -3.832  -0.354   0.219  1.00  0.00     0.075 A 
HETATM    4  N1  UNL     1      -4.716  -1.273  -0.269  1.00  0.00    -0.241 NA
HETATM    5  C5  UNL     1      -4.356  -2.558  -0.003  1.00  0.00     0.235 A 
HETATM    6  N2  UNL     1      -3.222  -2.886   0.683  1.00  0.00    -0.224 NA
HETATM    7  C6  UNL     1      -2.363  -1.935   1.155  1.00  0.00     0.137 A 
HETATM    8  C7  UNL     1      -2.687  -0.633   0.914  1.00  0.00     0.041 A 
HETATM    9  C8  UNL     1      -1.925   0.442   1.281  1.00  0.00     0.057 A 
HETATM   10  C9  UNL     1      -2.194   1.791   1.012  1.00  0.00     0.109 A 
HETATM   11  O2  UNL     1      -1.203   2.688   1.509  1.00  0.00    -0.320 OA
HETATM   12  C10 UNL     1       0.131   2.161   1.498  1.00  0.00     0.141 C 
HETATM   13  C11 UNL     1       0.842   1.282   0.813  1.00  0.00     0.029 C 
HETATM   14  C12 UNL     1       1.821   0.336   0.173  1.00  0.00     0.063 C 
HETATM   15  C13 UNL     1       1.289  -1.021   0.184  1.00  0.00     0.056 C 
HETATM   16  C14 UNL     1       0.635  -2.157   0.371  1.00  0.00    -0.003 C 
HETATM   17  C15 UNL     1      -0.312  -3.225   0.827  1.00  0.00     0.122 C 
HETATM   18  N3  UNL     1      -1.326  -2.721   1.747  1.00  0.00    -0.374 N 
HETATM   19  C16 UNL     1       3.055   0.348   1.091  1.00  0.00     0.110 C 
HETATM   20  S1  UNL     1       4.282  -0.079  -0.182  1.00  0.00    -0.144 SA
HETATM   21  C17 UNL     1       5.792  -0.670  -0.399  1.00  0.00     0.041 A 
HETATM   22  C18 UNL     1       6.109  -0.726  -1.833  1.00  0.00     0.006 A 
HETATM   23  C19 UNL     1       5.350  -0.374  -2.824  1.00  0.00     0.003 A 
HETATM   24  C20 UNL     1       3.997   0.167  -2.846  1.00  0.00     0.036 A 
HETATM   25  C21 UNL     1       3.363   0.362  -1.673  1.00  0.00     0.060 A 
HETATM   26  N4  UNL     1       2.135   0.819  -1.127  1.00  0.00    -0.371 N 
HETATM   27  H13 UNL     1      -1.616  -2.709   2.752  1.00  0.00     0.161 HD
HETATM   28  H20 UNL     1       1.532   1.480  -1.714  1.00  0.00     0.161 HD
ENDROOT
BRANCH   1  29
HETATM   29  O1  UNL     1      -3.537   3.394   0.091  1.00  0.00    -0.353 OA
HETATM   30  C1  UNL     1      -4.647   3.913  -0.610  1.00  0.00     0.210 C 
ENDBRANCH   1  29
TORSDOF 1
