REMARK  6 active torsions:
REMARK  status: ('A' for Active; 'I' for Inactive)
REMARK    1  A    between atoms: O1_2  and  C2_3 
REMARK    2  A    between atoms: C7_8  and  O2_9 
REMARK    3  A    between atoms: N2_14  and  C11_15 
REMARK    4  A    between atoms: C14_18  and  C15_19 
REMARK    5  A    between atoms: N3_20  and  C16_21 
REMARK    6  A    between atoms: C22_27  and  S1_28 
ROOT
HETATM    1  C11 UNL     1      -0.066  -1.019  -0.731  1.00  0.00     0.017 A 
HETATM    2  C12 UNL     1       0.826  -1.980  -0.531  1.00  0.00     0.026 A 
HETATM    3  C13 UNL     1       2.180  -1.432  -0.590  1.00  0.00     0.011 A 
HETATM    4  C14 UNL     1       2.038  -0.142  -0.827  1.00  0.00    -0.035 A 
HETATM    5  C23 UNL     1       0.621   0.283  -0.944  1.00  0.00     0.097 A 
ENDROOT
BRANCH   1   6
HETATM    6  N2  UNL     1      -1.481  -0.876  -0.798  1.00  0.00    -0.336 N 
HETATM    7  C9  UNL     1      -2.153  -1.301  -2.009  1.00  0.00     0.209 A 
HETATM    8  N1  UNL     1      -3.562  -1.069  -1.855  1.00  0.00    -0.263 NA
HETATM    9  C10 UNL     1      -1.591  -0.617  -3.240  1.00  0.00     0.058 C 
HETATM   10  C5  UNL     1      -4.050  -0.562  -0.779  1.00  0.00     0.068 A 
HETATM   11  C4  UNL     1      -3.395  -0.162   0.363  1.00  0.00     0.011 A 
HETATM   12  C6  UNL     1      -5.423  -0.414  -0.816  1.00  0.00     0.071 A 
HETATM   13  C3  UNL     1      -4.114   0.361   1.407  1.00  0.00     0.054 A 
HETATM   14  C24 UNL     1      -2.083  -0.322   0.354  1.00  0.00     0.107 A 
HETATM   15  C2  UNL     1      -5.486   0.512   1.379  1.00  0.00     0.102 A 
HETATM   16  C7  UNL     1      -6.145   0.118   0.248  1.00  0.00     0.103 A 
BRANCH  15  17
HETATM   17  O1  UNL     1      -6.167   1.047   2.463  1.00  0.00    -0.353 OA
HETATM   18  C1  UNL     1      -5.509   1.456   3.628  1.00  0.00     0.210 C 
ENDBRANCH  15  17
BRANCH  16  19
HETATM   19  O2  UNL     1      -7.525   0.280   0.243  1.00  0.00    -0.353 OA
HETATM   20  C8  UNL     1      -8.270  -0.107  -0.893  1.00  0.00     0.210 C 
ENDBRANCH  16  19
ENDBRANCH   1   6
BRANCH   4  21
HETATM   21  C15 UNL     1       3.086   0.826  -0.971  1.00  0.00     0.123 C 
HETATM   22  N3  UNL     1       4.348   1.014  -0.968  1.00  0.00    -0.272 NA
BRANCH  22  23
HETATM   23  C16 UNL     1       5.235  -0.069  -0.749  1.00  0.00     0.124 C 
HETATM   24  C17 UNL     1       6.270   0.072   0.080  1.00  0.00    -0.021 A 
HETATM   25  C18 UNL     1       7.197  -1.070   0.305  1.00  0.00     0.068 A 
HETATM   26  C22 UNL     1       6.493   1.340   0.762  1.00  0.00     0.005 A 
HETATM   27  C19 UNL     1       8.259  -0.661   1.260  1.00  0.00    -0.022 A 
HETATM   28  C20 UNL     1       8.450   0.494   1.872  1.00  0.00    -0.002 A 
HETATM   29  C21 UNL     1       7.494   1.559   1.595  1.00  0.00     0.018 A 
BRANCH  26  30
HETATM   30  S1  UNL     1       5.375   2.677   0.476  1.00  0.00    -0.142 SA
HETATM   31  H22 UNL     1       5.571   3.747   1.367  1.00  0.00     0.107 HD
ENDBRANCH  26  30
ENDBRANCH  22  23
ENDBRANCH   4  21
TORSDOF 6
