REMARK  4 active torsions:
REMARK  status: ('A' for Active; 'I' for Inactive)
REMARK    1  A    between atoms: C3_3  and  C4_4 
REMARK    2  A    between atoms: C5_5  and  C6_6 
REMARK    3  A    between atoms: C6_6  and  C7_7 
REMARK    4  A    between atoms: C12_15  and  O2_16 
ROOT
HETATM    1  C1  UNL     1       2.457  -5.000   0.594  1.00  0.00     0.097 C 
HETATM    2  C2  UNL     1       2.179  -3.790   0.130  1.00  0.00    -0.141 C 
HETATM    3  C3  UNL     1       1.742  -2.671  -0.410  1.00  0.00     0.041 C 
HETATM    4  C17 UNL     1       2.760  -1.681  -0.298  1.00  0.00     0.122 C 
HETATM    5  N3  UNL     1       2.510  -1.034   0.889  1.00  0.00    -0.252 NA
HETATM    6  C18 UNL     1       3.376  -0.184   1.457  1.00  0.00     0.115 C 
HETATM    7  C19 UNL     1       4.325   0.642   2.060  1.00  0.00     0.006 C 
HETATM    8  C20 UNL     1       5.153   1.565   1.370  1.00  0.00     0.074 A 
HETATM    9  C21 UNL     1       6.292   1.771   0.515  1.00  0.00     0.004 A 
HETATM   10  C22 UNL     1       5.623   0.851  -0.051  1.00  0.00     0.003 A 
HETATM   11  C23 UNL     1       5.028   0.051  -0.527  1.00  0.00    -0.070 C 
HETATM   12  S1  UNL     1       4.133  -1.131  -1.207  1.00  0.00    -0.025 SA
ENDROOT
BRANCH   3  13
HETATM   13  C4  UNL     1       0.433  -2.630  -0.974  1.00  0.00     0.019 C 
HETATM   14  C5  UNL     1      -0.125  -1.550  -1.553  1.00  0.00    -0.023 C 
BRANCH  14  15
HETATM   15  C6  UNL     1       0.356  -0.168  -1.791  1.00  0.00     0.055 C 
BRANCH  15  16
HETATM   16  C7  UNL     1      -0.527   0.852  -1.109  1.00  0.00     0.122 C 
HETATM   17  N1  UNL     1       0.055   2.150  -1.409  1.00  0.00    -0.262 NA
HETATM   18  C8  UNL     1      -0.007   3.276  -0.767  1.00  0.00     0.193 C 
HETATM   19  N2  UNL     1      -1.186   3.761  -0.501  1.00  0.00    -0.229 NA
HETATM   20  C9  UNL     1      -2.397   3.008  -0.608  1.00  0.00     0.059 C 
HETATM   21  C10 UNL     1      -3.122   3.311   0.462  1.00  0.00     0.162 C 
HETATM   22  C16 UNL     1      -2.601   2.076  -1.782  1.00  0.00     0.072 C 
HETATM   23  O1  UNL     1      -4.144   2.571   1.033  1.00  0.00    -0.355 OA
HETATM   24  C11 UNL     1      -4.785   1.370   0.655  1.00  0.00     0.238 C 
HETATM   25  C12 UNL     1      -3.906   0.264   0.297  1.00  0.00     0.066 C 
HETATM   26  C14 UNL     1      -2.741   0.065  -0.334  1.00  0.00     0.015 C 
HETATM   27  C15 UNL     1      -1.986   0.727  -1.423  1.00  0.00     0.041 C 
BRANCH  25  28
HETATM   28  O2  UNL     1      -4.462  -0.911   0.756  1.00  0.00    -0.358 OA
HETATM   29  C13 UNL     1      -3.691  -2.079   0.863  1.00  0.00     0.209 C 
ENDBRANCH  25  28
ENDBRANCH  15  16
ENDBRANCH  14  15
ENDBRANCH   3  13
TORSDOF 4
