REMARK  5 active torsions:
REMARK  status: ('A' for Active; 'I' for Inactive)
REMARK    1  A    between atoms: O1_2  and  C2_3 
REMARK    2  A    between atoms: C6_9  and  C7_10 
REMARK    3  A    between atoms: C10_13  and  N3_14 
REMARK    4  A    between atoms: C11_15  and  C12_16 
REMARK    5  A    between atoms: C20_28  and  O3_29 
ROOT
HETATM    1  C7  UNL     1       0.122  -0.701   0.155  1.00  0.00     0.184 C 
HETATM    2  C8  UNL     1       0.505  -0.076   1.479  1.00  0.00     0.068 C 
HETATM    3  C9  UNL     1       1.830   0.629   1.364  1.00  0.00     0.006 C 
HETATM    4  C10 UNL     1       2.968   0.441   0.696  1.00  0.00     0.037 C 
HETATM    5  C11 UNL     1       3.054  -0.697  -0.160  1.00  0.00     0.048 C 
HETATM    6  C17 UNL     1       2.374  -1.683  -0.649  1.00  0.00     0.152 C 
HETATM    7  O2  UNL     1       1.033  -1.719  -0.224  1.00  0.00    -0.350 OA
ENDROOT
BRANCH   1   8
HETATM    8  C6  UNL     1      -1.173  -1.379   0.376  1.00  0.00     0.078 A 
HETATM    9  N2  UNL     1      -1.227  -2.687   0.672  1.00  0.00    -0.243 NA
HETATM   10  C5  UNL     1      -2.380  -3.311   0.866  1.00  0.00     0.234 A 
HETATM   11  N1  UNL     1      -3.537  -2.614   0.763  1.00  0.00    -0.241 NA
HETATM   12  C4  UNL     1      -3.543  -1.298   0.468  1.00  0.00     0.073 A 
HETATM   13  C3  UNL     1      -4.738  -0.611   0.373  1.00  0.00     0.072 A 
HETATM   14  C18 UNL     1      -2.336  -0.665   0.270  1.00  0.00     0.023 A 
HETATM   15  C2  UNL     1      -4.777   0.743   0.074  1.00  0.00     0.103 A 
HETATM   16  C20 UNL     1      -3.584   1.397  -0.128  1.00  0.00     0.102 A 
HETATM   17  C19 UNL     1      -2.408   0.679  -0.025  1.00  0.00     0.055 A 
BRANCH  15  18
HETATM   18  O1  UNL     1      -5.969   1.419  -0.020  1.00  0.00    -0.353 OA
HETATM   19  C1  UNL     1      -7.229   0.839   0.168  1.00  0.00     0.210 C 
ENDBRANCH  15  18
BRANCH  16  20
HETATM   20  O3  UNL     1      -3.642   2.737  -0.424  1.00  0.00    -0.353 OA
HETATM   21  C21 UNL     1      -2.434   3.436  -0.638  1.00  0.00     0.210 C 
ENDBRANCH  16  20
ENDBRANCH   1   8
BRANCH   4  22
HETATM   22  N3  UNL     1       4.073   1.316   0.804  1.00  0.00    -0.399 N 
HETATM   23  H10 UNL     1       4.066   2.017   0.020  1.00  0.00     0.156 HD
HETATM   24  H11 UNL     1       4.851   1.369   1.522  1.00  0.00     0.156 HD
ENDBRANCH   4  22
BRANCH   5  25
HETATM   25  C12 UNL     1       4.320  -0.892  -0.716  1.00  0.00     0.115 C 
HETATM   26  N4  UNL     1       5.220   0.042  -0.322  1.00  0.00    -0.270 NA
HETATM   27  C13 UNL     1       6.650   0.185  -0.682  1.00  0.00     0.155 C 
HETATM   28  C14 UNL     1       7.966   0.364  -0.812  1.00  0.00    -0.089 C 
HETATM   29  B1  UNL     1       8.680  -1.082  -2.124  1.00  0.00     0.284 B 
HETATM   30  C15 UNL     1       6.960  -1.723  -2.099  1.00  0.00    -0.159 C 
HETATM   31  C16 UNL     1       6.144  -2.007  -2.072  1.00  0.00    -0.043 C 
HETATM   32  S1  UNL     1       4.589  -2.512  -1.994  1.00  0.00    -0.019 SA
ENDBRANCH   5  25
TORSDOF 5
