REMARK  3 active torsions:
REMARK  status: ('A' for Active; 'I' for Inactive)
REMARK    1  A    between atoms: C2_2  and  C3_3 
REMARK    2  A    between atoms: C8_10  and  C9_11 
REMARK    3  A    between atoms: C16_19  and  O2_20 
ROOT
HETATM    1  C9  UNL     1       0.216  -0.842  -1.811  1.00  0.00    -0.012 C 
HETATM    2  C10 UNL     1      -0.350  -0.223  -0.732  1.00  0.00    -0.046 C 
HETATM    3  C11 UNL     1       0.342   0.043   0.607  1.00  0.00     0.063 C 
HETATM    4  C12 UNL     1      -0.159   1.327   1.204  1.00  0.00    -0.024 C 
HETATM    5  C13 UNL     1      -0.823   1.616   2.357  1.00  0.00    -0.005 C 
HETATM    6  C14 UNL     1      -1.422   1.054   3.653  1.00  0.00     0.196 C 
HETATM    7  O1  UNL     1      -2.919   1.384   3.345  1.00  0.00    -0.371 OA
HETATM    8  C15 UNL     1      -2.837   0.998   1.875  1.00  0.00     0.126 A 
HETATM    9  C16 UNL     1      -2.431  -0.263   1.769  1.00  0.00     0.127 A 
HETATM   10  C18 UNL     1      -2.077  -1.076   0.769  1.00  0.00     0.009 A 
HETATM   11  C19 UNL     1      -2.420   0.120   0.395  1.00  0.00     0.095 A 
HETATM   12  C20 UNL     1      -1.772   0.452  -0.783  1.00  0.00     0.126 A 
HETATM   13  N2  UNL     1      -1.463   1.237  -1.824  1.00  0.00    -0.264 NA
HETATM   14  C21 UNL     1      -2.067   2.497  -1.901  1.00  0.00     0.223 A 
HETATM   15  N3  UNL     1      -2.751   2.368  -0.763  1.00  0.00    -0.267 NA
HETATM   16  C22 UNL     1      -2.788   1.394   0.032  1.00  0.00     0.117 A 
HETATM   17  C23 UNL     1      -3.143   2.107   1.197  1.00  0.00     0.036 A 
HETATM   18  C24 UNL     1      -3.654   3.410   1.633  1.00  0.00     0.022 C 
ENDROOT
BRANCH   1  19
HETATM   19  C8  UNL     1       1.365  -1.446  -2.326  1.00  0.00     0.070 A 
HETATM   20  C5  UNL     1       2.040  -1.165  -3.604  1.00  0.00     0.125 A 
HETATM   21  N1  UNL     1       3.025  -2.085  -3.553  1.00  0.00    -0.270 NA
HETATM   22  S1  UNL     1       0.818   0.158  -3.860  1.00  0.00    -0.126 SA
HETATM   23  C7  UNL     1       2.593  -0.314  -2.194  1.00  0.00     0.065 A 
HETATM   24  C4  UNL     1       3.727  -1.399  -2.209  1.00  0.00     0.041 A 
HETATM   25  C3  UNL     1       4.708  -1.218  -1.244  1.00  0.00     0.006 C 
HETATM   26  C6  UNL     1       1.873   0.858  -2.232  1.00  0.00     0.083 A 
BRANCH  25  27
HETATM   27  C2  UNL     1       5.395  -2.241  -1.936  1.00  0.00     0.036 C 
HETATM   28  C1  UNL     1       6.433  -3.006  -2.027  1.00  0.00    -0.008 C 
ENDBRANCH  25  27
ENDBRANCH   1  19
BRANCH   9  29
HETATM   29  O2  UNL     1      -2.256  -1.201   2.736  1.00  0.00    -0.377 OA
HETATM   30  C17 UNL     1      -1.872  -2.523   2.659  1.00  0.00     0.203 C 
ENDBRANCH   9  29
TORSDOF 3
