REMARK  3 active torsions:
REMARK  status: ('A' for Active; 'I' for Inactive)
REMARK    1  A    between atoms: B1_2  and  C2_3 
REMARK    2  A    between atoms: C10_12  and  N2_13 
REMARK    3  A    between atoms: N2_13  and  C11_14 
ROOT
HETATM    1  C2  UNL     1      -4.500   0.482   0.247  1.00  0.00    -0.102 A 
HETATM    2  C3  UNL     1      -4.446  -0.331  -0.866  1.00  0.00    -0.003 A 
HETATM    3  C4  UNL     1      -3.226  -0.953  -1.153  1.00  0.00     0.037 A 
HETATM    4  C5  UNL     1      -2.087  -0.792  -0.382  1.00  0.00     0.078 A 
HETATM    5  C6  UNL     1      -2.178   0.029   0.724  1.00  0.00    -0.008 A 
HETATM    6  C7  UNL     1      -3.364   0.661   1.040  1.00  0.00     0.006 A 
HETATM    7  C8  UNL     1      -1.195   0.422   1.743  1.00  0.00     0.161 C 
HETATM    8  N1  UNL     1       0.166   0.152   1.403  1.00  0.00    -0.383 N 
HETATM    9  C9  UNL     1       0.751  -0.727   0.479  1.00  0.00     0.086 A 
HETATM   10  C10 UNL     1       1.987  -0.605   0.018  1.00  0.00     0.153 A 
HETATM   11  N3  UNL     1       2.260  -1.659  -0.899  1.00  0.00    -0.242 NA
HETATM   12  C17 UNL     1       1.204  -2.427  -1.004  1.00  0.00     0.130 A 
HETATM   13  C18 UNL     1       0.119  -1.927  -0.143  1.00  0.00     0.222 A 
HETATM   14  O1  UNL     1      -1.014  -1.495  -0.852  1.00  0.00    -0.334 OA
HETATM   15  H10 UNL     1       0.846   0.739   1.969  1.00  0.00     0.160 HD
ENDROOT
BRANCH  10  16
HETATM   16  N2  UNL     1       2.896   0.425   0.387  1.00  0.00    -0.339 N 
HETATM   17  H11 UNL     1       2.636   1.156   1.067  1.00  0.00     0.167 HD
BRANCH  16  18
HETATM   18  C11 UNL     1       4.198   0.489  -0.165  1.00  0.00     0.035 A 
HETATM   19  C12 UNL     1       4.603   1.152  -1.312  1.00  0.00     0.032 A 
HETATM   20  C13 UNL     1       5.928   1.078  -1.663  1.00  0.00     0.046 A 
HETATM   21  C14 UNL     1       6.864   0.380  -0.932  1.00  0.00     0.138 A 
HETATM   22  F1  UNL     1       8.159   0.356  -1.348  1.00  0.00    -0.204 F 
HETATM   23  C15 UNL     1       6.466  -0.278   0.205  1.00  0.00     0.074 A 
HETATM   24 CL1  UNL     1       7.665  -1.158   1.121  1.00  0.00    -0.081 Cl
HETATM   25  C16 UNL     1       5.123  -0.215   0.579  1.00  0.00     0.056 A 
ENDBRANCH  16  18
ENDBRANCH  10  16
BRANCH   1  26
HETATM   26  B1  UNL     1      -5.821   1.212   0.635  1.00  0.00     0.190 B 
HETATM   27  C1  UNL     1      -7.064   1.194  -0.314  1.00  0.00    -0.053 C 
HETATM   28  H4  UNL     1      -5.930   1.712   1.701  1.00  0.00    -0.021 HD
ENDBRANCH   1  26
TORSDOF 3
