REMARK  7 active torsions:
REMARK  status: ('A' for Active; 'I' for Inactive)
REMARK    1  A    between atoms: C2_2  and  O1_3 
REMARK    2  A    between atoms: C2_2  and  C4_5 
REMARK    3  A    between atoms: C4_5  and  O2_6 
REMARK    4  A    between atoms: C4_5  and  C6_8 
REMARK    5  A    between atoms: C9_13  and  N3_14 
REMARK    6  A    between atoms: N3_14  and  C10_15 
REMARK    7  A    between atoms: C13_18  and  C14_19 
ROOT
HETATM    1  C10 UNL     1      -0.013  -0.949   0.034  1.00  0.00     0.014 C 
HETATM    2  C11 UNL     1       0.642   0.213  -0.071  1.00  0.00     0.026 C 
HETATM    3  C12 UNL     1       2.104   0.422  -0.146  1.00  0.00     0.016 C 
HETATM    4  C13 UNL     1       2.948  -0.500  -0.507  1.00  0.00    -0.001 C 
HETATM    5  C21 UNL     1       2.783  -1.888  -0.914  1.00  0.00     0.011 C 
HETATM    6  C22 UNL     1       1.719  -2.596  -0.620  1.00  0.00    -0.020 C 
HETATM    7  C23 UNL     1       0.468  -2.347   0.108  1.00  0.00     0.084 C 
ENDROOT
BRANCH   1   8
HETATM    8  N3  UNL     1      -1.448  -0.803   0.085  1.00  0.00    -0.344 N 
HETATM    9  H12 UNL     1      -1.705  -1.204  -0.824  1.00  0.00     0.167 HD
BRANCH   8  10
HETATM   10  C9  UNL     1      -2.211  -0.250   1.133  1.00  0.00     0.140 A 
HETATM   11  C6  UNL     1      -3.584  -0.156   1.085  1.00  0.00     0.040 A 
HETATM   12  C7  UNL     1      -4.248   0.396   2.150  1.00  0.00     0.132 A 
HETATM   13  N1  UNL     1      -3.525   0.826   3.205  1.00  0.00    -0.253 NA
HETATM   14  C8  UNL     1      -2.184   0.732   3.249  1.00  0.00     0.234 A 
HETATM   15  N2  UNL     1      -1.502   0.186   2.200  1.00  0.00    -0.224 NA
BRANCH  11  16
HETATM   16  C4  UNL     1      -4.320  -0.646  -0.102  1.00  0.00     0.214 C 
BRANCH  16  17
HETATM   17  C2  UNL     1      -5.339   0.399  -0.455  1.00  0.00     0.070 C 
HETATM   18  C1  UNL     1      -6.626   0.071  -0.512  1.00  0.00     0.049 C 
BRANCH  17  19
HETATM   19  O1  UNL     1      -4.778   1.654  -0.691  1.00  0.00    -0.358 OA
HETATM   20  C3  UNL     1      -5.615   2.800  -0.878  1.00  0.00     0.209 C 
ENDBRANCH  17  19
ENDBRANCH  16  17
BRANCH  16  21
HETATM   21  O2  UNL     1      -4.961  -1.855   0.115  1.00  0.00    -0.379 OA
HETATM   22  C5  UNL     1      -4.641  -2.814  -0.825  1.00  0.00     0.202 C 
ENDBRANCH  16  21
ENDBRANCH  11  16
ENDBRANCH   8  10
ENDBRANCH   1   8
BRANCH   4  23
HETATM   23  C14 UNL     1       4.292   0.092  -0.454  1.00  0.00     0.109 A 
HETATM   24  N4  UNL     1       4.832   1.103  -0.198  1.00  0.00    -0.240 NA
HETATM   25  C15 UNL     1       6.140   1.340  -0.250  1.00  0.00     0.075 A 
HETATM   26  C16 UNL     1       6.793   2.519   0.047  1.00  0.00     0.033 A 
HETATM   27  C20 UNL     1       6.972   0.272  -0.654  1.00  0.00     0.035 A 
HETATM   28  C17 UNL     1       8.164   2.576  -0.066  1.00  0.00     0.002 A 
HETATM   29  C18 UNL     1       8.976   1.541  -0.459  1.00  0.00     0.002 A 
HETATM   30  C19 UNL     1       8.347   0.353  -0.760  1.00  0.00     0.021 A 
HETATM   31  S1  UNL     1       5.744  -1.032  -0.935  1.00  0.00    -0.068 SA
ENDBRANCH   4  23
TORSDOF 7
