REMARK  7 active torsions:
REMARK  status: ('A' for Active; 'I' for Inactive)
REMARK    1  A    between atoms: O1_2  and  C2_3 
REMARK    2  A    between atoms: C5_6  and  C6_7 
REMARK    3  A    between atoms: C6_7  and  C7_8 
REMARK    4  A    between atoms: C6_7  and  C8_10 
REMARK    5  A    between atoms: C8_10  and  C9_11 
REMARK    6  A    between atoms: C9_11  and  C10_12 
REMARK    7  A    between atoms: C18_22  and  O2_23 
ROOT
HETATM    1  C6  UNL     1      -0.659  -1.472  -1.102  1.00  0.00     0.059 C 
ENDROOT
BRANCH   1   2
HETATM    2  C5  UNL     1      -1.695  -0.541  -0.674  1.00  0.00    -0.046 A 
HETATM    3  C4  UNL     1      -1.640   0.800  -0.491  1.00  0.00     0.011 A 
HETATM    4  C3  UNL     1      -2.683   1.596  -0.068  1.00  0.00     0.040 A 
HETATM    5  C2  UNL     1      -3.891   0.986   0.195  1.00  0.00     0.101 A 
HETATM    6  C18 UNL     1      -4.015  -0.377   0.029  1.00  0.00     0.102 A 
HETATM    7  C17 UNL     1      -2.938  -1.126  -0.397  1.00  0.00     0.047 A 
BRANCH   5   8
HETATM    8  O1  UNL     1      -4.994   1.710   0.626  1.00  0.00    -0.353 OA
HETATM    9  C1  UNL     1      -4.955   3.110   0.822  1.00  0.00     0.210 C 
ENDBRANCH   5   8
BRANCH   6  10
HETATM   10  O2  UNL     1      -5.256  -0.962   0.305  1.00  0.00    -0.353 OA
HETATM   11  C19 UNL     1      -5.353  -2.363   0.126  1.00  0.00     0.210 C 
ENDBRANCH   6  10
ENDBRANCH   1   2
BRANCH   1  12
HETATM   12  C7  UNL     1      -0.781  -2.681  -0.173  1.00  0.00     0.089 C 
HETATM   13  N1  UNL     1      -1.036  -2.514   1.088  1.00  0.00    -0.316 NA
HETATM   14  H8  UNL     1      -1.164  -1.582   1.506  1.00  0.00     0.185 HD
ENDBRANCH   1  12
BRANCH   1  15
HETATM   15  C8  UNL     1       0.741  -0.996  -1.083  1.00  0.00     0.021 C 
BRANCH  15  16
HETATM   16  C9  UNL     1       1.243  -0.595   0.285  1.00  0.00     0.068 C 
BRANCH  16  17
HETATM   17  C10 UNL     1       2.664  -0.122   0.191  1.00  0.00     0.076 A 
HETATM   18  N2  UNL     1       3.773  -0.566   0.255  1.00  0.00    -0.245 NA
HETATM   19  C11 UNL     1       4.883   0.166   0.121  1.00  0.00     0.074 A 
HETATM   20  C12 UNL     1       6.174  -0.315   0.190  1.00  0.00     0.033 A 
HETATM   21  C16 UNL     1       4.764   1.516  -0.105  1.00  0.00     0.035 A 
HETATM   22  C13 UNL     1       7.229   0.533   0.037  1.00  0.00     0.002 A 
HETATM   23  C14 UNL     1       7.119   1.902  -0.193  1.00  0.00     0.002 A 
HETATM   24  C15 UNL     1       5.828   2.382  -0.261  1.00  0.00     0.021 A 
HETATM   25  S1  UNL     1       2.966   1.697  -0.118  1.00  0.00    -0.073 SA
ENDBRANCH  16  17
ENDBRANCH  15  16
ENDBRANCH   1  15
TORSDOF 7
