REMARK  7 active torsions:
REMARK  status: ('A' for Active; 'I' for Inactive)
REMARK    1  A    between atoms: C3_3  and  C5_5 
REMARK    2  A    between atoms: C6_6  and  C7_7 
REMARK    3  A    between atoms: C6_6  and  O3_23 
REMARK    4  A    between atoms: C7_7  and  N1_8 
REMARK    5  A    between atoms: N1_8  and  C8_9 
REMARK    6  A    between atoms: C12_15  and  O1_16 
REMARK    7  A    between atoms: C14_18  and  O2_19 
ROOT
HETATM    1  C8  UNL     1       0.788   1.110   0.540  1.00  0.00     0.138 A 
HETATM    2  N2  UNL     1       0.704   2.410   0.230  1.00  0.00    -0.224 NA
HETATM    3  C9  UNL     1       1.735   3.175  -0.148  1.00  0.00     0.235 A 
HETATM    4  N3  UNL     1       2.977   2.668  -0.245  1.00  0.00    -0.241 NA
HETATM    5  C10 UNL     1       3.135   1.376   0.049  1.00  0.00     0.075 A 
HETATM    6  C11 UNL     1       4.414   0.880  -0.059  1.00  0.00     0.072 A 
HETATM    7  C12 UNL     1       4.690  -0.434   0.220  1.00  0.00     0.103 A 
HETATM    8  C14 UNL     1       3.643  -1.242   0.612  1.00  0.00     0.102 A 
HETATM    9  C16 UNL     1       2.372  -0.704   0.707  1.00  0.00     0.057 A 
HETATM   10  C17 UNL     1       2.063   0.601   0.437  1.00  0.00     0.041 A 
ENDROOT
BRANCH   1  11
HETATM   11  N1  UNL     1      -0.291   0.308   0.949  1.00  0.00    -0.368 N 
HETATM   12  H11 UNL     1      -0.154  -0.694   1.189  1.00  0.00     0.161 HD
BRANCH  11  13
HETATM   13  C7  UNL     1      -1.678   0.686   1.099  1.00  0.00     0.185 C 
BRANCH  13  14
HETATM   14  C6  UNL     1      -2.361   1.023  -0.172  1.00  0.00     0.064 C 
HETATM   15  C5  UNL     1      -3.421   0.532  -0.837  1.00  0.00     0.040 C 
BRANCH  15  16
HETATM   16  C3  UNL     1      -4.333  -0.562  -0.543  1.00  0.00    -0.064 C 
HETATM   17  C2  UNL     1      -5.315  -0.818  -1.396  1.00  0.00    -0.024 C 
HETATM   18  C1  UNL     1      -6.253  -1.930  -1.117  1.00  0.00     0.036 C 
HETATM   19  C4  UNL     1      -4.261  -1.435   0.643  1.00  0.00     0.048 C 
ENDBRANCH  15  16
BRANCH  14  20
HETATM   20  O3  UNL     1      -1.689   2.114  -0.756  1.00  0.00    -0.359 OA
HETATM   21  C18 UNL     1      -2.353   3.333  -1.028  1.00  0.00     0.209 C 
ENDBRANCH  14  20
ENDBRANCH  13  14
ENDBRANCH  11  13
ENDBRANCH   1  11
BRANCH   8  22
HETATM   22  O2  UNL     1       3.921  -2.551   0.888  1.00  0.00    -0.353 OA
HETATM   23  C15 UNL     1       2.950  -3.497   1.300  1.00  0.00     0.210 C 
ENDBRANCH   8  22
BRANCH   7  24
HETATM   24  O1  UNL     1       5.968  -0.960   0.120  1.00  0.00    -0.353 OA
HETATM   25  C13 UNL     1       7.089  -0.219  -0.268  1.00  0.00     0.210 C 
ENDBRANCH   7  24
TORSDOF 7
