REMARK  2 active torsions:
REMARK  status: ('A' for Active; 'I' for Inactive)
REMARK    1  A    between atoms: O1_2  and  C2_3 
REMARK    2  A    between atoms: C7_8  and  O2_9 
ROOT
HETATM    1  C2  UNL     1       2.706  -0.112  -0.524  1.00  0.00     0.103 A 
HETATM    2  C3  UNL     1       1.606  -0.490  -1.314  1.00  0.00     0.072 A 
HETATM    3  C4  UNL     1       0.266  -0.540  -0.912  1.00  0.00     0.071 A 
HETATM    4  C5  UNL     1       0.000  -0.177   0.415  1.00  0.00     0.001 A 
HETATM    5  C6  UNL     1       1.101   0.190   1.161  1.00  0.00     0.053 A 
HETATM    6  C7  UNL     1       2.428   0.251   0.797  1.00  0.00     0.102 A 
HETATM    7  C9  UNL     1      -1.167  -0.198   1.093  1.00  0.00    -0.035 C 
HETATM    8  C10 UNL     1      -1.440   0.204   2.528  1.00  0.00     0.184 C 
HETATM    9  N1  UNL     1      -2.571  -0.544   2.908  1.00  0.00    -0.300 NA
HETATM   10  C11 UNL     1      -3.157  -1.042   1.911  1.00  0.00     0.096 C 
HETATM   11  C12 UNL     1      -2.457  -0.677   0.603  1.00  0.00     0.080 C 
HETATM   12  C13 UNL     1      -3.321   0.246  -0.112  1.00  0.00    -0.015 C 
HETATM   13  C14 UNL     1      -3.588   0.929  -1.225  1.00  0.00    -0.008 C 
HETATM   14  C15 UNL     1      -2.796   0.956  -2.515  1.00  0.00     0.177 C 
HETATM   15  N2  UNL     1      -1.648   0.129  -2.298  1.00  0.00    -0.279 NA
HETATM   16  C16 UNL     1      -1.563  -1.118  -2.315  1.00  0.00     0.227 C 
HETATM   17  N3  UNL     1      -0.245  -0.893  -2.029  1.00  0.00    -0.242 NA
ENDROOT
BRANCH   1  18
HETATM   18  O1  UNL     1       4.049  -0.057  -0.908  1.00  0.00    -0.353 OA
HETATM   19  C1  UNL     1       4.355  -0.425  -2.256  1.00  0.00     0.210 C 
ENDBRANCH   1  18
BRANCH   6  20
HETATM   20  O2  UNL     1       3.470   0.634   1.621  1.00  0.00    -0.353 OA
HETATM   21  C8  UNL     1       3.169   0.997   2.953  1.00  0.00     0.210 C 
ENDBRANCH   6  20
TORSDOF 2
