REMARK  2 active torsions:
REMARK  status: ('A' for Active; 'I' for Inactive)
REMARK    1  A    between atoms: O1_2  and  C2_3 
REMARK    2  A    between atoms: C12_16  and  C13_17 
ROOT
HETATM    1  C2  UNL     1       4.047  -0.281  -0.950  1.00  0.00     0.069 A 
HETATM    2  C3  UNL     1       4.423  -0.135   0.362  1.00  0.00     0.039 A 
HETATM    3  C4  UNL     1       3.454  -0.063   1.311  1.00  0.00     0.040 A 
HETATM    4  C5  UNL     1       2.121  -0.134   0.966  1.00  0.00     0.086 A 
HETATM    5  C6  UNL     1       1.705  -0.280  -0.339  1.00  0.00    -0.004 A 
HETATM    6  C7  UNL     1       2.715  -0.353  -1.305  1.00  0.00     0.048 A 
HETATM    7  C8  UNL     1       0.420  -0.390  -1.072  1.00  0.00     0.161 C 
HETATM    8  N1  UNL     1      -0.709   0.149  -0.337  1.00  0.00    -0.380 N 
HETATM    9  C9  UNL     1      -1.003   0.049   1.052  1.00  0.00     0.112 A 
HETATM   10  C10 UNL     1      -0.105  -0.029   2.107  1.00  0.00     0.200 A 
HETATM   11  N2  UNL     1      -0.573  -0.101   3.378  1.00  0.00    -0.215 NA
HETATM   12  C11 UNL     1      -1.906  -0.093   3.534  1.00  0.00     0.236 A 
HETATM   13  N3  UNL     1      -2.797  -0.019   2.527  1.00  0.00    -0.239 NA
HETATM   14  C12 UNL     1      -2.371   0.055   1.239  1.00  0.00     0.099 A 
HETATM   15  O2  UNL     1       1.293  -0.044   2.048  1.00  0.00    -0.289 OA
HETATM   16  H9  UNL     1      -1.470   0.714  -0.819  1.00  0.00     0.160 HD
ENDROOT
BRANCH  14  17
HETATM   17  C13 UNL     1      -3.368   0.131   0.179  1.00  0.00    -0.003 A 
HETATM   18  C14 UNL     1      -4.338   1.095   0.484  1.00  0.00     0.017 A 
HETATM   19  C15 UNL     1      -5.403   1.354  -0.354  1.00  0.00     0.045 A 
HETATM   20  C16 UNL     1      -5.533   0.651  -1.534  1.00  0.00     0.138 A 
HETATM   21  F1  UNL     1      -6.559   0.845  -2.422  1.00  0.00    -0.204 F 
HETATM   22  C17 UNL     1      -4.581  -0.299  -1.839  1.00  0.00     0.073 A 
HETATM   23 CL1  UNL     1      -4.612  -1.273  -3.303  1.00  0.00    -0.081 Cl
HETATM   24  C18 UNL     1      -3.515  -0.566  -1.010  1.00  0.00     0.041 A 
ENDBRANCH  14  17
BRANCH   1  25
HETATM   25  O1  UNL     1       5.017  -0.358  -1.942  1.00  0.00    -0.356 OA
HETATM   26  C1  UNL     1       6.385  -0.295  -1.690  1.00  0.00     0.210 C 
ENDBRANCH   1  25
TORSDOF 2
