REMARK  4 active torsions:
REMARK  status: ('A' for Active; 'I' for Inactive)
REMARK    1  A    between atoms: O1_2  and  C2_3 
REMARK    2  A    between atoms: C10_12  and  N2_13 
REMARK    3  A    between atoms: N2_13  and  P1_14 
REMARK    4  A    between atoms: P1_14  and  C11_15 
ROOT
HETATM    1  C2  UNL     1       5.407   0.188  -0.180  1.00  0.00     0.069 A 
HETATM    2  C3  UNL     1       5.568  -1.181  -0.057  1.00  0.00     0.039 A 
HETATM    3  C4  UNL     1       4.478  -2.019   0.168  1.00  0.00     0.040 A 
HETATM    4  C5  UNL     1       3.243  -1.409   0.260  1.00  0.00     0.086 A 
HETATM    5  C6  UNL     1       3.025  -0.059   0.147  1.00  0.00    -0.004 A 
HETATM    6  C7  UNL     1       4.139   0.734  -0.077  1.00  0.00     0.048 A 
HETATM    7  C8  UNL     1       1.853   0.814   0.203  1.00  0.00     0.161 C 
HETATM    8  N1  UNL     1       0.598   0.175  -0.063  1.00  0.00    -0.379 N 
HETATM    9  C9  UNL     1       0.125  -1.159  -0.084  1.00  0.00     0.128 A 
HETATM   10  C10 UNL     1      -1.215  -1.299  -0.384  1.00  0.00     0.159 A 
HETATM   11  N3  UNL     1      -1.765  -2.526  -0.430  1.00  0.00    -0.222 NA
HETATM   12  C17 UNL     1      -1.019  -3.639  -0.185  1.00  0.00     0.238 A 
HETATM   13  N4  UNL     1       0.286  -3.485   0.106  1.00  0.00    -0.215 NA
HETATM   14  C18 UNL     1       0.889  -2.282   0.165  1.00  0.00     0.202 A 
HETATM   15  O2  UNL     1       2.252  -2.358   0.484  1.00  0.00    -0.289 OA
HETATM   16  H9  UNL     1      -0.167   0.853  -0.303  1.00  0.00     0.160 HD
ENDROOT
BRANCH  10  17
HETATM   17  N2  UNL     1      -1.988  -0.137  -0.638  1.00  0.00    -0.346 N 
HETATM   18  H10 UNL     1      -2.147   0.327  -1.551  1.00  0.00     0.166 HD
BRANCH  17  19
HETATM   19  P1  UNL     1      -2.862   0.765   0.660  1.00  0.00     0.006 P 
HETATM   20  H11 UNL     1      -2.777   0.040   1.927  1.00  0.00     0.085 HD
BRANCH  19  21
HETATM   21  C11 UNL     1      -4.622   0.893   0.214  1.00  0.00    -0.012 A 
HETATM   22  C12 UNL     1      -5.645   0.514   1.081  1.00  0.00     0.017 A 
HETATM   23  C13 UNL     1      -6.991   0.598   0.774  1.00  0.00     0.045 A 
HETATM   24  C14 UNL     1      -7.353   1.089  -0.473  1.00  0.00     0.138 A 
HETATM   25  F1  UNL     1      -8.689   1.143  -0.704  1.00  0.00    -0.204 F 
HETATM   26  C15 UNL     1      -6.376   1.480  -1.373  1.00  0.00     0.073 A 
HETATM   27 CL1  UNL     1      -6.898   2.090  -2.928  1.00  0.00    -0.081 Cl
HETATM   28  C16 UNL     1      -5.038   1.378  -1.022  1.00  0.00     0.040 A 
ENDBRANCH  19  21
ENDBRANCH  17  19
ENDBRANCH  10  17
BRANCH   1  29
HETATM   29  O1  UNL     1       6.585   0.846  -0.397  1.00  0.00    -0.356 OA
HETATM   30  C1  UNL     1       6.695   2.248  -0.558  1.00  0.00     0.210 C 
ENDBRANCH   1  29
TORSDOF 4
