REMARK  10 active torsions:
REMARK  status: ('A' for Active; 'I' for Inactive)
REMARK    1  A    between atoms: C2_2  and  N1_3 
REMARK    2  A    between atoms: N1_3  and  C4_5 
REMARK    3  A    between atoms: C4_5  and  C5_6 
REMARK    4  A    between atoms: C5_6  and  N2_7 
REMARK    5  A    between atoms: N2_7  and  C6_8 
REMARK    6  A    between atoms: C6_8  and  C7_9 
REMARK    7  A    between atoms: C7_9  and  C8_10 
REMARK    8  A    between atoms: C8_10  and  C9_11 
REMARK    9  A    between atoms: C14_18  and  C15_19 
REMARK   10  A    between atoms: C15_19  and  O1_20 
ROOT
HETATM    1  C9  UNL     1      -2.586   0.423   0.614  1.00  0.00    -0.046 C 
HETATM    2  C10 UNL     1      -3.352   1.324   1.344  1.00  0.00     0.035 C 
HETATM    3  C11 UNL     1      -4.792   1.242   1.042  1.00  0.00     0.042 C 
HETATM    4  N3  UNL     1      -5.987   1.019   1.583  1.00  0.00    -0.246 NA
HETATM    5  C12 UNL     1      -6.613  -0.240   0.939  1.00  0.00     0.233 C 
HETATM    6  N4  UNL     1      -5.924  -0.956  -0.067  1.00  0.00    -0.246 NA
HETATM    7  C13 UNL     1      -4.635  -0.311  -0.300  1.00  0.00     0.050 C 
HETATM    8  C14 UNL     1      -3.337  -0.477  -0.285  1.00  0.00    -0.003 C 
HETATM    9  C16 UNL     1      -5.029   1.213  -0.489  1.00  0.00     0.119 C 
ENDROOT
BRANCH   1  10
HETATM   10  C8  UNL     1      -1.148   0.342   0.780  1.00  0.00     0.041 C 
BRANCH  10  11
HETATM   11  C7  UNL     1      -0.463   0.701  -0.502  1.00  0.00     0.034 C 
BRANCH  11  12
HETATM   12  C6  UNL     1       1.040   0.638  -0.369  1.00  0.00     0.270 C 
BRANCH  12  13
HETATM   13  N2  UNL     1       1.416  -0.706   0.032  1.00  0.00     0.085 N 
HETATM   14  H11 UNL     1       1.243  -0.855   1.055  1.00  0.00     0.315 HD
BRANCH  13  15
HETATM   15  C5  UNL     1       2.803  -0.854  -0.316  1.00  0.00     0.289 C 
BRANCH  15  16
HETATM   16  C4  UNL     1       3.665   0.046   0.521  1.00  0.00     0.151 C 
BRANCH  16  17
HETATM   17  N1  UNL     1       5.039  -0.205   0.025  1.00  0.00    -0.393 N 
HETATM   18  C3  UNL     1       5.540  -1.529   0.356  1.00  0.00     0.148 C 
BRANCH  17  19
HETATM   19  C2  UNL     1       5.897   0.642  -0.720  1.00  0.00     0.075 C 
HETATM   20  C1  UNL     1       6.048   1.958  -0.554  1.00  0.00     0.029 C 
ENDBRANCH  17  19
ENDBRANCH  16  17
ENDBRANCH  15  16
ENDBRANCH  13  15
ENDBRANCH  12  13
ENDBRANCH  11  12
ENDBRANCH  10  11
ENDBRANCH   1  10
BRANCH   8  21
HETATM   21  C15 UNL     1      -2.963  -1.661  -1.006  1.00  0.00     0.205 C 
BRANCH  21  22
HETATM   22  O1  UNL     1      -4.015  -2.378  -1.540  1.00  0.00    -0.396 OA
HETATM   23  H22 UNL     1      -4.545  -1.838  -2.153  1.00  0.00     0.209 HD
ENDBRANCH  21  22
ENDBRANCH   8  21
TORSDOF 10
