REMARK  5 active torsions:
REMARK  status: ('A' for Active; 'I' for Inactive)
REMARK    1  A    between atoms: O1_2  and  C2_3 
REMARK    2  A    between atoms: C7_8  and  O2_9 
REMARK    3  A    between atoms: C12_15  and  C13_16 
REMARK    4  A    between atoms: C13_16  and  C14_17 
REMARK    5  A    between atoms: C19_22  and  N2_23 
ROOT
HETATM    1  C2  UNL     1      -4.583   0.560  -0.057  1.00  0.00     0.103 A 
HETATM    2  C3  UNL     1      -3.495   1.433  -0.287  1.00  0.00     0.073 A 
HETATM    3  C4  UNL     1      -2.166   0.979  -0.432  1.00  0.00     0.087 A 
HETATM    4  C5  UNL     1      -1.909  -0.366  -0.352  1.00  0.00     0.068 A 
HETATM    5  C6  UNL     1      -3.043  -1.157  -0.123  1.00  0.00     0.071 A 
HETATM    6  C7  UNL     1      -4.364  -0.786   0.030  1.00  0.00     0.103 A 
HETATM    7  N1  UNL     1      -0.657  -1.014  -0.489  1.00  0.00    -0.324 N 
HETATM    8  C9  UNL     1      -0.741  -2.381  -0.972  1.00  0.00     0.094 C 
HETATM    9  C10 UNL     1       0.285  -3.212  -0.929  1.00  0.00     0.018 C 
HETATM   10  C11 UNL     1       1.531  -2.725  -0.403  1.00  0.00     0.009 C 
HETATM   11  C12 UNL     1       1.694  -1.450   0.021  1.00  0.00    -0.027 C 
HETATM   12  C20 UNL     1       0.629  -0.449  -0.150  1.00  0.00     0.258 C 
HETATM   13  O3  UNL     1       0.582   0.403   0.922  1.00  0.00    -0.357 OA
HETATM   14  C21 UNL     1       1.126   1.657   0.638  1.00  0.00     0.217 C 
HETATM   15  C22 UNL     1       0.910   2.517   1.823  1.00  0.00     0.117 C 
HETATM   16  N3  UNL     1      -0.213   3.100   1.557  1.00  0.00    -0.256 NA
HETATM   17  C23 UNL     1      -0.900   2.817   0.341  1.00  0.00     0.232 C 
HETATM   18  N4  UNL     1      -1.581   2.292  -0.591  1.00  0.00    -0.240 NA
ENDROOT
BRANCH  11  19
HETATM   19  C13 UNL     1       3.077  -1.278   0.518  1.00  0.00     0.079 C 
BRANCH  19  20
HETATM   20  C14 UNL     1       3.909  -0.393  -0.345  1.00  0.00    -0.028 A 
HETATM   21  C15 UNL     1       3.669  -0.141  -1.654  1.00  0.00     0.010 A 
HETATM   22  C16 UNL     1       4.507   0.722  -2.365  1.00  0.00     0.001 A 
HETATM   23  C17 UNL     1       5.588   1.321  -1.722  1.00  0.00     0.002 A 
HETATM   24  C18 UNL     1       5.815   1.051  -0.389  1.00  0.00     0.029 A 
HETATM   25  C19 UNL     1       4.978   0.196   0.300  1.00  0.00     0.032 A 
BRANCH  25  26
HETATM   26  N2  UNL     1       5.291  -0.034   1.682  1.00  0.00    -0.399 N 
HETATM   27  H18 UNL     1       5.511  -0.864   2.279  1.00  0.00     0.156 HD
HETATM   28  H19 UNL     1       5.308   0.838   2.252  1.00  0.00     0.156 HD
ENDBRANCH  25  26
ENDBRANCH  19  20
ENDBRANCH  11  19
BRANCH   6  29
HETATM   29  O2  UNL     1      -5.342  -1.745   0.255  1.00  0.00    -0.353 OA
HETATM   30  C8  UNL     1      -4.977  -3.105   0.335  1.00  0.00     0.210 C 
ENDBRANCH   6  29
BRANCH   1  31
HETATM   31  O1  UNL     1      -5.946   0.900   0.102  1.00  0.00    -0.353 OA
HETATM   32  C1  UNL     1      -6.242   2.285   0.016  1.00  0.00     0.210 C 
ENDBRANCH   1  31
TORSDOF 5
