REMARK  5 active torsions:
REMARK  status: ('A' for Active; 'I' for Inactive)
REMARK    1  A    between atoms: O1_2  and  C2_3 
REMARK    2  A    between atoms: C6_9  and  N3_10 
REMARK    3  A    between atoms: C10_14  and  C11_15 
REMARK    4  A    between atoms: C18_24  and  O2_25 
REMARK    5  A    between atoms: C22_29  and  O3_30 
ROOT
HETATM    1  N3  UNL     1       0.061  -0.741  -0.545  1.00  0.00    -0.310 N 
HETATM    2  C7  UNL     1      -0.104  -2.152  -0.525  1.00  0.00     0.096 A 
HETATM    3  C8  UNL     1       0.964  -2.881  -0.301  1.00  0.00     0.018 A 
HETATM    4  C9  UNL     1       2.259  -2.253  -0.081  1.00  0.00     0.016 A 
HETATM    5  C10 UNL     1       2.400  -0.942  -0.096  1.00  0.00     0.026 A 
HETATM    6  C18 UNL     1       1.293  -0.000  -0.310  1.00  0.00     0.265 A 
ENDROOT
BRANCH   1   7
HETATM    7  C6  UNL     1      -1.158  -0.020  -0.832  1.00  0.00     0.133 C 
HETATM    8  N2  UNL     1      -1.781   1.142  -1.062  1.00  0.00    -0.224 NA
HETATM    9  C5  UNL     1      -2.336   1.924  -0.126  1.00  0.00     0.234 C 
HETATM   10  N1  UNL     1      -2.673   1.993   1.178  1.00  0.00    -0.254 NA
HETATM   11  C4  UNL     1      -3.922   2.330   1.567  1.00  0.00     0.121 C 
HETATM   12  C3  UNL     1      -5.073   2.062   0.857  1.00  0.00     0.059 C 
HETATM   13  C2  UNL     1      -5.242   0.970   0.035  1.00  0.00     0.102 C 
HETATM   14  C22 UNL     1      -4.744  -0.296   0.117  1.00  0.00     0.101 C 
HETATM   15  C21 UNL     1      -3.468  -0.727  -0.151  1.00  0.00     0.043 C 
HETATM   16  C20 UNL     1      -2.355  -0.691  -0.966  1.00  0.00     0.053 C 
BRANCH  13  17
HETATM   17  O1  UNL     1      -5.987   0.908  -1.109  1.00  0.00    -0.353 OA
HETATM   18  C1  UNL     1      -6.704   2.016  -1.610  1.00  0.00     0.210 C 
ENDBRANCH  13  17
BRANCH  14  19
HETATM   19  O3  UNL     1      -5.538  -1.381   0.512  1.00  0.00    -0.353 OA
HETATM   20  C23 UNL     1      -5.004  -2.690   0.591  1.00  0.00     0.210 C 
ENDBRANCH  14  19
ENDBRANCH   1   7
BRANCH   6  21
HETATM   21  O2  UNL     1       1.608   0.875  -1.319  1.00  0.00    -0.367 OA
HETATM   22  C19 UNL     1       1.539   2.211  -1.046  1.00  0.00     0.204 C 
ENDBRANCH   6  21
BRANCH   5  23
HETATM   23  C11 UNL     1       3.810  -0.553   0.151  1.00  0.00     0.109 A 
HETATM   24  N4  UNL     1       4.771  -1.253   0.347  1.00  0.00    -0.240 NA
HETATM   25  C12 UNL     1       6.002  -0.841   0.558  1.00  0.00     0.075 A 
HETATM   26  C13 UNL     1       7.097  -1.651   0.780  1.00  0.00     0.033 A 
HETATM   27  C17 UNL     1       6.243   0.531   0.560  1.00  0.00     0.035 A 
HETATM   28  C14 UNL     1       8.308  -1.032   0.981  1.00  0.00     0.002 A 
HETATM   29  C15 UNL     1       8.569   0.302   0.988  1.00  0.00     0.002 A 
HETATM   30  C16 UNL     1       7.504   1.148   0.770  1.00  0.00     0.021 A 
HETATM   31  S1  UNL     1       4.529   1.092   0.232  1.00  0.00    -0.068 SA
ENDBRANCH   5  23
TORSDOF 5
