REMARK  3 active torsions:
REMARK  status: ('A' for Active; 'I' for Inactive)
REMARK    1  A    between atoms: B1_1  and  C1_2 
REMARK    2  A    between atoms: C1_2  and  C2_3 
REMARK    3  A    between atoms: C10_14  and  C11_15 
ROOT
HETATM    1  C2  UNL     1      -0.305  -0.504  -1.368  1.00  0.00    -0.038 C 
HETATM    2  C3  UNL     1      -0.952  -1.563  -0.948  1.00  0.00     0.030 C 
HETATM    3  C4  UNL     1      -1.953  -1.883   0.058  1.00  0.00     0.118 C 
HETATM    4  N1  UNL     1      -2.746  -1.651   0.986  1.00  0.00    -0.255 NA
HETATM    5  C5  UNL     1      -3.091  -0.482   1.678  1.00  0.00     0.228 C 
HETATM    6  N2  UNL     1      -3.818  -0.065   0.764  1.00  0.00    -0.264 NA
HETATM    7  C6  UNL     1      -4.629   1.042   0.484  1.00  0.00     0.272 C 
HETATM    8  N3  UNL     1      -3.907   2.320   0.653  1.00  0.00    -0.371 N 
HETATM    9  C7  UNL     1      -2.655   1.709   0.321  1.00  0.00     0.036 A 
HETATM   10  C8  UNL     1      -1.797   2.070   1.374  1.00  0.00     0.031 A 
HETATM   11  C9  UNL     1      -0.468   1.650   1.524  1.00  0.00     0.017 A 
HETATM   12  C10 UNL     1       0.039   0.794   0.535  1.00  0.00     0.011 A 
HETATM   13  C18 UNL     1      -0.870   0.498  -0.451  1.00  0.00    -0.006 A 
HETATM   14  C19 UNL     1      -2.172   0.877  -0.661  1.00  0.00    -0.024 A 
HETATM   15  C20 UNL     1      -2.903   0.474  -1.871  1.00  0.00     0.051 C 
HETATM   16  H8  UNL     1      -3.978   3.327   0.886  1.00  0.00     0.161 HD
ENDROOT
BRANCH  12  17
HETATM   17  C11 UNL     1       1.395   0.237   0.438  1.00  0.00     0.110 A 
HETATM   18  N4  UNL     1       2.175  -0.454  -0.093  1.00  0.00    -0.240 NA
HETATM   19  C12 UNL     1       3.433  -0.653   0.246  1.00  0.00     0.075 A 
HETATM   20  C13 UNL     1       4.318  -1.498  -0.436  1.00  0.00     0.033 A 
HETATM   21  C17 UNL     1       3.919   0.008   1.342  1.00  0.00     0.035 A 
HETATM   22  C14 UNL     1       5.606  -1.608   0.033  1.00  0.00     0.002 A 
HETATM   23  C15 UNL     1       6.128  -0.955   1.135  1.00  0.00     0.002 A 
HETATM   24  C16 UNL     1       5.220  -0.126   1.787  1.00  0.00     0.021 A 
HETATM   25  S1  UNL     1       2.509   0.896   1.830  1.00  0.00    -0.067 SA
ENDBRANCH  12  17
BRANCH   1  26
HETATM   26  C1  UNL     1       0.643   0.111  -2.234  1.00  0.00    -0.083 C 
BRANCH  26  27
HETATM   27  B1  UNL     1       1.545  -1.214  -3.341  1.00  0.00     0.145 B 
HETATM   28  H1  UNL     1       2.340  -1.888  -4.244  1.00  0.00    -0.031 HD
ENDBRANCH  26  27
ENDBRANCH   1  26
TORSDOF 3
