REMARK  2 active torsions:
REMARK  status: ('A' for Active; 'I' for Inactive)
REMARK    1  A    between atoms: O1_2  and  C2_3 
REMARK    2  A    between atoms: C24_30  and  O3_31 
ROOT
HETATM    1  C2  UNL     1       2.319  -1.322   1.964  1.00  0.00     0.084 C 
HETATM    2  C3  UNL     1       1.225  -1.888   2.371  1.00  0.00     0.081 C 
HETATM    3  C4  UNL     1      -0.103  -2.352   2.605  1.00  0.00    -0.011 C 
HETATM    4  C5  UNL     1      -1.395  -2.409   2.381  1.00  0.00     0.036 C 
HETATM    5  C6  UNL     1      -2.160  -1.697   1.395  1.00  0.00     0.097 C 
HETATM    6  N1  UNL     1      -3.343  -1.357   1.924  1.00  0.00    -0.253 NA
HETATM    7  C7  UNL     1      -4.596  -1.370   1.158  1.00  0.00     0.126 C 
HETATM    8  C8  UNL     1      -4.628  -0.944  -0.091  1.00  0.00    -0.028 C 
HETATM    9  C9  UNL     1      -5.424  -1.622  -1.165  1.00  0.00     0.009 C 
HETATM   10  C10 UNL     1      -4.761  -1.835  -2.337  1.00  0.00     0.002 C 
HETATM   11  C11 UNL     1      -3.321  -1.458  -2.453  1.00  0.00     0.015 C 
HETATM   12  C12 UNL     1      -2.863  -0.928  -1.336  1.00  0.00    -0.003 C 
HETATM   13  S1  UNL     1      -1.472  -1.382  -0.304  1.00  0.00    -0.074 SA
HETATM   14  C13 UNL     1      -3.768   0.182  -0.734  1.00  0.00     0.082 C 
HETATM   15  C14 UNL     1      -3.120   0.974   0.286  1.00  0.00    -0.014 C 
HETATM   16  C15 UNL     1      -2.172   1.868   0.055  1.00  0.00    -0.003 C 
HETATM   17  C16 UNL     1      -1.436   2.402  -1.176  1.00  0.00     0.203 C 
HETATM   18  O2  UNL     1      -0.144   2.217  -1.150  1.00  0.00    -0.345 OA
HETATM   19  C17 UNL     1       1.127   2.053  -1.099  1.00  0.00     0.103 A 
HETATM   20  C18 UNL     1       1.412   1.047  -0.169  1.00  0.00     0.056 A 
HETATM   21  C19 UNL     1       2.621   0.547   0.200  1.00  0.00     0.027 A 
HETATM   22  C20 UNL     1       2.988  -0.415   1.064  1.00  0.00     0.100 A 
HETATM   23  N2  UNL     1       4.294  -0.693   1.204  1.00  0.00    -0.239 NA
HETATM   24  C21 UNL     1       5.293  -0.089   0.546  1.00  0.00     0.234 A 
HETATM   25  N3  UNL     1       4.959   0.862  -0.311  1.00  0.00    -0.241 NA
HETATM   26  C22 UNL     1       3.653   1.169  -0.477  1.00  0.00     0.073 A 
HETATM   27  C23 UNL     1       3.437   2.166  -1.403  1.00  0.00     0.072 A 
HETATM   28  C24 UNL     1       2.191   2.640  -1.746  1.00  0.00     0.103 A 
ENDROOT
BRANCH   1  29
HETATM   29  O1  UNL     1       2.787  -2.113   2.990  1.00  0.00    -0.357 OA
HETATM   30  C1  UNL     1       3.654  -3.223   2.739  1.00  0.00     0.209 C 
ENDBRANCH   1  29
BRANCH  28  31
HETATM   31  O3  UNL     1       1.831   3.614  -2.637  1.00  0.00    -0.353 OA
HETATM   32  C25 UNL     1       2.695   4.379  -3.433  1.00  0.00     0.210 C 
ENDBRANCH  28  31
TORSDOF 2
