REMARK  10 active torsions:
REMARK  status: ('A' for Active; 'I' for Inactive)
REMARK    1  A    between atoms: C2_2  and  N1_3 
REMARK    2  A    between atoms: N1_3  and  C4_5 
REMARK    3  A    between atoms: C4_5  and  C5_6 
REMARK    4  A    between atoms: C5_6  and  N2_7 
REMARK    5  A    between atoms: N2_7  and  C6_8 
REMARK    6  A    between atoms: C6_8  and  C7_9 
REMARK    7  A    between atoms: C7_9  and  C8_10 
REMARK    8  A    between atoms: C8_10  and  O1_11 
REMARK    9  A    between atoms: O1_11  and  C9_12 
REMARK   10  A    between atoms: C15_20  and  O2_21 
ROOT
HETATM    1  O1  UNL     1      -1.517   0.048  -0.193  1.00  0.00    -0.348 OA
ENDROOT
BRANCH   1   2
HETATM    2  C8  UNL     1      -0.724  -0.545   0.826  1.00  0.00     0.177 C 
BRANCH   2   3
HETATM    3  C7  UNL     1       0.485   0.238   1.196  1.00  0.00     0.056 C 
BRANCH   3   4
HETATM    4  C6  UNL     1       1.422   0.440   0.051  1.00  0.00     0.272 C 
BRANCH   4   5
HETATM    5  N2  UNL     1       2.596   1.209   0.425  1.00  0.00     0.085 N 
HETATM    6  H11 UNL     1       2.367   2.143   0.808  1.00  0.00     0.315 HD
BRANCH   5   7
HETATM    7  C5  UNL     1       3.472   0.526   1.325  1.00  0.00     0.289 C 
BRANCH   7   8
HETATM    8  C4  UNL     1       4.151  -0.646   0.656  1.00  0.00     0.151 C 
BRANCH   8   9
HETATM    9  N1  UNL     1       4.948  -0.249  -0.469  1.00  0.00    -0.396 N 
HETATM   10  C3  UNL     1       5.662  -1.235  -1.239  1.00  0.00     0.148 C 
BRANCH   9  11
HETATM   11  C2  UNL     1       5.140   1.069  -0.953  1.00  0.00     0.058 C 
HETATM   12  C1  UNL     1       5.611   2.302  -0.901  1.00  0.00     0.049 C 
ENDBRANCH   9  11
ENDBRANCH   8   9
ENDBRANCH   7   8
ENDBRANCH   5   7
ENDBRANCH   4   5
ENDBRANCH   3   4
ENDBRANCH   2   3
ENDBRANCH   1   2
BRANCH   1  13
HETATM   13  C9  UNL     1      -2.832  -0.473  -0.259  1.00  0.00     0.103 C 
HETATM   14  C10 UNL     1      -3.103  -1.730   0.170  1.00  0.00     0.069 C 
HETATM   15  C11 UNL     1      -4.512  -1.974  -0.095  1.00  0.00     0.067 A 
HETATM   16  N3  UNL     1      -5.052  -3.147  -0.284  1.00  0.00    -0.244 NA
HETATM   17  C13 UNL     1      -5.594  -1.018  -0.214  1.00  0.00     0.186 A 
HETATM   18  C12 UNL     1      -6.464  -2.988  -0.546  1.00  0.00     0.228 A 
HETATM   19  N4  UNL     1      -6.763  -1.709  -0.510  1.00  0.00    -0.267 NA
HETATM   20  C14 UNL     1      -5.176   0.246  -0.771  1.00  0.00     0.046 C 
HETATM   21  C15 UNL     1      -3.845   0.487  -0.755  1.00  0.00     0.100 C 
BRANCH  21  22
HETATM   22  O2  UNL     1      -3.444   1.718  -1.241  1.00  0.00    -0.353 OA
HETATM   23  C16 UNL     1      -4.239   2.848  -1.062  1.00  0.00     0.210 C 
ENDBRANCH  21  22
ENDBRANCH   1  13
TORSDOF 10
