REMARK  2 active torsions:
REMARK  status: ('A' for Active; 'I' for Inactive)
REMARK    1  A    between atoms: O1_2  and  C2_3 
REMARK    2  A    between atoms: C6_9  and  C7_10 
ROOT
HETATM    1  C2  UNL     1       1.587  -2.191   0.594  1.00  0.00     0.043 C 
HETATM    2  C3  UNL     1       2.210  -1.136   0.042  1.00  0.00     0.018 C 
HETATM    3  C4  UNL     1       2.432   0.007  -0.697  1.00  0.00     0.017 A 
HETATM    4  N1  UNL     1       2.547   1.239  -1.035  1.00  0.00     0.000 N 
HETATM    5  C5  UNL     1       2.862   1.393  -2.488  1.00  0.00     0.093 A 
HETATM    6  N2  UNL     1       2.677   2.184  -1.521  1.00  0.00    -0.191 NA
HETATM    7  C6  UNL     1       2.449   2.624  -0.404  1.00  0.00     0.135 A 
HETATM    8  C7  UNL     1       2.326   1.233   0.060  1.00  0.00     0.020 A 
HETATM    9  C8  UNL     1       2.438   1.449   1.569  1.00  0.00     0.021 C 
HETATM   10  N3  UNL     1       2.074   3.913   0.210  1.00  0.00    -0.275 NA
HETATM   11  C9  UNL     1       0.750   3.543  -0.210  1.00  0.00     0.059 C 
HETATM   12  C10 UNL     1      -0.063   3.684  -1.307  1.00  0.00     0.011 C 
HETATM   13  C11 UNL     1      -1.305   3.015  -1.106  1.00  0.00    -0.003 C 
HETATM   14  C12 UNL     1      -2.366   2.360  -0.759  1.00  0.00    -0.022 C 
HETATM   15  C13 UNL     1      -3.669   1.735  -0.707  1.00  0.00     0.104 A 
HETATM   16  C14 UNL     1      -3.292   0.134  -0.465  1.00  0.00     0.180 A 
HETATM   17  C15 UNL     1      -2.653   0.854   0.439  1.00  0.00     0.179 A 
HETATM   18  C16 UNL     1      -2.449  -0.440   0.788  1.00  0.00     0.093 A 
HETATM   19  C17 UNL     1      -2.606  -1.812   0.616  1.00  0.00    -0.072 A 
HETATM   20  C18 UNL     1      -3.461  -1.954  -0.612  1.00  0.00     0.016 A 
HETATM   21  C19 UNL     1      -4.011  -0.747  -1.472  1.00  0.00     0.195 A 
HETATM   22  N4  UNL     1      -3.392  -0.006  -0.603  1.00  0.00    -0.029 N 
HETATM   23  C20 UNL     1      -2.149  -3.135   1.018  1.00  0.00     0.035 C 
HETATM   24  C21 UNL     1      -0.663  -2.996   1.440  1.00  0.00     0.011 C 
HETATM   25  C22 UNL     1       0.119  -2.318   0.289  1.00  0.00     0.064 C 
HETATM   26  H9  UNL     1       3.098   3.631   0.373  1.00  0.00     0.129 HD
HETATM   27  H18 UNL     1      -3.765   0.053  -1.936  1.00  0.00     0.322 HD
ENDROOT
BRANCH   1  28
HETATM   28  O1  UNL     1       2.421  -3.025   1.425  1.00  0.00    -0.361 OA
HETATM   29  C1  UNL     1       3.568  -3.483   0.688  1.00  0.00     0.209 C 
ENDBRANCH   1  28
TORSDOF 2
