REMARK  6 active torsions:
REMARK  status: ('A' for Active; 'I' for Inactive)
REMARK    1  A    between atoms: O1_2  and  C2_3 
REMARK    2  A    between atoms: C7_8  and  O2_9 
REMARK    3  A    between atoms: O2_9  and  C8_10 
REMARK    4  A    between atoms: C8_10  and  C9_11 
REMARK    5  A    between atoms: C9_11  and  C10_12 
REMARK    6  A    between atoms: C10_12  and  N1_13 
ROOT
HETATM    1  C2  UNL     1      -2.211  -0.671   1.679  1.00  0.00     0.102 A 
HETATM    2  C3  UNL     1      -2.831   0.557   1.555  1.00  0.00     0.054 A 
HETATM    3  C4  UNL     1      -2.625   1.240   0.409  1.00  0.00     0.006 A 
HETATM    4  C5  UNL     1      -1.857   0.911  -0.731  1.00  0.00     0.072 A 
HETATM    5  C6  UNL     1      -1.290  -0.359  -0.462  1.00  0.00     0.072 A 
HETATM    6  C7  UNL     1      -1.390  -1.211   0.659  1.00  0.00     0.104 A 
HETATM    7  N3  UNL     1      -1.312   1.066  -1.850  1.00  0.00    -0.242 NA
HETATM    8  C16 UNL     1      -1.296   2.140  -2.728  1.00  0.00     0.229 C 
HETATM    9  N4  UNL     1      -1.508   3.307  -3.095  1.00  0.00    -0.263 NA
HETATM   10  C17 UNL     1      -1.999   4.559  -2.816  1.00  0.00     0.272 C 
HETATM   11  N5  UNL     1      -3.265   4.800  -2.169  1.00  0.00    -0.371 N 
HETATM   12  C18 UNL     1      -3.720   4.465  -0.881  1.00  0.00     0.036 A 
HETATM   13  C19 UNL     1      -3.200   3.297  -0.712  1.00  0.00     0.042 A 
HETATM   14  C20 UNL     1      -3.265   2.401   0.404  1.00  0.00    -0.021 A 
HETATM   15  C21 UNL     1      -4.103   3.333   1.144  1.00  0.00     0.021 A 
HETATM   16  C22 UNL     1      -4.342   4.457   0.420  1.00  0.00    -0.035 A 
HETATM   17  C23 UNL     1      -5.120   5.653   0.711  1.00  0.00     0.050 C 
HETATM   18  H26 UNL     1      -4.202   5.244  -2.347  1.00  0.00     0.161 HD
ENDROOT
BRANCH   6  19
HETATM   19  O2  UNL     1      -0.926  -2.417   1.073  1.00  0.00    -0.348 OA
BRANCH  19  20
HETATM   20  C8  UNL     1      -0.084  -3.271   0.426  1.00  0.00     0.177 C 
BRANCH  20  21
HETATM   21  C9  UNL     1       1.316  -2.801   0.135  1.00  0.00     0.046 C 
BRANCH  21  22
HETATM   22  C10 UNL     1       2.014  -3.944  -0.572  1.00  0.00     0.119 C 
BRANCH  22  23
HETATM   23  N1  UNL     1       3.347  -3.716  -0.954  1.00  0.00    -0.409 N 
HETATM   24  C11 UNL     1       3.621  -2.784  -1.978  1.00  0.00     0.147 C 
HETATM   25  C12 UNL     1       4.925  -2.079  -1.676  1.00  0.00     0.291 C 
HETATM   26  N2  UNL     1       4.992  -1.646  -0.296  1.00  0.00     0.087 N 
HETATM   27  C13 UNL     1       6.083  -0.764  -0.037  1.00  0.00     0.310 C 
HETATM   28  C14 UNL     1       4.924  -2.739   0.632  1.00  0.00     0.291 C 
HETATM   29  C15 UNL     1       4.389  -4.006  -0.051  1.00  0.00     0.147 C 
ENDBRANCH  22  23
ENDBRANCH  21  22
ENDBRANCH  20  21
ENDBRANCH  19  20
ENDBRANCH   6  19
BRANCH   1  30
HETATM   30  O1  UNL     1      -2.446  -1.348   2.877  1.00  0.00    -0.353 OA
HETATM   31  C1  UNL     1      -3.262  -0.765   3.845  1.00  0.00     0.210 C 
ENDBRANCH   1  30
TORSDOF 6
