REMARK  2 active torsions:
REMARK  status: ('A' for Active; 'I' for Inactive)
REMARK    1  A    between atoms: C3_3  and  C4_4 
REMARK    2  A    between atoms: C7_7  and  C8_8 
ROOT
HETATM    1  C4  UNL     1       2.713   0.970  -0.147  1.00  0.00     0.033 C 
HETATM    2  C5  UNL     1       1.647   1.468  -0.884  1.00  0.00     0.030 C 
HETATM    3  C6  UNL     1       0.319   0.765  -0.986  1.00  0.00     0.013 C 
HETATM    4  C7  UNL     1      -0.080  -0.515  -0.769  1.00  0.00    -0.009 C 
HETATM    5  C15 UNL     1       0.284  -1.897  -0.743  1.00  0.00     0.088 C 
HETATM    6  C16 UNL     1       0.104  -2.717   0.517  1.00  0.00     0.105 C 
HETATM    7  N2  UNL     1       0.840  -1.847   1.127  1.00  0.00    -0.247 NA
HETATM    8  C17 UNL     1       1.882  -1.485   0.127  1.00  0.00     0.124 C 
HETATM    9  C18 UNL     1       1.695  -2.202  -1.020  1.00  0.00     0.038 C 
HETATM   10  N3  UNL     1       2.783  -0.379   0.517  1.00  0.00    -0.341 N 
HETATM   11  H15 UNL     1       3.394  -0.649   1.270  1.00  0.00     0.167 HD
ENDROOT
BRANCH   4  12
HETATM   12  C8  UNL     1      -1.541  -0.374  -0.428  1.00  0.00     0.106 A 
HETATM   13  N1  UNL     1      -2.317   0.804  -0.357  1.00  0.00    -0.240 NA
HETATM   14  C9  UNL     1      -3.569   0.476  -0.020  1.00  0.00     0.075 A 
HETATM   15  C10 UNL     1      -4.450   1.563   0.086  1.00  0.00     0.033 A 
HETATM   16  C14 UNL     1      -4.078  -0.774   0.230  1.00  0.00     0.035 A 
HETATM   17  C11 UNL     1      -5.771   1.290   0.435  1.00  0.00     0.002 A 
HETATM   18  C12 UNL     1      -6.302   0.042   0.689  1.00  0.00     0.002 A 
HETATM   19  C13 UNL     1      -5.366  -0.977   0.564  1.00  0.00     0.021 A 
HETATM   20  S1  UNL     1      -2.621  -1.711  -0.032  1.00  0.00    -0.068 SA
ENDBRANCH   4  12
BRANCH   1  21
HETATM   21  C3  UNL     1       3.874   1.702   0.092  1.00  0.00     0.025 C 
HETATM   22  C2  UNL     1       5.059   1.797   0.622  1.00  0.00    -0.029 C 
HETATM   23  C1  UNL     1       5.624   0.664   1.390  1.00  0.00     0.036 C 
ENDBRANCH   1  21
TORSDOF 2
