REMARK  8 active torsions:
REMARK  status: ('A' for Active; 'I' for Inactive)
REMARK    1  A    between atoms: O1_2  and  C2_3 
REMARK    2  A    between atoms: C8_12  and  O2_13 
REMARK    3  A    between atoms: O2_13  and  C9_14 
REMARK    4  A    between atoms: C9_14  and  C10_15 
REMARK    5  A    between atoms: C10_15  and  C11_16 
REMARK    6  A    between atoms: C11_16  and  N3_17 
REMARK    7  A    between atoms: N3_17  and  C12_18 
REMARK    8  A    between atoms: C12_18  and  C13_19 
ROOT
HETATM    1  C2  UNL     1       4.180  -1.091  -0.127  1.00  0.00     0.103 A 
HETATM    2  C3  UNL     1       5.414  -0.530  -0.319  1.00  0.00     0.073 A 
HETATM    3  C4  UNL     1       5.624   0.844  -0.148  1.00  0.00     0.088 A 
HETATM    4  N1  UNL     1       6.894   1.231  -0.375  1.00  0.00    -0.247 NA
HETATM    5  P1  UNL     1       7.136   2.919  -0.162  1.00  0.00     0.107 P 
HETATM    6  C5  UNL     1       5.675   3.734   0.300  1.00  0.00     0.153 A 
HETATM    7  N2  UNL     1       4.602   2.963   0.421  1.00  0.00    -0.256 NA
HETATM    8  C6  UNL     1       4.550   1.637   0.222  1.00  0.00     0.088 A 
HETATM    9  C7  UNL     1       3.307   1.030   0.408  1.00  0.00     0.073 A 
HETATM   10  C8  UNL     1       3.101  -0.318   0.241  1.00  0.00     0.104 A 
ENDROOT
BRANCH  10  11
HETATM   11  O2  UNL     1       1.835  -0.902   0.436  1.00  0.00    -0.348 OA
BRANCH  11  12
HETATM   12  C9  UNL     1       0.802  -0.010   0.811  1.00  0.00     0.177 C 
BRANCH  12  13
HETATM   13  C10 UNL     1      -0.517  -0.733   1.002  1.00  0.00     0.046 C 
BRANCH  13  14
HETATM   14  C11 UNL     1      -1.583   0.264   1.404  1.00  0.00     0.116 C 
BRANCH  14  15
HETATM   15  N3  UNL     1      -2.863  -0.282   1.621  1.00  0.00    -0.419 N 
HETATM   16  H13 UNL     1      -3.383   0.046   2.436  1.00  0.00     0.153 HD
BRANCH  15  17
HETATM   17  C12 UNL     1      -3.594  -0.797   0.530  1.00  0.00     0.149 C 
BRANCH  17  18
HETATM   18  C13 UNL     1      -4.075   0.188  -0.484  1.00  0.00     0.241 C 
HETATM   19  C14 UNL     1      -5.001   1.273   0.017  1.00  0.00     0.067 C 
HETATM   20  C15 UNL     1      -5.628   1.093  -1.372  1.00  0.00     0.274 C 
HETATM   21  N4  UNL     1      -5.183  -0.288  -1.290  1.00  0.00     0.090 N 
HETATM   22  C16 UNL     1      -6.171  -1.093  -0.641  1.00  0.00     0.310 C 
ENDBRANCH  17  18
ENDBRANCH  15  17
ENDBRANCH  14  15
ENDBRANCH  13  14
ENDBRANCH  12  13
ENDBRANCH  11  12
ENDBRANCH  10  11
BRANCH   1  23
HETATM   23  O1  UNL     1       3.996  -2.458  -0.302  1.00  0.00    -0.353 OA
HETATM   24  C1  UNL     1       5.069  -3.301  -0.678  1.00  0.00     0.210 C 
ENDBRANCH   1  23
TORSDOF 8
