REMARK  3 active torsions:
REMARK  status: ('A' for Active; 'I' for Inactive)
REMARK    1  A    between atoms: O1_2  and  C2_3 
REMARK    2  A    between atoms: C5_6  and  N1_7 
REMARK    3  A    between atoms: N1_7  and  C6_8 
ROOT
HETATM    1  C2  UNL     1       0.272   1.675   0.925  1.00  0.00     0.180 C 
HETATM    2  C3  UNL     1       0.916   0.566   0.523  1.00  0.00     0.081 C 
HETATM    3  C4  UNL     1       0.564  -0.695  -0.174  1.00  0.00     0.043 A 
HETATM    4  C5  UNL     1       1.534  -0.907  -1.125  1.00  0.00     0.141 A 
HETATM    5  N2  UNL     1       1.480  -1.991  -1.960  1.00  0.00    -0.224 NA
HETATM    6  C10 UNL     1       0.418  -2.832  -1.787  1.00  0.00     0.235 A 
HETATM    7  N3  UNL     1      -0.496  -2.575  -0.844  1.00  0.00    -0.241 NA
HETATM    8  C11 UNL     1      -0.503  -1.539   0.001  1.00  0.00     0.113 A 
HETATM    9  C12 UNL     1      -1.645  -1.587   0.894  1.00  0.00     0.506 C 
HETATM   10  N4  UNL     1      -2.740  -2.435   0.450  1.00  0.00     0.125 N 
HETATM   11  C13 UNL     1      -3.732  -2.174   1.506  1.00  0.00     0.303 C 
HETATM   12  C14 UNL     1      -3.285  -0.865   2.173  1.00  0.00     0.305 C 
HETATM   13  N5  UNL     1      -2.362  -0.362   1.128  1.00  0.00     0.130 N 
HETATM   14  C15 UNL     1      -3.276  -0.069   0.003  1.00  0.00     0.278 C 
HETATM   15  C16 UNL     1      -2.466   0.495  -1.157  1.00  0.00     0.057 C 
HETATM   16  C17 UNL     1      -1.664   1.706  -0.632  1.00  0.00     0.179 C 
HETATM   17  O2  UNL     1      -0.936   1.299   0.480  1.00  0.00    -0.331 OA
HETATM   18  H11 UNL     1      -2.471  -3.457   0.422  1.00  0.00     0.319 HD
ENDROOT
BRANCH   4  19
HETATM   19  N1  UNL     1       2.670  -0.095  -1.381  1.00  0.00    -0.349 N 
HETATM   20  H5  UNL     1       2.797   0.715  -2.025  1.00  0.00     0.167 HD
BRANCH  19  21
HETATM   21  C6  UNL     1       3.846  -0.435  -0.637  1.00  0.00     0.101 C 
HETATM   22  C7  UNL     1       4.977   0.271  -0.648  1.00  0.00    -0.021 A 
HETATM   23  C8  UNL     1       6.359   0.650  -0.322  1.00  0.00     0.013 A 
HETATM   24  C9  UNL     1       5.703   1.426  -1.149  1.00  0.00     0.013 A 
ENDBRANCH  19  21
ENDBRANCH   4  19
BRANCH   1  25
HETATM   25  O1  UNL     1       0.814   2.764   1.575  1.00  0.00    -0.336 OA
HETATM   26  C1  UNL     1       1.535   3.714   0.813  1.00  0.00     0.212 C 
ENDBRANCH   1  25
TORSDOF 3
