REMARK  6 active torsions:
REMARK  status: ('A' for Active; 'I' for Inactive)
REMARK    1  A    between atoms: O1_2  and  C2_3 
REMARK    2  A    between atoms: C9_12  and  O2_13 
REMARK    3  A    between atoms: O2_13  and  C10_14 
REMARK    4  A    between atoms: C10_14  and  C11_15 
REMARK    5  A    between atoms: C11_15  and  C12_16 
REMARK    6  A    between atoms: C12_16  and  N3_17 
ROOT
HETATM    1  C2  UNL     1      -3.088  -1.320   0.266  1.00  0.00     0.102 A 
HETATM    2  C3  UNL     1      -4.457  -1.116   0.069  1.00  0.00     0.055 A 
HETATM    3  C4  UNL     1      -4.954   0.161  -0.090  1.00  0.00     0.013 A 
HETATM    4  C5  UNL     1      -6.295   0.463  -0.291  1.00  0.00     0.132 A 
HETATM    5  N1  UNL     1      -6.726   1.734  -0.441  1.00  0.00    -0.253 NA
HETATM    6  C6  UNL     1      -5.844   2.760  -0.398  1.00  0.00     0.233 A 
HETATM    7  N2  UNL     1      -4.539   2.486  -0.203  1.00  0.00    -0.241 NA
HETATM    8  C7  UNL     1      -4.092   1.227  -0.052  1.00  0.00     0.072 A 
HETATM    9  C8  UNL     1      -2.753   0.981   0.145  1.00  0.00     0.072 A 
HETATM   10  C9  UNL     1      -2.191  -0.245   0.308  1.00  0.00     0.104 A 
ENDROOT
BRANCH  10  11
HETATM   11  O2  UNL     1      -0.933  -0.680   0.506  1.00  0.00    -0.348 OA
BRANCH  11  12
HETATM   12  C10 UNL     1       0.295  -0.050   0.604  1.00  0.00     0.177 C 
BRANCH  12  13
HETATM   13  C11 UNL     1       0.646   0.661  -0.659  1.00  0.00     0.046 C 
BRANCH  13  14
HETATM   14  C12 UNL     1       1.982   1.356  -0.625  1.00  0.00     0.124 C 
BRANCH  14  15
HETATM   15  N3  UNL     1       3.100   0.465  -0.438  1.00  0.00    -0.387 N 
HETATM   16  C13 UNL     1       3.156  -0.957  -0.408  1.00  0.00     0.114 C 
HETATM   17  P1  UNL     1       4.404  -1.612   0.463  1.00  0.00     0.046 P 
HETATM   18  N4  UNL     1       5.528  -0.470   1.260  1.00  0.00    -0.284 NA
HETATM   19  C14 UNL     1       6.879  -0.494   0.757  1.00  0.00     0.116 C 
HETATM   20  C15 UNL     1       4.905   0.830   1.169  1.00  0.00     0.114 C 
HETATM   21  C16 UNL     1       4.427   1.089  -0.267  1.00  0.00     0.137 C 
ENDBRANCH  14  15
ENDBRANCH  13  14
ENDBRANCH  12  13
ENDBRANCH  11  12
ENDBRANCH  10  11
BRANCH   1  22
HETATM   22  O1  UNL     1      -2.728  -2.633   0.410  1.00  0.00    -0.353 OA
HETATM   23  C1  UNL     1      -3.629  -3.704   0.366  1.00  0.00     0.210 C 
ENDBRANCH   1  22
TORSDOF 6
