REMARK  4 active torsions:
REMARK  status: ('A' for Active; 'I' for Inactive)
REMARK    1  A    between atoms: N1_1  and  C1_2 
REMARK    2  A    between atoms: C1_2  and  C2_3 
REMARK    3  A    between atoms: C2_3  and  C5_7 
REMARK    4  A    between atoms: C10_12  and  C11_13 
ROOT
HETATM    1  C5  UNL     1      -1.784   0.685  -0.454  1.00  0.00    -0.013 A 
HETATM    2  C6  UNL     1      -3.006   1.350  -0.645  1.00  0.00     0.013 A 
HETATM    3  C7  UNL     1      -3.121   2.659  -1.053  1.00  0.00     0.001 A 
HETATM    4  C8  UNL     1      -1.978   3.376  -1.293  1.00  0.00     0.001 A 
HETATM    5  C9  UNL     1      -0.769   2.747  -1.112  1.00  0.00     0.015 A 
HETATM    6  C10 UNL     1      -0.678   1.434  -0.701  1.00  0.00     0.011 A 
ENDROOT
BRANCH   6   7
HETATM    7  C11 UNL     1       0.560   0.695  -0.438  1.00  0.00     0.110 A 
HETATM    8  N3  UNL     1       1.067  -0.238  -0.087  1.00  0.00    -0.240 NA
HETATM    9  C12 UNL     1       2.312  -0.606   0.048  1.00  0.00     0.075 A 
HETATM   10  C13 UNL     1       2.866  -1.789   0.495  1.00  0.00     0.036 A 
HETATM   11  C17 UNL     1       3.205   0.331  -0.310  1.00  0.00     0.038 A 
HETATM   12  C14 UNL     1       4.210  -1.953   0.553  1.00  0.00     0.044 A 
HETATM   13  C15 UNL     1       5.145  -0.991   0.185  1.00  0.00     0.117 A 
HETATM   14  F1  UNL     1       6.491  -1.098   0.218  1.00  0.00    -0.206 F 
HETATM   15  C16 UNL     1       4.618   0.222  -0.274  1.00  0.00     0.063 A 
HETATM   16  S1  UNL     1       2.144   1.661  -0.809  1.00  0.00    -0.067 SA
ENDBRANCH   6   7
BRANCH   1  17
HETATM   17  C2  UNL     1      -1.920  -0.687  -0.023  1.00  0.00     0.011 C 
HETATM   18  C3  UNL     1      -1.335  -1.784  -0.520  1.00  0.00     0.083 A 
HETATM   19  C4  UNL     1      -1.195  -3.228  -0.394  1.00  0.00     0.149 A 
HETATM   20  N2  UNL     1      -0.508  -2.552  -1.425  1.00  0.00    -0.257 NA
BRANCH  17  21
HETATM   21  C1  UNL     1      -2.842  -0.870   1.158  1.00  0.00     0.308 C 
BRANCH  21  22
HETATM   22  N1  UNL     1      -2.353  -0.111   2.292  1.00  0.00     0.082 N 
HETATM   23  H1  UNL     1      -2.502  -0.656   3.180  1.00  0.00     0.313 HD
HETATM   24  H2  UNL     1      -2.848   0.819   2.405  1.00  0.00     0.313 HD
ENDBRANCH  21  22
ENDBRANCH  17  21
ENDBRANCH   1  17
TORSDOF 4
