REMARK  7 active torsions:
REMARK  status: ('A' for Active; 'I' for Inactive)
REMARK    1  A    between atoms: C1_2  and  C2_3 
REMARK    2  A    between atoms: C4_5  and  N1_6 
REMARK    3  A    between atoms: N1_6  and  C5_7 
REMARK    4  A    between atoms: C7_10  and  C8_11 
REMARK    5  A    between atoms: C9_12  and  C10_13 
REMARK    6  A    between atoms: C10_13  and  C11_14 
REMARK    7  A    between atoms: C11_14  and  C12_15 
ROOT
HETATM    1  C5  UNL     1       3.216  -1.164  -1.611  1.00  0.00     0.168 C 
HETATM    2  N2  UNL     1       2.419  -0.943  -0.650  1.00  0.00    -0.228 NA
HETATM    3  C6  UNL     1       1.079  -1.327  -0.888  1.00  0.00     0.047 C 
HETATM    4  C7  UNL     1       0.073  -0.789  -0.178  1.00  0.00     0.027 C 
HETATM    5  C18 UNL     1       0.837  -2.355  -1.967  1.00  0.00     0.141 C 
HETATM    6  S1  UNL     1       2.309  -1.922  -2.986  1.00  0.00    -0.086 SA
ENDROOT
BRANCH   4   7
HETATM    7  C8  UNL     1      -1.311  -1.175  -0.412  1.00  0.00    -0.002 C 
HETATM    8  C9  UNL     1      -2.327  -0.678   0.254  1.00  0.00    -0.026 C 
BRANCH   8   9
HETATM    9  C10 UNL     1      -2.341   0.320   1.330  1.00  0.00     0.032 C 
BRANCH   9  10
HETATM   10  C11 UNL     1      -3.159   1.550   0.956  1.00  0.00     0.042 C 
BRANCH  10  11
HETATM   11  C12 UNL     1      -4.564   1.184   0.673  1.00  0.00    -0.058 A 
HETATM   12  C13 UNL     1      -4.951   0.845  -0.608  1.00  0.00     0.007 A 
HETATM   13  C14 UNL     1      -6.264   0.498  -0.893  1.00  0.00     0.001 A 
HETATM   14  C15 UNL     1      -7.144   0.512   0.157  1.00  0.00     0.000 A 
HETATM   15  C16 UNL     1      -6.768   0.850   1.446  1.00  0.00     0.001 A 
HETATM   16  C17 UNL     1      -5.470   1.193   1.733  1.00  0.00     0.007 A 
ENDBRANCH  10  11
ENDBRANCH   9  10
ENDBRANCH   8   9
ENDBRANCH   4   7
BRANCH   1  17
HETATM   17  N1  UNL     1       4.629  -0.864  -1.618  1.00  0.00    -0.323 N 
HETATM   18  H3  UNL     1       5.166  -1.014  -2.500  1.00  0.00     0.169 HD
BRANCH  17  19
HETATM   19  C4  UNL     1       5.270  -0.371  -0.426  1.00  0.00     0.113 A 
HETATM   20  C3  UNL     1       6.477   0.483  -0.576  1.00  0.00     0.142 A 
HETATM   21  C2  UNL     1       6.957   0.867   0.768  1.00  0.00     0.097 A 
HETATM   22  N4  UNL     1       6.302   0.440   1.978  1.00  0.00    -0.242 NA
HETATM   23  C19 UNL     1       5.249  -0.310   1.928  1.00  0.00     0.235 A 
HETATM   24  N3  UNL     1       4.696  -0.743   0.690  1.00  0.00    -0.228 NA
BRANCH  21  25
HETATM   25  C1  UNL     1       8.026   1.631   0.888  1.00  0.00     0.248 C 
HETATM   26  O1  UNL     1       8.776   2.618   1.079  1.00  0.00    -0.282 OA
ENDBRANCH  21  25
ENDBRANCH  17  19
ENDBRANCH   1  17
TORSDOF 7
