REMARK  2 active torsions:
REMARK  status: ('A' for Active; 'I' for Inactive)
REMARK    1  A    between atoms: C2_2  and  C3_3 
REMARK    2  A    between atoms: C18_22  and  O1_23 
ROOT
HETATM    1  C3  UNL     1      -3.059   1.821  -0.328  1.00  0.00     0.083 C 
HETATM    2  C4  UNL     1      -3.622   0.728  -0.812  1.00  0.00     0.125 C 
HETATM    3  N1  UNL     1      -3.079  -0.521  -1.194  1.00  0.00    -0.358 N 
HETATM    4  C5  UNL     1      -2.615  -1.468  -0.236  1.00  0.00     0.200 C 
HETATM    5  N2  UNL     1      -2.268  -2.381   0.594  1.00  0.00    -0.281 NA
HETATM    6  C6  UNL     1      -3.028  -3.627   0.582  1.00  0.00     0.177 C 
HETATM    7  C7  UNL     1      -2.156  -4.800   0.360  1.00  0.00    -0.006 C 
HETATM    8  C8  UNL     1      -0.925  -5.222   0.162  1.00  0.00    -0.006 C 
HETATM    9  C9  UNL     1       0.345  -4.544   0.063  1.00  0.00    -0.014 C 
HETATM   10  C10 UNL     1       1.295  -3.685   0.022  1.00  0.00     0.081 C 
HETATM   11  C11 UNL     1       1.892  -2.399   0.067  1.00  0.00     0.085 A 
HETATM   12  N3  UNL     1       1.883  -1.149   0.005  1.00  0.00    -0.243 NA
HETATM   13  C12 UNL     1       3.044  -0.585   0.194  1.00  0.00     0.087 A 
HETATM   14  C13 UNL     1       2.976   0.786   0.117  1.00  0.00     0.027 A 
HETATM   15  C14 UNL     1       4.107   1.539   0.293  1.00  0.00     0.017 A 
HETATM   16  C15 UNL     1       5.349   1.001   0.551  1.00  0.00     0.002 A 
HETATM   17  C16 UNL     1       5.389  -0.374   0.623  1.00  0.00     0.021 A 
HETATM   18  C17 UNL     1       4.275  -1.130   0.450  1.00  0.00     0.036 A 
HETATM   19  S1  UNL     1       3.702  -2.826   0.426  1.00  0.00    -0.072 SA
HETATM   20  C18 UNL     1       1.845   1.663  -0.121  1.00  0.00     0.079 C 
HETATM   21  C20 UNL     1       0.583   1.874   0.188  1.00  0.00     0.037 C 
HETATM   22  C21 UNL     1      -0.760   2.495   0.220  1.00  0.00     0.206 C 
HETATM   23  O2  UNL     1      -1.721   1.585  -0.221  1.00  0.00    -0.346 OA
HETATM   24  H5  UNL     1      -2.908  -0.985  -2.108  1.00  0.00     0.166 HD
ENDROOT
BRANCH   1  25
HETATM   25  C2  UNL     1      -3.932   2.923  -0.048  1.00  0.00     0.028 C 
HETATM   26  C1  UNL     1      -3.518   4.076   0.435  1.00  0.00     0.014 C 
ENDBRANCH   1  25
BRANCH  20  27
HETATM   27  O1  UNL     1       1.762   2.767  -0.916  1.00  0.00    -0.355 OA
HETATM   28  C19 UNL     1       1.805   4.124  -0.577  1.00  0.00     0.210 C 
ENDBRANCH  20  27
TORSDOF 2
