REMARK  0 active torsions:
REMARK  status: ('A' for Active; 'I' for Inactive)
ROOT
HETATM    1  C1  UNL     1      -2.386   2.302   1.516  1.00  0.00     0.049 C 
HETATM    2  C2  UNL     1      -1.436   1.392   0.831  1.00  0.00    -0.044 C 
HETATM    3  C3  UNL     1      -0.391   1.975   0.319  1.00  0.00     0.027 C 
HETATM    4  C4  UNL     1       0.811   2.472  -0.298  1.00  0.00     0.118 C 
HETATM    5  N1  UNL     1       1.883   2.263  -0.943  1.00  0.00    -0.255 NA
HETATM    6  C5  UNL     1       2.832   3.178  -1.353  1.00  0.00     0.228 C 
HETATM    7  N2  UNL     1       3.884   2.616  -0.794  1.00  0.00    -0.264 NA
HETATM    8  C6  UNL     1       3.623   1.368  -0.038  1.00  0.00     0.272 C 
HETATM    9  N3  UNL     1       3.346   0.279  -0.922  1.00  0.00    -0.372 N 
HETATM   10  C7  UNL     1       2.313  -0.557  -0.358  1.00  0.00     0.029 A 
HETATM   11  C8  UNL     1       2.133  -0.723   0.993  1.00  0.00     0.030 A 
HETATM   12  C9  UNL     1       1.043  -1.452   1.399  1.00  0.00     0.011 A 
HETATM   13  C10 UNL     1       0.207  -1.967   0.438  1.00  0.00    -0.040 A 
HETATM   14  C11 UNL     1       0.381  -1.811  -0.913  1.00  0.00     0.011 A 
HETATM   15  C12 UNL     1       1.474  -1.080  -1.316  1.00  0.00     0.030 A 
HETATM   16  C13 UNL     1      -0.974  -2.655   1.081  1.00  0.00     0.107 C 
HETATM   17  C14 UNL     1      -1.767  -3.339   0.068  1.00  0.00    -0.010 C 
HETATM   18  C15 UNL     1      -2.607  -2.619  -0.693  1.00  0.00    -0.025 C 
HETATM   19  C16 UNL     1      -3.168  -1.309  -0.995  1.00  0.00     0.055 C 
HETATM   20  C17 UNL     1      -2.745  -0.183  -0.151  1.00  0.00    -0.004 C 
HETATM   21  C18 UNL     1      -1.976   0.026   0.937  1.00  0.00     0.004 C 
HETATM   22  S1  UNL     1      -1.921  -1.426   2.033  1.00  0.00    -0.116 SA
HETATM   23  H9  UNL     1       3.803   0.100  -1.828  1.00  0.00     0.161 HD
ENDROOT
TORSDOF 0
