REMARK  1 active torsions:
REMARK  status: ('A' for Active; 'I' for Inactive)
REMARK    1  A    between atoms: O1_2  and  C2_3 
ROOT
HETATM    1  C2  UNL     1      -2.273  -0.186   0.334  1.00  0.00     0.085 C 
HETATM    2  C3  UNL     1      -2.073   0.492   1.542  1.00  0.00     0.037 C 
HETATM    3  C4  UNL     1      -0.925   1.481   1.443  1.00  0.00     0.036 C 
HETATM    4  C5  UNL     1      -0.402   1.508   0.302  1.00  0.00     0.085 A 
HETATM    5  C6  UNL     1      -0.605   0.819  -0.932  1.00  0.00     0.104 A 
HETATM    6  N1  UNL     1      -0.348   0.770  -2.155  1.00  0.00    -0.240 NA
HETATM    7  C7  UNL     1       0.562   1.787  -2.679  1.00  0.00     0.256 A 
HETATM    8  N2  UNL     1       0.938   2.570  -1.675  1.00  0.00    -0.161 NA
HETATM    9  N3  UNL     1       0.439   2.342  -0.396  1.00  0.00    -0.242 N 
HETATM   10  C8  UNL     1       1.323   3.086   0.448  1.00  0.00     0.116 C 
HETATM   11  C9  UNL     1       2.033   1.998   0.828  1.00  0.00     0.012 C 
HETATM   12  C10 UNL     1       2.326   0.583   0.821  1.00  0.00     0.145 C 
HETATM   13  N4  UNL     1       1.666  -0.435   0.201  1.00  0.00    -0.406 N 
HETATM   14  C11 UNL     1       1.870  -0.856  -1.146  1.00  0.00     0.147 C 
HETATM   15  C12 UNL     1       0.643  -1.454  -1.779  1.00  0.00     0.293 C 
HETATM   16  N5  UNL     1      -0.495  -1.623  -0.856  1.00  0.00     0.108 NA
HETATM   17  C13 UNL     1       0.227  -2.397   0.221  1.00  0.00     0.293 C 
HETATM   18  C14 UNL     1       1.208  -1.565   0.996  1.00  0.00     0.147 C 
HETATM   19  C15 UNL     1      -1.013  -0.483  -0.261  1.00  0.00     0.333 C 
ENDROOT
BRANCH   1  20
HETATM   20  O1  UNL     1      -3.651  -0.302   0.193  1.00  0.00    -0.358 OA
HETATM   21  C1  UNL     1      -4.445  -0.986   1.143  1.00  0.00     0.209 C 
ENDBRANCH   1  20
TORSDOF 1
