REMARK  6 active torsions:
REMARK  status: ('A' for Active; 'I' for Inactive)
REMARK    1  A    between atoms: C4_4  and  C5_5 
REMARK    2  A    between atoms: C5_5  and  O1_6 
REMARK    3  A    between atoms: O1_6  and  C6_7 
REMARK    4  A    between atoms: C10_13  and  N3_14 
REMARK    5  A    between atoms: N3_14  and  C11_15 
REMARK    6  A    between atoms: C19_24  and  O2_25 
ROOT
HETATM    1  C6  UNL     1      -0.378  -0.398   0.006  1.00  0.00     0.104 A 
HETATM    2  C7  UNL     1       0.294  -0.737  -1.163  1.00  0.00     0.072 A 
HETATM    3  C8  UNL     1       1.661  -0.532  -1.265  1.00  0.00     0.075 A 
HETATM    4  N1  UNL     1       2.321  -0.857  -2.391  1.00  0.00    -0.241 NA
HETATM    5  C9  UNL     1       3.645  -0.639  -2.442  1.00  0.00     0.236 A 
HETATM    6  N2  UNL     1       4.321  -0.102  -1.384  1.00  0.00    -0.224 NA
HETATM    7  C10 UNL     1       3.665   0.224  -0.258  1.00  0.00     0.142 A 
HETATM    8  C17 UNL     1       2.309   0.016  -0.168  1.00  0.00     0.042 A 
HETATM    9  C18 UNL     1       1.636   0.348   0.983  1.00  0.00     0.057 A 
HETATM   10  C19 UNL     1       0.272   0.143   1.086  1.00  0.00     0.102 A 
ENDROOT
BRANCH   1  11
HETATM   11  O1  UNL     1      -1.765  -0.618   0.081  1.00  0.00    -0.346 OA
BRANCH  11  12
HETATM   12  C5  UNL     1      -2.487  -1.166  -0.984  1.00  0.00     0.217 C 
BRANCH  12  13
HETATM   13  C4  UNL     1      -3.966  -1.323  -0.708  1.00  0.00     0.293 C 
HETATM   14  C3  UNL     1      -4.654  -0.074  -0.353  1.00  0.00     0.038 C 
HETATM   15  C2  UNL     1      -4.486   1.163  -0.791  1.00  0.00    -0.004 C 
HETATM   16  N6  UNL     1      -5.701  -0.237   0.639  1.00  0.00    -0.385 N 
HETATM   17  C1  UNL     1      -3.500   1.595  -1.806  1.00  0.00     0.038 C 
HETATM   18  C22 UNL     1      -6.407  -1.512   0.812  1.00  0.00     0.152 C 
HETATM   19  C23 UNL     1      -6.113   0.856   1.515  1.00  0.00     0.149 C 
HETATM   20  C21 UNL     1      -5.501  -2.667   0.427  1.00  0.00     0.290 C 
HETATM   21  N5  UNL     1      -4.096  -2.226   0.451  1.00  0.00     0.097 N 
HETATM   22  H19 UNL     1      -3.536  -3.085   0.268  1.00  0.00     0.317 HD
ENDBRANCH  12  13
ENDBRANCH  11  12
ENDBRANCH   1  11
BRANCH  10  23
HETATM   23  O2  UNL     1      -0.429   0.464   2.221  1.00  0.00    -0.353 OA
HETATM   24  C20 UNL     1       0.233   1.028   3.353  1.00  0.00     0.210 C 
ENDBRANCH  10  23
BRANCH   7  25
HETATM   25  N3  UNL     1       4.439   0.770   0.777  1.00  0.00    -0.338 N 
HETATM   26  H10 UNL     1       4.179   1.098   1.731  1.00  0.00     0.167 HD
BRANCH  25  27
HETATM   27  C11 UNL     1       5.836   0.950   0.596  1.00  0.00     0.064 A 
HETATM   28  C12 UNL     1       6.470   2.066   0.920  1.00  0.00     0.108 A 
HETATM   29  N4  UNL     1       7.247   3.231   1.238  1.00  0.00    -0.246 NA
HETATM   30  C13 UNL     1       7.904   2.241   0.731  1.00  0.00     0.069 A 
HETATM   31  C14 UNL     1       8.733   1.174   0.163  1.00  0.00     0.089 A 
HETATM   32  C15 UNL     1       7.924  -0.030  -0.164  1.00  0.00    -0.018 A 
HETATM   33  C16 UNL     1       6.636  -0.144   0.023  1.00  0.00     0.028 A 
ENDBRANCH  25  27
ENDBRANCH   7  25
TORSDOF 6
