REMARK  4 active torsions:
REMARK  status: ('A' for Active; 'I' for Inactive)
REMARK    1  A    between atoms: N1_2  and  C2_3 
REMARK    2  A    between atoms: C2_3  and  N2_4 
REMARK    3  A    between atoms: N2_4  and  C3_5 
REMARK    4  A    between atoms: C6_8  and  C7_9 
ROOT
HETATM    1  C3  UNL     1      -2.624  -0.092  -0.250  1.00  0.00     0.029 A 
HETATM    2  C4  UNL     1      -2.000   0.611  -1.285  1.00  0.00     0.030 A 
HETATM    3  C5  UNL     1      -0.610   0.725  -1.313  1.00  0.00     0.016 A 
HETATM    4  C6  UNL     1       0.094   0.124  -0.292  1.00  0.00    -0.000 A 
HETATM    5  C14 UNL     1      -0.505  -0.572   0.736  1.00  0.00     0.016 A 
HETATM    6  C15 UNL     1      -1.900  -0.699   0.783  1.00  0.00     0.030 A 
ENDROOT
BRANCH   4   7
HETATM    7  C7  UNL     1       1.525   0.146  -0.170  1.00  0.00     0.109 A 
HETATM    8  N3  UNL     1       2.420  -0.295   0.622  1.00  0.00    -0.240 NA
HETATM    9  C8  UNL     1       3.697  -0.042   0.363  1.00  0.00     0.076 A 
HETATM   10  C9  UNL     1       4.731  -0.480   1.165  1.00  0.00     0.057 A 
HETATM   11  C13 UNL     1       4.146   0.732  -0.803  1.00  0.00     0.036 A 
HETATM   12  C10 UNL     1       6.028  -0.192   0.853  1.00  0.00     0.036 A 
HETATM   13 CL1  UNL     1       7.380  -0.740   1.863  1.00  0.00    -0.084 Cl
HETATM   14  C11 UNL     1       6.419   0.538  -0.250  1.00  0.00     0.025 A 
HETATM   15  C12 UNL     1       5.427   0.992  -1.072  1.00  0.00     0.023 A 
HETATM   16  S1  UNL     1       2.472   1.077  -1.528  1.00  0.00    -0.068 SA
ENDBRANCH   4   7
BRANCH   1  17
HETATM   17  N2  UNL     1      -4.054  -0.234  -0.183  1.00  0.00    -0.372 N 
HETATM   18  H5  UNL     1      -4.602   0.227  -0.967  1.00  0.00     0.161 HD
BRANCH  17  19
HETATM   19  C2  UNL     1      -4.724  -0.954   0.875  1.00  0.00     0.269 C 
BRANCH  19  20
HETATM   20  N1  UNL     1      -6.130  -0.904   0.643  1.00  0.00    -0.293 NA
HETATM   21  C1  UNL     1      -6.757   0.124   0.232  1.00  0.00     0.144 C 
ENDBRANCH  19  20
ENDBRANCH  17  19
ENDBRANCH   1  17
TORSDOF 4
