REMARK  5 active torsions:
REMARK  status: ('A' for Active; 'I' for Inactive)
REMARK    1  A    between atoms: O1_2  and  C2_3 
REMARK    2  A    between atoms: C2_3  and  N1_4 
REMARK    3  A    between atoms: N1_4  and  C3_5 
REMARK    4  A    between atoms: C11_15  and  C12_16 
REMARK    5  A    between atoms: C13_17  and  C14_18 
ROOT
HETATM    1  C3  UNL     1      -2.648   0.673  -0.085  1.00  0.00     0.134 A 
HETATM    2  C4  UNL     1      -2.139   0.875  -1.335  1.00  0.00     0.079 A 
HETATM    3  C5  UNL     1      -3.428   0.217  -1.286  1.00  0.00     0.141 A 
HETATM    4  N2  UNL     1      -2.837   0.465  -2.340  1.00  0.00    -0.353 N 
HETATM    5  C6  UNL     1      -3.025   0.299  -3.682  1.00  0.00     0.199 C 
HETATM    6  N3  UNL     1      -2.930  -0.906  -3.894  1.00  0.00    -0.284 NA
HETATM    7  C7  UNL     1      -2.702  -2.098  -3.217  1.00  0.00     0.155 C 
HETATM    8  C8  UNL     1      -1.557  -2.213  -2.311  1.00  0.00     0.021 C 
HETATM    9  C9  UNL     1      -0.692  -1.243  -1.964  1.00  0.00     0.029 C 
HETATM   10  C10 UNL     1       0.435  -0.571  -1.332  1.00  0.00    -0.075 C 
HETATM   11  C11 UNL     1       1.439  -0.882  -0.519  1.00  0.00     0.003 C 
HETATM   12  C21 UNL     1       0.334   0.829  -1.828  1.00  0.00     0.037 C 
HETATM   13  C22 UNL     1      -0.861   1.533  -1.249  1.00  0.00     0.040 C 
ENDROOT
BRANCH  11  14
HETATM   14  C12 UNL     1       1.932  -2.058   0.160  1.00  0.00     0.003 C 
HETATM   15  C13 UNL     1       2.953  -2.289   0.963  1.00  0.00     0.039 C 
BRANCH  15  16
HETATM   16  C14 UNL     1       3.834  -1.249   1.317  1.00  0.00     0.099 A 
HETATM   17  N4  UNL     1       3.998   0.028   1.085  1.00  0.00    -0.240 NA
HETATM   18  C15 UNL     1       5.031   0.620   1.673  1.00  0.00     0.076 A 
HETATM   19  C16 UNL     1       5.255   1.966   1.467  1.00  0.00     0.057 A 
HETATM   20  C20 UNL     1       5.998  -0.022   2.550  1.00  0.00     0.036 A 
HETATM   21  C17 UNL     1       6.314   2.617   2.057  1.00  0.00     0.036 A 
HETATM   22 CL1  UNL     1       6.686   4.322   1.860  1.00  0.00    -0.084 Cl
HETATM   23  C18 UNL     1       7.213   1.977   2.884  1.00  0.00     0.025 A 
HETATM   24  C19 UNL     1       7.045   0.635   3.130  1.00  0.00     0.023 A 
HETATM   25  S1  UNL     1       5.259  -1.722   2.480  1.00  0.00    -0.068 SA
ENDBRANCH  15  16
ENDBRANCH  11  14
BRANCH   1  26
HETATM   26  N1  UNL     1      -3.833   0.092   0.508  1.00  0.00    -0.393 N 
HETATM   27  H6  UNL     1      -3.717  -0.960   0.560  1.00  0.00     0.155 HD
BRANCH  26  28
HETATM   28  C2  UNL     1      -4.885   0.995   0.888  1.00  0.00     0.285 C 
BRANCH  28  29
HETATM   29  O1  UNL     1      -5.951   0.307   1.454  1.00  0.00    -0.377 OA
HETATM   30  C1  UNL     1      -5.524  -0.353   2.588  1.00  0.00     0.203 C 
ENDBRANCH  28  29
ENDBRANCH  26  28
ENDBRANCH   1  26
TORSDOF 5
