REMARK  5 active torsions:
REMARK  status: ('A' for Active; 'I' for Inactive)
REMARK    1  A    between atoms: C3_3  and  C4_4 
REMARK    2  A    between atoms: C4_4  and  C5_5 
REMARK    3  A    between atoms: C5_5  and  O1_6 
REMARK    4  A    between atoms: O1_6  and  C6_7 
REMARK    5  A    between atoms: C12_14  and  C13_15 
ROOT
HETATM    1  C6  UNL     1      -0.411   1.257  -1.500  1.00  0.00     0.330 A 
HETATM    2  C7  UNL     1      -0.032   2.285  -2.374  1.00  0.00     0.335 A 
HETATM    3  C8  UNL     1       1.444   2.549  -2.306  1.00  0.00     0.163 A 
HETATM    4  N1  UNL     1       0.668   1.849  -1.821  1.00  0.00     0.049 N 
HETATM    5  C9  UNL     1       0.901   0.926  -0.926  1.00  0.00     0.192 A 
HETATM    6  C10 UNL     1       1.935   0.445  -0.273  1.00  0.00     0.050 C 
HETATM    7  C11 UNL     1       3.287   1.033  -0.403  1.00  0.00    -0.031 C 
HETATM    8  C12 UNL     1       4.011   0.488   0.458  1.00  0.00     0.050 C 
HETATM    9  C20 UNL     1       3.691   2.058  -1.358  1.00  0.00     0.013 C 
HETATM   10  C21 UNL     1       2.866   2.719  -2.161  1.00  0.00     0.037 C 
ENDROOT
BRANCH   1  11
HETATM   11  O1  UNL     1      -1.190   0.357  -0.826  1.00  0.00    -0.346 OA
BRANCH  11  12
HETATM   12  C5  UNL     1      -2.426  -0.184  -1.303  1.00  0.00     0.173 C 
BRANCH  12  13
HETATM   13  C4  UNL     1      -3.397  -0.324  -0.160  1.00  0.00     0.053 C 
BRANCH  13  14
HETATM   14  C3  UNL     1      -4.715  -0.887  -0.672  1.00  0.00     0.111 C 
HETATM   15  C2  UNL     1      -5.698  -1.041   0.422  1.00  0.00     0.240 C 
HETATM   16  C1  UNL     1      -6.832  -0.016   0.339  1.00  0.00     0.045 C 
HETATM   17  N4  UNL     1      -6.269  -2.325   0.598  1.00  0.00     0.092 N 
HETATM   18  C23 UNL     1      -6.318  -3.142  -0.574  1.00  0.00     0.291 C 
HETATM   19  C24 UNL     1      -5.718  -3.023   1.741  1.00  0.00     0.310 C 
HETATM   20  C22 UNL     1      -4.882  -3.283  -1.053  1.00  0.00     0.144 C 
HETATM   21  N3  UNL     1      -4.449  -1.993  -1.507  1.00  0.00    -0.413 N 
HETATM   22  H18 UNL     1      -4.615  -1.833  -2.524  1.00  0.00     0.153 HD
ENDBRANCH  13  14
ENDBRANCH  12  13
ENDBRANCH  11  12
ENDBRANCH   1  11
BRANCH   8  23
HETATM   23  C13 UNL     1       5.353   0.573   0.873  1.00  0.00     0.099 A 
HETATM   24  N2  UNL     1       6.366   0.093   1.265  1.00  0.00    -0.240 NA
HETATM   25  C14 UNL     1       7.479   0.748   1.535  1.00  0.00     0.075 A 
HETATM   26  C15 UNL     1       8.642   0.118   1.998  1.00  0.00     0.035 A 
HETATM   27  C19 UNL     1       7.557   2.143   1.369  1.00  0.00     0.037 A 
HETATM   28  C16 UNL     1       9.725   0.914   2.240  1.00  0.00     0.026 A 
HETATM   29  C17 UNL     1       9.805   2.294   2.077  1.00  0.00     0.035 A 
HETATM   30 CL1  UNL     1      11.163   3.345   2.375  1.00  0.00    -0.084 Cl
HETATM   31  C18 UNL     1       8.663   2.915   1.622  1.00  0.00     0.045 A 
HETATM   32  S1  UNL     1       5.826   2.434   0.770  1.00  0.00    -0.068 SA
ENDBRANCH   8  23
TORSDOF 5
