REMARK  4 active torsions:
REMARK  status: ('A' for Active; 'I' for Inactive)
REMARK    1  A    between atoms: C2_2  and  C3_3 
REMARK    2  A    between atoms: C6_8  and  C7_9 
REMARK    3  A    between atoms: C12_14  and  C13_15 
REMARK    4  A    between atoms: C13_15  and  S1_16 
ROOT
HETATM    1  C7  UNL     1      -1.369   0.793  -0.560  1.00  0.00     0.076 C 
HETATM    2  C8  UNL     1      -0.391   2.002  -0.125  1.00  0.00     0.042 C 
HETATM    3  C9  UNL     1       0.853   1.630  -0.912  1.00  0.00    -0.029 C 
HETATM    4  C10 UNL     1       2.075   1.235  -0.560  1.00  0.00    -0.025 C 
HETATM    5  C11 UNL     1       3.174   0.864   0.354  1.00  0.00     0.082 C 
HETATM    6  C12 UNL     1       3.557  -0.606   0.201  1.00  0.00     0.025 C 
HETATM    7  N3  UNL     1       2.814  -1.659  -0.216  1.00  0.00    -0.257 NA
HETATM    8  C14 UNL     1       1.443  -1.321  -0.561  1.00  0.00     0.058 A 
HETATM    9  C15 UNL     1       1.269  -1.263  -1.899  1.00  0.00     0.032 A 
HETATM   10  C16 UNL     1       0.078  -0.639  -1.647  1.00  0.00     0.012 A 
HETATM   11  C17 UNL     1      -0.399  -0.364  -0.410  1.00  0.00    -0.026 A 
HETATM   12  C18 UNL     1      -0.261  -0.416   0.928  1.00  0.00     0.043 A 
HETATM   13 CL1  UNL     1      -1.082   0.012   2.356  1.00  0.00    -0.084 Cl
HETATM   14  C19 UNL     1       0.940  -1.040   0.676  1.00  0.00     0.056 A 
ENDROOT
BRANCH   1  15
HETATM   15  C6  UNL     1      -2.498   0.854   0.268  1.00  0.00     0.056 A 
HETATM   16  C3  UNL     1      -3.407  -0.173   0.191  1.00  0.00     0.006 A 
HETATM   17  C4  UNL     1      -4.591  -0.270   0.890  1.00  0.00     0.131 A 
HETATM   18  N1  UNL     1      -4.863   0.757   1.726  1.00  0.00    -0.253 NA
HETATM   19  C5  UNL     1      -3.977   1.788   1.820  1.00  0.00     0.232 A 
HETATM   20  N2  UNL     1      -2.827   1.853   1.123  1.00  0.00    -0.245 NA
BRANCH  16  21
HETATM   21  C2  UNL     1      -3.108  -1.263  -0.699  1.00  0.00     0.005 C 
HETATM   22  C1  UNL     1      -3.930  -2.281  -0.818  1.00  0.00     0.012 C 
ENDBRANCH  16  21
ENDBRANCH   1  15
BRANCH   6  23
HETATM   23  C13 UNL     1       4.915  -0.968   0.688  1.00  0.00     0.125 C 
BRANCH  23  24
HETATM   24  S1  UNL     1       6.191  -0.018  -0.222  1.00  0.00    -0.176 SA
HETATM   25  H15 UNL     1       6.203   1.287   0.301  1.00  0.00     0.102 HD
ENDBRANCH  23  24
ENDBRANCH   6  23
TORSDOF 4
