REMARK  5 active torsions:
REMARK  status: ('A' for Active; 'I' for Inactive)
REMARK    1  A    between atoms: C1_2  and  C2_3 
REMARK    2  A    between atoms: C5_6  and  C6_7 
REMARK    3  A    between atoms: C6_7  and  C7_8 
REMARK    4  A    between atoms: C8_9  and  C9_10 
REMARK    5  A    between atoms: C9_10  and  C10_11 
ROOT
HETATM    1  C7  UNL     1       0.642  -1.867  -0.283  1.00  0.00    -0.026 C 
HETATM    2  C8  UNL     1      -0.260  -2.511   0.425  1.00  0.00    -0.024 C 
ENDROOT
BRANCH   2   3
HETATM    3  C9  UNL     1      -1.667  -2.455   0.883  1.00  0.00     0.094 C 
BRANCH   3   4
HETATM    4  C10 UNL     1      -2.439  -1.327   0.466  1.00  0.00     0.080 A 
HETATM    5  N2  UNL     1      -3.236  -1.032  -0.609  1.00  0.00    -0.245 NA
HETATM    6  C11 UNL     1      -3.753   0.195  -0.537  1.00  0.00     0.074 A 
HETATM    7  C12 UNL     1      -4.587   0.610  -1.582  1.00  0.00     0.033 A 
HETATM    8  C16 UNL     1      -3.566   1.166   0.488  1.00  0.00     0.035 A 
HETATM    9  C13 UNL     1      -5.149   1.849  -1.574  1.00  0.00     0.002 A 
HETATM   10  C14 UNL     1      -4.960   2.780  -0.576  1.00  0.00     0.002 A 
HETATM   11  C15 UNL     1      -4.141   2.384   0.458  1.00  0.00     0.021 A 
HETATM   12  S1  UNL     1      -2.468   0.222   1.568  1.00  0.00    -0.072 SA
ENDBRANCH   3   4
ENDBRANCH   2   3
BRANCH   1  13
HETATM   13  C6  UNL     1       2.085  -2.169  -0.603  1.00  0.00     0.065 C 
BRANCH  13  14
HETATM   14  C5  UNL     1       2.954  -1.055  -0.081  1.00  0.00    -0.058 A 
HETATM   15  C4  UNL     1       2.945  -0.765   1.352  1.00  0.00     0.004 A 
HETATM   16  C3  UNL     1       3.781   0.240   1.536  1.00  0.00    -0.012 A 
HETATM   17  C2  UNL     1       4.396   0.685   0.263  1.00  0.00     0.071 A 
HETATM   18  C17 UNL     1       3.778  -0.237  -0.725  1.00  0.00    -0.006 A 
BRANCH  17  19
HETATM   19  C1  UNL     1       4.014   2.105  -0.061  1.00  0.00     0.092 C 
HETATM   20  N1  UNL     1       4.801   2.657  -0.930  1.00  0.00    -0.315 NA
HETATM   21  H1  UNL     1       5.605   2.179  -1.359  1.00  0.00     0.185 HD
ENDBRANCH  17  19
ENDBRANCH  13  14
ENDBRANCH   1  13
TORSDOF 5
