REMARK  6 active torsions:
REMARK  status: ('A' for Active; 'I' for Inactive)
REMARK    1  A    between atoms: O1_2  and  C2_3 
REMARK    2  A    between atoms: C4_5  and  N1_6 
REMARK    3  A    between atoms: N1_6  and  C6_8 
REMARK    4  A    between atoms: C9_13  and  C10_14 
REMARK    5  A    between atoms: C10_14  and  O2_15 
REMARK    6  A    between atoms: C13_18  and  C14_19 
ROOT
HETATM    1  C2  UNL     1       0.395   0.066   0.497  1.00  0.00     0.083 A 
HETATM    2  C3  UNL     1      -0.932  -0.203   0.243  1.00  0.00     0.067 A 
HETATM    3  C4  UNL     1      -1.375  -0.981  -0.805  1.00  0.00     0.038 A 
HETATM    4  C11 UNL     1      -0.403  -1.507  -1.631  1.00  0.00     0.031 A 
HETATM    5  C12 UNL     1       0.940  -1.272  -1.426  1.00  0.00     0.019 A 
HETATM    6  C13 UNL     1       1.330  -0.486  -0.362  1.00  0.00     0.033 A 
ENDROOT
BRANCH   3   7
HETATM    7  N1  UNL     1      -2.768  -1.229  -1.025  1.00  0.00    -0.335 N 
HETATM    8  C5  UNL     1      -3.133  -2.066  -2.163  1.00  0.00     0.158 C 
BRANCH   7   9
HETATM    9  C6  UNL     1      -3.693  -0.640  -0.118  1.00  0.00     0.141 A 
HETATM   10  N2  UNL     1      -3.564  -1.084   1.158  1.00  0.00    -0.224 NA
HETATM   11  C7  UNL     1      -4.385  -0.614   2.137  1.00  0.00     0.234 A 
HETATM   12  N3  UNL     1      -5.353   0.303   1.882  1.00  0.00    -0.253 NA
HETATM   13  C8  UNL     1      -5.478   0.741   0.610  1.00  0.00     0.131 A 
HETATM   14  C9  UNL     1      -4.661   0.291  -0.428  1.00  0.00     0.029 A 
BRANCH  14  15
HETATM   15  C10 UNL     1      -4.751   0.742  -1.830  1.00  0.00     0.208 C 
BRANCH  15  16
HETATM   16  O2  UNL     1      -3.690   1.633  -2.040  1.00  0.00    -0.396 OA
HETATM   17  H12 UNL     1      -3.789   2.318  -1.325  1.00  0.00     0.209 HD
ENDBRANCH  15  16
ENDBRANCH  14  15
ENDBRANCH   7   9
ENDBRANCH   3   7
BRANCH   1  18
HETATM   18  O1  UNL     1       0.870   0.844   1.542  1.00  0.00    -0.355 OA
HETATM   19  C1  UNL     1       0.091   1.479   2.504  1.00  0.00     0.210 C 
ENDBRANCH   1  18
BRANCH   6  20
HETATM   20  C14 UNL     1       2.752  -0.208  -0.105  1.00  0.00     0.112 A 
HETATM   21  N4  UNL     1       3.420   0.375   0.649  1.00  0.00    -0.239 NA
HETATM   22  C15 UNL     1       4.738   0.474   0.664  1.00  0.00     0.075 A 
HETATM   23  C16 UNL     1       5.517   1.175   1.572  1.00  0.00     0.033 A 
HETATM   24  C20 UNL     1       5.423  -0.190  -0.328  1.00  0.00     0.035 A 
HETATM   25  C17 UNL     1       6.875   1.167   1.434  1.00  0.00     0.002 A 
HETATM   26  C18 UNL     1       7.592   0.511   0.450  1.00  0.00     0.002 A 
HETATM   27  C19 UNL     1       6.810  -0.193  -0.463  1.00  0.00     0.021 A 
HETATM   28  S1  UNL     1       4.095  -0.930  -1.240  1.00  0.00    -0.067 SA
ENDBRANCH   6  20
TORSDOF 6
