REMARK  7 active torsions:
REMARK  status: ('A' for Active; 'I' for Inactive)
REMARK    1  A    between atoms: O1_2  and  C2_3 
REMARK    2  A    between atoms: C6_9  and  N3_10 
REMARK    3  A    between atoms: N3_10  and  C7_11 
REMARK    4  A    between atoms: C7_11  and  C8_12 
REMARK    5  A    between atoms: C9_14  and  C10_15 
REMARK    6  A    between atoms: C10_15  and  C11_16 
REMARK    7  A    between atoms: C18_24  and  O2_25 
ROOT
HETATM    1  C2  UNL     1      -4.315   1.627   0.405  1.00  0.00     0.103 A 
HETATM    2  C3  UNL     1      -3.138   2.185   0.815  1.00  0.00     0.072 A 
HETATM    3  C4  UNL     1      -2.001   1.431   0.905  1.00  0.00     0.075 A 
HETATM    4  N1  UNL     1      -0.857   2.050   1.322  1.00  0.00    -0.241 NA
HETATM    5  C5  UNL     1       0.281   1.308   1.415  1.00  0.00     0.235 A 
HETATM    6  N2  UNL     1       0.292  -0.020   1.103  1.00  0.00    -0.224 NA
HETATM    7  C6  UNL     1      -0.804  -0.679   0.688  1.00  0.00     0.138 A 
HETATM    8  C16 UNL     1      -1.938   0.089   0.602  1.00  0.00     0.041 A 
HETATM    9  C17 UNL     1      -3.139  -0.427   0.196  1.00  0.00     0.057 A 
HETATM   10  C18 UNL     1      -4.312   0.282   0.087  1.00  0.00     0.102 A 
ENDROOT
BRANCH   7  11
HETATM   11  N3  UNL     1      -0.793  -2.052   0.377  1.00  0.00    -0.368 N 
HETATM   12  H6  UNL     1      -1.661  -2.535   0.068  1.00  0.00     0.161 HD
BRANCH  11  13
HETATM   13  C7  UNL     1       0.355  -2.927   0.438  1.00  0.00     0.191 C 
BRANCH  13  14
HETATM   14  C8  UNL     1       1.437  -2.616  -0.498  1.00  0.00     0.108 C 
HETATM   15  F1  UNL     1       0.769  -2.693  -1.702  1.00  0.00    -0.209 F 
HETATM   16  C9  UNL     1       2.715  -2.312  -0.550  1.00  0.00     0.018 C 
BRANCH  16  17
HETATM   17  C10 UNL     1       3.864  -2.094   0.355  1.00  0.00     0.084 C 
BRANCH  17  18
HETATM   18  C11 UNL     1       4.496  -0.781   0.191  1.00  0.00     0.014 C 
HETATM   19  N4  UNL     1       5.751  -0.735  -0.149  1.00  0.00    -0.294 NA
HETATM   20  C12 UNL     1       6.463   0.491  -0.335  1.00  0.00     0.175 C 
HETATM   21  C13 UNL     1       5.640   1.301  -1.308  1.00  0.00    -0.009 C 
HETATM   22  C14 UNL     1       4.362   1.341  -0.926  1.00  0.00    -0.023 C 
HETATM   23  C15 UNL     1       4.002   0.610   0.336  1.00  0.00     0.081 C 
ENDBRANCH  17  18
ENDBRANCH  16  17
ENDBRANCH  13  14
ENDBRANCH  11  13
ENDBRANCH   7  11
BRANCH  10  24
HETATM   24  O2  UNL     1      -5.524  -0.253  -0.326  1.00  0.00    -0.353 OA
HETATM   25  C19 UNL     1      -5.678  -1.611  -0.684  1.00  0.00     0.210 C 
ENDBRANCH  10  24
BRANCH   1  26
HETATM   26  O1  UNL     1      -5.478   2.378   0.308  1.00  0.00    -0.353 OA
HETATM   27  C1  UNL     1      -5.436   3.753   0.643  1.00  0.00     0.210 C 
ENDBRANCH   1  26
TORSDOF 7
