REMARK  8 active torsions:
REMARK  status: ('A' for Active; 'I' for Inactive)
REMARK    1  A    between atoms: C2_2  and  O1_3 
REMARK    2  A    between atoms: O1_3  and  C3_4 
REMARK    3  A    between atoms: C3_4  and  C4_5 
REMARK    4  A    between atoms: C5_6  and  C6_7 
REMARK    5  A    between atoms: C6_7  and  C7_8 
REMARK    6  A    between atoms: C12_15  and  N3_16 
REMARK    7  A    between atoms: N3_16  and  C13_17 
REMARK    8  A    between atoms: C13_17  and  C14_18 
ROOT
HETATM    1  C7  UNL     1      -0.735  -1.027  -1.415  1.00  0.00    -0.055 C 
HETATM    2  C8  UNL     1      -0.818   0.358  -1.457  1.00  0.00     0.009 C 
HETATM    3  C9  UNL     1      -1.064   1.535  -0.779  1.00  0.00     0.020 C 
HETATM    4  C10 UNL     1      -0.174   2.212   0.029  1.00  0.00     0.118 C 
HETATM    5  N1  UNL     1       0.896   2.457  -0.782  1.00  0.00    -0.254 NA
HETATM    6  C11 UNL     1       1.593   1.408  -1.282  1.00  0.00     0.234 C 
HETATM    7  N2  UNL     1       2.324   0.286  -1.408  1.00  0.00    -0.225 NA
HETATM    8  C12 UNL     1       2.348  -0.559  -0.363  1.00  0.00     0.125 C 
HETATM    9  C18 UNL     1       1.356  -1.489  -0.155  1.00  0.00     0.051 C 
HETATM   10  C19 UNL     1       0.358  -1.757  -1.066  1.00  0.00     0.011 C 
ENDROOT
BRANCH   8  11
HETATM   11  N3  UNL     1       3.427  -0.498   0.561  1.00  0.00    -0.370 N 
HETATM   12  H16 UNL     1       3.484  -1.133   1.382  1.00  0.00     0.161 HD
BRANCH  11  13
HETATM   13  C13 UNL     1       4.366   0.538   0.174  1.00  0.00     0.167 C 
BRANCH  13  14
HETATM   14  C14 UNL     1       5.499   0.678   1.052  1.00  0.00     0.000 A 
HETATM   15  C15 UNL     1       6.763   0.039   1.003  1.00  0.00     0.017 A 
HETATM   16  C16 UNL     1       7.664   0.370   1.986  1.00  0.00     0.008 A 
HETATM   17  C17 UNL     1       7.317   1.274   2.943  1.00  0.00     0.050 A 
HETATM   18  S1  UNL     1       5.597   1.737   2.485  1.00  0.00    -0.105 SA
ENDBRANCH  13  14
ENDBRANCH  11  13
ENDBRANCH   8  11
BRANCH   1  19
HETATM   19  C6  UNL     1      -2.007  -1.738  -1.801  1.00  0.00     0.065 C 
BRANCH  19  20
HETATM   20  C5  UNL     1      -2.777  -1.920  -0.544  1.00  0.00    -0.024 C 
HETATM   21  C4  UNL     1      -3.987  -1.512  -0.141  1.00  0.00    -0.005 C 
BRANCH  21  22
HETATM   22  C3  UNL     1      -4.877  -0.701  -1.004  1.00  0.00     0.194 C 
BRANCH  22  23
HETATM   23  O1  UNL     1      -5.188   0.513  -0.456  1.00  0.00    -0.388 OA
BRANCH  23  24
HETATM   24  C2  UNL     1      -5.848   0.366   0.749  1.00  0.00     0.163 C 
HETATM   25  C1  UNL     1      -6.169   1.749   1.294  1.00  0.00     0.033 C 
ENDBRANCH  23  24
ENDBRANCH  22  23
ENDBRANCH  21  22
ENDBRANCH  19  20
ENDBRANCH   1  19
TORSDOF 8
