REMARK  2 active torsions:
REMARK  status: ('A' for Active; 'I' for Inactive)
REMARK    1  A    between atoms: O1_1  and  C1_2 
REMARK    2  A    between atoms: C2_3  and  N1_4 
ROOT
HETATM    1  N1  UNL     1      -0.750  -1.435  -0.469  1.00  0.00    -0.272 N 
HETATM    2  C3  UNL     1       0.030  -0.304  -0.836  1.00  0.00     0.226 C 
HETATM    3  N2  UNL     1       0.695   0.698  -0.307  1.00  0.00    -0.255 NA
HETATM    4  C4  UNL     1       1.362   1.635  -1.175  1.00  0.00     0.114 C 
HETATM    5  C5  UNL     1       2.462   2.306  -0.945  1.00  0.00    -0.007 C 
HETATM    6  C6  UNL     1       3.590   2.645  -0.044  1.00  0.00     0.032 C 
HETATM    7  C7  UNL     1       3.439   1.933   1.297  1.00  0.00     0.031 C 
HETATM    8  C8  UNL     1       3.445   0.458   1.118  1.00  0.00    -0.020 C 
HETATM    9  C9  UNL     1       3.575  -0.673   0.428  1.00  0.00     0.041 C 
HETATM   10  S1  UNL     1       3.418  -2.420   0.904  1.00  0.00    -0.141 SA
HETATM   11  C10 UNL     1       1.590  -2.786   0.815  1.00  0.00     0.094 C 
HETATM   12  C11 UNL     1       1.202  -2.717  -0.641  1.00  0.00     0.121 C 
HETATM   13  N3  UNL     1      -0.228  -2.703  -0.876  1.00  0.00    -0.232 NA
HETATM   14  H15 UNL     1      -0.334  -2.706  -1.915  1.00  0.00     0.147 HD
ENDROOT
BRANCH   1  15
HETATM   15  C2  UNL     1      -1.753  -0.699   0.178  1.00  0.00     0.066 C 
HETATM   16  C1  UNL     1      -3.020  -0.541  -0.316  1.00  0.00     0.077 C 
HETATM   17  C15 UNL     1      -4.009   0.530  -0.183  1.00  0.00     0.093 C 
HETATM   18  C14 UNL     1      -3.377   1.607   0.675  1.00  0.00     0.019 C 
HETATM   19  C16 UNL     1      -5.163   0.165   0.767  1.00  0.00     0.190 C 
HETATM   20  C13 UNL     1      -3.074   0.571   1.501  1.00  0.00     0.049 C 
HETATM   21  C12 UNL     1      -1.640   0.037   1.521  1.00  0.00     0.125 C 
HETATM   22  O2  UNL     1      -4.410   0.461   2.009  1.00  0.00    -0.354 OA
BRANCH  16  23
HETATM   23  O1  UNL     1      -3.476  -1.614  -1.114  1.00  0.00    -0.362 OA
HETATM   24  H1  UNL     1      -3.269  -1.570  -2.101  1.00  0.00     0.217 HD
ENDBRANCH  16  23
ENDBRANCH   1  15
TORSDOF 2
