REMARK  5 active torsions:
REMARK  status: ('A' for Active; 'I' for Inactive)
REMARK    1  A    between atoms: N1_1  and  C1_2 
REMARK    2  A    between atoms: C2_3  and  C3_4 
REMARK    3  A    between atoms: C3_4  and  C4_5 
REMARK    4  A    between atoms: C4_5  and  C5_6 
REMARK    5  A    between atoms: C6_8  and  C7_9 
ROOT
HETATM    1  C5  UNL     1      -1.101   0.871   0.770  1.00  0.00     0.094 C 
HETATM    2  F1  UNL     1      -1.106   1.149   2.102  1.00  0.00    -0.211 F 
HETATM    3  C6  UNL     1      -0.000   0.591   0.134  1.00  0.00     0.038 C 
ENDROOT
BRANCH   3   4
HETATM    4  C7  UNL     1       1.264   0.568   0.845  1.00  0.00     0.011 C 
HETATM    5  C8  UNL     1       2.361   0.280   0.173  1.00  0.00    -0.043 A 
HETATM    6  C9  UNL     1       2.641  -0.057  -1.268  1.00  0.00     0.078 A 
HETATM    7  C16 UNL     1       3.813   0.132   0.401  1.00  0.00    -0.020 A 
HETATM    8  C10 UNL     1       4.055  -0.171  -0.903  1.00  0.00    -0.042 A 
HETATM    9  C11 UNL     1       5.249  -0.447  -1.461  1.00  0.00     0.024 A 
HETATM   10  C12 UNL     1       6.344  -0.408  -0.565  1.00  0.00     0.014 A 
HETATM   11  P1  UNL     1       8.224  -0.661  -0.568  1.00  0.00     0.005 P 
HETATM   12  C14 UNL     1       6.175  -0.091   0.856  1.00  0.00     0.087 A 
HETATM   13  C13 UNL     1       8.305  -0.275   1.346  1.00  0.00     0.158 A 
HETATM   14  O1  UNL     1       7.168  -0.053   1.680  1.00  0.00    -0.321 OA
HETATM   15  C15 UNL     1       4.874   0.172   1.280  1.00  0.00     0.050 A 
ENDBRANCH   3   4
BRANCH   1  16
HETATM   16  C4  UNL     1      -2.439   0.921   0.142  1.00  0.00     0.074 C 
BRANCH  16  17
HETATM   17  C3  UNL     1      -3.398  -0.091   0.783  1.00  0.00     0.044 C 
BRANCH  17  18
HETATM   18  C2  UNL     1      -4.688   0.072   0.058  1.00  0.00    -0.048 C 
HETATM   19  C1  UNL     1      -5.234  -0.923  -0.602  1.00  0.00     0.015 C 
HETATM   20  C18 UNL     1      -6.524  -0.661  -1.295  1.00  0.00     0.131 C 
HETATM   21  S1  UNL     1      -7.079   0.811  -0.382  1.00  0.00    -0.159 SA
HETATM   22  C17 UNL     1      -5.397   1.398   0.069  1.00  0.00     0.110 C 
BRANCH  19  23
HETATM   23  N1  UNL     1      -4.480  -2.140  -0.549  1.00  0.00    -0.402 N 
HETATM   24  H1  UNL     1      -4.087  -2.133  -1.535  1.00  0.00     0.156 HD
HETATM   25  H2  UNL     1      -4.296  -2.892   0.179  1.00  0.00     0.156 HD
ENDBRANCH  19  23
ENDBRANCH  17  18
ENDBRANCH  16  17
ENDBRANCH   1  16
TORSDOF 5
