REMARK  2 active torsions:
REMARK  status: ('A' for Active; 'I' for Inactive)
REMARK    1  A    between atoms: C3_4  and  C4_5 
REMARK    2  A    between atoms: C4_5  and  C5_6 
ROOT
HETATM    1  C1  UNL     1       0.961   2.788  -1.387  1.00  0.00    -0.010 C 
HETATM    2  C2  UNL     1       1.979   2.297  -0.690  1.00  0.00     0.129 C 
HETATM    3  N1  UNL     1       2.072   0.881  -0.589  1.00  0.00    -0.264 NA
HETATM    4  C3  UNL     1       1.156  -0.037  -0.308  1.00  0.00     0.046 C 
HETATM    5  C9  UNL     1      -0.283   0.348  -0.049  1.00  0.00    -0.025 C 
HETATM    6  C10 UNL     1      -0.657  -0.898  -0.198  1.00  0.00     0.013 C 
HETATM    7  C11 UNL     1      -1.909  -1.626  -0.147  1.00  0.00     0.040 C 
HETATM    8  C12 UNL     1      -3.153  -1.239   0.174  1.00  0.00     0.104 C 
HETATM    9  O1  UNL     1      -4.176  -2.137   0.142  1.00  0.00    -0.323 OA
HETATM   10  C13 UNL     1      -5.282  -1.549   0.806  1.00  0.00     0.352 C 
HETATM   11  O2  UNL     1      -5.060  -0.150   0.788  1.00  0.00    -0.323 OA
HETATM   12  C14 UNL     1      -3.730   0.053   0.595  1.00  0.00     0.101 C 
HETATM   13  C15 UNL     1      -3.111   1.205   0.764  1.00  0.00     0.014 C 
HETATM   14  C16 UNL     1      -1.956   2.095   0.771  1.00  0.00     0.043 C 
HETATM   15  C17 UNL     1      -0.677   1.714   0.227  1.00  0.00     0.047 C 
HETATM   16  C18 UNL     1      -0.278   2.510  -1.003  1.00  0.00    -0.003 C 
ENDROOT
BRANCH   4  17
HETATM   17  C4  UNL     1       1.556  -1.438  -0.277  1.00  0.00     0.105 C 
BRANCH  17  18
HETATM   18  C5  UNL     1       3.208  -1.244  -0.430  1.00  0.00    -0.012 A 
HETATM   19  C6  UNL     1       3.913  -1.168  -1.557  1.00  0.00     0.015 A 
HETATM   20  C7  UNL     1       5.247  -0.993  -1.361  1.00  0.00     0.008 A 
HETATM   21  C8  UNL     1       5.817  -0.902  -0.105  1.00  0.00     0.050 A 
HETATM   22  S1  UNL     1       4.277  -1.086   0.988  1.00  0.00    -0.106 SA
ENDBRANCH  17  18
ENDBRANCH   4  17
TORSDOF 2
