REMARK  7 active torsions:
REMARK  status: ('A' for Active; 'I' for Inactive)
REMARK    1  A    between atoms: C3_3  and  N1_4 
REMARK    2  A    between atoms: N1_4  and  C4_5 
REMARK    3  A    between atoms: C4_5  and  C5_6 
REMARK    4  A    between atoms: C10_14  and  C11_15 
REMARK    5  A    between atoms: C11_15  and  C12_16 
REMARK    6  A    between atoms: C12_16  and  C13_17 
REMARK    7  A    between atoms: C13_17  and  C14_18 
ROOT
HETATM    1  C1  UNL     1      -1.712  -1.314  -2.457  1.00  0.00     0.030 C 
HETATM    2  C2  UNL     1      -1.525  -0.985  -1.198  1.00  0.00     0.029 A 
HETATM    3  C3  UNL     1      -2.622  -1.019  -0.369  1.00  0.00     0.137 A 
HETATM    4  N2  UNL     1      -2.366  -0.673   0.901  1.00  0.00    -0.224 NA
HETATM    5  C9  UNL     1      -1.140  -0.324   1.324  1.00  0.00     0.235 A 
HETATM    6  N3  UNL     1      -0.119  -0.312   0.466  1.00  0.00    -0.241 NA
HETATM    7  C10 UNL     1      -0.257  -0.638  -0.822  1.00  0.00     0.071 A 
ENDROOT
BRANCH   7   8
HETATM    8  C11 UNL     1       0.750  -0.628  -1.678  1.00  0.00     0.032 C 
BRANCH   8   9
HETATM    9  C12 UNL     1       2.125  -0.281  -1.396  1.00  0.00     0.003 C 
BRANCH   9  10
HETATM   10  C13 UNL     1       2.701   0.093  -0.287  1.00  0.00     0.010 C 
BRANCH  10  11
HETATM   11  C14 UNL     1       4.132   0.420  -0.143  1.00  0.00    -0.023 A 
HETATM   12  C15 UNL     1       4.932   0.339  -1.207  1.00  0.00     0.012 A 
HETATM   13  C16 UNL     1       6.298   0.700  -0.841  1.00  0.00     0.036 A 
HETATM   14  C17 UNL     1       6.276   0.998   0.471  1.00  0.00     0.082 A 
HETATM   15  O1  UNL     1       6.705   1.378   1.758  1.00  0.00    -0.327 OA
HETATM   16  C19 UNL     1       4.878   0.867   1.030  1.00  0.00     0.214 A 
HETATM   17  C18 UNL     1       6.256   0.336   2.662  1.00  0.00     0.346 C 
HETATM   18  O2  UNL     1       5.021  -0.039   2.072  1.00  0.00    -0.350 OA
ENDBRANCH  10  11
ENDBRANCH   9  10
ENDBRANCH   8   9
ENDBRANCH   7   8
BRANCH   3  19
HETATM   19  N1  UNL     1      -3.909  -1.392  -0.832  1.00  0.00    -0.369 N 
HETATM   20  H3  UNL     1      -3.975  -1.645  -1.863  1.00  0.00     0.161 HD
BRANCH  19  21
HETATM   21  C4  UNL     1      -5.086  -1.445  -0.020  1.00  0.00     0.167 C 
BRANCH  21  22
HETATM   22  C5  UNL     1      -5.446  -0.190   0.553  1.00  0.00     0.000 A 
HETATM   23  C6  UNL     1      -5.252   0.553   1.668  1.00  0.00     0.017 A 
HETATM   24  C7  UNL     1      -5.799   1.788   1.856  1.00  0.00     0.008 A 
HETATM   25  C8  UNL     1      -6.638   2.253   0.714  1.00  0.00     0.050 A 
HETATM   26  S1  UNL     1      -6.534   0.866  -0.477  1.00  0.00    -0.105 SA
ENDBRANCH  21  22
ENDBRANCH  19  21
ENDBRANCH   3  19
TORSDOF 7
