REMARK  2 active torsions:
REMARK  status: ('A' for Active; 'I' for Inactive)
REMARK    1  A    between atoms: N1_1  and  C1_2 
REMARK    2  A    between atoms: C2_3  and  C3_4 
ROOT
HETATM    1  C3  UNL     1       0.145  -0.424  -0.361  1.00  0.00    -0.045 C 
HETATM    2  C4  UNL     1      -0.510  -1.369   0.279  1.00  0.00    -0.012 C 
HETATM    3  C5  UNL     1      -1.488  -2.229   0.816  1.00  0.00     0.035 C 
HETATM    4  C6  UNL     1      -2.220  -1.715   2.047  1.00  0.00     0.159 C 
HETATM    5  N2  UNL     1      -3.353  -0.948   1.489  1.00  0.00    -0.276 NA
HETATM    6  C7  UNL     1      -3.476  -1.278   0.258  1.00  0.00     0.095 C 
HETATM    7  C8  UNL     1      -2.727  -2.523  -0.048  1.00  0.00     0.088 C 
HETATM    8  N3  UNL     1      -4.315  -0.225  -0.304  1.00  0.00    -0.374 N 
HETATM    9  C9  UNL     1      -3.794   0.944  -1.023  1.00  0.00     0.167 C 
HETATM   10  C10 UNL     1      -2.796   1.708  -0.406  1.00  0.00     0.007 A 
HETATM   11  S1  UNL     1      -3.010   3.284   0.593  1.00  0.00    -0.104 SA
HETATM   12  C11 UNL     1      -1.247   3.498   0.948  1.00  0.00     0.051 A 
HETATM   13  C12 UNL     1      -0.660   2.428   0.325  1.00  0.00     0.015 A 
HETATM   14  C13 UNL     1      -1.412   1.522  -0.357  1.00  0.00    -0.039 A 
HETATM   15  C14 UNL     1      -0.943   0.303  -1.073  1.00  0.00     0.078 C 
HETATM   16  H9  UNL     1      -5.372  -0.343  -0.172  1.00  0.00     0.161 HD
ENDROOT
BRANCH   1  17
HETATM   17  C2  UNL     1       1.551  -0.054  -0.478  1.00  0.00    -0.001 A 
HETATM   18  C1  UNL     1       2.621  -0.630   0.097  1.00  0.00     0.073 A 
HETATM   19  C18 UNL     1       3.935  -0.212  -0.091  1.00  0.00     0.132 A 
HETATM   20  C17 UNL     1       4.134   0.861  -0.922  1.00  0.00     0.107 A 
HETATM   21  O1  UNL     1       5.167  -0.625   0.371  1.00  0.00    -0.321 OA
HETATM   22  C16 UNL     1       3.060   1.455  -1.510  1.00  0.00     0.041 A 
HETATM   23  O2  UNL     1       5.514   1.103  -0.963  1.00  0.00    -0.323 OA
HETATM   24  C15 UNL     1       1.801   1.013  -1.296  1.00  0.00     0.017 A 
HETATM   25  C19 UNL     1       6.118   0.381   0.093  1.00  0.00     0.352 C 
BRANCH  18  26
HETATM   26  N1  UNL     1       2.494  -1.727   0.952  1.00  0.00    -0.396 N 
HETATM   27  H1  UNL     1       2.568  -2.562   0.297  1.00  0.00     0.156 HD
HETATM   28  H2  UNL     1       2.380  -1.275   1.889  1.00  0.00     0.156 HD
ENDBRANCH  18  26
ENDBRANCH   1  17
TORSDOF 2
