REMARK  5 active torsions:
REMARK  status: ('A' for Active; 'I' for Inactive)
REMARK    1  A    between atoms: C4_4  and  N1_5 
REMARK    2  A    between atoms: N1_5  and  C5_6 
REMARK    3  A    between atoms: C5_6  and  N2_7 
REMARK    4  A    between atoms: C6_8  and  N3_9 
REMARK    5  A    between atoms: C7_10  and  C8_11 
ROOT
HETATM    1  N3  UNL     1       0.232   0.984  -0.959  1.00  0.00    -0.255 NA
HETATM    2  C7  UNL     1      -0.603   1.149   0.020  1.00  0.00     0.132 C 
ENDROOT
BRANCH   2   3
HETATM    3  C8  UNL     1      -1.920   0.448  -0.028  1.00  0.00     0.136 C 
HETATM    4  C9  UNL     1      -3.027   1.076   0.745  1.00  0.00     0.085 C 
HETATM    5  C10 UNL     1      -4.369   0.861   0.111  1.00  0.00     0.250 C 
HETATM    6  C11 UNL     1      -5.484   0.780   1.128  1.00  0.00     0.203 C 
HETATM    7  N4  UNL     1      -4.387  -0.241  -0.795  1.00  0.00     0.097 N 
HETATM    8  O1  UNL     1      -6.704   0.762   0.499  1.00  0.00    -0.387 OA
HETATM    9  C12 UNL     1      -6.637   0.772  -0.889  1.00  0.00     0.198 C 
HETATM   10  C13 UNL     1      -5.692  -0.262  -1.451  1.00  0.00     0.299 C 
HETATM   11  C14 UNL     1      -4.165  -1.524  -0.236  1.00  0.00     0.275 C 
HETATM   12  C15 UNL     1      -3.035  -1.679   0.707  1.00  0.00     0.055 C 
HETATM   13  C16 UNL     1      -1.769  -1.004   0.335  1.00  0.00     0.127 C 
HETATM   14  N5  UNL     1      -1.357  -1.062  -1.031  1.00  0.00    -0.197 NA
HETATM   15  O2  UNL     1      -2.206  -0.032  -1.290  1.00  0.00    -0.287 OA
HETATM   16  H24 UNL     1      -1.583  -1.967  -1.474  1.00  0.00     0.154 HD
ENDBRANCH   2   3
BRANCH   1  17
HETATM   17  C6  UNL     1       1.511   1.612  -1.000  1.00  0.00     0.228 C 
HETATM   18  N2  UNL     1       2.622   1.842  -0.386  1.00  0.00    -0.264 NA
BRANCH  18  19
HETATM   19  C5  UNL     1       2.806   1.293   0.925  1.00  0.00     0.272 C 
BRANCH  19  20
HETATM   20  N1  UNL     1       3.599   0.085   0.938  1.00  0.00    -0.372 N 
HETATM   21  H5  UNL     1       3.214  -0.806   1.296  1.00  0.00     0.161 HD
BRANCH  20  22
HETATM   22  C4  UNL     1       4.924   0.093   0.460  1.00  0.00     0.029 A 
HETATM   23  C3  UNL     1       5.726  -1.046   0.453  1.00  0.00     0.037 A 
HETATM   24  C2  UNL     1       7.014  -1.100   0.003  1.00  0.00    -0.038 A 
HETATM   25  C1  UNL     1       7.800  -2.368   0.034  1.00  0.00     0.050 C 
HETATM   26  C19 UNL     1       7.593   0.066  -0.493  1.00  0.00     0.040 A 
HETATM   27  C18 UNL     1       6.844   1.238  -0.513  1.00  0.00     0.026 A 
HETATM   28 CL1  UNL     1       9.240   0.010  -1.070  1.00  0.00    -0.084 Cl
HETATM   29  C17 UNL     1       5.552   1.213  -0.043  1.00  0.00     0.031 A 
ENDBRANCH  20  22
ENDBRANCH  19  20
ENDBRANCH  18  19
ENDBRANCH   1  17
TORSDOF 5
