REMARK  1 active torsions:
REMARK  status: ('A' for Active; 'I' for Inactive)
REMARK    1  A    between atoms: C2_2  and  C3_3 
ROOT
HETATM    1  C3  UNL     1      -3.037   0.338   0.073  1.00  0.00     0.048 C 
HETATM    2  C4  UNL     1      -2.423  -0.841  -0.172  1.00  0.00     0.124 A 
HETATM    3  N1  UNL     1      -3.198  -1.920   0.355  1.00  0.00    -0.336 N 
HETATM    4  C5  UNL     1      -2.705  -3.248   0.206  1.00  0.00     0.228 A 
HETATM    5  N2  UNL     1      -1.552  -3.367  -0.421  1.00  0.00    -0.056 NA
HETATM    6  C6  UNL     1      -0.879  -2.223  -0.899  1.00  0.00     0.748 A 
HETATM    7  N3  UNL     1       0.124  -1.754  -1.486  1.00  0.00     0.019 NA
HETATM    8  N4  UNL     1       1.111  -2.613  -1.930  1.00  0.00    -0.274 N 
HETATM    9  C7  UNL     1       2.352  -1.994  -2.234  1.00  0.00     0.106 C 
HETATM   10  C8  UNL     1       3.355  -1.486  -1.547  1.00  0.00    -0.004 C 
HETATM   11  C9  UNL     1       3.770  -1.267  -0.149  1.00  0.00     0.055 C 
HETATM   12  C10 UNL     1       4.003   0.178   0.080  1.00  0.00    -0.025 C 
HETATM   13  C11 UNL     1       3.533   1.134   0.864  1.00  0.00    -0.011 C 
HETATM   14  C12 UNL     1       2.517   1.216   1.916  1.00  0.00     0.146 C 
HETATM   15  N5  UNL     1       1.447   2.127   1.697  1.00  0.00    -0.390 N 
HETATM   16  C13 UNL     1       0.425   2.047   0.742  1.00  0.00    -0.001 C 
HETATM   17  C14 UNL     1      -0.519   3.150   0.575  1.00  0.00     0.067 C 
HETATM   18  C15 UNL     1      -0.054   1.238  -0.181  1.00  0.00     0.018 C 
HETATM   19  C16 UNL     1      -0.703   0.448  -1.242  1.00  0.00     0.178 C 
HETATM   20  N6  UNL     1      -1.198  -0.835  -0.850  1.00  0.00    -0.160 N 
HETATM   21  H5  UNL     1      -4.089  -2.002   0.855  1.00  0.00     0.168 HD
HETATM   22  H7  UNL     1       0.982  -3.650  -2.045  1.00  0.00     0.188 HD
HETATM   23  H16 UNL     1       1.365   2.967   2.291  1.00  0.00     0.159 HD
ENDROOT
BRANCH   1  24
HETATM   24  C2  UNL     1      -4.296   0.408   0.776  1.00  0.00    -0.007 C 
HETATM   25  C1  UNL     1      -4.840   1.595   0.985  1.00  0.00     0.011 C 
ENDBRANCH   1  24
TORSDOF 1
