REMARK  3 active torsions:
REMARK  status: ('A' for Active; 'I' for Inactive)
REMARK    1  A    between atoms: C2_2  and  O2_4 
REMARK    2  A    between atoms: O2_4  and  C3_5 
REMARK    3  A    between atoms: C3_5  and  N1_6 
ROOT
HETATM    1  N1  UNL     1      -1.892  -0.459  -0.251  1.00  0.00    -0.303 N 
HETATM    2  C4  UNL     1      -1.530   0.781  -0.792  1.00  0.00     0.152 C 
HETATM    3  C5  UNL     1      -0.916   1.788   0.148  1.00  0.00     0.100 C 
HETATM    4  C6  UNL     1       0.317   1.299   0.793  1.00  0.00     0.103 C 
HETATM    5  N2  UNL     1      -0.121   0.174   1.229  1.00  0.00    -0.229 NA
HETATM    6  C7  UNL     1       0.736  -0.686   1.943  1.00  0.00     0.230 C 
HETATM    7  N3  UNL     1       1.482  -1.483   1.351  1.00  0.00    -0.263 NA
HETATM    8  C8  UNL     1       1.827  -1.890   0.088  1.00  0.00     0.097 C 
HETATM    9  C9  UNL     1       3.266  -2.163  -0.150  1.00  0.00     0.007 C 
HETATM   10  C10 UNL     1       3.765  -0.897  -0.010  1.00  0.00    -0.019 C 
HETATM   11  C11 UNL     1       3.765   0.568   0.232  1.00  0.00     0.116 A 
HETATM   12  C12 UNL     1       2.803   1.474   0.511  1.00  0.00     0.030 A 
HETATM   13  C13 UNL     1       3.948   2.415   0.511  1.00  0.00     0.036 A 
HETATM   14  C14 UNL     1       4.985   1.641   0.243  1.00  0.00     0.231 A 
HETATM   15 CL1  UNL     1       6.698   1.835   0.044  1.00  0.00    -0.256 Cl
HETATM   16  N4  UNL     1       1.502   2.058   0.785  1.00  0.00    -0.372 N 
HETATM   17  C15 UNL     1       0.881  -3.009  -0.249  1.00  0.00     0.037 C 
HETATM   18  C16 UNL     1       0.025  -2.073  -0.617  1.00  0.00     0.027 C 
HETATM   19  C17 UNL     1       1.216  -1.361  -1.147  1.00  0.00     0.100 C 
HETATM   20  N5  UNL     1      -1.322  -1.611  -0.680  1.00  0.00    -0.305 N 
HETATM   21  H16 UNL     1       1.490   3.065   0.972  1.00  0.00     0.161 HD
HETATM   22  H20 UNL     1      -2.155  -2.121  -1.100  1.00  0.00     0.186 HD
ENDROOT
BRANCH   1  23
HETATM   23  C3  UNL     1      -2.979  -0.528   0.649  1.00  0.00     0.321 C 
BRANCH  23  24
HETATM   24  O2  UNL     1      -4.151  -0.078  -0.003  1.00  0.00    -0.300 OA
BRANCH  24  25
HETATM   25  C2  UNL     1      -5.367  -0.037   0.637  1.00  0.00     0.256 C 
HETATM   26  C1  UNL     1      -6.585   0.435  -0.052  1.00  0.00     0.126 C 
HETATM   27  O1  UNL     1      -5.261  -0.440   1.813  1.00  0.00    -0.266 OA
ENDBRANCH  24  25
ENDBRANCH  23  24
ENDBRANCH   1  23
TORSDOF 3
