REMARK  4 active torsions:
REMARK  status: ('A' for Active; 'I' for Inactive)
REMARK    1  A    between atoms: C3_3  and  O1_4 
REMARK    2  A    between atoms: O1_4  and  N1_5 
REMARK    3  A    between atoms: C8_13  and  N4_14 
REMARK    4  A    between atoms: N4_14  and  C9_15 
ROOT
HETATM    1  C1  UNL     1       1.518   1.697   0.222  1.00  0.00     0.052 C 
HETATM    2  C2  UNL     1       1.862   0.316  -0.197  1.00  0.00    -0.010 A 
HETATM    3  C3  UNL     1       3.192  -0.074  -0.410  1.00  0.00     0.100 A 
HETATM    4  C4  UNL     1       3.610  -1.328  -0.799  1.00  0.00     0.041 A 
HETATM    5  C5  UNL     1       2.668  -2.296  -1.002  1.00  0.00     0.035 A 
HETATM    6  C6  UNL     1       1.345  -1.968  -0.806  1.00  0.00     0.072 A 
HETATM    7  N2  UNL     1       0.397  -2.887  -0.999  1.00  0.00    -0.241 NA
HETATM    8  C7  UNL     1      -0.900  -2.657  -0.837  1.00  0.00     0.236 A 
HETATM    9  N3  UNL     1      -1.259  -1.423  -0.459  1.00  0.00    -0.223 NA
HETATM   10  C8  UNL     1      -0.365  -0.454  -0.248  1.00  0.00     0.142 A 
HETATM   11  C15 UNL     1       0.972  -0.707  -0.419  1.00  0.00     0.047 A 
ENDROOT
BRANCH  10  12
HETATM   12  N4  UNL     1      -0.880   0.814   0.145  1.00  0.00    -0.340 N 
HETATM   13  H8  UNL     1      -0.924   1.799   0.435  1.00  0.00     0.167 HD
BRANCH  12  14
HETATM   14  C9  UNL     1      -2.328   0.853   0.241  1.00  0.00     0.035 A 
HETATM   15  C10 UNL     1      -2.793  -0.204   1.042  1.00  0.00     0.029 A 
HETATM   16  C11 UNL     1      -4.167  -0.386   1.247  1.00  0.00     0.004 A 
HETATM   17  C12 UNL     1      -5.089   0.462   0.672  1.00  0.00     0.024 A 
HETATM   18  C13 UNL     1      -4.657   1.502  -0.114  1.00  0.00     0.036 A 
HETATM   19 CL1  UNL     1      -5.634   2.687  -0.934  1.00  0.00    -0.084 Cl
HETATM   20  C14 UNL     1      -3.310   1.660  -0.300  1.00  0.00     0.053 A 
ENDBRANCH  12  14
ENDBRANCH  10  12
BRANCH   3  21
HETATM   21  O1  UNL     1       4.189   0.877  -0.217  1.00  0.00    -0.253 OA
BRANCH  21  22
HETATM   22  N1  UNL     1       5.502   0.613  -0.393  1.00  0.00    -0.129 NA
HETATM   23 BR1  UNL     1       6.116   1.732  -1.796  1.00  0.00     0.038 Br
HETATM   24  H4  UNL     1       6.076   0.667   0.459  1.00  0.00     0.169 HD
ENDBRANCH  21  22
ENDBRANCH   3  21
TORSDOF 4
