REMARK  12 active torsions:
REMARK  status: ('A' for Active; 'I' for Inactive)
REMARK    1  A    between atoms: O1_1  and  C1_2 
REMARK    2  A    between atoms: C5_8  and  C6_9 
REMARK    3  A    between atoms: C6_9  and  N3_10 
REMARK    4  A    between atoms: N3_10  and  C7_11 
REMARK    5  A    between atoms: C7_11  and  C8_12 
REMARK    6  A    between atoms: C8_12  and  C9_13 
REMARK    7  A    between atoms: C11_16  and  C12_17 
REMARK    8  A    between atoms: C12_17  and  O2_18 
REMARK    9  A    between atoms: O2_18  and  C13_19 
REMARK   10  A    between atoms: C13_19  and  C14_20 
REMARK   11  A    between atoms: C14_20  and  C15_21 
REMARK   12  A    between atoms: C15_21  and  N4_22 
ROOT
HETATM    1  C1  UNL     1      -0.415  -1.088   1.775  1.00  0.00     0.091 A 
HETATM    2  C2  UNL     1      -0.957  -2.189   2.246  1.00  0.00     0.155 A 
HETATM    3  N1  UNL     1      -1.905  -3.128   2.658  1.00  0.00    -0.251 NA
HETATM    4  C3  UNL     1      -3.161  -3.053   2.595  1.00  0.00     0.232 A 
HETATM    5  N2  UNL     1      -2.703  -1.825   2.028  1.00  0.00    -0.253 NA
HETATM    6  C4  UNL     1      -3.471  -0.877   1.618  1.00  0.00     0.130 A 
HETATM    7  C5  UNL     1      -3.420   0.458   1.008  1.00  0.00    -0.003 A 
HETATM    8  C10 UNL     1      -2.002   0.730   0.964  1.00  0.00     0.026 A 
HETATM    9  C11 UNL     1      -0.851   0.176   1.238  1.00  0.00     0.001 A 
ENDROOT
BRANCH   9  10
HETATM   10  C12 UNL     1       0.344   1.016   0.971  1.00  0.00     0.209 C 
BRANCH  10  11
HETATM   11  O2  UNL     1       1.140   0.316   0.031  1.00  0.00    -0.387 OA
BRANCH  11  12
HETATM   12  C13 UNL     1       2.302   1.051  -0.190  1.00  0.00     0.169 C 
BRANCH  12  13
HETATM   13  C14 UNL     1       3.196   0.297  -1.175  1.00  0.00     0.046 C 
BRANCH  13  14
HETATM   14  C15 UNL     1       4.463   1.050  -1.405  1.00  0.00     0.119 C 
BRANCH  14  15
HETATM   15  N4  UNL     1       5.424   0.510  -2.296  1.00  0.00    -0.408 N 
HETATM   16  C16 UNL     1       6.572   1.370  -2.375  1.00  0.00     0.143 C 
HETATM   17  C17 UNL     1       7.878   0.715  -2.576  1.00  0.00     0.187 C 
HETATM   18  O3  UNL     1       7.995  -0.614  -2.321  1.00  0.00    -0.388 OA
HETATM   19  C18 UNL     1       7.014  -1.218  -1.590  1.00  0.00     0.187 C 
HETATM   20  C19 UNL     1       5.678  -0.882  -2.244  1.00  0.00     0.143 C 
ENDBRANCH  14  15
ENDBRANCH  13  14
ENDBRANCH  12  13
ENDBRANCH  11  12
ENDBRANCH  10  11
ENDBRANCH   9  10
BRANCH   1  21
HETATM   21  O1  UNL     1       0.955  -1.409   1.893  1.00  0.00    -0.359 OA
HETATM   22  H1  UNL     1       1.371  -2.081   1.233  1.00  0.00     0.217 HD
ENDBRANCH   1  21
BRANCH   7  23
HETATM   23  C6  UNL     1      -4.510   1.138   0.721  1.00  0.00     0.095 C 
BRANCH  23  24
HETATM   24  N3  UNL     1      -5.798   0.658   0.995  1.00  0.00    -0.398 N 
HETATM   25  H6  UNL     1      -5.937   1.007   1.964  1.00  0.00     0.158 HD
BRANCH  24  26
HETATM   26  C7  UNL     1      -6.725  -0.119   0.188  1.00  0.00     0.121 C 
BRANCH  26  27
HETATM   27  C8  UNL     1      -8.005  -0.361   0.942  1.00  0.00     0.051 C 
BRANCH  27  28
HETATM   28  C9  UNL     1      -8.634   0.980   1.271  1.00  0.00     0.224 C 
HETATM   29  F1  UNL     1      -8.922   1.693   0.137  1.00  0.00    -0.255 F 
ENDBRANCH  27  28
ENDBRANCH  26  27
ENDBRANCH  24  26
ENDBRANCH  23  24
ENDBRANCH   7  23
TORSDOF 12
