REMARK  0 active torsions:
REMARK  status: ('A' for Active; 'I' for Inactive)
ROOT
HETATM    1  C1  UNL     1      -3.743   2.434   1.009  1.00  0.00     0.175 C 
HETATM    2  N1  UNL     1      -3.221   2.122  -0.332  1.00  0.00    -0.290 N 
HETATM    3  C2  UNL     1      -4.159   1.440  -1.291  1.00  0.00     0.167 C 
HETATM    4  O1  UNL     1      -4.081   0.142  -1.039  1.00  0.00     0.000 OA
HETATM    5  C3  UNL     1      -4.017  -1.111  -0.809  1.00  0.00     0.117 A 
HETATM    6  O2  UNL     1      -4.827  -0.827  -1.696  1.00  0.00    -0.194 OA
HETATM    7  C4  UNL     1      -3.146  -1.744   0.179  1.00  0.00     0.074 C 
HETATM    8  C5  UNL     1      -2.399  -2.975  -0.357  1.00  0.00     0.034 C 
HETATM    9  C6  UNL     1      -1.223  -3.062   0.595  1.00  0.00    -0.025 C 
HETATM   10  C7  UNL     1      -0.005  -2.942   0.120  1.00  0.00     0.019 C 
HETATM   11  C8  UNL     1       1.204  -2.781  -0.666  1.00  0.00     0.031 C 
HETATM   12 CL1  UNL     1       0.259  -2.700  -2.131  1.00  0.00    -0.085 Cl
HETATM   13  C9  UNL     1       2.544  -2.690  -0.709  1.00  0.00     0.016 C 
HETATM   14  C10 UNL     1       3.289  -2.767   0.574  1.00  0.00     0.150 C 
HETATM   15  N2  UNL     1       4.035  -1.527   0.781  1.00  0.00    -0.371 N 
HETATM   16  C11 UNL     1       3.413  -0.248   0.701  1.00  0.00     0.125 C 
HETATM   17  C12 UNL     1       2.176   0.161   0.253  1.00  0.00     0.052 C 
HETATM   18  C13 UNL     1       1.077   0.772   0.817  1.00  0.00     0.037 C 
HETATM   19  C14 UNL     1       0.393   1.850   0.284  1.00  0.00     0.081 C 
HETATM   20  C15 UNL     1       1.039   3.021  -0.106  1.00  0.00     0.035 C 
HETATM   21  C16 UNL     1       2.015   3.553  -0.898  1.00  0.00     0.022 C 
HETATM   22  C17 UNL     1       3.332   3.177  -0.973  1.00  0.00     0.118 C 
HETATM   23  N3  UNL     1       3.883   2.775   0.193  1.00  0.00    -0.254 NA
HETATM   24  C18 UNL     1       4.620   1.635   0.176  1.00  0.00     0.234 C 
HETATM   25  N4  UNL     1       4.076   0.848   1.124  1.00  0.00    -0.225 NA
HETATM   26  N5  UNL     1      -0.993   1.717   0.157  1.00  0.00    -0.133 NA
HETATM   27  N6  UNL     1      -1.838   2.531  -0.332  1.00  0.00    -0.071 NA
HETATM   28  H15 UNL     1       5.050  -1.506   0.997  1.00  0.00     0.161 HD
ENDROOT
TORSDOF 0
