REMARK  9 active torsions:
REMARK  status: ('A' for Active; 'I' for Inactive)
REMARK    1  A    between atoms: O1_2  and  C2_3 
REMARK    2  A    between atoms: C2_3  and  C3_4 
REMARK    3  A    between atoms: C3_4  and  N1_5 
REMARK    4  A    between atoms: N1_5  and  C5_7 
REMARK    5  A    between atoms: C5_7  and  C6_8 
REMARK    6  A    between atoms: C6_8  and  O2_9 
REMARK    7  A    between atoms: C8_11  and  C9_12 
REMARK    8  A    between atoms: C11_14  and  N2_15 
REMARK    9  A    between atoms: N2_15  and  C12_16 
ROOT
HETATM    1  C9  UNL     1      -1.649   0.320  -0.114  1.00  0.00     0.062 A 
HETATM    2  C10 UNL     1      -2.867   0.454   0.511  1.00  0.00     0.082 A 
HETATM    3  C11 UNL     1      -3.800   1.326  -0.015  1.00  0.00     0.131 A 
HETATM    4  N3  UNL     1      -3.487   2.024  -1.130  1.00  0.00    -0.224 NA
HETATM    5  C18 UNL     1      -2.293   1.898  -1.749  1.00  0.00     0.235 A 
HETATM    6  N4  UNL     1      -1.393   1.032  -1.210  1.00  0.00    -0.242 NA
ENDROOT
BRANCH   1   7
HETATM    7  C8  UNL     1      -0.683  -0.615   0.451  1.00  0.00     0.045 C 
HETATM    8  C7  UNL     1       0.617  -0.295   0.498  1.00  0.00    -0.012 A 
HETATM    9  O2  UNL     1       1.855  -0.732   0.876  1.00  0.00     0.000 OA
HETATM   10  O3  UNL     1       1.701   0.536   0.283  1.00  0.00     0.000 OA
HETATM   11  C19 UNL     1       1.673   1.920   0.097  1.00  0.00     0.000 C 
BRANCH   9  12
HETATM   12  C6  UNL     1       2.194  -2.088   0.989  1.00  0.00     0.032 C 
BRANCH  12  13
HETATM   13  C5  UNL     1       3.655  -2.112   1.419  1.00  0.00     0.272 C 
BRANCH  13  14
HETATM   14  N1  UNL     1       4.398  -1.433   0.385  1.00  0.00     0.086 N 
HETATM   15  C4  UNL     1       4.175  -1.917  -0.943  1.00  0.00     0.310 C 
BRANCH  14  16
HETATM   16  C3  UNL     1       5.800  -1.276   0.702  1.00  0.00     0.297 C 
BRANCH  16  17
HETATM   17  C2  UNL     1       6.452  -0.165  -0.070  1.00  0.00     0.197 C 
BRANCH  17  18
HETATM   18  O1  UNL     1       5.839   1.041   0.191  1.00  0.00    -0.394 OA
HETATM   19  C1  UNL     1       5.864   1.438   1.500  1.00  0.00     0.201 C 
ENDBRANCH  17  18
ENDBRANCH  16  17
ENDBRANCH  14  16
ENDBRANCH  13  14
ENDBRANCH  12  13
ENDBRANCH   9  12
ENDBRANCH   1   7
BRANCH   3  20
HETATM   20  N2  UNL     1      -5.103   1.633   0.453  1.00  0.00    -0.341 N 
HETATM   21  H17 UNL     1      -5.032   2.488   1.054  1.00  0.00     0.167 HD
BRANCH  20  22
HETATM   22  C12 UNL     1      -6.334   0.991   0.226  1.00  0.00     0.035 A 
HETATM   23  C13 UNL     1      -7.489   1.525   0.710  1.00  0.00     0.032 A 
HETATM   24  C14 UNL     1      -8.685   0.849   0.470  1.00  0.00     0.046 A 
HETATM   25  C15 UNL     1      -8.626  -0.344  -0.260  1.00  0.00     0.138 A 
HETATM   26  F1  UNL     1      -9.786  -1.003  -0.494  1.00  0.00    -0.204 F 
HETATM   27  C16 UNL     1      -7.428  -0.874  -0.749  1.00  0.00     0.074 A 
HETATM   28 CL1  UNL     1      -7.395  -2.376  -1.656  1.00  0.00    -0.081 Cl
HETATM   29  C17 UNL     1      -6.255  -0.184  -0.497  1.00  0.00     0.056 A 
ENDBRANCH  20  22
ENDBRANCH   3  20
TORSDOF 9
