REMARK  6 active torsions:
REMARK  status: ('A' for Active; 'I' for Inactive)
REMARK    1  A    between atoms: C2_2  and  C4_4 
REMARK    2  A    between atoms: C5_5  and  C6_6 
REMARK    3  A    between atoms: C7_7  and  N1_8 
REMARK    4  A    between atoms: N1_8  and  C8_9 
REMARK    5  A    between atoms: C15_21  and  O1_22 
REMARK    6  A    between atoms: O1_22  and  C16_23 
ROOT
HETATM    1  C8  UNL     1      -0.926   0.256   0.222  1.00  0.00     0.156 C 
HETATM    2  N2  UNL     1      -0.587  -0.977   0.354  1.00  0.00    -0.224 NA
HETATM    3  C9  UNL     1      -1.246  -1.959   1.132  1.00  0.00     0.234 C 
HETATM    4  N3  UNL     1      -1.883  -2.115   0.068  1.00  0.00    -0.254 NA
HETATM    5  C10 UNL     1      -2.902  -2.918  -0.361  1.00  0.00     0.118 C 
HETATM    6  C11 UNL     1      -4.154  -3.169  -0.031  1.00  0.00     0.021 C 
HETATM    7  C12 UNL     1      -4.874  -2.539   1.063  1.00  0.00     0.022 C 
HETATM    8  C13 UNL     1      -4.432  -1.641   1.898  1.00  0.00     0.142 C 
HETATM    9  N4  UNL     1      -3.787  -0.693   2.693  1.00  0.00    -0.145 NA
HETATM   10  N5  UNL     1      -3.188   0.317   2.506  1.00  0.00    -0.069 NA
HETATM   11  N6  UNL     1      -2.755   1.162   1.543  1.00  0.00    -0.255 N 
HETATM   12  C14 UNL     1      -3.567   2.382   1.544  1.00  0.00     0.178 C 
HETATM   13  C15 UNL     1      -1.796   1.414   0.484  1.00  0.00     0.321 C 
ENDROOT
BRANCH   1  14
HETATM   14  N1  UNL     1       0.104   0.740  -0.674  1.00  0.00    -0.351 N 
HETATM   15  H10 UNL     1       0.333   1.672  -1.131  1.00  0.00     0.166 HD
BRANCH  14  16
HETATM   16  C7  UNL     1       1.234   0.096  -1.290  1.00  0.00     0.089 C 
HETATM   17  C6  UNL     1       2.289  -0.115  -0.486  1.00  0.00     0.017 C 
BRANCH  17  18
HETATM   18  C5  UNL     1       3.531  -0.760  -0.941  1.00  0.00     0.002 C 
HETATM   19  C4  UNL     1       4.576  -0.971  -0.153  1.00  0.00     0.002 C 
BRANCH  19  20
HETATM   20  C2  UNL     1       5.772  -1.616  -0.676  1.00  0.00    -0.084 C 
HETATM   21  C1  UNL     1       6.818  -1.838   0.075  1.00  0.00     0.038 C 
HETATM   22  C3  UNL     1       5.819  -2.037  -2.096  1.00  0.00     0.043 C 
ENDBRANCH  19  20
ENDBRANCH  17  18
ENDBRANCH  14  16
ENDBRANCH   1  14
BRANCH  13  23
HETATM   23  O1  UNL     1      -1.043   2.602   0.786  1.00  0.00    -0.287 OA
BRANCH  23  24
HETATM   24  C16 UNL     1      -1.080   3.668  -0.105  1.00  0.00     0.257 C 
HETATM   25  C17 UNL     1      -0.330   4.932   0.131  1.00  0.00     0.126 C 
HETATM   26  O2  UNL     1      -1.757   3.621  -1.172  1.00  0.00    -0.266 OA
ENDBRANCH  23  24
ENDBRANCH  13  23
TORSDOF 6
