REMARK  4 active torsions:
REMARK  status: ('A' for Active; 'I' for Inactive)
REMARK    1  A    between atoms: C2_2  and  O1_3 
REMARK    2  A    between atoms: O1_3  and  N1_4 
REMARK    3  A    between atoms: C8_14  and  N6_15 
REMARK    4  A    between atoms: N6_15  and  C9_16 
ROOT
HETATM    1  N1  UNL     1      -1.417  -0.128   0.159  1.00  0.00    -0.127 N 
HETATM    2  N2  UNL     1      -0.566  -0.129   1.297  1.00  0.00    -0.042 NA
HETATM    3  N3  UNL     1      -0.559   1.062   1.823  1.00  0.00    -0.131 NA
HETATM    4  C3  UNL     1      -1.410   1.886   1.046  1.00  0.00     0.105 A 
HETATM    5  C4  UNL     1      -2.288   2.755   0.568  1.00  0.00     0.035 A 
HETATM    6  C5  UNL     1      -2.314   2.691  -0.886  1.00  0.00     0.033 A 
HETATM    7  C6  UNL     1      -1.454   1.784  -1.318  1.00  0.00     0.082 A 
HETATM    8  N4  UNL     1      -1.033   1.284  -2.608  1.00  0.00    -0.243 NA
HETATM    9  C7  UNL     1       0.189   0.770  -2.665  1.00  0.00     0.235 C 
HETATM   10  N5  UNL     1       0.930   0.728  -1.488  1.00  0.00    -0.225 NA
HETATM   11  C8  UNL     1       0.603   1.079  -0.294  1.00  0.00     0.151 C 
HETATM   12  C15 UNL     1      -0.830   1.264  -0.125  1.00  0.00     0.230 A 
ENDROOT
BRANCH  11  13
HETATM   13  N6  UNL     1       1.583   0.963   0.727  1.00  0.00    -0.342 N 
HETATM   14  H9  UNL     1       1.557   1.693   1.465  1.00  0.00     0.167 HD
BRANCH  13  15
HETATM   15  C9  UNL     1       2.560  -0.073   0.741  1.00  0.00     0.035 A 
HETATM   16  C10 UNL     1       3.648   0.361  -0.028  1.00  0.00     0.029 A 
HETATM   17  C11 UNL     1       4.780  -0.443  -0.204  1.00  0.00     0.004 A 
HETATM   18  C12 UNL     1       4.829  -1.689   0.391  1.00  0.00     0.024 A 
HETATM   19  C13 UNL     1       3.757  -2.095   1.138  1.00  0.00     0.036 A 
HETATM   20 CL1  UNL     1       3.682  -3.652   1.950  1.00  0.00    -0.084 Cl
HETATM   21  C14 UNL     1       2.638  -1.318   1.321  1.00  0.00     0.053 A 
ENDBRANCH  13  15
ENDBRANCH  11  13
BRANCH   1  22
HETATM   22  O1  UNL     1      -2.220  -1.176  -0.110  1.00  0.00    -0.259 OA
BRANCH  22  23
HETATM   23  C2  UNL     1      -3.526  -0.978   0.333  1.00  0.00     0.199 C 
HETATM   24  C1  UNL     1      -4.271  -2.264  -0.031  1.00  0.00     0.036 C 
ENDBRANCH  22  23
ENDBRANCH   1  22
TORSDOF 4
