REMARK  1 active torsions:
REMARK  status: ('A' for Active; 'I' for Inactive)
REMARK    1  A    between atoms: C15_20  and  O3_21 
ROOT
HETATM    1  C1  UNL     1      -2.463   2.420  -1.165  1.00  0.00     0.185 C 
HETATM    2  N1  UNL     1      -2.870   1.821   0.077  1.00  0.00    -0.216 N 
HETATM    3  N2  UNL     1      -2.388   2.350   1.326  1.00  0.00    -0.063 NA
HETATM    4  N3  UNL     1      -1.243   2.070   1.667  1.00  0.00    -0.132 NA
HETATM    5  C2  UNL     1      -0.265   1.300   1.038  1.00  0.00     0.088 A 
HETATM    6  C3  UNL     1       0.258   2.425   0.349  1.00  0.00     0.036 A 
HETATM    7  C4  UNL     1       1.378   2.510  -0.511  1.00  0.00     0.034 A 
HETATM    8  C5  UNL     1       2.053   1.288  -0.686  1.00  0.00     0.065 A 
HETATM    9  C6  UNL     1       1.535   0.158   0.004  1.00  0.00    -0.018 A 
HETATM   10  C7  UNL     1       0.419   0.073   0.847  1.00  0.00    -0.011 A 
HETATM   11  C8  UNL     1       0.207  -1.278   1.284  1.00  0.00     0.064 C 
HETATM   12  C9  UNL     1      -0.952  -1.358   2.272  1.00  0.00     0.008 C 
HETATM   13  C10 UNL     1      -1.874  -1.537   1.391  1.00  0.00     0.013 A 
HETATM   14  C11 UNL     1      -3.022  -1.683   0.487  1.00  0.00     0.000 A 
HETATM   15  C12 UNL     1      -4.033  -1.684  -0.315  1.00  0.00    -0.018 A 
HETATM   16  O1  UNL     1      -3.690  -0.470  -0.123  1.00  0.00     0.000 OA
HETATM   17  C13 UNL     1      -3.538   0.591   0.588  1.00  0.00     0.334 C 
HETATM   18  O2  UNL     1      -3.968   0.541   1.774  1.00  0.00    -0.260 OA
HETATM   19  C14 UNL     1      -1.578  -2.072   0.219  1.00  0.00     0.043 A 
HETATM   20  C15 UNL     1      -0.271  -2.307   0.266  1.00  0.00     0.103 C 
HETATM   21  C16 UNL     1       2.346  -1.070   0.043  1.00  0.00     0.065 C 
HETATM   22  C17 UNL     1       3.613  -0.721   0.876  1.00  0.00     0.178 C 
HETATM   23  N4  UNL     1       4.786  -0.630   0.078  1.00  0.00    -0.192 NA
HETATM   24  N5  UNL     1       5.141   0.089  -0.973  1.00  0.00    -0.148 NA
HETATM   25  C18 UNL     1       4.327   1.080  -1.645  1.00  0.00     0.257 C 
HETATM   26  N6  UNL     1       3.121   1.595  -1.584  1.00  0.00    -0.240 NA
ENDROOT
BRANCH  20  27
HETATM   27  O3  UNL     1       0.175  -3.371  -0.597  1.00  0.00    -0.386 OA
HETATM   28  H11 UNL     1       0.134  -4.324  -0.254  1.00  0.00     0.210 HD
ENDBRANCH  20  27
TORSDOF 1
