REMARK  6 active torsions:
REMARK  status: ('A' for Active; 'I' for Inactive)
REMARK    1  A    between atoms: C2_2  and  O2_4 
REMARK    2  A    between atoms: O2_4  and  C3_5 
REMARK    3  A    between atoms: C3_5  and  N1_6 
REMARK    4  A    between atoms: C8_13  and  C9_14 
REMARK    5  A    between atoms: C9_14  and  N4_15 
REMARK    6  A    between atoms: N4_15  and  C10_16 
ROOT
HETATM    1  N1  UNL     1       2.038  -1.512   0.486  1.00  0.00    -0.168 N 
HETATM    2  N2  UNL     1       2.191  -1.024   1.824  1.00  0.00    -0.052 NA
HETATM    3  N3  UNL     1       1.182  -0.563   2.484  1.00  0.00    -0.157 NA
HETATM    4  C4  UNL     1      -0.073  -0.612   1.722  1.00  0.00     0.114 A 
HETATM    5  C5  UNL     1      -0.184  -1.764   2.428  1.00  0.00     0.079 A 
HETATM    6  C6  UNL     1      -1.144  -2.386   1.671  1.00  0.00    -0.008 A 
HETATM    7  C7  UNL     1      -0.892  -1.195   1.113  1.00  0.00     0.096 A 
HETATM    8  C8  UNL     1      -0.705  -0.016   0.478  1.00  0.00     0.057 A 
HETATM    9  C16 UNL     1       0.253   0.608   1.233  1.00  0.00     0.000 A 
HETATM   10  N5  UNL     1      -1.347  -1.761  -0.173  1.00  0.00    -0.267 NA
HETATM   11  C17 UNL     1      -0.329  -2.309  -0.858  1.00  0.00     0.220 C 
HETATM   12  N6  UNL     1       0.897  -2.168  -0.104  1.00  0.00    -0.273 N 
HETATM   13  H17 UNL     1       1.199  -3.105   0.283  1.00  0.00     0.189 HD
ENDROOT
BRANCH   8  14
HETATM   14  C9  UNL     1      -1.193   0.781  -0.675  1.00  0.00     0.139 C 
BRANCH  14  15
HETATM   15  N4  UNL     1      -2.454   1.414  -0.342  1.00  0.00    -0.389 N 
HETATM   16  H10 UNL     1      -2.889   1.251   0.596  1.00  0.00     0.159 HD
BRANCH  15  17
HETATM   17  C10 UNL     1      -3.121   2.248  -1.253  1.00  0.00     0.029 A 
HETATM   18  C11 UNL     1      -2.634   2.524  -2.530  1.00  0.00     0.029 A 
HETATM   19  C12 UNL     1      -3.311   3.334  -3.391  1.00  0.00     0.004 A 
HETATM   20  C13 UNL     1      -4.521   3.930  -3.044  1.00  0.00     0.024 A 
HETATM   21  C14 UNL     1      -5.047   3.686  -1.781  1.00  0.00     0.036 A 
HETATM   22 CL1  UNL     1      -6.571   4.381  -1.216  1.00  0.00    -0.084 Cl
HETATM   23  C15 UNL     1      -4.320   2.855  -0.945  1.00  0.00     0.052 A 
ENDBRANCH  15  17
ENDBRANCH  14  15
ENDBRANCH   8  14
BRANCH   1  24
HETATM   24  C3  UNL     1       3.151  -1.325  -0.431  1.00  0.00     0.351 C 
BRANCH  24  25
HETATM   25  O2  UNL     1       4.373  -1.822  -0.010  1.00  0.00    -0.298 OA
BRANCH  25  26
HETATM   26  C2  UNL     1       5.125  -1.496   1.073  1.00  0.00     0.256 C 
HETATM   27  C1  UNL     1       6.428  -2.044   1.506  1.00  0.00     0.126 C 
HETATM   28  O1  UNL     1       4.763  -0.632   1.872  1.00  0.00    -0.266 OA
ENDBRANCH  25  26
ENDBRANCH  24  25
ENDBRANCH   1  24
TORSDOF 6
