REMARK  1 active torsions:
REMARK  status: ('A' for Active; 'I' for Inactive)
REMARK    1  A    between atoms: O1_1  and  N1_2 
ROOT
HETATM    1  N1  UNL     1      -3.153  -0.095  -0.931  1.00  0.00    -0.141 N 
HETATM    2  C1  UNL     1      -2.297  -1.286  -1.070  1.00  0.00     0.306 C 
HETATM    3  N2  UNL     1      -1.161  -1.191  -0.133  1.00  0.00    -0.345 N 
HETATM    4  C2  UNL     1      -1.713  -1.111   1.213  1.00  0.00     0.090 C 
HETATM    5  C3  UNL     1      -1.836  -0.233   2.227  1.00  0.00     0.019 C 
HETATM    6  C4  UNL     1      -1.283   1.146   2.077  1.00  0.00     0.030 C 
HETATM    7  C5  UNL     1      -0.682   1.772   1.087  1.00  0.00     0.062 C 
HETATM    8  C6  UNL     1      -0.027   2.404  -0.041  1.00  0.00     0.089 C 
HETATM    9  C7  UNL     1       1.373   2.868   0.160  1.00  0.00    -0.008 C 
HETATM   10  C8  UNL     1       1.876   3.140  -1.031  1.00  0.00    -0.026 C 
HETATM   11  C9  UNL     1       1.849   2.096  -1.823  1.00  0.00     0.064 C 
HETATM   12  C10 UNL     1       1.540   0.741  -1.301  1.00  0.00     0.146 C 
HETATM   13  N3  UNL     1       0.713  -0.286  -1.407  1.00  0.00    -0.243 NA
HETATM   14  C11 UNL     1       0.273  -1.161  -0.338  1.00  0.00     0.233 C 
HETATM   15  C12 UNL     1       0.950  -2.461  -0.554  1.00  0.00     0.149 C 
HETATM   16 CL1  UNL     1       0.999  -3.012  -2.234  1.00  0.00    -0.117 Cl
HETATM   17  C13 UNL     1       2.315  -2.458   0.072  1.00  0.00    -0.001 C 
HETATM   18  C14 UNL     1       3.188  -1.544   0.531  1.00  0.00     0.017 C 
HETATM   19  C15 UNL     1       3.319  -0.081   0.320  1.00  0.00     0.119 C 
HETATM   20  N4  UNL     1       2.722   0.844  -0.428  1.00  0.00    -0.242 NA
HETATM   21  N5  UNL     1      -1.380   0.928   0.182  1.00  0.00    -0.135 NA
HETATM   22  N6  UNL     1      -2.624   0.803   0.022  1.00  0.00    -0.043 NA
ENDROOT
BRANCH   1  23
HETATM   23  O1  UNL     1      -4.066   0.906  -0.957  1.00  0.00    -0.268 OA
HETATM   24  H1  UNL     1      -4.960   0.532  -0.721  1.00  0.00     0.246 HD
ENDBRANCH   1  23
TORSDOF 1
