REMARK  4 active torsions:
REMARK  status: ('A' for Active; 'I' for Inactive)
REMARK    1  A    between atoms: C2_2  and  C3_3 
REMARK    2  A    between atoms: C4_4  and  O1_5 
REMARK    3  A    between atoms: O1_5  and  C5_6 
REMARK       I    between atoms: C5_6  and  N1_8 
REMARK    4  A    between atoms: N2_9  and  C6_10 
ROOT
HETATM    1  C6  UNL     1      -1.141  -0.550   0.996  1.00  0.00     0.078 C 
HETATM    2  C7  UNL     1      -2.031  -0.822   1.994  1.00  0.00     0.121 C 
HETATM    3  C8  UNL     1      -3.423  -0.375   2.328  1.00  0.00     0.009 C 
HETATM    4  C9  UNL     1      -4.217   0.556   1.710  1.00  0.00     0.039 C 
HETATM    5  C10 UNL     1      -4.519   1.602   0.696  1.00  0.00     0.137 C 
HETATM    6  C11 UNL     1      -4.068   0.871  -0.530  1.00  0.00     0.111 C 
HETATM    7  N3  UNL     1      -4.922   0.003  -0.797  1.00  0.00    -0.228 NA
HETATM    8  C12 UNL     1      -5.812  -0.461   0.307  1.00  0.00     0.235 C 
HETATM    9  N4  UNL     1      -5.641   0.097   1.611  1.00  0.00    -0.246 NA
HETATM   10  N5  UNL     1      -2.952   0.956  -1.389  1.00  0.00    -0.347 N 
HETATM   11  C13 UNL     1      -1.801   0.150  -1.233  1.00  0.00     0.017 A 
HETATM   12  C14 UNL     1      -0.930  -0.826  -1.506  1.00  0.00     0.012 A 
HETATM   13  C15 UNL     1      -0.632   0.042  -0.316  1.00  0.00     0.087 A 
HETATM   14  H13 UNL     1      -3.236   1.693  -2.060  1.00  0.00     0.167 HD
ENDROOT
BRANCH   1  15
HETATM   15  N2  UNL     1      -0.190  -1.445   1.615  1.00  0.00    -0.180 NA
HETATM   16  N1  UNL     1       0.956  -1.682   1.219  1.00  0.00    -0.088 NA
HETATM   17  C5  UNL     1       1.594  -1.151   0.097  1.00  0.00     0.409 C 
HETATM   18  O2  UNL     1       2.539  -1.211   0.938  1.00  0.00    -0.234 OA
BRANCH  17  19
HETATM   19  O1  UNL     1       2.263  -0.625  -0.987  1.00  0.00    -0.271 OA
BRANCH  19  20
HETATM   20  C4  UNL     1       3.633  -0.316  -0.941  1.00  0.00     0.143 C 
HETATM   21  C3  UNL     1       4.322   0.525  -0.166  1.00  0.00    -0.002 C 
BRANCH  21  22
HETATM   22  C2  UNL     1       5.799   0.763  -0.222  1.00  0.00     0.024 C 
HETATM   23  C1  UNL     1       6.439  -0.089  -1.293  1.00  0.00     0.009 C 
ENDBRANCH  21  22
ENDBRANCH  19  20
ENDBRANCH  17  19
ENDBRANCH   1  15
TORSDOF 4
