REMARK  3 active torsions:
REMARK  status: ('A' for Active; 'I' for Inactive)
REMARK    1  A    between atoms: O1_2  and  C2_3 
REMARK    2  A    between atoms: C10_12  and  N2_13 
REMARK    3  A    between atoms: N2_13  and  C11_14 
ROOT
HETATM    1  C2  UNL     1       4.833  -0.244   0.359  1.00  0.00     0.069 A 
HETATM    2  C3  UNL     1       4.791  -1.575  -0.082  1.00  0.00     0.039 A 
HETATM    3  C4  UNL     1       3.584  -2.177  -0.383  1.00  0.00     0.040 A 
HETATM    4  C5  UNL     1       2.460  -1.395  -0.222  1.00  0.00     0.086 A 
HETATM    5  C6  UNL     1       2.410  -0.099   0.200  1.00  0.00    -0.004 A 
HETATM    6  C7  UNL     1       3.654   0.475   0.495  1.00  0.00     0.048 A 
HETATM    7  C8  UNL     1       1.410   0.922   0.451  1.00  0.00     0.161 C 
HETATM    8  N1  UNL     1       0.040   0.500   0.313  1.00  0.00    -0.379 N 
HETATM    9  C9  UNL     1      -0.449  -0.532  -0.547  1.00  0.00     0.129 A 
HETATM   10  C10 UNL     1      -1.712  -0.225  -1.022  1.00  0.00     0.160 A 
HETATM   11  N3  UNL     1      -2.305  -1.096  -1.843  1.00  0.00    -0.222 NA
HETATM   12  C17 UNL     1      -1.807  -2.260  -2.271  1.00  0.00     0.238 A 
HETATM   13  N4  UNL     1      -0.579  -2.558  -1.807  1.00  0.00    -0.215 NA
HETATM   14  C18 UNL     1       0.091  -1.720  -0.965  1.00  0.00     0.202 A 
HETATM   15  O2  UNL     1       1.348  -2.176  -0.575  1.00  0.00    -0.289 OA
HETATM   16  H9  UNL     1      -0.773   0.928   0.850  1.00  0.00     0.160 HD
ENDROOT
BRANCH  10  17
HETATM   17  N2  UNL     1      -2.381   0.993  -0.662  1.00  0.00    -0.339 N 
HETATM   18  H10 UNL     1      -2.034   1.984  -0.630  1.00  0.00     0.167 HD
BRANCH  17  19
HETATM   19  C11 UNL     1      -3.766   0.862  -0.280  1.00  0.00     0.035 A 
HETATM   20  C12 UNL     1      -4.291  -0.379   0.016  1.00  0.00     0.032 A 
HETATM   21  C13 UNL     1      -5.606  -0.594   0.388  1.00  0.00     0.046 A 
HETATM   22  C14 UNL     1      -6.443   0.496   0.467  1.00  0.00     0.138 A 
HETATM   23  F1  UNL     1      -7.752   0.301   0.835  1.00  0.00    -0.204 F 
HETATM   24  C15 UNL     1      -5.951   1.737   0.178  1.00  0.00     0.074 A 
HETATM   25 CL1  UNL     1      -7.086   3.059   0.307  1.00  0.00    -0.081 Cl
HETATM   26  C16 UNL     1      -4.645   1.920  -0.187  1.00  0.00     0.056 A 
ENDBRANCH  17  19
ENDBRANCH  10  17
BRANCH   1  27
HETATM   27  O1  UNL     1       6.124   0.134   0.591  1.00  0.00    -0.356 OA
HETATM   28  C1  UNL     1       6.627   1.352   1.030  1.00  0.00     0.210 C 
ENDBRANCH   1  27
TORSDOF 3
