REMARK  3 active torsions:
REMARK  status: ('A' for Active; 'I' for Inactive)
REMARK    1  A    between atoms: C2_2  and  O1_3 
REMARK    2  A    between atoms: O1_3  and  C3_4 
REMARK       I    between atoms: C3_4  and  N1_6 
REMARK    3  A    between atoms: N5_22  and  C16_23 
ROOT
HETATM    1  C3  UNL     1       3.685   1.482  -0.017  1.00  0.00     0.378 C 
HETATM    2  O2  UNL     1       4.532   0.581  -0.218  1.00  0.00    -0.237 OA
HETATM    3  N1  UNL     1       2.448   0.804   0.234  1.00  0.00    -0.254 N 
HETATM    4  C4  UNL     1       2.407  -0.636   0.214  1.00  0.00     0.168 C 
HETATM    5  C5  UNL     1       2.086  -1.216  -1.163  1.00  0.00     0.143 C 
HETATM    6  N2  UNL     1       1.994  -2.679  -0.982  1.00  0.00    -0.393 N 
HETATM    7  C6  UNL     1       3.310  -3.268  -0.672  1.00  0.00     0.148 C 
HETATM    8  C7  UNL     1       0.885  -3.596  -1.025  1.00  0.00     0.085 C 
HETATM    9  C8  UNL     1      -0.400  -3.682  -0.737  1.00  0.00     0.017 C 
HETATM   10  C9  UNL     1      -1.549  -2.934  -0.197  1.00  0.00    -0.000 C 
HETATM   11  C10 UNL     1      -1.947  -1.771   0.290  1.00  0.00     0.004 C 
HETATM   12  C11 UNL     1      -1.420  -0.455   0.589  1.00  0.00     0.154 C 
HETATM   13  C12 UNL     1      -0.842  -0.372   1.963  1.00  0.00     0.003 C 
HETATM   14  C13 UNL     1       0.270   0.249   2.424  1.00  0.00     0.015 C 
HETATM   15  C14 UNL     1       0.907   1.526   1.913  1.00  0.00     0.223 C 
HETATM   16  N3  UNL     1      -0.066   2.623   2.070  1.00  0.00    -0.258 NA
HETATM   17  C15 UNL     1      -1.322   2.736   1.708  1.00  0.00     0.219 C 
HETATM   18  N4  UNL     1      -2.152   1.980   0.836  1.00  0.00    -0.291 N 
HETATM   19  N5  UNL     1      -2.317   0.657   0.415  1.00  0.00    -0.280 N 
HETATM   20  N6  UNL     1       1.191   1.333   0.509  1.00  0.00    -0.205 NA
HETATM   21  H20 UNL     1      -2.841   2.620   0.372  1.00  0.00     0.188 HD
HETATM   22  H25 UNL     1       1.078   2.193  -0.072  1.00  0.00     0.149 HD
ENDROOT
BRANCH  19  23
HETATM   23  C16 UNL     1      -3.573   0.521  -0.239  1.00  0.00     0.053 A 
HETATM   24  C17 UNL     1      -3.850  -0.343  -1.276  1.00  0.00     0.031 A 
HETATM   25  C18 UNL     1      -5.080  -0.456  -1.853  1.00  0.00     0.004 A 
HETATM   26  C19 UNL     1      -6.143   0.304  -1.425  1.00  0.00     0.024 A 
HETATM   27  C20 UNL     1      -5.913   1.189  -0.384  1.00  0.00     0.036 A 
HETATM   28 CL1  UNL     1      -7.293   2.129   0.120  1.00  0.00    -0.084 Cl
HETATM   29  C21 UNL     1      -4.658   1.262   0.161  1.00  0.00     0.055 A 
ENDBRANCH  19  23
BRANCH   1  30
HETATM   30  O1  UNL     1       3.700   2.869   0.011  1.00  0.00    -0.295 OA
BRANCH  30  31
HETATM   31  C2  UNL     1       4.942   3.479  -0.240  1.00  0.00     0.163 C 
HETATM   32  C1  UNL     1       5.759   3.444  -1.287  1.00  0.00     0.038 C 
ENDBRANCH  30  31
ENDBRANCH   1  30
TORSDOF 3
