REMARK  8 active torsions:
REMARK  status: ('A' for Active; 'I' for Inactive)
REMARK    1  A    between atoms: N1_2  and  C2_3 
REMARK    2  A    between atoms: C2_3  and  C3_4 
REMARK    3  A    between atoms: C5_6  and  N2_7 
REMARK    4  A    between atoms: C10_13  and  N3_14 
REMARK    5  A    between atoms: C13_18  and  C14_19 
REMARK    6  A    between atoms: C14_19  and  N5_20 
REMARK       I    between atoms: N5_20  and  C16_22 
REMARK    7  A    between atoms: C16_22  and  O2_24 
REMARK    8  A    between atoms: O2_24  and  C17_25 
ROOT
HETATM    1  C3  UNL     1      -0.604  -0.975  -1.027  1.00  0.00    -0.011 A 
HETATM    2  C4  UNL     1      -1.844  -0.980  -0.601  1.00  0.00     0.014 A 
HETATM    3  C5  UNL     1      -2.099  -0.597   0.831  1.00  0.00     0.146 A 
HETATM    4  C11 UNL     1      -0.825  -0.279   1.450  1.00  0.00     0.119 A 
HETATM    5  N4  UNL     1       0.401  -0.276   1.017  1.00  0.00    -0.263 NA
HETATM    6  C12 UNL     1       0.648  -0.654  -0.370  1.00  0.00     0.061 A 
HETATM    7  C13 UNL     1       1.738  -0.728  -1.075  1.00  0.00     0.025 C 
ENDROOT
BRANCH   3   8
HETATM    8  N2  UNL     1      -3.122   0.356   0.861  1.00  0.00    -0.369 N 
HETATM    9  C6  UNL     1      -3.608   0.855   2.091  1.00  0.00     0.149 C 
HETATM   10  C7  UNL     1      -5.109   0.938   1.908  1.00  0.00     0.012 C 
HETATM   11  C8  UNL     1      -5.507   1.117   0.637  1.00  0.00     0.013 C 
HETATM   12 CL1  UNL     1      -7.234   1.238   0.256  1.00  0.00    -0.089 Cl
HETATM   13  C9  UNL     1      -4.708   1.229  -0.621  1.00  0.00     0.107 C 
HETATM   14  C10 UNL     1      -3.232   1.312  -0.181  1.00  0.00     0.320 C 
BRANCH  14  15
HETATM   15  N3  UNL     1      -3.130   2.671   0.348  1.00  0.00     0.101 N 
HETATM   16  H13 UNL     1      -2.203   2.919   0.717  1.00  0.00     0.315 HD
HETATM   17  H14 UNL     1      -3.584   3.384  -0.274  1.00  0.00     0.315 HD
ENDBRANCH  14  15
ENDBRANCH   3   8
BRANCH   1  18
HETATM   18  C2  UNL     1      -0.559  -1.375  -2.449  1.00  0.00     0.188 C 
BRANCH  18  19
HETATM   19  N1  UNL     1       0.202  -2.586  -2.620  1.00  0.00    -0.308 NA
HETATM   20  C1  UNL     1       0.203  -3.565  -1.818  1.00  0.00     0.142 C 
ENDBRANCH  18  19
ENDBRANCH   1  18
BRANCH   7  21
HETATM   21  C14 UNL     1       2.790  -0.376  -0.237  1.00  0.00     0.157 C 
BRANCH  21  22
HETATM   22  N5  UNL     1       3.817  -0.033   0.580  1.00  0.00    -0.329 N 
HETATM   23  C15 UNL     1       3.670  -0.220   2.040  1.00  0.00     0.155 C 
HETATM   24  C16 UNL     1       5.053   0.544   0.094  1.00  0.00     0.363 C 
HETATM   25  O1  UNL     1       5.081   0.674  -1.149  1.00  0.00    -0.238 OA
BRANCH  24  26
HETATM   26  O2  UNL     1       6.005   0.864   1.017  1.00  0.00    -0.289 OA
BRANCH  26  27
HETATM   27  C17 UNL     1       7.269   1.446   0.662  1.00  0.00     0.295 C 
HETATM   28 CL2  UNL     1       8.201   0.427  -0.421  1.00  0.00    -0.101 Cl
ENDBRANCH  26  27
ENDBRANCH  24  26
ENDBRANCH  21  22
ENDBRANCH   7  21
TORSDOF 8
