REMARK  4 active torsions:
REMARK  status: ('A' for Active; 'I' for Inactive)
REMARK    1  A    between atoms: N1_2  and  N2_3 
REMARK    2  A    between atoms: N3_4  and  C2_5 
REMARK    3  A    between atoms: C7_12  and  N6_13 
REMARK    4  A    between atoms: N6_13  and  C8_14 
ROOT
HETATM    1  C2  UNL     1       2.365   0.349  -0.677  1.00  0.00     0.081 A 
HETATM    2  C3  UNL     1       3.088  -0.824  -0.656  1.00  0.00     0.036 A 
HETATM    3  C4  UNL     1       2.429  -2.001  -0.370  1.00  0.00     0.035 A 
HETATM    4  C5  UNL     1       1.076  -1.984  -0.113  1.00  0.00     0.072 A 
HETATM    5  N4  UNL     1       0.468  -3.174   0.166  1.00  0.00    -0.241 NA
HETATM    6  C6  UNL     1      -0.844  -3.237   0.426  1.00  0.00     0.236 A 
HETATM    7  N5  UNL     1      -1.560  -2.111   0.410  1.00  0.00    -0.224 NA
HETATM    8  C7  UNL     1      -1.046  -0.907   0.148  1.00  0.00     0.142 A 
HETATM    9  C14 UNL     1       0.300  -0.848  -0.118  1.00  0.00     0.041 A 
HETATM   10  C15 UNL     1       1.015   0.289  -0.410  1.00  0.00     0.051 A 
ENDROOT
BRANCH   8  11
HETATM   11  N6  UNL     1      -1.785   0.300   0.125  1.00  0.00    -0.340 N 
HETATM   12  H8  UNL     1      -1.339   1.215  -0.072  1.00  0.00     0.167 HD
BRANCH  11  13
HETATM   13  C8  UNL     1      -3.160   0.527   0.339  1.00  0.00     0.035 A 
HETATM   14  C9  UNL     1      -3.788   1.772   0.382  1.00  0.00     0.029 A 
HETATM   15  C10 UNL     1      -5.133   1.940   0.592  1.00  0.00     0.004 A 
HETATM   16  C11 UNL     1      -5.966   0.860   0.777  1.00  0.00     0.024 A 
HETATM   17  C12 UNL     1      -5.395  -0.390   0.744  1.00  0.00     0.036 A 
HETATM   18 CL1  UNL     1      -6.493  -1.728   0.984  1.00  0.00    -0.084 Cl
HETATM   19  C13 UNL     1      -4.040  -0.514   0.531  1.00  0.00     0.053 A 
ENDBRANCH  11  13
ENDBRANCH   8  11
BRANCH   1  20
HETATM   20  N3  UNL     1       3.025   1.576  -0.971  1.00  0.00    -0.133 NA
HETATM   21  N2  UNL     1       4.124   1.944  -0.488  1.00  0.00    -0.073 NA
BRANCH  21  22
HETATM   22  N1  UNL     1       4.900   1.243   0.411  1.00  0.00    -0.300 N 
HETATM   23  C1  UNL     1       6.294   1.608   0.136  1.00  0.00     0.171 C 
HETATM   24  H4  UNL     1       4.692   0.553   1.193  1.00  0.00     0.183 HD
ENDBRANCH  21  22
ENDBRANCH   1  20
TORSDOF 4
