REMARK  7 active torsions:
REMARK  status: ('A' for Active; 'I' for Inactive)
REMARK    1  A    between atoms: O1_2  and  C2_3 
REMARK    2  A    between atoms: C9_11  and  N2_12 
REMARK    3  A    between atoms: N2_12  and  C10_13 
REMARK    4  A    between atoms: C11_14  and  C12_15 
REMARK    5  A    between atoms: C13_16  and  C14_17 
REMARK    6  A    between atoms: C14_17  and  C15_18 
REMARK    7  A    between atoms: C15_18  and  N3_19 
ROOT
HETATM    1  C2  UNL     1      -4.626  -0.068   0.098  1.00  0.00     0.069 A 
HETATM    2  C3  UNL     1      -4.347  -1.405  -0.075  1.00  0.00     0.039 A 
HETATM    3  C4  UNL     1      -3.032  -1.783   0.034  1.00  0.00     0.040 A 
HETATM    4  C5  UNL     1      -1.987  -0.939   0.297  1.00  0.00     0.085 A 
HETATM    5  C6  UNL     1      -2.222   0.417   0.478  1.00  0.00    -0.004 A 
HETATM    6  C7  UNL     1      -3.570   0.787   0.364  1.00  0.00     0.048 A 
HETATM    7  C8  UNL     1      -1.450   1.614   0.769  1.00  0.00     0.159 C 
HETATM    8  N1  UNL     1      -0.039   1.538   0.777  1.00  0.00    -0.380 N 
HETATM    9  C9  UNL     1       0.614   1.204  -0.449  1.00  0.00     0.308 C 
HETATM   10  N4  UNL     1       0.365  -0.152  -0.861  1.00  0.00    -0.238 NA
HETATM   11  C16 UNL     1      -0.549  -0.564  -1.641  1.00  0.00     0.233 C 
HETATM   12  N5  UNL     1      -0.367  -1.996  -1.722  1.00  0.00    -0.230 NA
HETATM   13  C17 UNL     1      -0.486  -2.604  -0.555  1.00  0.00     0.260 C 
HETATM   14  O2  UNL     1      -0.756  -1.559   0.357  1.00  0.00    -0.303 OA
HETATM   15  H9  UNL     1       0.396   1.210   1.643  1.00  0.00     0.157 HD
ENDROOT
BRANCH   9  16
HETATM   16  N2  UNL     1       2.071   1.268  -0.208  1.00  0.00    -0.361 N 
HETATM   17  H11 UNL     1       2.676   1.941  -0.767  1.00  0.00     0.162 HD
BRANCH  16  18
HETATM   18  C10 UNL     1       2.672   0.429   0.772  1.00  0.00     0.086 C 
HETATM   19  C11 UNL     1       3.803  -0.220   0.481  1.00  0.00     0.017 C 
BRANCH  19  20
HETATM   20  C12 UNL     1       4.408  -0.062  -0.832  1.00  0.00     0.002 C 
HETATM   21  C13 UNL     1       5.530  -0.705  -1.122  1.00  0.00     0.010 C 
BRANCH  21  22
HETATM   22  C14 UNL     1       6.123  -1.567  -0.076  1.00  0.00     0.078 C 
BRANCH  22  23
HETATM   23  C15 UNL     1       6.923  -0.880   0.728  1.00  0.00    -0.001 C 
BRANCH  23  24
HETATM   24  N3  UNL     1       7.484  -0.204   1.676  1.00  0.00    -0.133 NA
HETATM   25 CL1  UNL     1       6.426   0.510   2.887  1.00  0.00     0.046 Cl
ENDBRANCH  23  24
ENDBRANCH  22  23
ENDBRANCH  21  22
ENDBRANCH  19  20
ENDBRANCH  16  18
ENDBRANCH   9  16
BRANCH   1  26
HETATM   26  O1  UNL     1      -5.967   0.295  -0.016  1.00  0.00    -0.356 OA
HETATM   27  C1  UNL     1      -6.343   1.655   0.148  1.00  0.00     0.210 C 
ENDBRANCH   1  26
TORSDOF 7
