REMARK  2 active torsions:
REMARK  status: ('A' for Active; 'I' for Inactive)
REMARK    1  A    between atoms: C7_12  and  C8_13 
REMARK    2  A    between atoms: C14_20  and  N6_21 
ROOT
HETATM    1  C1  UNL     1      -3.288  -3.720   0.809  1.00  0.00     0.176 C 
HETATM    2  N1  UNL     1      -3.678  -2.332   0.659  1.00  0.00    -0.274 N 
HETATM    3  N2  UNL     1      -4.847  -1.609   0.798  1.00  0.00    -0.075 NA
HETATM    4  N3  UNL     1      -5.016  -0.637   1.586  1.00  0.00    -0.163 NA
HETATM    5  C2  UNL     1      -4.117  -0.058   2.480  1.00  0.00     0.185 C 
HETATM    6  C3  UNL     1      -3.127   0.655   2.976  1.00  0.00     0.006 C 
HETATM    7  C4  UNL     1      -2.012   1.583   2.813  1.00  0.00     0.017 C 
HETATM    8  C5  UNL     1      -1.020   2.420   2.592  1.00  0.00     0.117 C 
HETATM    9  N4  UNL     1      -0.511   3.035   1.382  1.00  0.00    -0.254 NA
HETATM   10  C6  UNL     1       0.360   2.512   0.639  1.00  0.00     0.232 C 
HETATM   11  N5  UNL     1       1.323   1.835  -0.097  1.00  0.00    -0.243 NA
HETATM   12  C7  UNL     1       1.493   0.736  -0.647  1.00  0.00     0.080 C 
HETATM   13  C14 UNL     1       0.728  -0.496  -0.728  1.00  0.00     0.290 C 
HETATM   14  C15 UNL     1      -0.703  -0.322  -0.475  1.00  0.00     0.142 A 
HETATM   15 CL2  UNL     1      -1.311  -0.024  -2.275  1.00  0.00    -0.121 Cl
HETATM   16  O1  UNL     1      -1.441  -1.479  -0.247  1.00  0.00     0.000 OA
HETATM   17  C16 UNL     1      -2.753  -1.367   0.214  1.00  0.00     0.148 A 
HETATM   18  O2  UNL     1      -1.634  -1.342  -0.184  1.00  0.00     0.000 OA
ENDROOT
BRANCH  12  19
HETATM   19  C8  UNL     1       2.850   0.935  -1.184  1.00  0.00    -0.008 A 
HETATM   20  C9  UNL     1       3.595   2.083  -1.075  1.00  0.00     0.013 A 
HETATM   21  C10 UNL     1       4.891   2.209  -1.583  1.00  0.00     0.003 A 
HETATM   22  C11 UNL     1       5.502   1.167  -2.237  1.00  0.00     0.024 A 
HETATM   23  C12 UNL     1       4.806   0.000  -2.375  1.00  0.00     0.035 A 
HETATM   24 CL1  UNL     1       5.523  -1.356  -3.207  1.00  0.00    -0.084 Cl
HETATM   25  C13 UNL     1       3.534  -0.056  -1.850  1.00  0.00     0.037 A 
ENDBRANCH  12  19
BRANCH  13  26
HETATM   26  N6  UNL     1       0.914  -1.193  -1.976  1.00  0.00     0.090 N 
HETATM   27  H14 UNL     1       0.597  -0.631  -2.791  1.00  0.00     0.313 HD
HETATM   28  H15 UNL     1       0.357  -2.084  -2.018  1.00  0.00     0.313 HD
ENDBRANCH  13  26
TORSDOF 2
