REMARK  10 active torsions:
REMARK  status: ('A' for Active; 'I' for Inactive)
REMARK    1  A    between atoms: N1_2  and  C2_3 
REMARK       I    between atoms: N1_2  and  C16_23 
REMARK    2  A    between atoms: C2_3  and  C3_4 
REMARK    3  A    between atoms: C3_4  and  C4_5 
REMARK    4  A    between atoms: C6_9  and  N4_10 
REMARK    5  A    between atoms: N4_10  and  C7_11 
REMARK    6  A    between atoms: C13_18  and  C14_19 
REMARK    7  A    between atoms: C14_19  and  C15_20 
REMARK    8  A    between atoms: C15_20  and  N5_21 
REMARK    9  A    between atoms: C16_23  and  O2_25 
REMARK   10  A    between atoms: O2_25  and  C17_26 
ROOT
HETATM    1  C4  UNL     1       0.772   0.162   0.452  1.00  0.00     0.069 A 
HETATM    2  N2  UNL     1       0.695   1.236   1.251  1.00  0.00    -0.241 NA
HETATM    3  C5  UNL     1      -0.408   1.886   1.550  1.00  0.00     0.235 A 
HETATM    4  N3  UNL     1      -1.512   1.406   0.993  1.00  0.00    -0.224 NA
HETATM    5  C6  UNL     1      -1.593   0.353   0.182  1.00  0.00     0.141 A 
HETATM    6  C13 UNL     1      -0.431  -0.309  -0.115  1.00  0.00     0.036 A 
ENDROOT
BRANCH   1   7
HETATM    7  C3  UNL     1       1.903  -0.485   0.156  1.00  0.00     0.025 C 
BRANCH   7   8
HETATM    8  C2  UNL     1       2.929  -1.368  -0.337  1.00  0.00     0.157 C 
BRANCH   8   9
HETATM    9  N1  UNL     1       3.981  -0.619  -1.052  1.00  0.00    -0.329 N 
HETATM   10  C1  UNL     1       3.910  -0.352  -2.477  1.00  0.00     0.155 C 
HETATM   11  C16 UNL     1       5.087  -0.148  -0.322  1.00  0.00     0.363 C 
HETATM   12  O1  UNL     1       6.005   0.497  -0.873  1.00  0.00    -0.238 OA
BRANCH  11  13
HETATM   13  O2  UNL     1       5.267  -0.343   1.041  1.00  0.00    -0.289 OA
BRANCH  13  14
HETATM   14  C17 UNL     1       6.454   0.204   1.638  1.00  0.00     0.295 C 
HETATM   15 CL2  UNL     1       7.865  -0.551   0.818  1.00  0.00    -0.101 Cl
ENDBRANCH  13  14
ENDBRANCH  11  13
ENDBRANCH   8   9
ENDBRANCH   7   8
ENDBRANCH   1   7
BRANCH   6  16
HETATM   16  C14 UNL     1      -0.590  -1.334  -0.898  1.00  0.00     0.014 C 
BRANCH  16  17
HETATM   17  C15 UNL     1      -1.524  -2.143  -1.665  1.00  0.00     0.201 C 
BRANCH  17  18
HETATM   18  N5  UNL     1      -2.262  -3.003  -0.783  1.00  0.00    -0.197 NA
HETATM   19  N6  UNL     1      -1.611  -3.808  -0.096  1.00  0.00    -0.208 NA
HETATM   20  H16 UNL     1      -0.572  -3.894  -0.123  1.00  0.00     0.211 HD
ENDBRANCH  17  18
ENDBRANCH  16  17
ENDBRANCH   6  16
BRANCH   5  21
HETATM   21  N4  UNL     1      -2.931   0.124  -0.226  1.00  0.00    -0.340 N 
HETATM   22  H8  UNL     1      -3.435  -0.532  -0.856  1.00  0.00     0.167 HD
BRANCH  21  23
HETATM   23  C7  UNL     1      -4.036   0.882   0.239  1.00  0.00     0.035 A 
HETATM   24  C8  UNL     1      -4.039   1.233   1.581  1.00  0.00     0.029 A 
HETATM   25  C9  UNL     1      -5.038   1.991   2.152  1.00  0.00     0.004 A 
HETATM   26  C10 UNL     1      -6.105   2.447   1.406  1.00  0.00     0.024 A 
HETATM   27  C11 UNL     1      -6.124   2.112   0.074  1.00  0.00     0.036 A 
HETATM   28 CL1  UNL     1      -7.397   2.601  -1.029  1.00  0.00    -0.084 Cl
HETATM   29  C12 UNL     1      -5.118   1.355  -0.478  1.00  0.00     0.053 A 
ENDBRANCH  21  23
ENDBRANCH   5  21
TORSDOF 10
