REMARK  6 active torsions:
REMARK  status: ('A' for Active; 'I' for Inactive)
REMARK    1  A    between atoms: S1_2  and  C2_3 
REMARK    2  A    between atoms: C6_8  and  C7_9 
REMARK    3  A    between atoms: N2_11  and  C9_12 
REMARK    4  A    between atoms: C9_12  and  C10_13 
REMARK    5  A    between atoms: C10_13  and  N3_14 
REMARK    6  A    between atoms: C13_18  and  N5_19 
ROOT
HETATM    1  C7  UNL     1      -0.307  -0.183   0.543  1.00  0.00     0.012 A 
HETATM    2  C8  UNL     1      -1.296  -1.142   0.797  1.00  0.00     0.105 A 
HETATM    3  N2  UNL     1      -2.478  -0.535   0.528  1.00  0.00    -0.351 N 
HETATM    4  C11 UNL     1      -2.304   0.732   0.126  1.00  0.00     0.083 A 
HETATM    5  C12 UNL     1      -3.232   1.686  -0.244  1.00  0.00     0.168 A 
HETATM    6  N4  UNL     1      -2.729   2.899  -0.612  1.00  0.00    -0.073 NA
HETATM    7  C13 UNL     1      -1.381   3.096  -0.595  1.00  0.00     0.720 A 
HETATM    8  N6  UNL     1      -0.476   2.145  -0.228  1.00  0.00    -0.060 NA
HETATM    9  C14 UNL     1      -0.946   0.964   0.132  1.00  0.00     0.116 A 
ENDROOT
BRANCH   1  10
HETATM   10  C6  UNL     1       1.103  -0.512   0.735  1.00  0.00     0.025 C 
HETATM   11  C5  UNL     1       2.207  -0.307   0.076  1.00  0.00    -0.025 C 
HETATM   12  C2  UNL     1       3.620  -0.689   0.358  1.00  0.00     0.101 C 
HETATM   13  C4  UNL     1       2.371   0.391  -1.215  1.00  0.00     0.118 C 
HETATM   14  C3  UNL     1       4.011  -1.171  -1.046  1.00  0.00     0.168 C 
HETATM   15  N1  UNL     1       3.401  -0.113  -1.839  1.00  0.00    -0.300 NA
BRANCH  12  16
HETATM   16  S1  UNL     1       4.515   0.789   0.836  1.00  0.00    -0.162 SA
HETATM   17  C1  UNL     1       6.293   0.460   1.049  1.00  0.00     0.090 C 
ENDBRANCH  12  16
ENDBRANCH   1  10
BRANCH   3  18
HETATM   18  C9  UNL     1      -3.715  -1.313   0.705  1.00  0.00     0.158 C 
BRANCH  18  19
HETATM   19  C10 UNL     1      -4.055  -1.995  -0.603  1.00  0.00     0.286 C 
BRANCH  19  20
HETATM   20  N3  UNL     1      -5.250  -2.771  -0.447  1.00  0.00     0.079 N 
HETATM   21  H14 UNL     1      -5.055  -3.816  -0.403  1.00  0.00     0.312 HD
HETATM   22  H15 UNL     1      -5.896  -2.459   0.300  1.00  0.00     0.312 HD
ENDBRANCH  19  20
ENDBRANCH  18  19
ENDBRANCH   3  18
BRANCH   7  23
HETATM   23  N5  UNL     1      -0.990   4.406  -0.999  1.00  0.00    -0.231 N 
HETATM   24  H17 UNL     1      -0.527   5.128  -0.397  1.00  0.00     0.174 HD
HETATM   25  H18 UNL     1      -1.057   4.925  -1.902  1.00  0.00     0.174 HD
ENDBRANCH   7  23
TORSDOF 6
