REMARK  2 active torsions:
REMARK  status: ('A' for Active; 'I' for Inactive)
REMARK    1  A    between atoms: C7_7  and  N1_8 
REMARK    2  A    between atoms: N1_8  and  C8_9 
ROOT
HETATM    1  C1  UNL     1       7.355  -1.195   1.830  1.00  0.00     0.018 C 
HETATM    2  C2  UNL     1       6.722  -0.589   0.998  1.00  0.00    -0.078 C 
HETATM    3  C3  UNL     1       5.968   0.132  -0.001  1.00  0.00     0.019 A 
HETATM    4  C4  UNL     1       6.500   1.301  -0.504  1.00  0.00     0.021 A 
HETATM    5  C5  UNL     1       5.808   2.026  -1.467  1.00  0.00     0.004 A 
HETATM    6  C6  UNL     1       4.571   1.591  -1.941  1.00  0.00     0.029 A 
HETATM    7  C7  UNL     1       4.055   0.438  -1.440  1.00  0.00     0.034 A 
HETATM    8  C21 UNL     1       4.745  -0.291  -0.475  1.00  0.00     0.050 A 
ENDROOT
BRANCH   7   9
HETATM    9  N1  UNL     1       2.807  -0.201  -1.774  1.00  0.00    -0.343 N 
HETATM   10  H5  UNL     1       2.656  -0.913  -2.522  1.00  0.00     0.167 HD
BRANCH   9  11
HETATM   11  C8  UNL     1       1.716   0.225  -0.968  1.00  0.00     0.129 C 
HETATM   12  N2  UNL     1       1.831   1.228  -0.088  1.00  0.00    -0.227 NA
HETATM   13  C9  UNL     1       0.584   1.472   0.603  1.00  0.00     0.229 C 
HETATM   14  N3  UNL     1      -0.282   2.463   0.674  1.00  0.00    -0.279 NA
HETATM   15  C10 UNL     1      -1.442   2.216   1.534  1.00  0.00     0.177 C 
HETATM   16  C11 UNL     1      -2.581   3.023   1.059  1.00  0.00    -0.009 C 
HETATM   17  C12 UNL     1      -3.728   2.591   0.491  1.00  0.00    -0.029 C 
HETATM   18  C13 UNL     1      -4.041   1.180   0.228  1.00  0.00     0.029 C 
HETATM   19  C14 UNL     1      -5.258   0.636   0.939  1.00  0.00     0.030 C 
HETATM   20  C15 UNL     1      -5.364  -0.845   0.487  1.00  0.00     0.174 C 
HETATM   21  O1  UNL     1      -4.167  -1.506   0.771  1.00  0.00    -0.363 OA
HETATM   22  C16 UNL     1      -3.936  -2.831   0.490  1.00  0.00     0.130 C 
HETATM   23  C17 UNL     1      -2.661  -3.143   0.261  1.00  0.00    -0.001 C 
HETATM   24  C18 UNL     1      -1.398  -2.372   0.233  1.00  0.00     0.055 C 
HETATM   25  C19 UNL     1      -0.596  -2.612  -1.026  1.00  0.00     0.172 C 
HETATM   26  O2  UNL     1       0.579  -1.863  -1.040  1.00  0.00    -0.383 OA
HETATM   27  C20 UNL     1       0.427  -0.512  -1.139  1.00  0.00     0.246 C 
ENDBRANCH   9  11
ENDBRANCH   7   9
TORSDOF 2
