REMARK  4 active torsions:
REMARK  status: ('A' for Active; 'I' for Inactive)
REMARK    1  A    between atoms: C2_2  and  C3_3 
REMARK       I    between atoms: C3_3  and  N1_5 
REMARK    2  A    between atoms: C7_9  and  C8_10 
REMARK    3  A    between atoms: C8_10  and  N2_11 
REMARK    4  A    between atoms: N2_11  and  C9_12 
ROOT
HETATM    1  C9  UNL     1      -0.588  -0.305   0.949  1.00  0.00     0.010 C 
HETATM    2  C10 UNL     1      -1.415   0.655   0.261  1.00  0.00     0.040 C 
HETATM    3  C11 UNL     1      -2.613   0.183  -0.605  1.00  0.00     0.017 C 
HETATM    4  C12 UNL     1      -3.552   0.858   0.201  1.00  0.00     0.155 C 
HETATM    5  N3  UNL     1      -2.894   1.861   0.947  1.00  0.00    -0.346 N 
HETATM    6  C13 UNL     1      -2.614   2.327   2.286  1.00  0.00     0.094 C 
HETATM    7  C14 UNL     1      -2.025   1.628   3.320  1.00  0.00     0.068 C 
HETATM    8  C15 UNL     1      -1.731   0.264   2.880  1.00  0.00     0.159 C 
HETATM    9  O2  UNL     1      -0.822  -0.083   3.687  1.00  0.00    -0.292 OA
HETATM   10  C16 UNL     1      -2.151  -0.704   1.972  1.00  0.00     0.096 A 
HETATM   11  C17 UNL     1      -2.645  -1.608   1.085  1.00  0.00    -0.051 A 
HETATM   12  C18 UNL     1      -1.176  -1.742   1.482  1.00  0.00     0.096 A 
HETATM   13  C19 UNL     1      -3.882  -1.950   0.334  1.00  0.00     0.130 C 
HETATM   14 CL1  UNL     1      -4.292  -3.627   0.631  1.00  0.00    -0.104 Cl
HETATM   15  C20 UNL     1      -3.548  -1.812  -1.184  1.00  0.00     0.009 C 
HETATM   16  C21 UNL     1      -2.864  -0.759  -1.773  1.00  0.00     0.014 C 
HETATM   17  C22 UNL     1      -5.095  -1.111   0.502  1.00  0.00     0.346 C 
HETATM   18  F1  UNL     1      -5.711  -1.140   1.699  1.00  0.00    -0.216 F 
HETATM   19  O3  UNL     1      -4.903   0.315   0.049  1.00  0.00    -0.296 OA
HETATM   20  H15 UNL     1      -2.535   2.285   0.091  1.00  0.00     0.167 HD
ENDROOT
BRANCH   1  21
HETATM   21  N2  UNL     1       0.607   0.388   0.962  1.00  0.00    -0.391 N 
HETATM   22  H13 UNL     1       0.731   1.113   1.679  1.00  0.00     0.159 HD
BRANCH  21  23
HETATM   23  C8  UNL     1       1.464  -0.107  -0.113  1.00  0.00     0.145 C 
BRANCH  23  24
HETATM   24  C7  UNL     1       2.806   0.635  -0.139  1.00  0.00     0.105 C 
HETATM   25  N1  UNL     1       3.630   0.118  -1.215  1.00  0.00    -0.342 N 
HETATM   26  C3  UNL     1       3.853   0.497  -2.568  1.00  0.00     0.242 C 
HETATM   27  C4  UNL     1       4.320  -1.028  -0.659  1.00  0.00     0.127 C 
HETATM   28  O1  UNL     1       4.668  -0.230  -3.191  1.00  0.00    -0.268 OA
HETATM   29  C5  UNL     1       4.811  -0.456   0.669  1.00  0.00     0.022 C 
HETATM   30  C6  UNL     1       3.597   0.331   1.116  1.00  0.00     0.028 C 
BRANCH  26  31
HETATM   31  C2  UNL     1       3.312   1.569  -3.358  1.00  0.00     0.064 C 
HETATM   32  C1  UNL     1       3.857   1.463  -4.555  1.00  0.00     0.017 C 
ENDBRANCH  26  31
ENDBRANCH  23  24
ENDBRANCH  21  23
ENDBRANCH   1  21
TORSDOF 4
