REMARK  6 active torsions:
REMARK  status: ('A' for Active; 'I' for Inactive)
REMARK    1  A    between atoms: C3_3  and  C4_4 
REMARK    2  A    between atoms: C8_8  and  C9_9 
REMARK    3  A    between atoms: C9_9  and  C10_10 
REMARK    4  A    between atoms: C9_9  and  C11_12 
REMARK    5  A    between atoms: C14_15  and  S1_16 
REMARK    6  A    between atoms: C20_23  and  O3_24 
ROOT
HETATM    1  C4  UNL     1      -2.882   0.508  -0.769  1.00  0.00    -0.024 A 
HETATM    2  C5  UNL     1      -2.534   1.174  -1.938  1.00  0.00     0.012 A 
HETATM    3  C6  UNL     1      -1.181   1.329  -2.253  1.00  0.00     0.002 A 
HETATM    4  C7  UNL     1      -0.190   0.825  -1.415  1.00  0.00     0.012 A 
HETATM    5  C8  UNL     1      -0.510   0.166  -0.260  1.00  0.00    -0.020 A 
HETATM    6  C18 UNL     1      -1.857   0.040   0.007  1.00  0.00     0.024 A 
ENDROOT
BRANCH   5   7
HETATM    7  C9  UNL     1       0.466  -0.373   0.642  1.00  0.00     0.039 C 
BRANCH   7   8
HETATM    8  C10 UNL     1       0.088  -0.859   1.800  1.00  0.00     0.234 C 
HETATM    9  O1  UNL     1      -0.357  -1.081   2.946  1.00  0.00    -0.283 OA
ENDBRANCH   7   8
BRANCH   7  10
HETATM   10  C11 UNL     1       1.880  -0.442   0.402  1.00  0.00    -0.021 A 
HETATM   11  C12 UNL     1       2.514  -0.867  -0.745  1.00  0.00     0.014 A 
HETATM   12  C13 UNL     1       3.890  -0.897  -0.881  1.00  0.00     0.022 A 
HETATM   13  C14 UNL     1       4.719  -0.490   0.159  1.00  0.00     0.031 A 
HETATM   14  C16 UNL     1       4.111  -0.061   1.318  1.00  0.00     0.022 A 
HETATM   15  C17 UNL     1       2.737  -0.039   1.430  1.00  0.00     0.014 A 
BRANCH  13  16
HETATM   16  S1  UNL     1       6.468  -0.471   0.141  1.00  0.00     0.045 S 
HETATM   17  C15 UNL     1       7.167   1.070  -0.444  1.00  0.00     0.133 C 
HETATM   18  O2  UNL     1       6.989  -0.800   1.520  1.00  0.00    -0.253 OA
ENDBRANCH  13  16
ENDBRANCH   7  10
ENDBRANCH   5   7
BRANCH   1  19
HETATM   19  C3  UNL     1      -4.268   0.284  -0.331  1.00  0.00    -0.015 A 
HETATM   20  C2  UNL     1      -4.998  -0.657   0.282  1.00  0.00    -0.018 A 
HETATM   21  C1  UNL     1      -4.795  -2.004   0.859  1.00  0.00     0.052 C 
HETATM   22  C20 UNL     1      -6.196   0.199   0.173  1.00  0.00     0.073 A 
HETATM   23  C19 UNL     1      -5.445   1.126  -0.438  1.00  0.00     0.050 A 
BRANCH  22  24
HETATM   24  O3  UNL     1      -7.539   0.075   0.555  1.00  0.00    -0.360 OA
HETATM   25  H16 UNL     1      -7.965   0.884   0.979  1.00  0.00     0.217 HD
ENDBRANCH  22  24
ENDBRANCH   1  19
TORSDOF 6
