REMARK  5 active torsions:
REMARK  status: ('A' for Active; 'I' for Inactive)
REMARK    1  A    between atoms: C2_2  and  C3_3 
REMARK       I    between atoms: C3_3  and  N1_5 
REMARK    2  A    between atoms: C7_9  and  C8_10 
REMARK       I    between atoms: C8_10  and  N2_12 
REMARK    3  A    between atoms: N2_12  and  C9_13 
REMARK    4  A    between atoms: C11_16  and  N3_17 
REMARK    5  A    between atoms: N3_17  and  C12_18 
ROOT
HETATM    1  C9  UNL     1       0.003   1.227  -0.888  1.00  0.00     0.078 C 
HETATM    2  C10 UNL     1       0.436   0.378  -1.766  1.00  0.00     0.170 C 
HETATM    3  O3  UNL     1       1.785   0.386  -2.002  1.00  0.00    -0.316 OA
HETATM    4  C11 UNL     1       2.771  -0.147  -1.156  1.00  0.00     0.358 C 
HETATM    5  N4  UNL     1       2.607   0.617   0.104  1.00  0.00    -0.234 NA
HETATM    6  C18 UNL     1       2.707   1.910  -0.067  1.00  0.00     0.191 C 
HETATM    7  N5  UNL     1       2.597   2.894   0.923  1.00  0.00    -0.400 NA
HETATM    8  C19 UNL     1       1.451   3.346   1.342  1.00  0.00     0.328 C 
HETATM    9  C20 UNL     1       0.335   2.776   0.732  1.00  0.00     0.029 C 
HETATM   10  C21 UNL     1      -0.620   2.171   0.087  1.00  0.00     0.061 C 
HETATM   11 CL1  UNL     1      -2.265   2.614   0.511  1.00  0.00    -0.082 Cl
ENDROOT
BRANCH   1  12
HETATM   12  N2  UNL     1      -1.313   0.634  -1.230  1.00  0.00    -0.322 N 
HETATM   13  C8  UNL     1      -2.205  -0.057  -0.338  1.00  0.00     0.245 C 
HETATM   14  O2  UNL     1      -1.822  -0.151   0.875  1.00  0.00    -0.271 OA
HETATM   15  H11 UNL     1      -1.844   0.642  -2.181  1.00  0.00     0.169 HD
BRANCH  13  16
HETATM   16  C7  UNL     1      -3.512  -0.653  -0.737  1.00  0.00     0.180 C 
HETATM   17  N1  UNL     1      -4.529  -0.543   0.287  1.00  0.00    -0.335 N 
HETATM   18  C3  UNL     1      -4.723  -0.025   1.604  1.00  0.00     0.243 C 
HETATM   19  C4  UNL     1      -5.587  -1.218  -0.501  1.00  0.00     0.127 C 
HETATM   20  O1  UNL     1      -4.212   0.554   2.583  1.00  0.00    -0.268 OA
HETATM   21  C5  UNL     1      -4.879  -2.584  -0.639  1.00  0.00     0.022 C 
HETATM   22  C6  UNL     1      -3.407  -2.173  -0.837  1.00  0.00     0.037 C 
BRANCH  18  23
HETATM   23  C2  UNL     1      -6.041  -0.149   2.198  1.00  0.00     0.064 C 
HETATM   24  C1  UNL     1      -6.110   0.365   3.402  1.00  0.00     0.017 C 
ENDBRANCH  18  23
ENDBRANCH  13  16
ENDBRANCH   1  12
BRANCH   4  25
HETATM   25  N3  UNL     1       4.048   0.224  -1.722  1.00  0.00    -0.343 N 
HETATM   26  H14 UNL     1       4.140   0.885  -2.548  1.00  0.00     0.164 HD
BRANCH  25  27
HETATM   27  C12 UNL     1       5.323  -0.211  -1.290  1.00  0.00     0.070 A 
HETATM   28  C13 UNL     1       5.261  -1.109  -0.235  1.00  0.00     0.035 A 
HETATM   29  C14 UNL     1       6.359  -1.668   0.338  1.00  0.00     0.044 A 
HETATM   30  C15 UNL     1       7.624  -1.375  -0.099  1.00  0.00     0.119 A 
HETATM   31  F1  UNL     1       8.713  -1.926   0.458  1.00  0.00    -0.206 F 
HETATM   32  C16 UNL     1       7.716  -0.474  -1.160  1.00  0.00     0.086 A 
HETATM   33  C17 UNL     1       6.580   0.068  -1.709  1.00  0.00     0.145 A 
HETATM   34  F2  UNL     1       6.598   0.963  -2.753  1.00  0.00    -0.204 F 
ENDBRANCH  25  27
ENDBRANCH   4  25
TORSDOF 5
