REMARK  4 active torsions:
REMARK  status: ('A' for Active; 'I' for Inactive)
REMARK    1  A    between atoms: O1_1  and  C3_4 
REMARK    2  A    between atoms: C12_16  and  C13_17 
REMARK    3  A    between atoms: C13_17  and  C14_18 
REMARK    4  A    between atoms: C15_19  and  N3_20 
ROOT
HETATM    1  O1  UNL     1      -1.978   1.277   0.598  1.00  0.00     0.000 OA
HETATM    2  C1  UNL     1      -2.979   1.088   1.215  1.00  0.00     0.087 A 
HETATM    3  C2  UNL     1      -2.655   1.716  -0.164  1.00  0.00     0.033 A 
HETATM    4  C3  UNL     1      -1.716   0.697  -0.076  1.00  0.00     0.003 A 
HETATM    5  C4  UNL     1      -1.513   1.208  -1.390  1.00  0.00     0.022 A 
HETATM    6  C5  UNL     1      -2.509   0.244  -2.218  1.00  0.00     0.002 C 
HETATM    7  C6  UNL     1      -3.917   0.237  -1.896  1.00  0.00     0.002 C 
HETATM    8  C7  UNL     1      -4.948  -0.194  -0.971  1.00  0.00     0.027 C 
HETATM    9  C8  UNL     1      -4.977   0.057   0.552  1.00  0.00     0.122 C 
HETATM   10  N1  UNL     1      -4.280   1.401   0.590  1.00  0.00    -0.401 N 
HETATM   11  C9  UNL     1      -4.155  -1.115   1.050  1.00  0.00     0.257 A 
HETATM   12  O2  UNL     1      -3.006  -0.902   1.301  1.00  0.00     0.000 OA
HETATM   13  N2  UNL     1      -2.912  -1.717   1.517  1.00  0.00     0.104 N 
HETATM   14  C10 UNL     1      -1.551  -1.134   1.735  1.00  0.00     0.305 A 
HETATM   15  C11 UNL     1      -1.035  -0.481   0.487  1.00  0.00    -0.045 C 
HETATM   16  C12 UNL     1       0.013  -0.879  -0.196  1.00  0.00    -0.018 C 
HETATM   17  H11 UNL     1      -5.069   1.997   0.142  1.00  0.00     0.154 HD
HETATM   18  H12 UNL     1      -3.137  -2.792   1.712  1.00  0.00     0.317 HD
ENDROOT
BRANCH  16  19
HETATM   19  C13 UNL     1       0.892  -1.975   0.066  1.00  0.00     0.056 C 
BRANCH  19  20
HETATM   20  C14 UNL     1       2.295  -1.447   0.270  1.00  0.00    -0.006 C 
HETATM   21  C15 UNL     1       2.673  -0.161   0.215  1.00  0.00     0.085 C 
BRANCH  21  22
HETATM   22  N3  UNL     1       3.977   0.320   0.406  1.00  0.00    -0.354 N 
HETATM   23  C16 UNL     1       5.016   0.142  -0.591  1.00  0.00     0.194 C 
HETATM   24  C17 UNL     1       6.202  -0.526   0.008  1.00  0.00     0.108 C 
HETATM   25  F1  UNL     1       6.801  -1.634  -0.480  1.00  0.00    -0.209 F 
HETATM   26  C18 UNL     1       6.624   0.112   1.118  1.00  0.00     0.017 C 
HETATM   27  C19 UNL     1       5.867   1.335   1.552  1.00  0.00     0.089 C 
HETATM   28  C20 UNL     1       4.401   1.032   1.606  1.00  0.00     0.274 C 
HETATM   29  F2  UNL     1       4.159   0.212   2.683  1.00  0.00    -0.227 F 
ENDBRANCH  21  22
ENDBRANCH  19  20
ENDBRANCH  16  19
TORSDOF 4
