REMARK  3 active torsions:
REMARK  status: ('A' for Active; 'I' for Inactive)
REMARK    1  A    between atoms: C5_5  and  C6_6 
REMARK    2  A    between atoms: C11_12  and  C12_13 
REMARK    3  A    between atoms: C15_16  and  S1_17 
ROOT
HETATM    1  C6  UNL     1      -1.081  -1.954  -0.009  1.00  0.00     0.090 A 
HETATM    2  C7  UNL     1      -1.408  -2.580  -1.210  1.00  0.00     0.058 A 
HETATM    3  C8  UNL     1      -2.211  -3.537  -0.367  1.00  0.00     0.009 A 
HETATM    4  C9  UNL     1      -1.809  -2.939   0.719  1.00  0.00     0.069 A 
HETATM    5  O1  UNL     1      -1.584  -2.596   2.086  1.00  0.00    -0.325 OA
HETATM    6  C10 UNL     1      -0.542  -1.618   2.029  1.00  0.00     0.151 C 
HETATM    7  C11 UNL     1      -0.160  -1.248   0.777  1.00  0.00    -0.004 C 
ENDROOT
BRANCH   7   8
HETATM    8  C12 UNL     1       0.947  -0.342   0.536  1.00  0.00    -0.026 A 
HETATM    9  C13 UNL     1       1.725   0.235   1.516  1.00  0.00     0.013 A 
HETATM   10  C14 UNL     1       2.743   1.075   1.142  1.00  0.00     0.022 A 
HETATM   11  C15 UNL     1       2.970   1.327  -0.207  1.00  0.00     0.031 A 
HETATM   12  C17 UNL     1       2.193   0.751  -1.191  1.00  0.00     0.022 A 
HETATM   13  C18 UNL     1       1.168  -0.096  -0.803  1.00  0.00     0.013 A 
BRANCH  11  14
HETATM   14  S1  UNL     1       4.319   2.432  -0.518  1.00  0.00     0.045 S 
HETATM   15  C16 UNL     1       5.876   1.569  -0.703  1.00  0.00     0.133 C 
HETATM   16  O2  UNL     1       4.028   3.292  -1.724  1.00  0.00    -0.253 OA
ENDBRANCH  11  14
ENDBRANCH   7   8
BRANCH   1  17
HETATM   17  C5  UNL     1      -2.275  -0.702  -0.095  1.00  0.00     0.073 A 
HETATM   18  C4  UNL     1      -3.593  -0.947  -0.381  1.00  0.00     0.037 A 
HETATM   19  C3  UNL     1      -4.147   0.312  -0.341  1.00  0.00     0.035 A 
HETATM   20  C2  UNL     1      -3.185   1.214  -0.046  1.00  0.00     0.049 A 
HETATM   21  C1  UNL     1      -3.291   2.677   0.105  1.00  0.00     0.076 C 
HETATM   22  O3  UNL     1      -2.076   0.581   0.096  1.00  0.00    -0.318 OA
ENDBRANCH   1  17
TORSDOF 3
