REMARK  5 active torsions:
REMARK  status: ('A' for Active; 'I' for Inactive)
REMARK    1  A    between atoms: C2_2  and  S1_3 
REMARK    2  A    between atoms: S1_3  and  C3_5 
REMARK    3  A    between atoms: C3_5  and  C14_17 
REMARK    4  A    between atoms: C4_6  and  C5_7 
REMARK    5  A    between atoms: C6_8  and  C7_9 
ROOT
HETATM    1  C3  UNL     1      -1.280  -0.603  -0.221  1.00  0.00     0.039 C 
HETATM    2  C4  UNL     1      -0.024  -0.691  -0.550  1.00  0.00     0.021 C 
ENDROOT
BRANCH   1   3
HETATM    3  S1  UNL     1      -1.873  -2.112  -0.833  1.00  0.00     0.050 S 
HETATM    4  O1  UNL     1      -2.648  -2.016  -2.116  1.00  0.00    -0.253 OA
BRANCH   3   5
HETATM    5  C2  UNL     1      -2.537  -3.231   0.361  1.00  0.00     0.109 C 
HETATM    6  C1  UNL     1      -3.701  -2.738   1.146  1.00  0.00     0.019 C 
ENDBRANCH   3   5
ENDBRANCH   1   3
BRANCH   1   7
HETATM    7  C14 UNL     1      -1.764   0.555   0.472  1.00  0.00    -0.017 C 
HETATM    8  C15 UNL     1      -2.983   0.816   0.878  1.00  0.00     0.015 C 
HETATM    9  C16 UNL     1      -2.973   2.160   1.554  1.00  0.00     0.141 C 
HETATM   10  C17 UNL     1      -4.254   2.905   1.382  1.00  0.00     0.044 C 
HETATM   11  O3  UNL     1      -1.917   2.788   0.905  1.00  0.00    -0.378 OA
HETATM   12  C18 UNL     1      -0.970   1.737   0.883  1.00  0.00     0.208 C 
ENDBRANCH   1   7
BRANCH   2  13
HETATM   13  C5  UNL     1       0.869  -1.610  -1.207  1.00  0.00     0.002 C 
HETATM   14  C6  UNL     1       2.131  -1.672  -1.528  1.00  0.00     0.014 C 
BRANCH  14  15
HETATM   15  C7  UNL     1       3.407  -1.022  -1.502  1.00  0.00    -0.001 A 
HETATM   16  C8  UNL     1       4.581  -1.524  -2.019  1.00  0.00     0.154 A 
HETATM   17  O2  UNL     1       5.522  -0.674  -1.817  1.00  0.00    -0.321 OA
HETATM   18  C9  UNL     1       5.115   0.395  -1.198  1.00  0.00     0.082 A 
HETATM   19  C10 UNL     1       3.772   0.201  -0.985  1.00  0.00     0.006 A 
HETATM   20  C13 UNL     1       5.632   1.524  -0.762  1.00  0.00     0.015 A 
HETATM   21  C11 UNL     1       3.390   1.296  -0.359  1.00  0.00    -0.008 A 
HETATM   22  C12 UNL     1       4.499   2.253  -0.144  1.00  0.00     0.058 A 
ENDBRANCH  14  15
ENDBRANCH   2  13
TORSDOF 5
