REMARK  6 active torsions:
REMARK  status: ('A' for Active; 'I' for Inactive)
REMARK    1  A    between atoms: C2_2  and  C3_3 
REMARK    2  A    between atoms: C3_3  and  C4_4 
REMARK    3  A    between atoms: C3_3  and  C7_9 
REMARK    4  A    between atoms: C4_4  and  S1_5 
REMARK    5  A    between atoms: S1_5  and  C5_7 
REMARK    6  A    between atoms: C17_20  and  C18_21 
ROOT
HETATM    1  C7  UNL     1      -0.088   0.556  -0.195  1.00  0.00     0.024 A 
HETATM    2  C8  UNL     1      -0.019   0.474   0.864  1.00  0.00     0.012 A 
HETATM    3  O2  UNL     1       0.476  -0.011   2.096  1.00  0.00     0.000 OA
HETATM    4  C9  UNL     1      -0.354   0.755   2.873  1.00  0.00    -0.036 A 
HETATM    5  C10 UNL     1      -1.155   1.492   3.728  1.00  0.00     0.009 A 
HETATM    6  C11 UNL     1      -2.139   2.405   3.387  1.00  0.00     0.007 A 
HETATM    7  C12 UNL     1      -2.328   2.580   2.036  1.00  0.00    -0.057 A 
HETATM    8  C13 UNL     1      -1.384   1.725   1.534  1.00  0.00    -0.003 A 
HETATM    9  C14 UNL     1      -0.302   0.732   1.375  1.00  0.00     0.030 A 
HETATM   10  C15 UNL     1      -3.210   3.121   0.936  1.00  0.00     0.066 C 
HETATM   11  C16 UNL     1      -3.095   2.025  -0.167  1.00  0.00    -0.015 C 
HETATM   12  C17 UNL     1      -2.015   1.266  -0.627  1.00  0.00    -0.056 C 
HETATM   13  O3  UNL     1      -0.608   1.049  -0.453  1.00  0.00     0.000 OA
ENDROOT
BRANCH   1  14
HETATM   14  C3  UNL     1       1.087  -0.433  -0.283  1.00  0.00    -0.060 C 
BRANCH  14  15
HETATM   15  C2  UNL     1       1.189  -0.274  -1.590  1.00  0.00    -0.026 C 
HETATM   16  C1  UNL     1       0.972   0.183  -2.971  1.00  0.00     0.036 C 
ENDBRANCH  14  15
BRANCH  14  17
HETATM   17  C4  UNL     1       1.913  -1.333   0.603  1.00  0.00     0.143 C 
BRANCH  17  18
HETATM   18  S1  UNL     1       3.126  -2.215  -0.385  1.00  0.00     0.018 S 
HETATM   19  O1  UNL     1       4.095  -1.212  -0.991  1.00  0.00    -0.258 OA
BRANCH  18  20
HETATM   20  C5  UNL     1       4.102  -3.292   0.703  1.00  0.00     0.104 C 
HETATM   21  C6  UNL     1       5.132  -4.035  -0.104  1.00  0.00     0.018 C 
ENDBRANCH  18  20
ENDBRANCH  17  18
ENDBRANCH  14  17
ENDBRANCH   1  14
BRANCH  12  22
HETATM   22  C18 UNL     1      -2.303   0.291  -1.704  1.00  0.00     0.034 C 
HETATM   23  C19 UNL     1      -3.789   0.261  -2.030  1.00  0.00     0.010 C 
ENDBRANCH  12  22
TORSDOF 6
