REMARK  6 active torsions:
REMARK  status: ('A' for Active; 'I' for Inactive)
REMARK    1  A    between atoms: C2_2  and  O1_4 
REMARK    2  A    between atoms: O1_4  and  C4_5 
REMARK    3  A    between atoms: C4_5  and  C5_6 
REMARK    4  A    between atoms: C10_12  and  C11_13 
REMARK    5  A    between atoms: C14_16  and  S1_17 
REMARK    6  A    between atoms: S1_17  and  C15_19 
ROOT
HETATM    1  C5  UNL     1       2.072  -1.250  -2.408  1.00  0.00    -0.034 A 
HETATM    2  C6  UNL     1       2.089  -1.097  -3.764  1.00  0.00     0.012 A 
HETATM    3  C7  UNL     1       1.132  -0.376  -4.487  1.00  0.00     0.039 A 
HETATM    4  C8  UNL     1       0.148   0.173  -3.665  1.00  0.00     0.086 A 
HETATM    5  O2  UNL     1      -0.876   0.901  -4.091  1.00  0.00    -0.321 OA
HETATM    6  C9  UNL     1      -1.608   1.256  -3.032  1.00  0.00     0.155 A 
HETATM    7  C10 UNL     1      -1.037   0.744  -1.914  1.00  0.00     0.009 A 
HETATM    8  C19 UNL     1       0.102   0.038  -2.301  1.00  0.00     0.011 A 
HETATM    9  C20 UNL     1       1.058  -0.674  -1.639  1.00  0.00     0.024 A 
ENDROOT
BRANCH   7  10
HETATM   10  C11 UNL     1      -1.536   0.914  -0.573  1.00  0.00    -0.023 A 
HETATM   11  C12 UNL     1      -1.603  -0.121   0.363  1.00  0.00     0.014 A 
HETATM   12  C13 UNL     1      -2.094   0.067   1.662  1.00  0.00     0.022 A 
HETATM   13  C14 UNL     1      -2.532   1.320   2.042  1.00  0.00     0.031 A 
HETATM   14  C17 UNL     1      -2.497   2.403   1.165  1.00  0.00     0.022 A 
HETATM   15  C18 UNL     1      -1.999   2.118  -0.084  1.00  0.00     0.014 A 
BRANCH  13  16
HETATM   16  S1  UNL     1      -3.166   1.654   3.663  1.00  0.00     0.049 S 
HETATM   17  O3  UNL     1      -2.893   3.101   4.048  1.00  0.00    -0.253 OA
BRANCH  16  18
HETATM   18  C15 UNL     1      -4.938   1.322   3.746  1.00  0.00     0.109 C 
HETATM   19  C16 UNL     1      -5.154  -0.140   3.407  1.00  0.00     0.019 C 
ENDBRANCH  16  18
ENDBRANCH  13  16
ENDBRANCH   7  10
BRANCH   1  20
HETATM   20  C4  UNL     1       3.105  -2.014  -1.632  1.00  0.00     0.207 C 
BRANCH  20  21
HETATM   21  O1  UNL     1       4.093  -1.099  -1.281  1.00  0.00    -0.373 OA
BRANCH  21  22
HETATM   22  C2  UNL     1       5.106  -1.223  -0.386  1.00  0.00     0.088 C 
HETATM   23  C1  UNL     1       6.367  -1.691  -0.428  1.00  0.00     0.044 C 
HETATM   24  C3  UNL     1       4.761  -0.724   0.984  1.00  0.00     0.049 C 
ENDBRANCH  21  22
ENDBRANCH  20  21
ENDBRANCH   1  20
TORSDOF 6
