REMARK  2 active torsions:
REMARK  status: ('A' for Active; 'I' for Inactive)
REMARK    1  A    between atoms: C2_2  and  S1_3 
REMARK    2  A    between atoms: S1_3  and  C3_4 
ROOT
HETATM    1  C3  UNL     1       2.035   0.159  -1.295  1.00  0.00     0.082 C 
HETATM    2  C4  UNL     1       2.510  -1.081  -0.627  1.00  0.00    -0.014 C 
HETATM    3  C5  UNL     1       2.186  -1.563   0.568  1.00  0.00    -0.025 C 
HETATM    4  C6  UNL     1       0.940  -1.158   1.323  1.00  0.00     0.062 C 
HETATM    5  C7  UNL     1      -0.233  -1.331   0.379  1.00  0.00    -0.065 C 
HETATM    6  C8  UNL     1      -0.157  -0.996  -0.913  1.00  0.00    -0.067 C 
HETATM    7  C9  UNL     1      -0.923  -1.984  -1.767  1.00  0.00     0.067 C 
HETATM    8  P1  UNL     1      -2.414  -2.263  -0.652  1.00  0.00    -0.116 P 
HETATM    9  C10 UNL     1      -1.472  -1.884   0.910  1.00  0.00     0.047 C 
HETATM   10  C11 UNL     1      -2.271  -1.076   1.857  1.00  0.00     0.078 C 
HETATM   11  C12 UNL     1      -2.587   0.279   1.422  1.00  0.00     0.054 A 
HETATM   12  C13 UNL     1      -3.168   1.345   2.069  1.00  0.00     0.035 A 
HETATM   13  C14 UNL     1      -3.195   2.348   1.132  1.00  0.00     0.039 A 
HETATM   14  C15 UNL     1      -2.644   1.869  -0.024  1.00  0.00     0.075 A 
HETATM   15  O1  UNL     1      -2.290   0.618   0.191  1.00  0.00    -0.315 OA
HETATM   16  C16 UNL     1      -2.271   2.133  -1.403  1.00  0.00     0.033 C 
HETATM   17  C17 UNL     1      -1.077   1.972  -1.888  1.00  0.00    -0.023 C 
HETATM   18  C18 UNL     1       0.033   1.488  -1.028  1.00  0.00     0.037 C 
HETATM   19  C19 UNL     1       0.558   0.167  -1.527  1.00  0.00     0.036 C 
HETATM   20  H11 UNL     1      -2.768  -3.660  -0.767  1.00  0.00     0.058 HD
ENDROOT
BRANCH   1  21
HETATM   21  S1  UNL     1       2.518   1.520  -0.160  1.00  0.00    -0.133 SA
BRANCH  21  22
HETATM   22  C2  UNL     1       4.294   1.585  -0.132  1.00  0.00     0.035 C 
HETATM   23  C1  UNL     1       4.574   0.840   0.928  1.00  0.00     0.018 C 
ENDBRANCH  21  22
ENDBRANCH   1  21
TORSDOF 2
