REMARK  1 active torsions:
REMARK  status: ('A' for Active; 'I' for Inactive)
REMARK    1  A    between atoms: C19_27  and  C20_28 
ROOT
HETATM    1  C1  UNL     1       4.526   3.258  -0.450  1.00  0.00     0.018 C 
HETATM    2  C2  UNL     1       4.024   1.813  -0.255  1.00  0.00     0.053 C 
HETATM    3  C3  UNL     1       4.834   1.213   0.833  1.00  0.00     0.032 C 
HETATM    4  C4  UNL     1       4.741  -0.245   1.074  1.00  0.00     0.130 C 
HETATM    5  N1  UNL     1       3.527  -0.829   1.429  1.00  0.00    -0.341 N 
HETATM    6  S1  UNL     1       2.236  -0.898   0.333  1.00  0.00     0.110 S 
HETATM    7  O1  UNL     1       2.657  -1.054  -1.122  1.00  0.00    -0.236 OA
HETATM    8  C5  UNL     1       1.043  -2.138   0.817  1.00  0.00     0.138 C 
HETATM    9  C6  UNL     1      -0.128  -2.183  -0.140  1.00  0.00     0.024 C 
HETATM   10  C7  UNL     1      -1.033  -3.313   0.192  1.00  0.00     0.012 C 
HETATM   11  C8  UNL     1      -0.829  -0.831  -0.238  1.00  0.00     0.142 C 
HETATM   12  B1  UNL     1       0.264   0.400  -0.609  1.00  0.00     0.216 B 
HETATM   13  C9  UNL     1       0.316   2.010  -0.789  1.00  0.00    -0.102 C 
HETATM   14  C10 UNL     1       1.763   2.301  -1.140  1.00  0.00     0.089 C 
HETATM   15  C11 UNL     1       2.570   1.973   0.071  1.00  0.00     0.133 C 
HETATM   16  O2  UNL     1       1.424   2.061   0.538  1.00  0.00    -0.297 OA
HETATM   17  N2  UNL     1      -1.519  -1.099  -1.618  1.00  0.00     0.153 N 
HETATM   18  C12 UNL     1      -2.902  -1.389  -1.502  1.00  0.00     0.444 A 
HETATM   19  N3  UNL     1      -3.826  -2.357  -1.189  1.00  0.00    -0.212 NA
HETATM   20  C13 UNL     1      -5.017  -1.754  -0.735  1.00  0.00     0.125 A 
HETATM   21  C14 UNL     1      -4.473  -0.453  -0.904  1.00  0.00    -0.025 A 
HETATM   22  C15 UNL     1      -3.692   0.687  -1.168  1.00  0.00     0.688 A 
HETATM   23  N4  UNL     1      -2.684  -0.063  -1.557  1.00  0.00     0.110 NA
HETATM   24  C16 UNL     1      -4.877   0.595   0.033  1.00  0.00     0.074 A 
HETATM   25  C17 UNL     1      -3.972   0.790   1.209  1.00  0.00     0.007 C 
HETATM   26  C18 UNL     1      -2.473   0.748   0.943  1.00  0.00     0.013 C 
HETATM   27  C19 UNL     1      -1.919  -0.605   0.720  1.00  0.00     0.076 C 
HETATM   28  H9  UNL     1       3.509  -1.512   2.199  1.00  0.00     0.169 HD
HETATM   29  H19 UNL     1      -0.896  -1.078  -2.496  1.00  0.00     0.326 HD
ENDROOT
BRANCH  27  30
HETATM   30  C20 UNL     1      -1.508  -1.084   2.137  1.00  0.00     0.237 C 
HETATM   31  O3  UNL     1      -1.482  -0.396   3.151  1.00  0.00    -0.306 OA
ENDBRANCH  27  30
TORSDOF 1
