REMARK  3 active torsions:
REMARK  status: ('A' for Active; 'I' for Inactive)
REMARK       I    between atoms: N1_2  and  C2_3 
REMARK    1  A    between atoms: C2_3  and  C3_5 
REMARK    2  A    between atoms: C4_6  and  N2_7 
REMARK    3  A    between atoms: N2_7  and  N3_9 
ROOT
HETATM    1  C3  UNL     1      -2.223   0.192  -0.710  1.00  0.00     0.034 C 
HETATM    2  C4  UNL     1      -1.425  -0.662  -0.104  1.00  0.00     0.046 C 
HETATM    3  C6  UNL     1      -0.014  -0.380   0.103  1.00  0.00     0.043 A 
HETATM    4  C7  UNL     1       0.619  -1.510   0.601  1.00  0.00     0.065 A 
HETATM    5  C8  UNL     1       1.940  -1.439   0.834  1.00  0.00     0.034 A 
HETATM    6  N4  UNL     1       1.642  -0.336   0.406  1.00  0.00     0.000 N 
HETATM    7  C9  UNL     1       1.986   0.809   0.087  1.00  0.00     0.041 C 
HETATM    8  C10 UNL     1       0.655   0.842  -0.174  1.00  0.00     0.035 A 
HETATM    9  C11 UNL     1       0.650   2.228  -0.587  1.00  0.00     0.030 C 
HETATM   10  C12 UNL     1      -0.888   2.287  -0.269  1.00  0.00     0.007 C 
HETATM   11  C13 UNL     1      -1.741   1.508  -1.196  1.00  0.00     0.046 C 
HETATM   12  N5  UNL     1       3.035   1.653  -0.037  1.00  0.00    -0.387 N 
HETATM   13  C14 UNL     1       2.299   2.454  -1.032  1.00  0.00     0.137 C 
HETATM   14  C15 UNL     1       4.213   1.297   0.792  1.00  0.00     0.123 C 
HETATM   15  C16 UNL     1       4.354  -0.104   1.090  1.00  0.00     0.039 C 
HETATM   16  C17 UNL     1       4.301  -1.459   1.434  1.00  0.00     0.121 C 
HETATM   17  N6  UNL     1       2.969  -2.141   1.290  1.00  0.00    -0.391 N 
HETATM   18  H26 UNL     1       2.253  -2.941   1.337  1.00  0.00     0.159 HD
ENDROOT
BRANCH   1  19
HETATM   19  C2  UNL     1      -3.544  -0.388  -0.776  1.00  0.00     0.249 C 
HETATM   20  N1  UNL     1      -4.570   0.354  -1.389  1.00  0.00    -0.361 N 
HETATM   21  C1  UNL     1      -5.893  -0.241  -1.448  1.00  0.00     0.149 C 
HETATM   22  H4  UNL     1      -4.391   1.297  -1.790  1.00  0.00     0.162 HD
HETATM   23  O1  UNL     1      -3.903  -1.501  -0.342  1.00  0.00    -0.268 OA
ENDBRANCH   1  19
BRANCH   2  24
HETATM   24  N2  UNL     1      -1.678  -1.927   0.427  1.00  0.00    -0.322 N 
HETATM   25  C5  UNL     1      -1.889  -2.098   1.849  1.00  0.00     0.171 C 
BRANCH  24  26
HETATM   26  N3  UNL     1      -1.717  -3.022  -0.442  1.00  0.00    -0.248 NA
HETATM   27  H8  UNL     1      -1.235  -2.816  -1.344  1.00  0.00     0.143 HD
HETATM   28  H9  UNL     1      -1.380  -3.898   0.016  1.00  0.00     0.143 HD
ENDBRANCH  24  26
ENDBRANCH   2  24
TORSDOF 3
