REMARK  6 active torsions:
REMARK  status: ('A' for Active; 'I' for Inactive)
REMARK    1  A    between atoms: C2_2  and  N1_3 
REMARK    2  A    between atoms: C3_5  and  C4_6 
REMARK    3  A    between atoms: C4_6  and  O1_8 
REMARK    4  A    between atoms: O1_8  and  N3_9 
REMARK    5  A    between atoms: C11_17  and  C12_18 
REMARK    6  A    between atoms: N5_22  and  C16_23 
ROOT
HETATM    1  N1  UNL     1      -1.332  -0.165   0.816  1.00  0.00    -0.292 N 
HETATM    2  N2  UNL     1      -2.319   0.447   0.150  1.00  0.00    -0.171 NA
HETATM    3  C3  UNL     1      -3.163   0.381  -0.729  1.00  0.00     0.121 C 
HETATM    4  S1  UNL     1      -3.610  -0.969  -1.871  1.00  0.00    -0.110 SA
HETATM    5  C6  UNL     1      -2.385  -2.300  -1.565  1.00  0.00     0.081 C 
HETATM    6  C7  UNL     1      -2.565  -2.785  -0.127  1.00  0.00     0.015 C 
HETATM    7  C8  UNL     1      -1.253  -3.399   0.339  1.00  0.00     0.039 C 
HETATM    8  C9  UNL     1      -0.204  -2.316   0.235  1.00  0.00    -0.037 A 
HETATM    9  C10 UNL     1       0.771  -2.589  -0.652  1.00  0.00     0.093 A 
HETATM   10  N4  UNL     1       1.853  -1.718  -0.909  1.00  0.00    -0.368 N 
HETATM   11  C11 UNL     1       1.958  -0.485  -0.223  1.00  0.00     0.017 A 
HETATM   12  C18 UNL     1       0.994  -0.234   0.642  1.00  0.00     0.030 A 
HETATM   13  C19 UNL     1      -0.206  -1.063   1.009  1.00  0.00     0.159 A 
HETATM   14  H19 UNL     1       2.572  -1.974  -1.598  1.00  0.00     0.165 HD
ENDROOT
BRANCH  11  15
HETATM   15  C12 UNL     1       3.090   0.392  -0.526  1.00  0.00     0.016 C 
HETATM   16  C13 UNL     1       3.067   0.886  -1.957  1.00  0.00     0.023 C 
HETATM   17  C14 UNL     1       3.087   1.580   0.390  1.00  0.00     0.037 C 
HETATM   18  C15 UNL     1       4.505   2.107   0.200  1.00  0.00     0.126 C 
HETATM   19  N5  UNL     1       5.282   0.946  -0.218  1.00  0.00    -0.358 N 
HETATM   20  C17 UNL     1       4.431  -0.230  -0.182  1.00  0.00     0.140 C 
BRANCH  19  21
HETATM   21  C16 UNL     1       6.650   0.995  -0.595  1.00  0.00     0.350 C 
HETATM   22  O2  UNL     1       7.231  -0.055  -0.939  1.00  0.00    -0.284 OA
ENDBRANCH  19  21
ENDBRANCH  11  15
BRANCH   1  23
HETATM   23  C2  UNL     1      -1.487   0.481   2.131  1.00  0.00     0.141 C 
HETATM   24  C1  UNL     1      -1.956  -0.524   3.164  1.00  0.00     0.028 C 
ENDBRANCH   1  23
BRANCH   3  25
HETATM   25  C4  UNL     1      -3.986   1.600  -0.908  1.00  0.00     0.201 C 
HETATM   26  C5  UNL     1      -5.453   1.237  -0.669  1.00  0.00     0.049 C 
BRANCH  25  27
HETATM   27  O1  UNL     1      -3.675   2.632  -0.048  1.00  0.00    -0.297 OA
BRANCH  27  28
HETATM   28  N3  UNL     1      -3.370   3.765  -0.759  1.00  0.00    -0.214 NA
HETATM   29  H10 UNL     1      -4.008   3.760  -1.585  1.00  0.00     0.150 HD
HETATM   30  H11 UNL     1      -3.547   4.602  -0.155  1.00  0.00     0.150 HD
ENDBRANCH  27  28
ENDBRANCH  25  27
ENDBRANCH   3  25
TORSDOF 6
