REMARK  5 active torsions:
REMARK  status: ('A' for Active; 'I' for Inactive)
REMARK    1  A    between atoms: C2_2  and  S1_3 
REMARK    2  A    between atoms: S1_3  and  C3_5 
REMARK    3  A    between atoms: C7_9  and  C8_10 
REMARK    4  A    between atoms: C14_16  and  C15_17 
REMARK    5  A    between atoms: C15_17  and  C16_18 
ROOT
HETATM    1  C3  UNL     1       2.736  -0.524  -1.297  1.00  0.00     0.028 C 
HETATM    2  C4  UNL     1       2.292   0.110  -2.402  1.00  0.00    -0.002 C 
HETATM    3  C5  UNL     1       0.920   0.522  -2.865  1.00  0.00     0.056 C 
HETATM    4  C6  UNL     1       0.214   1.206  -1.749  1.00  0.00    -0.010 C 
HETATM    5  C7  UNL     1       0.067   0.902  -0.454  1.00  0.00    -0.023 C 
HETATM    6  C14 UNL     1       0.595  -0.348   0.092  1.00  0.00    -0.040 C 
HETATM    7  C21 UNL     1       1.747  -0.951  -0.278  1.00  0.00     0.029 C 
ENDROOT
BRANCH   6   8
HETATM    8  C15 UNL     1      -0.224  -1.084   1.088  1.00  0.00     0.104 C 
BRANCH   8   9
HETATM    9  C16 UNL     1      -1.603  -1.399   0.556  1.00  0.00     0.057 A 
HETATM   10  C17 UNL     1      -2.807  -0.741   0.677  1.00  0.00     0.035 A 
HETATM   11  C18 UNL     1      -3.806  -1.416   0.010  1.00  0.00     0.035 A 
HETATM   12  C19 UNL     1      -3.145  -2.506  -0.513  1.00  0.00     0.049 A 
HETATM   13  C20 UNL     1      -3.810  -3.565  -1.340  1.00  0.00     0.076 C 
HETATM   14  O2  UNL     1      -1.885  -2.469  -0.184  1.00  0.00    -0.320 OA
ENDBRANCH   8   9
ENDBRANCH   6   8
BRANCH   5  15
HETATM   15  C8  UNL     1      -0.688   1.791   0.384  1.00  0.00    -0.026 A 
HETATM   16  C9  UNL     1      -0.760   1.965   1.735  1.00  0.00     0.012 A 
HETATM   17  C10 UNL     1      -1.583   2.790   2.455  1.00  0.00     0.001 A 
HETATM   18  C11 UNL     1      -2.475   3.572   1.755  1.00  0.00     0.000 A 
HETATM   19  C12 UNL     1      -2.484   3.474   0.366  1.00  0.00     0.001 A 
HETATM   20  C13 UNL     1      -1.611   2.604  -0.295  1.00  0.00     0.012 A 
ENDBRANCH   5  15
BRANCH   1  21
HETATM   21  S1  UNL     1       4.422  -0.890  -0.996  1.00  0.00     0.049 S 
HETATM   22  O1  UNL     1       4.740  -2.354  -0.991  1.00  0.00    -0.253 OA
BRANCH  21  23
HETATM   23  C2  UNL     1       5.020  -0.082   0.506  1.00  0.00     0.109 C 
HETATM   24  C1  UNL     1       4.228  -0.537   1.711  1.00  0.00     0.019 C 
ENDBRANCH  21  23
ENDBRANCH   1  21
TORSDOF 5
