REMARK  3 active torsions:
REMARK  status: ('A' for Active; 'I' for Inactive)
REMARK    1  A    between atoms: C3_3  and  C4_4 
REMARK    2  A    between atoms: C4_4  and  N1_5 
REMARK    3  A    between atoms: N4_17  and  S1_18 
ROOT
HETATM    1  N1  UNL     1       3.123   0.516  -2.102  1.00  0.00    -0.291 NA
HETATM    2  C5  UNL     1       4.229   1.153  -1.905  1.00  0.00     0.203 C 
HETATM    3  C6  UNL     1       4.206   2.241  -0.997  1.00  0.00     0.106 C 
HETATM    4  N2  UNL     1       4.185   3.150  -0.263  1.00  0.00    -0.191 NA
ENDROOT
BRANCH   1   5
HETATM    5  C4  UNL     1       1.887   0.894  -1.420  1.00  0.00     0.154 C 
BRANCH   5   6
HETATM    6  C3  UNL     1       1.738  -0.005  -0.235  1.00  0.00     0.012 C 
HETATM    7  C2  UNL     1       0.504   0.265   0.571  1.00  0.00     0.007 C 
HETATM    8  C1  UNL     1       0.404   1.790   0.652  1.00  0.00     0.012 C 
HETATM    9  C14 UNL     1      -0.745  -0.350   0.030  1.00  0.00     0.091 C 
HETATM   10  C10 UNL     1      -1.296  -1.460   0.840  1.00  0.00     0.098 C 
HETATM   11  N4  UNL     1      -1.790   0.654   0.119  1.00  0.00    -0.205 NA
HETATM   12  C9  UNL     1      -0.409  -2.590   1.122  1.00  0.00     0.223 C 
HETATM   13  C11 UNL     1      -1.808  -0.727   2.049  1.00  0.00     0.031 C 
HETATM   14  N3  UNL     1       0.919  -2.997   0.842  1.00  0.00    -0.361 N 
HETATM   15  O1  UNL     1      -1.089  -3.405   1.824  1.00  0.00    -0.273 OA
HETATM   16  C8  UNL     1       2.131  -2.288   0.522  1.00  0.00     0.123 C 
HETATM   17  H13 UNL     1       0.993  -4.049   0.889  1.00  0.00     0.162 HD
HETATM   18  C7  UNL     1       1.848  -1.435  -0.693  1.00  0.00     0.026 C 
HETATM   19  C12 UNL     1      -2.476   0.471   1.360  1.00  0.00     0.108 C 
BRANCH  11  20
HETATM   20  S1  UNL     1      -2.919   0.546  -1.168  1.00  0.00     0.208 S 
HETATM   21  C13 UNL     1      -4.107   1.851  -0.960  1.00  0.00     0.180 C 
HETATM   22  O2  UNL     1      -3.708  -0.749  -1.127  1.00  0.00    -0.212 OA
HETATM   23  O3  UNL     1      -2.279   0.662  -2.517  1.00  0.00    -0.212 OA
ENDBRANCH  11  20
ENDBRANCH   5   6
ENDBRANCH   1   5
TORSDOF 3
