REMARK  3 active torsions:
REMARK  status: ('A' for Active; 'I' for Inactive)
REMARK    1  A    between atoms: N1_1  and  C1_2 
REMARK    2  A    between atoms: C1_2  and  O1_3 
REMARK    3  A    between atoms: O1_3  and  C2_4 
ROOT
HETATM    1  C2  UNL     1       3.814  -0.882   0.223  1.00  0.00     0.069 C 
HETATM    2  C3  UNL     1       3.782  -1.608   1.303  1.00  0.00     0.036 C 
HETATM    3  C4  UNL     1       3.234  -1.823   2.623  1.00  0.00     0.208 C 
HETATM    4  O2  UNL     1       2.294  -0.908   3.049  1.00  0.00    -0.329 OA
HETATM    5  C5  UNL     1       1.046  -0.689   2.614  1.00  0.00     0.195 A 
HETATM    6  N2  UNL     1       0.588  -1.686   3.451  1.00  0.00    -0.216 NA
HETATM    7  C6  UNL     1      -0.731  -2.037   3.538  1.00  0.00     0.236 A 
HETATM    8  N3  UNL     1      -1.580  -1.364   2.767  1.00  0.00    -0.239 NA
HETATM    9  C7  UNL     1      -1.234  -0.387   1.931  1.00  0.00     0.099 A 
HETATM   10  C8  UNL     1      -2.338   0.183   1.192  1.00  0.00    -0.005 C 
HETATM   11  C9  UNL     1      -3.430  -0.612   1.215  1.00  0.00     0.014 C 
HETATM   12  C10 UNL     1      -4.817  -0.699   0.725  1.00  0.00     0.002 C 
HETATM   13  C11 UNL     1      -5.287  -0.135  -0.400  1.00  0.00     0.012 C 
HETATM   14  C12 UNL     1      -4.736   0.692  -1.482  1.00  0.00    -0.026 A 
HETATM   15  C13 UNL     1      -5.444   0.418  -2.661  1.00  0.00     0.012 A 
HETATM   16  C14 UNL     1      -5.049   1.107  -3.770  1.00  0.00     0.001 A 
HETATM   17  C15 UNL     1      -4.021   2.025  -3.776  1.00  0.00     0.001 A 
HETATM   18  C16 UNL     1      -3.303   2.323  -2.644  1.00  0.00     0.012 A 
HETATM   19  C17 UNL     1      -3.700   1.630  -1.525  1.00  0.00    -0.026 A 
HETATM   20  C18 UNL     1      -2.799   2.142  -0.481  1.00  0.00     0.013 C 
HETATM   21  C19 UNL     1      -2.286   1.501   0.596  1.00  0.00     0.014 C 
HETATM   22  C20 UNL     1       0.089  -0.066   1.865  1.00  0.00     0.112 A 
HETATM   23  N4  UNL     1       0.491   0.879   0.906  1.00  0.00    -0.381 N 
HETATM   24  C21 UNL     1       1.679   1.670   0.622  1.00  0.00     0.147 C 
HETATM   25  C22 UNL     1       2.676   0.848  -0.085  1.00  0.00    -0.005 C 
HETATM   26  C23 UNL     1       3.561   0.156  -0.764  1.00  0.00     0.034 C 
HETATM   27  H18 UNL     1      -0.133   1.089   0.104  1.00  0.00     0.160 HD
ENDROOT
BRANCH   1  28
HETATM   28  O1  UNL     1       4.791  -1.652  -0.507  1.00  0.00    -0.322 OA
BRANCH  28  29
HETATM   29  C1  UNL     1       5.953  -1.038  -1.005  1.00  0.00     0.441 C 
BRANCH  29  30
HETATM   30  N1  UNL     1       7.085  -1.725  -0.358  1.00  0.00     0.101 N 
HETATM   31  H1  UNL     1       6.942  -1.491   0.674  1.00  0.00     0.315 HD
HETATM   32  H2  UNL     1       7.947  -1.189  -0.703  1.00  0.00     0.315 HD
ENDBRANCH  29  30
ENDBRANCH  28  29
ENDBRANCH   1  28
TORSDOF 3
