REMARK  2 active torsions:
REMARK  status: ('A' for Active; 'I' for Inactive)
REMARK       I    between atoms: C2_2  and  N1_4 
REMARK    1  A    between atoms: N2_7  and  C5_8 
REMARK    2  A    between atoms: C11_16  and  C12_17 
REMARK       I    between atoms: C12_17  and  N5_18 
ROOT
HETATM    1  C5  UNL     1       0.766  -1.319   0.326  1.00  0.00     0.725 A 
HETATM    2  N3  UNL     1       0.471  -2.552  -0.162  1.00  0.00    -0.075 NA
HETATM    3  C6  UNL     1      -0.789  -2.862  -0.522  1.00  0.00     0.146 A 
HETATM    4  C7  UNL     1      -1.818  -1.951  -0.412  1.00  0.00    -0.008 A 
HETATM    5  C8  UNL     1      -1.505  -0.722   0.078  1.00  0.00     0.112 A 
HETATM    6  N4  UNL     1      -0.258  -0.449   0.423  1.00  0.00    -0.060 NA
HETATM    7  C9  UNL     1      -2.575   0.255   0.203  1.00  0.00     0.091 A 
HETATM    8  C10 UNL     1      -3.840  -0.111  -0.178  1.00  0.00     0.009 A 
HETATM    9  C11 UNL     1      -4.614   0.996   0.051  1.00  0.00     0.153 A 
HETATM   10  N6  UNL     1      -3.795   1.964   0.552  1.00  0.00    -0.166 NA
HETATM   11  N7  UNL     1      -2.570   1.525   0.645  1.00  0.00    -0.271 N 
HETATM   12  C13 UNL     1      -1.383   2.211   1.122  1.00  0.00     0.180 C 
HETATM   13  C14 UNL     1      -4.243  -1.414  -0.712  1.00  0.00     0.048 A 
HETATM   14  C15 UNL     1      -3.145  -2.405  -0.836  1.00  0.00     0.047 A 
ENDROOT
BRANCH   1  15
HETATM   15  N2  UNL     1       2.051  -0.870   0.740  1.00  0.00    -0.211 N 
HETATM   16  C4  UNL     1       2.268   0.490   1.256  1.00  0.00     0.161 C 
HETATM   17  C3  UNL     1       3.003   1.195   0.108  1.00  0.00     0.146 C 
HETATM   18  N1  UNL     1       4.177   0.380  -0.136  1.00  0.00    -0.349 N 
HETATM   19  C2  UNL     1       5.223   1.120  -0.755  1.00  0.00     0.215 C 
HETATM   20  C17 UNL     1       4.427  -1.004   0.143  1.00  0.00     0.146 C 
HETATM   21  C1  UNL     1       6.596   0.933  -1.250  1.00  0.00     0.117 C 
HETATM   22  O1  UNL     1       4.766   2.306  -0.898  1.00  0.00    -0.274 OA
HETATM   23  C16 UNL     1       3.219  -1.731   0.675  1.00  0.00     0.161 C 
ENDBRANCH   1  15
BRANCH   9  24
HETATM   24  C12 UNL     1      -6.046   1.141  -0.186  1.00  0.00     0.270 C 
HETATM   25  N5  UNL     1      -6.696   2.370   0.111  1.00  0.00    -0.365 N 
HETATM   26  H9  UNL     1      -7.288   2.859   0.824  1.00  0.00     0.159 HD
HETATM   27  H10 UNL     1      -6.513   3.041  -0.691  1.00  0.00     0.159 HD
HETATM   28  O2  UNL     1      -6.679   0.161  -0.653  1.00  0.00    -0.266 OA
ENDBRANCH   9  24
TORSDOF 2
