REMARK  5 active torsions:
REMARK  status: ('A' for Active; 'I' for Inactive)
REMARK    1  A    between atoms: C2_2  and  C3_3 
REMARK    2  A    between atoms: C4_4  and  C5_5 
REMARK       I    between atoms: C5_5  and  N1_6 
REMARK    3  A    between atoms: C7_11  and  C8_12 
REMARK    4  A    between atoms: C11_16  and  N5_17 
REMARK    5  A    between atoms: N5_17  and  C12_18 
REMARK       I    between atoms: N6_21  and  C15_22 
ROOT
HETATM    1  C8  UNL     1       1.997   0.043   0.595  1.00  0.00     0.106 A 
HETATM    2  C9  UNL     1       1.890  -0.565   1.807  1.00  0.00     0.054 A 
HETATM    3  C10 UNL     1       0.629  -1.022   2.124  1.00  0.00     0.139 A 
HETATM    4  N4  UNL     1      -0.454  -0.904   1.336  1.00  0.00    -0.075 NA
HETATM    5  C11 UNL     1      -0.311  -0.299   0.151  1.00  0.00     0.723 A 
HETATM    6  N7  UNL     1       0.905   0.153  -0.180  1.00  0.00    -0.061 NA
ENDROOT
BRANCH   1   7
HETATM    7  C7  UNL     1       3.222   0.607   0.038  1.00  0.00     0.090 A 
HETATM    8  C3  UNL     1       4.520   0.115  -0.021  1.00  0.00     0.008 A 
HETATM    9  C4  UNL     1       5.328   1.037  -0.657  1.00  0.00     0.147 A 
HETATM   10  N2  UNL     1       4.517   2.065  -0.971  1.00  0.00    -0.167 NA
HETATM   11  N3  UNL     1       3.277   1.825  -0.569  1.00  0.00    -0.271 N 
HETATM   12  C6  UNL     1       2.158   2.756  -0.764  1.00  0.00     0.180 C 
BRANCH   8  13
HETATM   13  C2  UNL     1       4.918  -1.189   0.523  1.00  0.00     0.039 C 
HETATM   14  C1  UNL     1       5.672  -1.090   1.833  1.00  0.00     0.010 C 
ENDBRANCH   8  13
BRANCH   9  15
HETATM   15  C5  UNL     1       6.756   0.921  -0.929  1.00  0.00     0.249 C 
HETATM   16  N1  UNL     1       7.412   1.993  -1.603  1.00  0.00    -0.267 NA
HETATM   17  H6  UNL     1       7.018   2.120  -2.581  1.00  0.00     0.127 HD
HETATM   18  H7  UNL     1       7.035   2.135  -2.574  1.00  0.00     0.127 HD
HETATM   19  O1  UNL     1       7.339  -0.140  -0.547  1.00  0.00    -0.272 OA
ENDBRANCH   9  15
ENDBRANCH   1   7
BRANCH   5  20
HETATM   20  N5  UNL     1      -1.421  -0.146  -0.725  1.00  0.00    -0.218 N 
HETATM   21  H13 UNL     1      -1.252   0.341  -1.654  1.00  0.00     0.178 HD
BRANCH  20  22
HETATM   22  C12 UNL     1      -2.730  -0.627  -0.374  1.00  0.00     0.102 C 
HETATM   23  C13 UNL     1      -3.681  -0.325  -1.515  1.00  0.00     0.045 C 
HETATM   24  C14 UNL     1      -5.105  -0.667  -1.223  1.00  0.00     0.127 C 
HETATM   25  N6  UNL     1      -5.544  -0.369   0.106  1.00  0.00    -0.352 N 
HETATM   26  C15 UNL     1      -6.821   0.162   0.397  1.00  0.00     0.215 C 
HETATM   27  C17 UNL     1      -4.612  -0.635   1.181  1.00  0.00     0.127 C 
HETATM   28  C16 UNL     1      -7.806   0.453  -0.649  1.00  0.00     0.117 C 
HETATM   29  O2  UNL     1      -7.206   0.426   1.583  1.00  0.00    -0.274 OA
HETATM   30  C18 UNL     1      -3.319   0.086   0.843  1.00  0.00     0.045 C 
ENDBRANCH  20  22
ENDBRANCH   5  20
TORSDOF 5
