REMARK  1 active torsions:
REMARK  status: ('A' for Active; 'I' for Inactive)
REMARK    1  A    between atoms: C2_4  and  C3_5 
ROOT
HETATM    1  C1  UNL     1       2.535   3.595   0.170  1.00  0.00     0.180 C 
HETATM    2  N1  UNL     1       3.169   2.303   0.264  1.00  0.00    -0.271 N 
HETATM    3  N2  UNL     1       4.391   2.122   0.730  1.00  0.00    -0.169 NA
HETATM    4  C2  UNL     1       4.712   0.815   0.690  1.00  0.00     0.123 A 
HETATM    5  C4  UNL     1       3.587   0.217   0.164  1.00  0.00     0.006 A 
HETATM    6  C5  UNL     1       2.607   1.116  -0.114  1.00  0.00     0.089 A 
HETATM    7  C6  UNL     1       1.299   0.876  -0.693  1.00  0.00     0.085 C 
HETATM    8  N3  UNL     1       0.527   1.844  -0.863  1.00  0.00    -0.280 NA
HETATM    9  C7  UNL     1      -0.782   1.953  -1.389  1.00  0.00     0.230 C 
HETATM   10  C8  UNL     1      -1.785   1.134  -0.663  1.00  0.00     0.169 C 
HETATM   11  O2  UNL     1      -0.883   0.915   0.125  1.00  0.00    -0.294 OA
HETATM   12  C9  UNL     1      -3.030   0.445  -0.255  1.00  0.00     0.154 C 
HETATM   13  C10 UNL     1      -3.271   0.810   1.177  1.00  0.00     0.033 C 
HETATM   14  C11 UNL     1      -4.180  -0.121   1.901  1.00  0.00     0.004 C 
HETATM   15  C12 UNL     1      -3.845  -1.570   1.662  1.00  0.00     0.020 C 
HETATM   16  C13 UNL     1      -3.762  -1.808   0.196  1.00  0.00     0.122 C 
HETATM   17  N4  UNL     1      -2.909  -0.944  -0.540  1.00  0.00    -0.378 N 
HETATM   18  P1  UNL     1      -1.296  -1.562  -0.857  1.00  0.00    -0.003 P 
HETATM   19  C14 UNL     1      -1.368  -2.759  -2.263  1.00  0.00     0.133 A 
HETATM   20  N5  UNL     1      -0.179  -2.312  -2.557  1.00  0.00    -0.284 NA
HETATM   21  C15 UNL     1       0.449  -1.314  -1.788  1.00  0.00     0.184 A 
HETATM   22  C16 UNL     1       1.130  -0.553  -0.975  1.00  0.00    -0.019 C 
HETATM   23  C17 UNL     1       1.869  -1.525  -0.212  1.00  0.00     0.044 C 
HETATM   24  C18 UNL     1       3.354  -1.205  -0.099  1.00  0.00     0.048 C 
HETATM   25  H16 UNL     1      -0.857  -2.333   0.309  1.00  0.00     0.082 HD
ENDROOT
BRANCH   4  26
HETATM   26  C3  UNL     1       5.956   0.146   1.103  1.00  0.00     0.292 C 
HETATM   27  O1  UNL     1       6.142  -1.108   1.017  1.00  0.00    -0.300 OA
ENDBRANCH   4  26
TORSDOF 1
