REMARK  3 active torsions:
REMARK  status: ('A' for Active; 'I' for Inactive)
REMARK       I    between atoms: C2_2  and  N1_4 
REMARK    1  A    between atoms: C5_7  and  N2_8 
REMARK    2  A    between atoms: N2_8  and  C6_9 
REMARK    3  A    between atoms: C12_17  and  C13_18 
REMARK       I    between atoms: C13_18  and  N5_19 
ROOT
HETATM    1  C6  UNL     1       0.128  -0.189  -0.591  1.00  0.00     0.723 A 
HETATM    2  N3  UNL     1       0.130  -1.464  -0.145  1.00  0.00    -0.075 NA
HETATM    3  C7  UNL     1      -0.996  -2.031   0.364  1.00  0.00     0.146 A 
HETATM    4  C8  UNL     1      -2.211  -1.335   0.455  1.00  0.00    -0.008 A 
HETATM    5  C9  UNL     1      -2.126  -0.047  -0.020  1.00  0.00     0.112 A 
HETATM    6  N4  UNL     1      -1.021   0.522  -0.524  1.00  0.00    -0.060 NA
HETATM    7  C10 UNL     1      -3.373   0.700   0.060  1.00  0.00     0.091 A 
HETATM    8  C11 UNL     1      -4.394  -0.048   0.603  1.00  0.00     0.009 A 
HETATM    9  C12 UNL     1      -5.490   0.825   0.599  1.00  0.00     0.147 A 
HETATM   10  N6  UNL     1      -5.092   2.018   0.073  1.00  0.00    -0.167 NA
HETATM   11  N7  UNL     1      -3.794   1.929  -0.254  1.00  0.00    -0.271 N 
HETATM   12  C14 UNL     1      -2.928   2.907  -0.834  1.00  0.00     0.180 C 
HETATM   13  C15 UNL     1      -4.547  -1.422   1.124  1.00  0.00     0.048 A 
HETATM   14  C16 UNL     1      -3.251  -2.171   1.036  1.00  0.00     0.047 A 
ENDROOT
BRANCH   1  15
HETATM   15  N2  UNL     1       1.290   0.397  -1.116  1.00  0.00    -0.218 N 
HETATM   16  H9  UNL     1       1.281   1.380  -1.459  1.00  0.00     0.178 HD
BRANCH  15  17
HETATM   17  C5  UNL     1       2.511  -0.376  -1.182  1.00  0.00     0.102 C 
HETATM   18  C4  UNL     1       2.952  -0.833   0.202  1.00  0.00     0.045 C 
HETATM   19  C3  UNL     1       4.423  -1.233   0.077  1.00  0.00     0.127 C 
HETATM   20  N1  UNL     1       5.237  -0.072  -0.100  1.00  0.00    -0.352 N 
HETATM   21  C2  UNL     1       6.549  -0.037   0.446  1.00  0.00     0.215 C 
HETATM   22  C18 UNL     1       4.592   0.968  -0.847  1.00  0.00     0.127 C 
HETATM   23  C1  UNL     1       7.461   1.118   0.315  1.00  0.00     0.117 C 
HETATM   24  O1  UNL     1       6.533  -1.199   0.965  1.00  0.00    -0.274 OA
HETATM   25  C17 UNL     1       3.605   0.422  -1.858  1.00  0.00     0.045 C 
ENDBRANCH  15  17
ENDBRANCH   1  15
BRANCH   9  26
HETATM   26  C13 UNL     1      -6.893   0.765   1.006  1.00  0.00     0.249 C 
HETATM   27  N5  UNL     1      -7.343  -0.474   1.563  1.00  0.00    -0.267 NA
HETATM   28  H11 UNL     1      -8.273  -0.950   1.554  1.00  0.00     0.127 HD
HETATM   29  H12 UNL     1      -8.267  -0.961   1.562  1.00  0.00     0.127 HD
HETATM   30  O2  UNL     1      -7.839   1.596   0.976  1.00  0.00    -0.272 OA
ENDBRANCH   9  26
TORSDOF 3
