REMARK  4 active torsions:
REMARK  status: ('A' for Active; 'I' for Inactive)
REMARK       I    between atoms: C2_2  and  N1_4 
REMARK    1  A    between atoms: C5_7  and  N2_8 
REMARK    2  A    between atoms: N2_8  and  C6_9 
REMARK    3  A    between atoms: N3_10  and  C7_11 
REMARK    4  A    between atoms: C11_18  and  C12_19 
REMARK       I    between atoms: C12_19  and  N7_20 
ROOT
HETATM    1  C7  UNL     1       1.199  -0.235   0.020  1.00  0.00     0.037 C 
HETATM    2  C8  UNL     1       1.781   0.477  -0.962  1.00  0.00     0.056 C 
HETATM    3  C9  UNL     1       3.263   0.476  -0.943  1.00  0.00     0.068 A 
HETATM    4  N4  UNL     1       3.883   1.553  -1.328  1.00  0.00    -0.159 NA
HETATM    5  N5  UNL     1       5.283   1.545  -1.308  1.00  0.00    -0.192 N 
HETATM    6  C10 UNL     1       5.942   2.758  -1.743  1.00  0.00     0.204 C 
HETATM    7  N6  UNL     1       5.946   0.394  -0.878  1.00  0.00    -0.154 NA
HETATM    8  C11 UNL     1       5.377  -0.691  -0.487  1.00  0.00     0.128 A 
HETATM    9  C13 UNL     1       3.920  -0.782  -0.472  1.00  0.00     0.099 A 
HETATM   10  C14 UNL     1       3.393  -1.067   0.896  1.00  0.00     0.023 C 
HETATM   11  C15 UNL     1       1.918  -0.971   1.060  1.00  0.00     0.060 C 
ENDROOT
BRANCH   1  12
HETATM   12  N3  UNL     1      -0.222  -0.224  -0.016  1.00  0.00    -0.249 NA
HETATM   13  C6  UNL     1      -0.812  -1.323  -0.310  1.00  0.00     0.203 C 
BRANCH  13  14
HETATM   14  N2  UNL     1      -2.226  -1.355  -0.356  1.00  0.00    -0.380 N 
HETATM   15  H9  UNL     1      -2.675  -2.300  -0.159  1.00  0.00     0.160 HD
BRANCH  14  16
HETATM   16  C5  UNL     1      -3.024  -0.183  -0.651  1.00  0.00     0.085 C 
HETATM   17  C4  UNL     1      -2.793   0.830   0.394  1.00  0.00     0.045 C 
HETATM   18  C3  UNL     1      -3.892   1.816   0.638  1.00  0.00     0.127 C 
HETATM   19  N1  UNL     1      -5.119   1.065   0.804  1.00  0.00    -0.352 N 
HETATM   20  C2  UNL     1      -5.897   0.974   1.995  1.00  0.00     0.215 C 
HETATM   21  C17 UNL     1      -5.459   0.399  -0.442  1.00  0.00     0.127 C 
HETATM   22  C1  UNL     1      -7.120   0.141   1.907  1.00  0.00     0.117 C 
HETATM   23  O1  UNL     1      -5.388   1.645   2.954  1.00  0.00    -0.274 OA
HETATM   24  C16 UNL     1      -4.444  -0.633  -0.833  1.00  0.00     0.045 C 
ENDBRANCH  14  16
ENDBRANCH  13  14
ENDBRANCH   1  12
BRANCH   8  25
HETATM   25  C12 UNL     1       6.323  -1.735  -0.096  1.00  0.00     0.245 C 
HETATM   26  N7  UNL     1       5.698  -2.932   0.343  1.00  0.00    -0.267 NA
HETATM   27  H15 UNL     1       6.047  -3.877   0.024  1.00  0.00     0.127 HD
HETATM   28  H16 UNL     1       6.125  -3.823  -0.036  1.00  0.00     0.127 HD
HETATM   29  O2  UNL     1       7.557  -1.517  -0.171  1.00  0.00    -0.273 OA
ENDBRANCH   8  25
TORSDOF 4
