REMARK  9 active torsions:
REMARK  status: ('A' for Active; 'I' for Inactive)
REMARK    1  A    between atoms: C2_2  and  C13_18 
REMARK    2  A    between atoms: C3_3  and  C4_4 
REMARK    3  A    between atoms: C7_8  and  N2_9 
REMARK    4  A    between atoms: N2_9  and  C8_10 
REMARK    5  A    between atoms: N3_13  and  C11_14 
REMARK    6  A    between atoms: C11_14  and  O1_16 
REMARK    7  A    between atoms: C13_18  and  P1_19 
REMARK    8  A    between atoms: P1_19  and  C14_20 
REMARK    9  A    between atoms: C14_20  and  C15_21 
REMARK       I    between atoms: C15_21  and  N5_22 
ROOT
HETATM    1  C4  UNL     1       0.708   0.277   0.377  1.00  0.00     0.077 A 
HETATM    2  C5  UNL     1       0.605  -0.970  -0.213  1.00  0.00     0.052 A 
HETATM    3  C6  UNL     1      -0.633  -1.548  -0.456  1.00  0.00     0.139 A 
HETATM    4  N1  UNL     1      -1.741  -0.842  -0.092  1.00  0.00    -0.075 NA
HETATM    5  C7  UNL     1      -1.628   0.370   0.483  1.00  0.00     0.724 A 
HETATM    6  N4  UNL     1      -0.429   0.924   0.715  1.00  0.00    -0.063 NA
ENDROOT
BRANCH   1   7
HETATM    7  C3  UNL     1       2.031   0.812   0.592  1.00  0.00     0.035 C 
HETATM    8  C2  UNL     1       3.111   0.776  -0.170  1.00  0.00    -0.078 C 
HETATM    9  C1  UNL     1       3.225   0.140  -1.505  1.00  0.00     0.044 C 
BRANCH   8  10
HETATM   10  C13 UNL     1       4.356   1.428   0.339  1.00  0.00     0.065 C 
BRANCH  10  11
HETATM   11  P1  UNL     1       5.619   0.091   0.430  1.00  0.00    -0.116 P 
HETATM   12  H20 UNL     1       6.321   0.042   1.678  1.00  0.00     0.058 HD
BRANCH  11  13
HETATM   13  C14 UNL     1       6.676  -0.047  -1.062  1.00  0.00     0.134 C 
BRANCH  13  14
HETATM   14  C15 UNL     1       8.096  -0.386  -0.711  1.00  0.00     0.219 C 
HETATM   15  N5  UNL     1       8.409  -0.547   0.689  1.00  0.00    -0.370 N 
HETATM   16  H23 UNL     1       8.603  -1.381   1.295  1.00  0.00     0.159 HD
HETATM   17  H24 UNL     1       8.408   0.440   1.033  1.00  0.00     0.159 HD
HETATM   18  O2  UNL     1       8.924  -0.508  -1.649  1.00  0.00    -0.273 OA
ENDBRANCH  13  14
ENDBRANCH  11  13
ENDBRANCH  10  11
ENDBRANCH   8  10
ENDBRANCH   1   7
BRANCH   5  19
HETATM   19  N2  UNL     1      -2.806   1.080   0.858  1.00  0.00    -0.190 N 
HETATM   20  H7  UNL     1      -2.744   2.026   1.291  1.00  0.00     0.180 HD
BRANCH  19  21
HETATM   21  C8  UNL     1      -4.067   0.387   0.587  1.00  0.00     0.341 C 
HETATM   22  C9  UNL     1      -4.179   0.124  -0.893  1.00  0.00     0.088 C 
HETATM   23  C10 UNL     1      -5.271   1.170  -0.841  1.00  0.00     0.282 C 
HETATM   24  N3  UNL     1      -5.238   1.227   0.589  1.00  0.00     0.140 N 
BRANCH  24  25
HETATM   25  C11 UNL     1      -6.306   0.562   1.293  1.00  0.00     0.354 C 
HETATM   26  C12 UNL     1      -7.674   1.098   0.961  1.00  0.00     0.073 C 
BRANCH  25  27
HETATM   27  O1  UNL     1      -6.330  -0.812   1.061  1.00  0.00    -0.368 OA
HETATM   28  H17 UNL     1      -6.905  -1.066   0.291  1.00  0.00     0.212 HD
ENDBRANCH  25  27
ENDBRANCH  24  25
ENDBRANCH  19  21
ENDBRANCH   5  19
TORSDOF 9
