REMARK  8 active torsions:
REMARK  status: ('A' for Active; 'I' for Inactive)
REMARK    1  A    between atoms: C2_4  and  C3_5 
REMARK       I    between atoms: C3_5  and  N3_6 
REMARK    2  A    between atoms: C4_8  and  C5_9 
REMARK    3  A    between atoms: C5_9  and  C6_10 
REMARK    4  A    between atoms: C6_10  and  C7_11 
REMARK    5  A    between atoms: C7_11  and  N4_12 
REMARK    6  A    between atoms: N5_15  and  C10_16 
REMARK    7  A    between atoms: C10_16  and  N6_17 
REMARK    8  A    between atoms: N6_17  and  C11_18 
ROOT
HETATM    1  C1  UNL     1      -1.203  -3.534   0.159  1.00  0.00     0.182 C 
HETATM    2  N1  UNL     1      -1.953  -2.299   0.003  1.00  0.00    -0.256 N 
HETATM    3  N2  UNL     1      -3.232  -2.008   0.319  1.00  0.00    -0.165 NA
HETATM    4  C2  UNL     1      -3.709  -0.802   0.002  1.00  0.00     0.151 A 
HETATM    5  C4  UNL     1      -3.130   0.264  -0.611  1.00  0.00    -0.015 A 
HETATM    6  C8  UNL     1      -1.823   0.003  -0.943  1.00  0.00     0.061 A 
HETATM    7  C9  UNL     1      -1.302  -1.204  -0.645  1.00  0.00     0.142 A 
HETATM    8  N5  UNL     1      -0.108  -1.455  -0.852  1.00  0.00    -0.252 NA
ENDROOT
BRANCH   8   9
HETATM    9  C10 UNL     1       1.011  -0.793  -1.424  1.00  0.00     0.268 C 
BRANCH   9  10
HETATM   10  N6  UNL     1       2.102  -1.090  -0.497  1.00  0.00    -0.398 N 
HETATM   11  H13 UNL     1       1.885  -0.867   0.482  1.00  0.00     0.155 HD
BRANCH  10  12
HETATM   12  C11 UNL     1       3.436  -0.808  -0.950  1.00  0.00     0.101 C 
HETATM   13  C12 UNL     1       4.372  -0.963   0.222  1.00  0.00     0.152 C 
HETATM   14  N7  UNL     1       4.504   0.228   1.113  1.00  0.00    -0.340 N 
HETATM   15  C13 UNL     1       4.715   1.303   2.174  1.00  0.00     0.233 A 
HETATM   16  C19 UNL     1       4.086   1.493   0.359  1.00  0.00     0.045 A 
HETATM   17  O2  UNL     1       5.129   1.023   3.309  1.00  0.00    -0.272 OA
HETATM   18  C14 UNL     1       4.286   2.614   1.402  1.00  0.00     0.091 A 
HETATM   19  C15 UNL     1       4.000   2.168   0.352  1.00  0.00     0.042 A 
HETATM   20  C16 UNL     1       3.721   1.192  -0.877  1.00  0.00     0.064 A 
HETATM   21  C18 UNL     1       3.557   1.855  -1.073  1.00  0.00     0.029 A 
HETATM   22  C17 UNL     1       3.505   0.472  -1.814  1.00  0.00    -0.015 A 
ENDBRANCH  10  12
ENDBRANCH   9  10
ENDBRANCH   8   9
BRANCH   5  23
HETATM   23  C5  UNL     1      -4.018   1.443  -0.710  1.00  0.00     0.071 C 
BRANCH  23  24
HETATM   24  C6  UNL     1      -4.046   2.171   0.596  1.00  0.00     0.011 C 
BRANCH  24  25
HETATM   25  C7  UNL     1      -2.775   2.442   0.896  1.00  0.00     0.072 C 
BRANCH  25  26
HETATM   26  N4  UNL     1      -1.761   3.328   0.730  1.00  0.00    -0.298 NA
HETATM   27  H9  UNL     1      -1.613   3.854   1.693  1.00  0.00     0.187 HD
ENDBRANCH  25  26
ENDBRANCH  24  25
ENDBRANCH  23  24
ENDBRANCH   5  23
BRANCH   4  28
HETATM   28  C3  UNL     1      -5.130  -0.592   0.460  1.00  0.00     0.270 C 
HETATM   29  N3  UNL     1      -5.704  -1.554   1.395  1.00  0.00    -0.365 N 
HETATM   30  H4  UNL     1      -4.994  -1.941   2.145  1.00  0.00     0.159 HD
HETATM   31  H5  UNL     1      -6.162  -2.237   2.032  1.00  0.00     0.159 HD
HETATM   32  O1  UNL     1      -6.261  -0.204   0.672  1.00  0.00    -0.266 OA
ENDBRANCH   4  28
TORSDOF 8
