REMARK  1 active torsions:
REMARK  status: ('A' for Active; 'I' for Inactive)
REMARK    1  A    between atoms: C2_4  and  C3_5 
REMARK       I    between atoms: C3_5  and  N3_6 
ROOT
HETATM    1  C1  UNL     1       4.267   2.801   0.243  1.00  0.00     0.180 C 
HETATM    2  N1  UNL     1       4.328   1.355   0.256  1.00  0.00    -0.271 N 
HETATM    3  N2  UNL     1       5.421   0.664   0.511  1.00  0.00    -0.166 NA
HETATM    4  C2  UNL     1       5.168  -0.654   0.445  1.00  0.00     0.153 A 
HETATM    5  C4  UNL     1       3.831  -0.690   0.130  1.00  0.00     0.009 A 
HETATM    6  C5  UNL     1       3.252   0.563  -0.002  1.00  0.00     0.090 A 
HETATM    7  C6  UNL     1       1.858   0.873  -0.358  1.00  0.00     0.094 C 
HETATM    8  N4  UNL     1       1.602   2.169  -0.386  1.00  0.00    -0.246 NA
HETATM    9  C7  UNL     1       0.341   2.679  -0.701  1.00  0.00     0.058 A 
HETATM   10  C8  UNL     1      -0.009   3.758  -1.485  1.00  0.00     0.031 A 
HETATM   11  C9  UNL     1      -1.330   4.081  -1.720  1.00  0.00     0.003 A 
HETATM   12  C10 UNL     1      -2.419   3.402  -1.227  1.00  0.00     0.017 A 
HETATM   13  C11 UNL     1      -2.090   2.324  -0.445  1.00  0.00     0.034 A 
HETATM   14  C12 UNL     1      -0.741   1.991  -0.197  1.00  0.00     0.048 A 
HETATM   15  C13 UNL     1      -3.018   1.387   0.132  1.00  0.00     0.253 C 
HETATM   16  O2  UNL     1      -2.815   0.455  -0.671  1.00  0.00    -0.267 OA
HETATM   17  N5  UNL     1      -3.909   0.472   0.675  1.00  0.00    -0.348 N 
HETATM   18  C14 UNL     1      -3.812  -0.106   2.036  1.00  0.00     0.128 C 
HETATM   19  C15 UNL     1      -3.814  -1.599   2.004  1.00  0.00     0.045 C 
HETATM   20  C16 UNL     1      -3.834  -2.218   0.639  1.00  0.00     0.085 C 
HETATM   21  C17 UNL     1      -4.681  -1.572  -0.394  1.00  0.00     0.045 C 
HETATM   22  C18 UNL     1      -5.099  -0.190   0.063  1.00  0.00     0.128 C 
HETATM   23  N6  UNL     1      -2.512  -2.539   0.168  1.00  0.00    -0.380 N 
HETATM   24  C19 UNL     1      -1.513  -2.474  -0.829  1.00  0.00     0.202 C 
HETATM   25  N7  UNL     1      -0.585  -1.989  -1.499  1.00  0.00    -0.256 NA
HETATM   26  C20 UNL     1       0.071  -0.744  -1.432  1.00  0.00     0.127 C 
HETATM   27  C21 UNL     1       1.053  -0.360  -0.591  1.00  0.00    -0.009 C 
HETATM   28  C22 UNL     1       1.498  -1.438   0.369  1.00  0.00     0.047 C 
HETATM   29  C23 UNL     1       2.916  -1.875  -0.067  1.00  0.00     0.048 C 
HETATM   30  H19 UNL     1      -1.960  -3.107   0.875  1.00  0.00     0.160 HD
ENDROOT
BRANCH   4  31
HETATM   31  C3  UNL     1       6.003  -1.835   0.637  1.00  0.00     0.270 C 
HETATM   32  N3  UNL     1       7.348  -1.519   0.963  1.00  0.00    -0.365 N 
HETATM   33  H4  UNL     1       7.559  -1.860   1.940  1.00  0.00     0.159 HD
HETATM   34  H5  UNL     1       7.952  -1.014   0.248  1.00  0.00     0.159 HD
HETATM   35  O1  UNL     1       5.536  -3.000   0.516  1.00  0.00    -0.266 OA
ENDBRANCH   4  31
TORSDOF 1
