REMARK  8 active torsions:
REMARK  status: ('A' for Active; 'I' for Inactive)
REMARK    1  A    between atoms: C2_2  and  C3_3 
REMARK    2  A    between atoms: C3_3  and  C12_14 
REMARK    3  A    between atoms: C4_4  and  N1_5 
REMARK    4  A    between atoms: N1_5  and  C5_6 
REMARK    5  A    between atoms: C5_6  and  O1_7 
REMARK    6  A    between atoms: C5_6  and  C6_8 
REMARK    7  A    between atoms: C12_14  and  C13_15 
REMARK    8  A    between atoms: C15_17  and  C16_18 
REMARK       I    between atoms: C16_18  and  N2_19 
ROOT
HETATM    1  C3  UNL     1       0.178  -1.150  -1.669  1.00  0.00    -0.059 C 
HETATM    2  C4  UNL     1      -0.582  -0.237  -2.305  1.00  0.00     0.088 C 
ENDROOT
BRANCH   1   3
HETATM    3  C2  UNL     1      -0.456  -2.267  -0.968  1.00  0.00     0.031 C 
HETATM    4  C1  UNL     1      -0.210  -2.360   0.496  1.00  0.00     0.010 C 
ENDBRANCH   1   3
BRANCH   1   5
HETATM    5  C12 UNL     1       1.622  -0.924  -1.758  1.00  0.00     0.094 C 
BRANCH   5   6
HETATM    6  C13 UNL     1       2.251  -0.730  -0.427  1.00  0.00     0.036 A 
HETATM    7  C14 UNL     1       2.880  -1.528   0.531  1.00  0.00     0.066 A 
HETATM    8  C15 UNL     1       3.260  -0.741   1.592  1.00  0.00     0.146 A 
HETATM    9  N3  UNL     1       2.881   0.531   1.315  1.00  0.00    -0.167 NA
HETATM   10  N4  UNL     1       2.289   0.514   0.123  1.00  0.00    -0.277 N 
HETATM   11  C17 UNL     1       1.809   1.790  -0.355  1.00  0.00     0.179 C 
BRANCH   8  12
HETATM   12  C16 UNL     1       3.945  -1.264   2.766  1.00  0.00     0.269 C 
HETATM   13  N2  UNL     1       4.276  -0.321   3.788  1.00  0.00    -0.365 N 
HETATM   14  H18 UNL     1       4.108  -0.544   4.794  1.00  0.00     0.159 HD
HETATM   15  H19 UNL     1       4.692   0.613   3.574  1.00  0.00     0.159 HD
HETATM   16  O2  UNL     1       4.188  -2.498   2.786  1.00  0.00    -0.266 OA
ENDBRANCH   8  12
ENDBRANCH   5   6
ENDBRANCH   1   5
BRANCH   2  17
HETATM   17  N1  UNL     1      -2.001  -0.191  -2.404  1.00  0.00    -0.369 N 
HETATM   18  H7  UNL     1      -2.425  -1.087  -2.668  1.00  0.00     0.161 HD
BRANCH  17  19
HETATM   19  C5  UNL     1      -2.792   1.010  -2.155  1.00  0.00     0.252 C 
BRANCH  19  20
HETATM   20  O1  UNL     1      -4.152   0.677  -2.351  1.00  0.00    -0.373 OA
HETATM   21  H9  UNL     1      -4.227  -0.090  -2.960  1.00  0.00     0.212 HD
ENDBRANCH  19  20
BRANCH  19  22
HETATM   22  C6  UNL     1      -2.700   1.345  -0.701  1.00  0.00    -0.010 A 
HETATM   23  C7  UNL     1      -2.852   0.359   0.230  1.00  0.00     0.011 A 
HETATM   24  C8  UNL     1      -2.764   0.676   1.578  1.00  0.00     0.001 A 
HETATM   25  C9  UNL     1      -2.525   1.984   1.956  1.00  0.00     0.000 A 
HETATM   26  C10 UNL     1      -2.365   3.019   1.045  1.00  0.00     0.001 A 
HETATM   27  C11 UNL     1      -2.458   2.667  -0.307  1.00  0.00     0.011 A 
ENDBRANCH  19  22
ENDBRANCH  17  19
ENDBRANCH   2  17
TORSDOF 8
