REMARK  0 active torsions:
REMARK  status: ('A' for Active; 'I' for Inactive)
ROOT
HETATM    1  O1  UNL     1       0.141   2.909  -0.986  1.00  0.00    -0.267 OA
HETATM    2  C1  UNL     1       0.563   1.860  -0.387  1.00  0.00     0.254 C 
HETATM    3  C2  UNL     1       1.981   1.735   0.056  1.00  0.00     0.038 A 
HETATM    4  C3  UNL     1       2.656   2.925   0.018  1.00  0.00     0.017 A 
HETATM    5  C4  UNL     1       3.956   2.822   0.444  1.00  0.00     0.001 A 
HETATM    6  C5  UNL     1       4.447   1.609   0.851  1.00  0.00     0.001 A 
HETATM    7  C6  UNL     1       3.741   0.430   0.878  1.00  0.00     0.008 A 
HETATM    8  C7  UNL     1       2.435   0.486   0.459  1.00  0.00    -0.037 A 
HETATM    9  C8  UNL     1       1.390  -0.561   0.332  1.00  0.00    -0.010 C 
HETATM   10  C9  UNL     1       0.853  -0.148   1.494  1.00  0.00     0.085 C 
HETATM   11  C10 UNL     1      -0.232  -0.432   2.388  1.00  0.00     0.091 C 
HETATM   12  N1  UNL     1      -1.315  -1.158   2.650  1.00  0.00    -0.289 NA
HETATM   13  C11 UNL     1      -1.652  -2.162   1.613  1.00  0.00     0.261 C 
HETATM   14  N2  UNL     1      -1.517  -1.571   0.294  1.00  0.00    -0.207 NA
HETATM   15  N3  UNL     1      -1.601  -2.680  -0.591  1.00  0.00    -0.329 N 
HETATM   16  C12 UNL     1      -0.475  -2.754  -1.410  1.00  0.00     0.098 C 
HETATM   17  C13 UNL     1       0.671  -2.154  -1.419  1.00  0.00    -0.008 C 
HETATM   18  C14 UNL     1       1.735  -1.234  -0.980  1.00  0.00     0.039 C 
HETATM   19  C15 UNL     1      -2.526  -0.665  -0.102  1.00  0.00     0.084 C 
HETATM   20  C16 UNL     1      -2.756   0.559   0.700  1.00  0.00     0.041 C 
HETATM   21  C17 UNL     1      -1.872   1.733   0.387  1.00  0.00     0.127 C 
HETATM   22  N4  UNL     1      -0.806   1.464  -0.577  1.00  0.00    -0.348 N 
HETATM   23  C18 UNL     1      -1.277   0.786  -1.783  1.00  0.00     0.127 C 
HETATM   24  C19 UNL     1      -2.346  -0.227  -1.527  1.00  0.00     0.041 C 
HETATM   25  H9  UNL     1      -2.488  -3.173  -0.414  1.00  0.00     0.180 HD
ENDROOT
TORSDOF 0
