REMARK  4 active torsions:
REMARK  status: ('A' for Active; 'I' for Inactive)
REMARK    1  A    between atoms: C6_8  and  N3_9 
REMARK    2  A    between atoms: C10_14  and  N4_15 
REMARK    3  A    between atoms: C11_16  and  C12_17 
REMARK       I    between atoms: C12_17  and  N5_18 
REMARK       I    between atoms: N6_21  and  C14_22 
REMARK    4  A    between atoms: C14_22  and  C15_24 
ROOT
HETATM    1  C1  UNL     1       2.499  -2.765  -1.704  1.00  0.00     0.056 C 
HETATM    2  C2  UNL     1       1.270  -2.310  -0.863  1.00  0.00     0.184 C 
HETATM    3  N1  UNL     1       1.285  -3.165   0.275  1.00  0.00    -0.356 N 
HETATM    4  C3  UNL     1       0.441  -2.723   1.304  1.00  0.00     0.135 A 
HETATM    5  N2  UNL     1      -0.850  -2.373   1.391  1.00  0.00     0.000 N 
HETATM    6  C4  UNL     1      -1.637  -2.495   0.290  1.00  0.00    -0.030 A 
HETATM    7  C5  UNL     1      -1.996  -2.032   1.535  1.00  0.00    -0.032 A 
HETATM    8  C6  UNL     1      -1.186  -1.921   2.647  1.00  0.00     0.105 A 
HETATM    9  N3  UNL     1       0.133  -2.286   2.568  1.00  0.00    -0.185 NA
HETATM   10  B1  UNL     1      -3.433  -1.427   1.720  1.00  0.00     0.172 B 
HETATM   11  C7  UNL     1      -3.932  -0.198   0.898  1.00  0.00    -0.048 C 
HETATM   12  C8  UNL     1      -3.012   0.988   0.785  1.00  0.00     0.019 C 
HETATM   13  C9  UNL     1      -1.783   0.645   0.111  1.00  0.00     0.001 C 
HETATM   14  C10 UNL     1      -0.767   0.470  -0.661  1.00  0.00     0.048 C 
HETATM   15  C13 UNL     1       0.445   0.081  -1.286  1.00  0.00     0.187 C 
HETATM   16  N6  UNL     1       1.306  -0.902  -0.648  1.00  0.00    -0.321 N 
HETATM   17  C14 UNL     1       2.392  -0.646   0.269  1.00  0.00     0.255 C 
HETATM   18  O2  UNL     1       3.193  -1.428   0.874  1.00  0.00    -0.267 OA
HETATM   19  H5  UNL     1       1.830  -4.038   0.411  1.00  0.00     0.162 HD
HETATM   20  H8  UNL     1      -4.200  -2.042   2.367  1.00  0.00    -0.025 HD
ENDROOT
BRANCH  17  21
HETATM   21  C15 UNL     1       2.920   0.632   0.800  1.00  0.00     0.032 A 
HETATM   22  C16 UNL     1       1.983   1.311   1.546  1.00  0.00     0.017 A 
HETATM   23  C17 UNL     1       2.280   2.541   2.137  1.00  0.00     0.001 A 
HETATM   24  C18 UNL     1       3.566   2.984   1.901  1.00  0.00     0.000 A 
HETATM   25  C19 UNL     1       4.536   2.363   1.175  1.00  0.00     0.001 A 
HETATM   26  C20 UNL     1       4.190   1.167   0.623  1.00  0.00     0.017 A 
ENDBRANCH  17  21
BRANCH  14  27
HETATM   27  N4  UNL     1      -1.635   1.339  -1.423  1.00  0.00    -0.259 NA
HETATM   28  C11 UNL     1      -1.107   2.100  -2.353  1.00  0.00     0.190 C 
BRANCH  28  29
HETATM   29  C12 UNL     1      -1.687   3.053  -3.265  1.00  0.00     0.256 C 
HETATM   30  N5  UNL     1      -2.882   2.627  -2.566  1.00  0.00    -0.365 N 
HETATM   31  H15 UNL     1      -3.759   2.316  -2.050  1.00  0.00     0.159 HD
HETATM   32  H16 UNL     1      -3.765   2.274  -2.107  1.00  0.00     0.159 HD
HETATM   33  O1  UNL     1      -2.574   3.737  -3.826  1.00  0.00    -0.267 OA
ENDBRANCH  28  29
ENDBRANCH  14  27
TORSDOF 4
