REMARK  7 active torsions:
REMARK  status: ('A' for Active; 'I' for Inactive)
REMARK    1  A    between atoms: O1_2  and  C2_3 
REMARK    2  A    between atoms: C5_6  and  C6_7 
REMARK    3  A    between atoms: C6_7  and  N1_8 
REMARK    4  A    between atoms: N1_8  and  C7_9 
REMARK    5  A    between atoms: N2_12  and  N3_13 
REMARK    6  A    between atoms: C11_17  and  N6_18 
REMARK    7  A    between atoms: N6_18  and  C12_19 
ROOT
HETATM    1  C7  UNL     1       0.191   0.268   1.446  1.00  0.00     0.102 C 
HETATM    2  C8  UNL     1      -0.757   1.136   1.267  1.00  0.00     0.074 A 
HETATM    3  C9  UNL     1      -0.443   2.563   1.268  1.00  0.00     0.185 A 
HETATM    4  N2  UNL     1       0.758   3.027   1.441  1.00  0.00    -0.161 NA
HETATM    5  N4  UNL     1      -1.569   3.411   1.062  1.00  0.00    -0.220 NA
HETATM    6  C10 UNL     1      -2.755   2.934   0.892  1.00  0.00     0.237 A 
HETATM    7  N5  UNL     1      -3.074   1.567   0.888  1.00  0.00    -0.223 NA
HETATM    8  C11 UNL     1      -2.131   0.685   1.067  1.00  0.00     0.145 A 
ENDROOT
BRANCH   1   9
HETATM    9  N1  UNL     1       0.505  -1.084   1.541  1.00  0.00    -0.394 N 
HETATM   10  H8  UNL     1       0.550  -1.648   2.442  1.00  0.00     0.159 HD
BRANCH   9  11
HETATM   11  C6  UNL     1       0.785  -1.736   0.281  1.00  0.00     0.157 C 
BRANCH  11  12
HETATM   12  C5  UNL     1       1.961  -1.053  -0.361  1.00  0.00    -0.040 A 
HETATM   13  C4  UNL     1       3.206  -1.561  -0.043  1.00  0.00     0.011 A 
HETATM   14  C3  UNL     1       4.378  -1.037  -0.556  1.00  0.00     0.037 A 
HETATM   15  C2  UNL     1       4.260   0.041  -1.420  1.00  0.00     0.068 A 
HETATM   16  C19 UNL     1       3.020   0.542  -1.732  1.00  0.00     0.037 A 
HETATM   17  C18 UNL     1       1.852   0.022  -1.223  1.00  0.00     0.011 A 
BRANCH  15  18
HETATM   18  O1  UNL     1       5.397   0.626  -1.979  1.00  0.00    -0.356 OA
HETATM   19  C1  UNL     1       6.683   0.117  -1.665  1.00  0.00     0.210 C 
ENDBRANCH  15  18
ENDBRANCH  11  12
ENDBRANCH   9  11
ENDBRANCH   1   9
BRANCH   8  20
HETATM   20  N6  UNL     1      -2.455  -0.681   1.062  1.00  0.00    -0.340 N 
HETATM   21  H13 UNL     1      -1.855  -1.322   1.626  1.00  0.00     0.167 HD
BRANCH  20  22
HETATM   22  C12 UNL     1      -3.563  -1.172   0.314  1.00  0.00     0.035 A 
HETATM   23  C13 UNL     1      -3.375  -1.576  -1.013  1.00  0.00     0.029 A 
HETATM   24  C14 UNL     1      -4.454  -2.054  -1.739  1.00  0.00     0.004 A 
HETATM   25  C15 UNL     1      -5.702  -2.128  -1.156  1.00  0.00     0.024 A 
HETATM   26  C16 UNL     1      -5.935  -1.736   0.163  1.00  0.00     0.036 A 
HETATM   27 CL1  UNL     1      -7.520  -1.828   0.913  1.00  0.00    -0.084 Cl
HETATM   28  C17 UNL     1      -4.835  -1.271   0.842  1.00  0.00     0.053 A 
ENDBRANCH  20  22
ENDBRANCH   8  20
BRANCH   4  29
HETATM   29  N3  UNL     1       0.920   4.424   1.419  1.00  0.00    -0.321 N 
HETATM   30  H10 UNL     1       1.733   4.914   1.877  1.00  0.00     0.179 HD
HETATM   31  H11 UNL     1       0.316   5.165   0.982  1.00  0.00     0.179 HD
ENDBRANCH   4  29
TORSDOF 7
