REMARK  5 active torsions:
REMARK  status: ('A' for Active; 'I' for Inactive)
REMARK       I    between atoms: N1_1  and  C1_2 
REMARK    1  A    between atoms: C1_2  and  C2_4 
REMARK    2  A    between atoms: C7_10  and  N3_11 
REMARK    3  A    between atoms: C10_15  and  N5_16 
REMARK    4  A    between atoms: N5_16  and  C11_17 
REMARK       I    between atoms: N6_20  and  C14_21 
REMARK    5  A    between atoms: C14_21  and  C15_23 
ROOT
HETATM    1  C2  UNL     1      -6.752  -0.657   0.400  1.00  0.00     0.127 A 
HETATM    2  N2  UNL     1      -7.092  -1.151   1.526  1.00  0.00    -0.283 NA
HETATM    3  C3  UNL     1      -6.217  -1.444   2.609  1.00  0.00     0.154 A 
HETATM    4  C4  UNL     1      -4.784  -1.084   2.344  1.00  0.00     0.063 A 
HETATM    5  C5  UNL     1      -4.560  -0.531   1.002  1.00  0.00    -0.015 A 
HETATM    6  C6  UNL     1      -5.412  -0.291   0.021  1.00  0.00     0.022 A 
HETATM    7  C7  UNL     1      -4.763   0.271  -1.166  1.00  0.00     0.290 A 
HETATM    8  C8  UNL     1      -3.330   0.336  -0.731  1.00  0.00     0.027 A 
HETATM    9  C9  UNL     1      -2.298   0.806  -1.512  1.00  0.00     0.148 A 
HETATM   10  N4  UNL     1      -1.065   0.797  -0.963  1.00  0.00    -0.075 NA
HETATM   11  C10 UNL     1      -0.904   0.334   0.311  1.00  0.00     0.723 A 
HETATM   12  N7  UNL     1      -1.958  -0.104   1.000  1.00  0.00    -0.062 NA
HETATM   13  C23 UNL     1      -3.216  -0.139   0.552  1.00  0.00     0.093 A 
ENDROOT
BRANCH  11  14
HETATM   14  N5  UNL     1       0.406   0.345   0.871  1.00  0.00    -0.218 N 
HETATM   15  H11 UNL     1       0.552   0.004   1.844  1.00  0.00     0.178 HD
BRANCH  14  16
HETATM   16  C11 UNL     1       1.475   0.832   0.052  1.00  0.00     0.102 C 
HETATM   17  C12 UNL     1       2.753   0.824   0.911  1.00  0.00     0.045 C 
HETATM   18  C13 UNL     1       3.882   1.360   0.050  1.00  0.00     0.128 C 
HETATM   19  N6  UNL     1       4.025   0.452  -1.076  1.00  0.00    -0.348 N 
HETATM   20  C14 UNL     1       5.198  -0.291  -1.425  1.00  0.00     0.253 C 
HETATM   21  C21 UNL     1       2.855   0.296  -1.920  1.00  0.00     0.128 C 
HETATM   22  O2  UNL     1       5.212  -1.068  -2.439  1.00  0.00    -0.267 OA
HETATM   23  C22 UNL     1       1.726  -0.201  -1.046  1.00  0.00     0.045 C 
BRANCH  20  24
HETATM   24  C15 UNL     1       6.480  -0.323  -0.782  1.00  0.00     0.032 A 
HETATM   25  C16 UNL     1       7.653  -0.206  -1.535  1.00  0.00     0.017 A 
HETATM   26  C17 UNL     1       8.932  -0.222  -1.004  1.00  0.00     0.001 A 
HETATM   27  C18 UNL     1       9.058  -0.363   0.364  1.00  0.00     0.000 A 
HETATM   28  C19 UNL     1       7.946  -0.483   1.166  1.00  0.00     0.001 A 
HETATM   29  C20 UNL     1       6.701  -0.460   0.573  1.00  0.00     0.017 A 
ENDBRANCH  20  24
ENDBRANCH  14  16
ENDBRANCH  11  14
BRANCH   7  30
HETATM   30  N3  UNL     1      -5.205   1.620  -1.464  1.00  0.00     0.091 N 
HETATM   31  H8  UNL     1      -4.568   1.955  -2.229  1.00  0.00     0.314 HD
HETATM   32  H9  UNL     1      -5.021   2.184  -0.604  1.00  0.00     0.314 HD
ENDBRANCH   7  30
BRANCH   1  33
HETATM   33  C1  UNL     1      -7.840  -0.445  -0.555  1.00  0.00     0.268 C 
HETATM   34  N1  UNL     1      -9.212  -0.744  -0.308  1.00  0.00    -0.365 N 
HETATM   35  H1  UNL     1      -9.370  -1.740  -0.027  1.00  0.00     0.159 HD
HETATM   36  H2  UNL     1     -10.007  -0.046  -0.393  1.00  0.00     0.159 HD
HETATM   37  O1  UNL     1      -7.726   0.024  -1.716  1.00  0.00    -0.266 OA
ENDBRANCH   1  33
TORSDOF 5
