REMARK  5 active torsions:
REMARK  status: ('A' for Active; 'I' for Inactive)
REMARK    1  A    between atoms: C5_7  and  N2_8 
REMARK    2  A    between atoms: N2_8  and  C6_9 
REMARK    3  A    between atoms: N3_12  and  C9_13 
REMARK    4  A    between atoms: C9_13  and  C10_14 
REMARK    5  A    between atoms: C9_13  and  C11_16 
ROOT
HETATM    1  C6  UNL     1       0.941   0.004  -0.136  1.00  0.00     0.081 C 
HETATM    2  C7  UNL     1       0.503  -0.906   0.999  1.00  0.00     0.055 C 
HETATM    3  C8  UNL     1      -0.709  -1.747   0.600  1.00  0.00     0.275 C 
HETATM    4  N3  UNL     1      -1.655  -1.025  -0.215  1.00  0.00     0.100 N 
HETATM    5  C17 UNL     1      -1.091  -0.429  -1.377  1.00  0.00     0.275 C 
HETATM    6  C18 UNL     1       0.451  -0.569  -1.407  1.00  0.00     0.055 C 
ENDROOT
BRANCH   1   7
HETATM    7  N2  UNL     1       2.246   0.476  -0.053  1.00  0.00    -0.398 N 
HETATM    8  H8  UNL     1       2.476   1.426  -0.347  1.00  0.00     0.155 HD
BRANCH   7   9
HETATM    9  C5  UNL     1       3.345  -0.440   0.089  1.00  0.00     0.184 A 
HETATM   10  C2  UNL     1       4.557   0.354   0.382  1.00  0.00    -0.047 A 
HETATM   11  C1  UNL     1       4.266   1.281   1.530  1.00  0.00     0.047 C 
HETATM   12  C3  UNL     1       5.816   0.556   0.050  1.00  0.00     0.008 A 
HETATM   13  C4  UNL     1       6.262  -0.267  -1.058  1.00  0.00     0.029 A 
HETATM   14  P1  UNL     1       5.122  -1.265  -1.670  1.00  0.00     0.029 P 
HETATM   15  N1  UNL     1       3.507  -1.291  -1.009  1.00  0.00    -0.267 NA
HETATM   16  H6  UNL     1       2.812  -1.006  -1.762  1.00  0.00     0.129 HD
ENDBRANCH   7   9
ENDBRANCH   1   7
BRANCH   4  17
HETATM   17  C9  UNL     1      -2.453  -0.224   0.624  1.00  0.00     0.289 C 
BRANCH  17  18
HETATM   18  C10 UNL     1      -3.155  -1.164   1.577  1.00  0.00     0.431 C 
HETATM   19  O1  UNL     1      -3.589  -2.108   2.214  1.00  0.00    -0.428 OA
ENDBRANCH  17  18
BRANCH  17  20
HETATM   20  C11 UNL     1      -3.538   0.527  -0.030  1.00  0.00    -0.022 A 
HETATM   21  C12 UNL     1      -3.892   1.849   0.162  1.00  0.00     0.009 A 
HETATM   22  C13 UNL     1      -4.940   2.421  -0.528  1.00  0.00     0.001 A 
HETATM   23  C14 UNL     1      -5.659   1.658  -1.436  1.00  0.00     0.000 A 
HETATM   24  C15 UNL     1      -5.336   0.333  -1.655  1.00  0.00     0.001 A 
HETATM   25  C16 UNL     1      -4.275  -0.198  -0.939  1.00  0.00     0.009 A 
ENDBRANCH  17  20
ENDBRANCH   4  17
TORSDOF 5
