REMARK  4 active torsions:
REMARK  status: ('A' for Active; 'I' for Inactive)
REMARK    1  A    between atoms: C2_4  and  C3_5 
REMARK       I    between atoms: C3_5  and  N3_6 
REMARK    2  A    between atoms: C7_12  and  N5_13 
REMARK    3  A    between atoms: N5_13  and  C8_14 
REMARK    4  A    between atoms: N6_17  and  C11_18 
ROOT
HETATM    1  C1  UNL     1       3.871  -2.572  -0.870  1.00  0.00     0.180 C 
HETATM    2  N1  UNL     1       4.535  -1.471  -0.218  1.00  0.00    -0.271 N 
HETATM    3  N2  UNL     1       5.761  -1.474   0.245  1.00  0.00    -0.166 NA
HETATM    4  C2  UNL     1       6.054  -0.265   0.797  1.00  0.00     0.153 A 
HETATM    5  C4  UNL     1       4.944   0.515   0.661  1.00  0.00     0.009 A 
HETATM    6  C5  UNL     1       4.012  -0.255   0.028  1.00  0.00     0.091 A 
HETATM    7  C6  UNL     1       2.710   0.302  -0.262  1.00  0.00     0.112 A 
HETATM    8  N4  UNL     1       1.720  -0.368  -0.880  1.00  0.00    -0.060 NA
HETATM    9  C7  UNL     1       0.524   0.228  -1.116  1.00  0.00     0.723 A 
HETATM   10  N7  UNL     1       0.300   1.515  -0.731  1.00  0.00    -0.075 NA
HETATM   11  C19 UNL     1       1.283   2.222  -0.102  1.00  0.00     0.146 A 
HETATM   12  C20 UNL     1       2.516   1.606   0.140  1.00  0.00    -0.008 A 
HETATM   13  C21 UNL     1       3.455   2.520   0.829  1.00  0.00     0.047 A 
HETATM   14  C22 UNL     1       4.781   1.903   1.106  1.00  0.00     0.048 A 
ENDROOT
BRANCH   9  15
HETATM   15  N5  UNL     1      -0.536  -0.478  -1.774  1.00  0.00    -0.216 N 
HETATM   16  H6  UNL     1      -0.363  -1.468  -2.070  1.00  0.00     0.178 HD
BRANCH  15  17
HETATM   17  C8  UNL     1      -1.803   0.146  -2.026  1.00  0.00     0.129 C 
HETATM   18  C9  UNL     1      -2.805  -0.710  -2.717  1.00  0.00     0.057 C 
HETATM   19  C10 UNL     1      -3.983  -0.836  -1.778  1.00  0.00     0.276 C 
HETATM   20  N6  UNL     1      -3.851   0.290  -0.909  1.00  0.00     0.111 N 
HETATM   21  C18 UNL     1      -2.436   0.513  -0.702  1.00  0.00     0.299 C 
BRANCH  20  22
HETATM   22  C11 UNL     1      -4.594   0.226   0.310  1.00  0.00     0.237 A 
HETATM   23  C12 UNL     1      -4.294   1.528   1.062  1.00  0.00     0.063 C 
HETATM   24  C13 UNL     1      -4.329  -0.962   1.139  1.00  0.00     0.022 A 
HETATM   25  C14 UNL     1      -5.187  -1.871   1.575  1.00  0.00    -0.001 A 
HETATM   26  C15 UNL     1      -6.583  -1.684   1.192  1.00  0.00     0.003 A 
HETATM   27  C16 UNL     1      -7.054  -0.678   0.444  1.00  0.00     0.053 A 
HETATM   28  C17 UNL     1      -6.046   0.283   0.002  1.00  0.00     0.191 A 
HETATM   29  O2  UNL     1      -6.492   1.235  -0.706  1.00  0.00    -0.290 OA
ENDBRANCH  20  22
ENDBRANCH  15  17
ENDBRANCH   9  15
BRANCH   4  30
HETATM   30  C3  UNL     1       7.347   0.077   1.411  1.00  0.00     0.270 C 
HETATM   31  N3  UNL     1       8.392  -0.878   1.458  1.00  0.00    -0.365 N 
HETATM   32  H4  UNL     1       8.910  -1.408   0.737  1.00  0.00     0.159 HD
HETATM   33  H5  UNL     1       8.975  -1.356   2.189  1.00  0.00     0.159 HD
HETATM   34  O1  UNL     1       7.578   1.207   1.910  1.00  0.00    -0.266 OA
ENDBRANCH   4  30
TORSDOF 4
