REMARK  4 active torsions:
REMARK  status: ('A' for Active; 'I' for Inactive)
REMARK    1  A    between atoms: C7_7  and  N1_8 
REMARK    2  A    between atoms: C10_11  and  N2_12 
REMARK    3  A    between atoms: N2_12  and  C11_13 
REMARK    4  A    between atoms: C17_21  and  C18_22 
REMARK       I    between atoms: C18_22  and  N5_23 
ROOT
HETATM    1  C11 UNL     1       1.022   0.110   0.656  1.00  0.00     0.723 A 
HETATM    2  N3  UNL     1       0.754  -1.177   0.364  1.00  0.00    -0.075 NA
HETATM    3  C12 UNL     1       1.736  -2.061   0.033  1.00  0.00     0.146 A 
HETATM    4  C13 UNL     1       3.055  -1.659  -0.013  1.00  0.00    -0.008 A 
HETATM    5  C14 UNL     1       3.331  -0.349   0.283  1.00  0.00     0.112 A 
HETATM    6  N4  UNL     1       2.316   0.475   0.602  1.00  0.00    -0.060 NA
HETATM    7  C15 UNL     1       4.720   0.094   0.238  1.00  0.00     0.091 A 
HETATM    8  C16 UNL     1       5.681  -0.846  -0.104  1.00  0.00     0.009 A 
HETATM    9  C17 UNL     1       6.875  -0.166  -0.067  1.00  0.00     0.153 A 
HETATM   10  N6  UNL     1       6.597   1.102   0.281  1.00  0.00    -0.166 NA
HETATM   11  N7  UNL     1       5.301   1.284   0.471  1.00  0.00    -0.271 N 
HETATM   12  C19 UNL     1       4.560   2.472   0.851  1.00  0.00     0.180 C 
HETATM   13  C20 UNL     1       5.451  -2.251  -0.429  1.00  0.00     0.048 A 
HETATM   14  C21 UNL     1       4.033  -2.683  -0.379  1.00  0.00     0.047 A 
ENDROOT
BRANCH   1  15
HETATM   15  N2  UNL     1      -0.018   1.019   0.999  1.00  0.00    -0.216 N 
HETATM   16  H15 UNL     1       0.272   2.012   1.215  1.00  0.00     0.178 HD
BRANCH  15  17
HETATM   17  C10 UNL     1      -1.373   0.553   1.034  1.00  0.00     0.129 C 
HETATM   18  C9  UNL     1      -2.237   1.747   1.429  1.00  0.00     0.057 C 
HETATM   19  C8  UNL     1      -2.780   2.199   0.088  1.00  0.00     0.275 C 
HETATM   20  N1  UNL     1      -2.881   1.020  -0.727  1.00  0.00     0.095 N 
HETATM   21  C22 UNL     1      -1.910   0.069  -0.284  1.00  0.00     0.298 C 
BRANCH  20  22
HETATM   22  C7  UNL     1      -4.207   0.522  -0.915  1.00  0.00     0.230 C 
HETATM   23  C6  UNL     1      -5.017   1.606  -1.583  1.00  0.00     0.063 C 
HETATM   24  C5  UNL     1      -6.239   1.073  -2.233  1.00  0.00    -0.025 C 
HETATM   25  C4  UNL     1      -7.013   0.047  -1.992  1.00  0.00    -0.004 C 
HETATM   26  C3  UNL     1      -6.807  -0.911  -0.888  1.00  0.00     0.002 C 
HETATM   27  C2  UNL     1      -5.921  -0.960   0.118  1.00  0.00    -0.082 C 
HETATM   28  C1  UNL     1      -5.985  -2.094   1.088  1.00  0.00     0.043 C 
HETATM   29  C23 UNL     1      -4.849   0.039   0.362  1.00  0.00     0.069 C 
ENDBRANCH  20  22
ENDBRANCH  15  17
ENDBRANCH   1  15
BRANCH   9  30
HETATM   30  C18 UNL     1       8.205  -0.682  -0.345  1.00  0.00     0.270 C 
HETATM   31  N5  UNL     1       9.343   0.134  -0.268  1.00  0.00    -0.365 N 
HETATM   32  H17 UNL     1       9.703   0.893   0.357  1.00  0.00     0.159 HD
HETATM   33  H18 UNL     1      10.175   0.166  -0.891  1.00  0.00     0.159 HD
HETATM   34  O1  UNL     1       8.394  -1.881  -0.665  1.00  0.00    -0.266 OA
ENDBRANCH   9  30
TORSDOF 4
