REMARK  5 active torsions:
REMARK  status: ('A' for Active; 'I' for Inactive)
REMARK    1  A    between atoms: C2_4  and  C3_5 
REMARK    2  A    between atoms: C3_5  and  S1_7 
REMARK    3  A    between atoms: C7_12  and  N4_13 
REMARK    4  A    between atoms: N4_13  and  C8_14 
REMARK       I    between atoms: N5_17  and  C11_18 
REMARK    5  A    between atoms: C11_18  and  C12_20 
ROOT
HETATM    1  C1  UNL     1       3.788   0.334  -3.367  1.00  0.00     0.180 C 
HETATM    2  N1  UNL     1       4.834   0.150  -2.379  1.00  0.00    -0.271 N 
HETATM    3  N2  UNL     1       6.142   0.054  -2.556  1.00  0.00    -0.167 NA
HETATM    4  C2  UNL     1       6.791  -0.114  -1.386  1.00  0.00     0.142 A 
HETATM    5  C4  UNL     1       5.831  -0.124  -0.404  1.00  0.00     0.008 A 
HETATM    6  C5  UNL     1       4.628   0.043  -1.065  1.00  0.00     0.091 A 
HETATM    7  C6  UNL     1       3.432   0.062  -0.230  1.00  0.00     0.112 A 
HETATM    8  N3  UNL     1       2.198   0.230  -0.770  1.00  0.00    -0.060 NA
HETATM    9  C7  UNL     1       1.096   0.253   0.035  1.00  0.00     0.723 A 
HETATM   10  N6  UNL     1       1.265   0.107   1.357  1.00  0.00    -0.075 NA
HETATM   11  C20 UNL     1       2.477  -0.064   1.947  1.00  0.00     0.146 A 
HETATM   12  C21 UNL     1       3.596  -0.087   1.130  1.00  0.00    -0.008 A 
HETATM   13  C22 UNL     1       4.861  -0.281   1.876  1.00  0.00     0.047 A 
HETATM   14  C23 UNL     1       6.092  -0.278   1.040  1.00  0.00     0.048 A 
ENDROOT
BRANCH   9  15
HETATM   15  N4  UNL     1      -0.209   0.438  -0.509  1.00  0.00    -0.218 N 
HETATM   16  H5  UNL     1      -0.291   0.553  -1.549  1.00  0.00     0.178 HD
BRANCH  15  17
HETATM   17  C8  UNL     1      -1.355   0.458   0.402  1.00  0.00     0.102 C 
HETATM   18  C9  UNL     1      -1.562  -0.830   1.126  1.00  0.00     0.045 C 
HETATM   19  C10 UNL     1      -2.628  -1.706   0.493  1.00  0.00     0.128 C 
HETATM   20  N5  UNL     1      -3.824  -0.974   0.198  1.00  0.00    -0.348 N 
HETATM   21  C11 UNL     1      -5.116  -1.150   0.798  1.00  0.00     0.253 C 
HETATM   22  C18 UNL     1      -3.512  -0.005  -0.830  1.00  0.00     0.128 C 
HETATM   23  O2  UNL     1      -5.124  -2.058   1.651  1.00  0.00    -0.267 OA
HETATM   24  C19 UNL     1      -2.592   1.005  -0.232  1.00  0.00     0.045 C 
BRANCH  21  25
HETATM   25  C12 UNL     1      -6.190  -0.279   0.348  1.00  0.00     0.032 A 
HETATM   26  C13 UNL     1      -6.789  -0.111  -0.874  1.00  0.00     0.017 A 
HETATM   27  C14 UNL     1      -7.802   0.812  -1.010  1.00  0.00     0.001 A 
HETATM   28  C15 UNL     1      -8.237   1.572   0.035  1.00  0.00     0.000 A 
HETATM   29  C16 UNL     1      -7.652   1.426   1.282  1.00  0.00     0.001 A 
HETATM   30  C17 UNL     1      -6.622   0.488   1.416  1.00  0.00     0.017 A 
ENDBRANCH  21  25
ENDBRANCH  15  17
ENDBRANCH   9  15
BRANCH   4  31
HETATM   31  C3  UNL     1       8.244  -0.239  -1.382  1.00  0.00     0.237 C 
HETATM   32  O1  UNL     1       8.879  -0.188  -2.464  1.00  0.00    -0.278 OA
BRANCH  31  33
HETATM   33  S1  UNL     1       8.926  -0.462   0.278  1.00  0.00    -0.099 SA
HETATM   34  H4  UNL     1       9.906  -1.444   0.270  1.00  0.00     0.110 HD
ENDBRANCH  31  33
ENDBRANCH   4  31
TORSDOF 5
