REMARK  3 active torsions:
REMARK  status: ('A' for Active; 'I' for Inactive)
REMARK    1  A    between atoms: N2_7  and  C6_8 
REMARK    2  A    between atoms: N3_11  and  C9_12 
REMARK    3  A    between atoms: C9_12  and  C10_13 
ROOT
HETATM    1  C6  UNL     1      -0.326  -1.219   0.021  1.00  0.00     0.107 C 
HETATM    2  C7  UNL     1       0.371  -0.706  -1.213  1.00  0.00     0.046 C 
HETATM    3  C8  UNL     1       1.854  -0.529  -1.060  1.00  0.00     0.119 C 
HETATM    4  N3  UNL     1       2.374  -0.413   0.231  1.00  0.00    -0.408 N 
HETATM    5  C16 UNL     1       1.716  -1.109   1.294  1.00  0.00     0.119 C 
HETATM    6  C17 UNL     1       0.264  -0.659   1.307  1.00  0.00     0.046 C 
ENDROOT
BRANCH   1   7
HETATM    7  N2  UNL     1      -1.684  -1.053   0.019  1.00  0.00    -0.305 N 
HETATM    8  C5  UNL     1      -2.522  -1.663  -0.972  1.00  0.00     0.267 C 
HETATM    9  N1  UNL     1      -3.868  -1.208  -0.634  1.00  0.00    -0.361 N 
HETATM   10  C4  UNL     1      -4.967  -1.564  -1.085  1.00  0.00     0.091 A 
HETATM   11  C3  UNL     1      -5.274  -0.539  -0.087  1.00  0.00     0.152 A 
HETATM   12  C2  UNL     1      -5.452   0.371   0.808  1.00  0.00    -0.055 C 
HETATM   13  C1  UNL     1      -6.691   1.027   1.346  1.00  0.00     0.046 C 
HETATM   14  C19 UNL     1      -4.320   0.923   1.496  1.00  0.00     0.023 C 
HETATM   15  C18 UNL     1      -3.003   0.839   1.571  1.00  0.00     0.107 C 
HETATM   16  N4  UNL     1      -2.315  -0.077   0.739  1.00  0.00    -0.312 N 
HETATM   17  H24 UNL     1      -2.501  -0.946   1.326  1.00  0.00     0.185 HD
ENDBRANCH   1   7
BRANCH   4  18
HETATM   18  C9  UNL     1       3.066   0.759   0.608  1.00  0.00     0.155 C 
BRANCH  18  19
HETATM   19  C10 UNL     1       4.274   1.072  -0.187  1.00  0.00    -0.041 A 
HETATM   20  C11 UNL     1       4.358   1.873  -1.313  1.00  0.00     0.009 A 
HETATM   21  C12 UNL     1       5.579   2.032  -1.919  1.00  0.00     0.001 A 
HETATM   22  C13 UNL     1       6.741   1.446  -1.482  1.00  0.00     0.000 A 
HETATM   23  C14 UNL     1       6.709   0.629  -0.348  1.00  0.00     0.001 A 
HETATM   24  C15 UNL     1       5.460   0.481   0.251  1.00  0.00     0.009 A 
ENDBRANCH  18  19
ENDBRANCH   4  18
TORSDOF 3
