REMARK  6 active torsions:
REMARK  status: ('A' for Active; 'I' for Inactive)
REMARK    1  A    between atoms: O1_2  and  C2_3 
REMARK    2  A    between atoms: C2_3  and  C3_4 
REMARK    3  A    between atoms: C3_4  and  O4_24 
REMARK    4  A    between atoms: C4_5  and  C5_6 
REMARK    5  A    between atoms: C8_10  and  N1_11 
REMARK    6  A    between atoms: N1_11  and  C9_12 
ROOT
HETATM    1  C5  UNL     1      -1.812   0.701  -0.296  1.00  0.00     0.040 C 
HETATM    2  C6  UNL     1      -0.731   0.614   0.665  1.00  0.00     0.183 C 
HETATM    3  O2  UNL     1       0.479   1.259   0.349  1.00  0.00    -0.360 OA
HETATM    4  C7  UNL     1       1.735   0.884   0.749  1.00  0.00     0.161 C 
HETATM    5  C8  UNL     1       2.261   0.096  -0.174  1.00  0.00     0.060 C 
HETATM    6  C15 UNL     1       2.218  -0.572  -1.485  1.00  0.00     0.333 C 
HETATM    7  N3  UNL     1       1.035  -0.124  -2.196  1.00  0.00     0.091 N 
HETATM    8  C16 UNL     1      -0.360   0.030  -2.169  1.00  0.00     0.351 A 
HETATM    9  O3  UNL     1       0.241  -0.445  -1.141  1.00  0.00    -0.150 OA
HETATM   10  C17 UNL     1      -1.726  -0.020  -1.623  1.00  0.00     0.091 C 
HETATM   11  H18 UNL     1       1.123   0.296  -3.193  1.00  0.00     0.322 HD
ENDROOT
BRANCH   5  12
HETATM   12  N1  UNL     1       3.563  -0.266   0.304  1.00  0.00    -0.364 N 
HETATM   13  H11 UNL     1       3.910  -1.257   0.476  1.00  0.00     0.165 HD
BRANCH  12  14
HETATM   14  C9  UNL     1       4.511   0.752   0.592  1.00  0.00     0.119 C 
HETATM   15  C10 UNL     1       5.678   0.554   1.176  1.00  0.00     0.072 C 
HETATM   16  C11 UNL     1       6.191  -0.733   1.625  1.00  0.00     0.033 C 
HETATM   17  N2  UNL     1       6.575   1.630   1.429  1.00  0.00    -0.245 NA
HETATM   18  C12 UNL     1       7.397  -0.833   2.210  1.00  0.00     0.005 C 
HETATM   19  C13 UNL     1       8.170   0.415   2.377  1.00  0.00     0.034 C 
HETATM   20  C14 UNL     1       7.804   1.446   1.670  1.00  0.00     0.086 C 
ENDBRANCH  12  14
ENDBRANCH   5  12
BRANCH   1  21
HETATM   21  C4  UNL     1      -3.106   0.201   0.275  1.00  0.00     0.014 C 
HETATM   22  C3  UNL     1      -4.123  -0.607   0.001  1.00  0.00     0.066 C 
BRANCH  22  23
HETATM   23  C2  UNL     1      -5.269  -0.831   0.891  1.00  0.00     0.231 C 
BRANCH  23  24
HETATM   24  O1  UNL     1      -6.503  -0.485   0.360  1.00  0.00    -0.390 OA
HETATM   25  C1  UNL     1      -6.604   0.878   0.070  1.00  0.00     0.201 C 
ENDBRANCH  23  24
ENDBRANCH  22  23
BRANCH  22  26
HETATM   26  O4  UNL     1      -4.301  -1.376  -1.132  1.00  0.00    -0.358 OA
HETATM   27  C18 UNL     1      -4.981  -0.967  -2.279  1.00  0.00     0.209 C 
ENDBRANCH  22  26
ENDBRANCH   1  21
TORSDOF 6
