REMARK  6 active torsions:
REMARK  status: ('A' for Active; 'I' for Inactive)
REMARK    1  A    between atoms: O1_2  and  C2_3 
REMARK    2  A    between atoms: C4_5  and  C5_6 
REMARK    3  A    between atoms: C6_7  and  C7_8 
REMARK    4  A    between atoms: C8_9  and  N1_10 
REMARK    5  A    between atoms: C17_21  and  P1_22 
REMARK    6  A    between atoms: C19_24  and  O3_25 
ROOT
HETATM    1  C5  UNL     1      -0.046   1.101  -1.644  1.00  0.00     0.050 A 
HETATM    2  C6  UNL     1       1.251   1.111  -1.503  1.00  0.00    -0.023 A 
HETATM    3  C14 UNL     1       1.986   2.043  -2.391  1.00  0.00     0.162 A 
HETATM    4  N2  UNL     1       0.913   2.700  -3.096  1.00  0.00    -0.353 N 
HETATM    5  C15 UNL     1      -0.318   2.125  -2.678  1.00  0.00     0.253 A 
HETATM    6  O2  UNL     1      -1.461   2.439  -3.120  1.00  0.00    -0.268 OA
HETATM    7  H13 UNL     1       0.968   3.465  -3.797  1.00  0.00     0.163 HD
ENDROOT
BRANCH   1   8
HETATM    8  C4  UNL     1      -1.115   0.349  -1.009  1.00  0.00    -0.016 A 
HETATM    9  C3  UNL     1      -1.123  -0.998  -0.735  1.00  0.00     0.052 A 
HETATM   10  C2  UNL     1      -2.201  -1.561  -0.116  1.00  0.00     0.103 A 
HETATM   11  C19 UNL     1      -3.308  -0.829   0.257  1.00  0.00     0.112 A 
HETATM   12  C17 UNL     1      -3.349   0.524   0.004  1.00  0.00     0.003 A 
HETATM   13  C16 UNL     1      -2.244   1.082  -0.627  1.00  0.00     0.027 A 
BRANCH  10  14
HETATM   14  O1  UNL     1      -2.285  -2.909   0.194  1.00  0.00    -0.353 OA
HETATM   15  C1  UNL     1      -1.309  -3.874  -0.078  1.00  0.00     0.210 C 
ENDBRANCH  10  14
BRANCH  11  16
HETATM   16  O3  UNL     1      -4.454  -1.323   0.893  1.00  0.00    -0.352 OA
HETATM   17  C20 UNL     1      -4.531  -1.357   2.304  1.00  0.00     0.210 C 
ENDBRANCH  11  16
BRANCH  12  18
HETATM   18  P1  UNL     1      -4.766   1.627   0.455  1.00  0.00    -0.096 P 
HETATM   19  C18 UNL     1      -4.134   3.166   1.294  1.00  0.00     0.046 C 
HETATM   20  H15 UNL     1      -5.440   2.050  -0.780  1.00  0.00     0.062 HD
ENDBRANCH  12  18
ENDBRANCH   1   8
BRANCH   2  21
HETATM   21  C7  UNL     1       1.898   0.244  -0.547  1.00  0.00     0.027 C 
HETATM   22  C8  UNL     1       3.206   0.230  -0.380  1.00  0.00     0.096 C 
BRANCH  22  23
HETATM   23  N1  UNL     1       4.199  -0.418   0.395  1.00  0.00    -0.342 N 
HETATM   24  C9  UNL     1       4.162  -0.010   1.781  1.00  0.00     0.108 C 
HETATM   25  C10 UNL     1       4.851  -0.720   2.658  1.00  0.00    -0.009 C 
HETATM   26  C11 UNL     1       5.913  -1.371   2.278  1.00  0.00     0.015 C 
HETATM   27  C12 UNL     1       6.015  -1.835   0.894  1.00  0.00     0.019 C 
HETATM   28  C13 UNL     1       5.168  -1.363  -0.038  1.00  0.00     0.096 C 
ENDBRANCH  22  23
ENDBRANCH   2  21
TORSDOF 6
