REMARK  6 active torsions:
REMARK  status: ('A' for Active; 'I' for Inactive)
REMARK    1  A    between atoms: C8_9  and  C9_10 
REMARK    2  A    between atoms: C10_11  and  C11_12 
REMARK    3  A    between atoms: C13_14  and  B1_15 
REMARK    4  A    between atoms: B1_15  and  O1_16 
REMARK    5  A    between atoms: C14_17  and  O2_18 
REMARK    6  A    between atoms: C16_20  and  O3_21 
ROOT
HETATM    1  C9  UNL     1      -1.100   2.223   0.183  1.00  0.00     0.057 A 
HETATM    2  C10 UNL     1       0.201   2.243   0.391  1.00  0.00     0.059 A 
HETATM    3  C19 UNL     1       0.682   3.643   0.480  1.00  0.00     0.260 A 
HETATM    4  O4  UNL     1       1.844   4.113   0.670  1.00  0.00    -0.267 OA
HETATM    5  N1  UNL     1      -0.422   4.520   0.312  1.00  0.00    -0.289 N 
HETATM    6  C20 UNL     1      -1.519   3.642   0.129  1.00  0.00     0.260 A 
HETATM    7  O5  UNL     1      -2.688   4.129  -0.053  1.00  0.00    -0.267 OA
HETATM    8  H17 UNL     1      -0.422   5.560   0.322  1.00  0.00     0.172 HD
ENDROOT
BRANCH   2   9
HETATM    9  C11 UNL     1       1.217   1.223   0.553  1.00  0.00    -0.017 A 
HETATM   10  C12 UNL     1       1.300   0.105   1.353  1.00  0.00     0.013 A 
HETATM   11  C13 UNL     1       2.335  -0.793   1.387  1.00  0.00    -0.033 A 
HETATM   12  C14 UNL     1       3.419  -0.604   0.562  1.00  0.00     0.099 A 
HETATM   13  C16 UNL     1       3.436   0.475  -0.271  1.00  0.00     0.102 A 
HETATM   14  C18 UNL     1       2.371   1.325  -0.250  1.00  0.00     0.052 A 
BRANCH  11  15
HETATM   15  B1  UNL     1       2.183  -1.989   2.393  1.00  0.00     0.345 B 
HETATM   16  H8  UNL     1       1.983  -1.697   3.525  1.00  0.00     0.013 HD
BRANCH  15  17
HETATM   17  O1  UNL     1       1.464  -3.163   1.863  1.00  0.00    -0.461 OA
HETATM   18  H9  UNL     1       1.791  -3.331   0.929  1.00  0.00     0.182 HD
ENDBRANCH  15  17
ENDBRANCH  11  15
BRANCH  12  19
HETATM   19  O2  UNL     1       4.440  -1.508   0.609  1.00  0.00    -0.353 OA
HETATM   20  C15 UNL     1       4.541  -2.672  -0.179  1.00  0.00     0.210 C 
ENDBRANCH  12  19
BRANCH  13  21
HETATM   21  O3  UNL     1       4.539   0.640  -1.089  1.00  0.00    -0.353 OA
HETATM   22  C17 UNL     1       4.617   1.730  -1.967  1.00  0.00     0.210 C 
ENDBRANCH  13  21
ENDBRANCH   2   9
BRANCH   1  23
HETATM   23  C8  UNL     1      -2.043   1.133   0.028  1.00  0.00    -0.020 A 
HETATM   24  C7  UNL     1      -3.493   1.315  -0.163  1.00  0.00     0.098 A 
HETATM   25  C6  UNL     1      -4.084  -0.022  -0.246  1.00  0.00     0.022 A 
HETATM   26  C5  UNL     1      -5.329  -0.389  -0.408  1.00  0.00     0.045 A 
HETATM   27  N2  UNL     1      -3.011  -0.956  -0.112  1.00  0.00    -0.326 N 
HETATM   28  C4  UNL     1      -5.723  -1.796  -0.465  1.00  0.00     0.015 A 
HETATM   29  C3  UNL     1      -4.782  -2.743  -0.348  1.00  0.00     0.048 A 
HETATM   30 BR1  UNL     1      -7.504  -2.366  -0.696  1.00  0.00    -0.051 Br
HETATM   31  C2  UNL     1      -3.406  -2.310  -0.169  1.00  0.00     0.030 A 
HETATM   32  C1  UNL     1      -2.438  -3.203  -0.047  1.00  0.00     0.043 C 
HETATM   33  C21 UNL     1      -1.850  -0.163   0.045  1.00  0.00     0.105 A 
ENDBRANCH   1  23
TORSDOF 6
