REMARK  5 active torsions:
REMARK  status: ('A' for Active; 'I' for Inactive)
REMARK    1  A    between atoms: C5_7  and  O2_8 
REMARK    2  A    between atoms: O2_8  and  C6_9 
REMARK    3  A    between atoms: C7_10  and  N2_11 
REMARK    4  A    between atoms: N2_11  and  C8_12 
REMARK    5  A    between atoms: C12_16  and  C13_17 
ROOT
HETATM    1  C6  UNL     1      -0.636  -0.467  -0.275  1.00  0.00     0.159 C 
HETATM    2  C7  UNL     1      -0.423   0.797  -0.670  1.00  0.00     0.113 C 
ENDROOT
BRANCH   2   3
HETATM    3  N2  UNL     1       0.602   1.593  -0.081  1.00  0.00    -0.364 N 
HETATM    4  H6  UNL     1       0.439   2.634  -0.157  1.00  0.00     0.165 HD
BRANCH   3   5
HETATM    5  C8  UNL     1       1.656   0.845   0.500  1.00  0.00     0.032 A 
HETATM    6  C9  UNL     1       1.267   0.235   1.690  1.00  0.00     0.029 A 
HETATM    7  C10 UNL     1       2.193  -0.520   2.381  1.00  0.00     0.003 A 
HETATM    8  C11 UNL     1       3.461  -0.638   1.868  1.00  0.00     0.012 A 
HETATM    9  C12 UNL     1       3.787  -0.013   0.691  1.00  0.00    -0.024 A 
HETATM   10  C19 UNL     1       2.917   0.746  -0.041  1.00  0.00     0.041 A 
BRANCH   9  11
HETATM   11  C13 UNL     1       5.155  -0.177   0.225  1.00  0.00    -0.026 A 
HETATM   12  C14 UNL     1       5.823  -1.332   0.499  1.00  0.00     0.012 A 
HETATM   13  C15 UNL     1       7.107  -1.466   0.053  1.00  0.00     0.001 A 
HETATM   14  C16 UNL     1       7.691  -0.426  -0.665  1.00  0.00     0.000 A 
HETATM   15  C17 UNL     1       6.994   0.740  -0.932  1.00  0.00     0.001 A 
HETATM   16  C18 UNL     1       5.705   0.869  -0.481  1.00  0.00     0.012 A 
ENDBRANCH   9  11
ENDBRANCH   3   5
ENDBRANCH   2   3
BRANCH   1  17
HETATM   17  O2  UNL     1      -1.675  -1.212  -0.896  1.00  0.00    -0.324 OA
BRANCH  17  18
HETATM   18  C5  UNL     1      -2.927  -0.569  -0.705  1.00  0.00     0.068 C 
HETATM   19  C4  UNL     1      -3.168  -0.413   0.636  1.00  0.00     0.034 C 
HETATM   20  C3  UNL     1      -4.399  -0.005   1.404  1.00  0.00     0.134 C 
HETATM   21  N1  UNL     1      -5.413  -1.050   1.420  1.00  0.00    -0.287 NA
HETATM   22  C22 UNL     1      -4.911   1.356   1.022  1.00  0.00     0.051 C 
HETATM   23  C2  UNL     1      -5.966  -1.634   0.361  1.00  0.00     0.185 C 
HETATM   24  C1  UNL     1      -5.670  -1.174  -1.047  1.00  0.00     0.261 C 
HETATM   25  O1  UNL     1      -5.842  -1.742  -2.145  1.00  0.00    -0.267 OA
HETATM   26  N3  UNL     1      -5.084   0.155  -1.060  1.00  0.00    -0.341 N 
HETATM   27  C20 UNL     1      -3.862  -0.117  -1.848  1.00  0.00     0.190 C 
HETATM   28  C21 UNL     1      -5.410   1.430  -0.409  1.00  0.00     0.129 C 
ENDBRANCH  17  18
ENDBRANCH   1  17
TORSDOF 5
