REMARK  2 active torsions:
REMARK  status: ('A' for Active; 'I' for Inactive)
REMARK    1  A    between atoms: O1_2  and  C2_3 
REMARK    2  A    between atoms: C3_4  and  O2_5 
ROOT
HETATM    1  C2  UNL     1      -2.971   0.706  -0.736  1.00  0.00     0.085 C 
HETATM    2  C3  UNL     1      -2.086  -0.146  -0.339  1.00  0.00     0.108 C 
HETATM    3  C5  UNL     1      -0.552  -0.123  -0.042  1.00  0.00     0.217 C 
HETATM    4  O3  UNL     1      -0.500  -0.599   1.192  1.00  0.00    -0.374 OA
HETATM    5  C6  UNL     1       0.261  -1.587   1.683  1.00  0.00     0.171 C 
HETATM    6  C7  UNL     1       1.714  -1.422   2.033  1.00  0.00     0.055 C 
HETATM    7  C8  UNL     1       2.394  -0.795   0.970  1.00  0.00     0.107 C 
HETATM    8  C9  UNL     1       3.712  -1.087   0.424  1.00  0.00     0.013 C 
HETATM    9  C10 UNL     1       4.140  -0.323  -0.645  1.00  0.00    -0.009 C 
HETATM   10 BR1  UNL     1       5.821  -0.818  -1.390  1.00  0.00    -0.056 Br
HETATM   11  C11 UNL     1       3.531   0.885  -1.383  1.00  0.00     0.086 C 
HETATM   12  C12 UNL     1       2.491   1.509  -0.495  1.00  0.00    -0.038 C 
HETATM   13  C13 UNL     1       3.055   1.807   0.718  1.00  0.00     0.091 C 
HETATM   14  N1  UNL     1       2.565   0.643   1.444  1.00  0.00    -0.390 N 
HETATM   15  C14 UNL     1       1.076   1.794  -0.642  1.00  0.00     0.022 C 
HETATM   16  C15 UNL     1      -0.081   1.190  -0.473  1.00  0.00     0.024 C 
HETATM   17  C16 UNL     1      -1.060   2.243  -0.854  1.00  0.00     0.164 C 
HETATM   18  O4  UNL     1      -0.855   3.481  -1.128  1.00  0.00    -0.292 OA
HETATM   19  C17 UNL     1      -2.526   2.070  -1.000  1.00  0.00     0.150 C 
HETATM   20  H17 UNL     1       2.315   0.917   2.424  1.00  0.00     0.159 HD
ENDROOT
BRANCH   1  21
HETATM   21  O1  UNL     1      -4.251   0.202  -0.858  1.00  0.00    -0.357 OA
HETATM   22  C1  UNL     1      -4.533  -0.575  -2.013  1.00  0.00     0.209 C 
ENDBRANCH   1  21
BRANCH   2  23
HETATM   23  O2  UNL     1      -2.634  -1.430  -0.115  1.00  0.00    -0.355 OA
HETATM   24  C4  UNL     1      -3.263  -1.737   1.131  1.00  0.00     0.209 C 
ENDBRANCH   2  23
TORSDOF 2
