REMARK  4 active torsions:
REMARK  status: ('A' for Active; 'I' for Inactive)
REMARK    1  A    between atoms: O1_2  and  C2_3 
REMARK    2  A    between atoms: C4_5  and  C5_6 
REMARK    3  A    between atoms: C16_21  and  O4_22 
REMARK    4  A    between atoms: C18_24  and  O5_25 
ROOT
HETATM    1  C5  UNL     1      -0.107   0.057   0.558  1.00  0.00     0.046 C 
HETATM    2  C6  UNL     1      -1.306  -0.069   0.120  1.00  0.00     0.101 C 
HETATM    3  C7  UNL     1      -2.130  -0.013  -1.081  1.00  0.00     0.274 C 
HETATM    4  O2  UNL     1      -1.461   0.305  -2.043  1.00  0.00    -0.266 OA
HETATM    5  N1  UNL     1      -3.491  -0.367  -0.695  1.00  0.00    -0.290 N 
HETATM    6  C8  UNL     1      -4.068  -0.733   0.593  1.00  0.00     0.248 C 
HETATM    7  O3  UNL     1      -5.080  -1.457   0.384  1.00  0.00    -0.271 OA
HETATM    8  C9  UNL     1      -3.282  -0.141   1.665  1.00  0.00     0.188 A 
HETATM    9  C10 UNL     1      -3.096  -0.979   2.978  1.00  0.00     0.033 A 
HETATM   10  C11 UNL     1      -3.657  -1.952   2.499  1.00  0.00     0.006 A 
HETATM   11  C12 UNL     1      -4.411  -3.048   3.205  1.00  0.00     0.020 C 
HETATM   12  C13 UNL     1      -2.762  -0.693   2.508  1.00  0.00     0.062 A 
HETATM   13  C14 UNL     1      -2.522   0.084   3.657  1.00  0.00     0.037 A 
HETATM   14  N2  UNL     1      -1.939  -0.415   1.316  1.00  0.00    -0.350 N 
HETATM   15  H6  UNL     1      -4.071  -0.312  -1.595  1.00  0.00     0.172 HD
ENDROOT
BRANCH   1  16
HETATM   16  C4  UNL     1       1.025   0.368  -0.241  1.00  0.00    -0.028 A 
HETATM   17  C3  UNL     1       0.920   1.482  -1.009  1.00  0.00     0.051 A 
HETATM   18  C2  UNL     1       1.928   1.886  -1.871  1.00  0.00     0.105 A 
HETATM   19  C18 UNL     1       3.036   1.045  -1.864  1.00  0.00     0.135 A 
HETATM   20  C16 UNL     1       3.215  -0.086  -1.123  1.00  0.00     0.105 A 
HETATM   21  C15 UNL     1       2.168  -0.419  -0.293  1.00  0.00     0.051 A 
BRANCH  18  22
HETATM   22  O1  UNL     1       2.044   2.957  -2.728  1.00  0.00    -0.353 OA
HETATM   23  C1  UNL     1       1.020   3.910  -2.852  1.00  0.00     0.210 C 
ENDBRANCH  18  22
BRANCH  19  24
HETATM   24  O5  UNL     1       4.157   1.283  -2.664  1.00  0.00    -0.351 OA
HETATM   25  C19 UNL     1       4.273   0.703  -3.959  1.00  0.00     0.210 C 
ENDBRANCH  19  24
BRANCH  20  26
HETATM   26  O4  UNL     1       4.331  -0.908  -1.134  1.00  0.00    -0.353 OA
HETATM   27  C17 UNL     1       4.321  -2.037  -0.289  1.00  0.00     0.210 C 
ENDBRANCH  20  26
ENDBRANCH   1  16
TORSDOF 4
