REMARK  10 active torsions:
REMARK  status: ('A' for Active; 'I' for Inactive)
REMARK    1  A    between atoms: B1_1  and  O1_2 
REMARK    2  A    between atoms: O1_2  and  C1_3 
REMARK    3  A    between atoms: C3_5  and  C4_6 
REMARK    4  A    between atoms: C4_6  and  C5_7 
REMARK    5  A    between atoms: C5_7  and  C6_9 
REMARK    6  A    between atoms: C6_9  and  N1_10 
REMARK    7  A    between atoms: C6_9  and  C7_11 
REMARK    8  A    between atoms: C7_11  and  C8_12 
REMARK    9  A    between atoms: C17_22  and  O3_23 
REMARK   10  A    between atoms: S1_25  and  O4_26 
ROOT
HETATM    1  C4  UNL     1      -0.372   0.384   1.024  1.00  0.00     0.119 C 
ENDROOT
BRANCH   1   2
HETATM    2  C3  UNL     1      -1.756   0.286   0.460  1.00  0.00    -0.039 A 
HETATM    3  C2  UNL     1      -2.333   1.571   0.027  1.00  0.00     0.052 A 
HETATM    4  C1  UNL     1      -3.548   1.756  -0.509  1.00  0.00     0.110 A 
HETATM    5  S1  UNL     1      -4.514   0.222  -0.685  1.00  0.00     0.026 SA
HETATM    6  C17 UNL     1      -3.710  -1.101  -0.152  1.00  0.00     0.133 A 
HETATM    7  C15 UNL     1      -2.370  -0.883   0.376  1.00  0.00    -0.013 A 
HETATM    8  C16 UNL     1      -1.594  -2.071   0.878  1.00  0.00     0.052 C 
BRANCH   4   9
HETATM    9  O1  UNL     1      -4.088   2.970  -0.916  1.00  0.00    -0.422 OA
BRANCH   9  10
HETATM   10  B1  UNL     1      -5.381   3.367  -0.308  1.00  0.00     0.300 B 
HETATM   11  H1  UNL     1      -5.429   4.280   0.443  1.00  0.00     0.003 HD
HETATM   12  H2  UNL     1      -6.189   2.519  -0.156  1.00  0.00     0.003 HD
ENDBRANCH   9  10
ENDBRANCH   4   9
BRANCH   5  13
HETATM   13  O4  UNL     1      -5.849   0.140  -1.729  1.00  0.00    -0.323 OA
HETATM   14  C19 UNL     1      -6.937  -0.603  -1.292  1.00  0.00     0.220 C 
ENDBRANCH   5  13
BRANCH   6  15
HETATM   15  O3  UNL     1      -4.325  -2.333  -0.226  1.00  0.00    -0.347 OA
HETATM   16  C18 UNL     1      -5.165  -2.906   0.727  1.00  0.00     0.211 C 
ENDBRANCH   6  15
ENDBRANCH   1   2
BRANCH   1  17
HETATM   17  C5  UNL     1       0.573   0.945   0.010  1.00  0.00     0.164 C 
HETATM   18  O2  UNL     1       0.439   1.322  -1.141  1.00  0.00    -0.295 OA
BRANCH  17  19
HETATM   19  C6  UNL     1       1.993   1.130   0.355  1.00  0.00     0.291 C 
BRANCH  19  20
HETATM   20  N1  UNL     1       2.233   0.698   1.727  1.00  0.00     0.090 N 
HETATM   21  H7  UNL     1       2.172  -0.334   1.833  1.00  0.00     0.313 HD
HETATM   22  H8  UNL     1       1.635   1.239   2.365  1.00  0.00     0.313 HD
ENDBRANCH  19  20
BRANCH  19  23
HETATM   23  C7  UNL     1       2.912   0.296  -0.515  1.00  0.00     0.083 C 
BRANCH  23  24
HETATM   24  C8  UNL     1       4.316   0.587  -0.052  1.00  0.00    -0.032 C 
HETATM   25  C9  UNL     1       4.965   1.341   0.883  1.00  0.00     0.091 C 
HETATM   26  N2  UNL     1       6.426   1.216   0.867  1.00  0.00    -0.386 N 
HETATM   27  C10 UNL     1       6.453  -0.142   0.426  1.00  0.00     0.138 A 
HETATM   28  H12 UNL     1       6.925   2.085   1.158  1.00  0.00     0.160 HD
HETATM   29  C11 UNL     1       7.661  -0.716  -0.109  1.00  0.00     0.003 A 
HETATM   30  C14 UNL     1       5.480  -0.035  -0.735  1.00  0.00    -0.024 A 
HETATM   31  C12 UNL     1       7.404  -0.934  -1.382  1.00  0.00    -0.001 A 
HETATM   32  C13 UNL     1       6.080  -0.542  -1.821  1.00  0.00     0.010 A 
ENDBRANCH  23  24
ENDBRANCH  19  23
ENDBRANCH  17  19
ENDBRANCH   1  17
TORSDOF 10
