REMARK  7 active torsions:
REMARK  status: ('A' for Active; 'I' for Inactive)
REMARK    1  A    between atoms: O1_2  and  C2_3 
REMARK    2  A    between atoms: C6_9  and  N3_10 
REMARK    3  A    between atoms: N3_10  and  C7_11 
REMARK    4  A    between atoms: C15_20  and  C16_21 
REMARK    5  A    between atoms: C16_21  and  C17_22 
REMARK    6  A    between atoms: C17_22  and  O2_23 
REMARK    7  A    between atoms: O2_23  and  O3_24 
ROOT
HETATM    1  C2  UNL     1      -4.012  -1.462  -0.217  1.00  0.00     0.071 C 
HETATM    2  C3  UNL     1      -3.061  -2.275   0.294  1.00  0.00     0.067 C 
HETATM    3  C4  UNL     1      -1.587  -2.153   0.148  1.00  0.00     0.073 A 
HETATM    4  N1  UNL     1      -0.915  -3.332   0.263  1.00  0.00    -0.241 NA
HETATM    5  C5  UNL     1       0.420  -3.350   0.112  1.00  0.00     0.235 A 
HETATM    6  N2  UNL     1       1.027  -2.193  -0.148  1.00  0.00    -0.224 NA
HETATM    7  C6  UNL     1       0.383  -1.029  -0.264  1.00  0.00     0.140 A 
HETATM    8  C14 UNL     1      -0.982  -0.909  -0.124  1.00  0.00     0.045 A 
HETATM    9  C15 UNL     1      -1.478   0.472  -0.253  1.00  0.00     0.163 C 
HETATM   10  O4  UNL     1      -2.869   0.511  -0.191  1.00  0.00    -0.374 OA
HETATM   11  C18 UNL     1      -3.578  -0.260  -1.050  1.00  0.00     0.233 C 
ENDROOT
BRANCH   7  12
HETATM   12  N3  UNL     1       1.214   0.076  -0.566  1.00  0.00    -0.340 N 
HETATM   13  H6  UNL     1       0.841   1.020  -0.819  1.00  0.00     0.167 HD
BRANCH  12  14
HETATM   14  C7  UNL     1       2.629   0.153  -0.614  1.00  0.00     0.036 A 
HETATM   15  C8  UNL     1       3.358   1.148  -1.257  1.00  0.00     0.030 A 
HETATM   16  C9  UNL     1       4.711   1.241  -1.300  1.00  0.00     0.012 A 
HETATM   17  C10 UNL     1       5.457   0.288  -0.666  1.00  0.00    -0.023 A 
HETATM   18  C11 UNL     1       6.934   0.417  -0.731  1.00  0.00     0.051 C 
HETATM   19  C12 UNL     1       4.819  -0.734  -0.004  1.00  0.00     0.124 A 
HETATM   20  F1  UNL     1       5.636  -1.632   0.594  1.00  0.00    -0.205 F 
HETATM   21  C13 UNL     1       3.442  -0.777   0.007  1.00  0.00     0.072 A 
ENDBRANCH  12  14
ENDBRANCH   7  12
BRANCH   9  22
HETATM   22  C16 UNL     1      -1.105   1.289   1.013  1.00  0.00     0.066 C 
BRANCH  22  23
HETATM   23  C17 UNL     1      -1.644   2.679   0.770  1.00  0.00     0.212 C 
BRANCH  23  24
HETATM   24  O2  UNL     1      -1.040   3.177  -0.366  1.00  0.00    -0.243 OA
BRANCH  24  25
HETATM   25  O3  UNL     1      -1.414   4.393  -0.686  1.00  0.00    -0.251 OA
HETATM   26  H18 UNL     1      -2.391   4.546  -0.532  1.00  0.00     0.253 HD
ENDBRANCH  24  25
ENDBRANCH  23  24
ENDBRANCH  22  23
ENDBRANCH   9  22
BRANCH   1  27
HETATM   27  O1  UNL     1      -5.254  -1.985   0.192  1.00  0.00    -0.358 OA
HETATM   28  C1  UNL     1      -6.102  -1.216   1.018  1.00  0.00     0.209 C 
ENDBRANCH   1  27
TORSDOF 7
