REMARK  2 active torsions:
REMARK  status: ('A' for Active; 'I' for Inactive)
REMARK    1  A    between atoms: O1_2  and  C2_3 
REMARK    2  A    between atoms: C3_4  and  O2_5 
ROOT
HETATM    1  C2  UNL     1      -2.336  -0.629   0.868  1.00  0.00     0.104 C 
HETATM    2  C3  UNL     1      -2.532   0.499   0.237  1.00  0.00     0.135 C 
HETATM    3  C5  UNL     1      -2.096   1.379  -0.821  1.00  0.00     0.111 A 
HETATM    4  C6  UNL     1      -0.918   1.936  -1.139  1.00  0.00    -0.002 A 
HETATM    5  C7  UNL     1       0.299   1.672  -0.300  1.00  0.00     0.159 C 
HETATM    6  N1  UNL     1       1.301   0.951  -1.109  1.00  0.00    -0.385 N 
HETATM    7  C8  UNL     1       2.506   0.274  -0.703  1.00  0.00     0.039 A 
HETATM    8  C9  UNL     1       3.425   1.243  -0.356  1.00  0.00     0.033 A 
HETATM    9  C10 UNL     1       4.721   0.994   0.122  1.00  0.00     0.044 A 
HETATM   10  C11 UNL     1       5.081  -0.330   0.245  1.00  0.00     0.117 A 
HETATM   11  F1  UNL     1       6.325  -0.598   0.705  1.00  0.00    -0.206 F 
HETATM   12  C12 UNL     1       4.158  -1.287  -0.106  1.00  0.00     0.056 A 
HETATM   13  C13 UNL     1       2.886  -1.045  -0.576  1.00  0.00     0.000 A 
HETATM   14  C14 UNL     1       2.005  -2.176  -0.941  1.00  0.00    -0.035 A 
HETATM   15  C15 UNL     1       0.755  -2.457  -0.824  1.00  0.00    -0.046 A 
HETATM   16  C16 UNL     1      -0.334  -1.764  -0.270  1.00  0.00     0.011 C 
HETATM   17  C17 UNL     1      -1.305  -1.603   0.576  1.00  0.00     0.040 C 
HETATM   18  C18 UNL     1       1.505  -3.501  -1.480  1.00  0.00     0.079 A 
HETATM   19  C19 UNL     1      -1.608   2.564  -2.286  1.00  0.00     0.214 A 
HETATM   20  O3  UNL     1      -2.791   1.943  -1.877  1.00  0.00    -0.344 OA
HETATM   21  H9  UNL     1       1.572   0.681  -2.069  1.00  0.00     0.160 HD
ENDROOT
BRANCH   1  22
HETATM   22  O1  UNL     1      -3.168  -0.960   1.916  1.00  0.00    -0.353 OA
HETATM   23  C1  UNL     1      -2.727  -1.581   3.099  1.00  0.00     0.210 C 
ENDBRANCH   1  22
BRANCH   2  24
HETATM   24  O2  UNL     1      -3.595   0.725   1.099  1.00  0.00    -0.351 OA
HETATM   25  C4  UNL     1      -4.353   1.939   1.010  1.00  0.00     0.210 C 
ENDBRANCH   2  24
TORSDOF 2
