REMARK  3 active torsions:
REMARK  status: ('A' for Active; 'I' for Inactive)
REMARK    1  A    between atoms: O1_2  and  C2_3 
REMARK    2  A    between atoms: C9_10  and  C10_11 
REMARK    3  A    between atoms: N1_20  and  C20_23 
ROOT
HETATM    1  C2  UNL     1      -1.871   2.284  -0.027  1.00  0.00     0.080 A 
HETATM    2  C3  UNL     1      -3.062   1.877  -0.423  1.00  0.00     0.038 A 
HETATM    3  C4  UNL     1      -3.534   0.644  -0.832  1.00  0.00     0.017 A 
HETATM    4  C5  UNL     1      -2.667  -0.412  -0.866  1.00  0.00     0.004 A 
HETATM    5  C6  UNL     1      -1.679   0.394  -0.423  1.00  0.00     0.056 A 
HETATM    6  C7  UNL     1      -0.727   1.358   0.046  1.00  0.00     0.025 A 
HETATM    7  C8  UNL     1       0.665   1.008   0.204  1.00  0.00     0.024 C 
HETATM    8  C9  UNL     1       0.977  -0.029  -0.486  1.00  0.00    -0.046 C 
HETATM    9  C16 UNL     1       0.458  -1.184  -1.348  1.00  0.00     0.059 C 
HETATM   10  C17 UNL     1      -0.999  -1.418  -1.250  1.00  0.00     0.122 A 
HETATM   11  C18 UNL     1      -1.413  -2.321  -0.029  1.00  0.00     0.398 A 
HETATM   12  N1  UNL     1      -0.979  -3.221   0.885  1.00  0.00     0.218 N 
HETATM   13  C19 UNL     1       0.214  -3.729   1.068  1.00  0.00     0.534 A 
HETATM   14  N2  UNL     1      -0.992  -3.073   0.714  1.00  0.00     0.218 N 
HETATM   15  C20 UNL     1      -0.990  -2.256  -0.258  1.00  0.00     0.445 A 
HETATM   16  O2  UNL     1      -2.009  -1.528  -0.970  1.00  0.00     0.000 OA
HETATM   17  C21 UNL     1      -2.840  -2.013   0.786  1.00  0.00     0.066 C 
HETATM   18  C22 UNL     1      -2.279  -0.814   1.136  1.00  0.00     0.089 C 
HETATM   19  N3  UNL     1      -1.012  -0.307   0.789  1.00  0.00    -0.365 N 
HETATM   20  H17 UNL     1      -0.475  -0.715   1.536  1.00  0.00     0.165 HD
ENDROOT
BRANCH   8  21
HETATM   21  C10 UNL     1       2.414  -0.109  -0.146  1.00  0.00    -0.030 A 
HETATM   22  C11 UNL     1       3.090   0.788   0.695  1.00  0.00     0.012 A 
HETATM   23  C12 UNL     1       4.473   0.672   0.972  1.00  0.00     0.001 A 
HETATM   24  C13 UNL     1       5.209  -0.333   0.418  1.00  0.00     0.000 A 
HETATM   25  C14 UNL     1       4.577  -1.230  -0.412  1.00  0.00     0.001 A 
HETATM   26  C15 UNL     1       3.223  -1.059  -0.640  1.00  0.00     0.012 A 
ENDBRANCH   8  21
BRANCH   1  27
HETATM   27  O1  UNL     1      -1.218   3.435   0.403  1.00  0.00    -0.355 OA
HETATM   28  C1  UNL     1      -1.751   4.693   0.551  1.00  0.00     0.210 C 
ENDBRANCH   1  27
TORSDOF 3
