REMARK  5 active torsions:
REMARK  status: ('A' for Active; 'I' for Inactive)
REMARK    1  A    between atoms: O1_2  and  C2_3 
REMARK    2  A    between atoms: C3_4  and  O2_5 
REMARK    3  A    between atoms: C4_6  and  O3_7 
REMARK    4  A    between atoms: C6_9  and  C7_10 
REMARK    5  A    between atoms: C7_10  and  C8_11 
ROOT
HETATM    1  C8  UNL     1       0.333  -0.878   0.414  1.00  0.00     0.116 A 
HETATM    2  C9  UNL     1      -0.342  -1.860  -0.393  1.00  0.00     0.250 A 
HETATM    3  O4  UNL     1      -1.568  -1.522  -0.548  1.00  0.00    -0.271 OA
HETATM    4  N1  UNL     1       0.201  -3.030  -0.955  1.00  0.00    -0.229 N 
HETATM    5  O5  UNL     1       1.505  -3.154  -0.646  1.00  0.00    -0.238 OA
HETATM    6  C10 UNL     1       2.270  -2.283   0.117  1.00  0.00     0.100 A 
HETATM    7  C11 UNL     1       1.765  -1.156   0.664  1.00  0.00    -0.024 A 
HETATM    8  C12 UNL     1       2.899  -0.572   1.352  1.00  0.00     0.052 A 
HETATM    9  C13 UNL     1       3.539   0.316   2.084  1.00  0.00    -0.017 A 
HETATM   10  C14 UNL     1       4.953  -0.053   2.265  1.00  0.00    -0.002 A 
HETATM   11  C15 UNL     1       5.844  -0.972   1.956  1.00  0.00     0.019 A 
HETATM   12  C16 UNL     1       5.733  -2.196   1.173  1.00  0.00     0.110 A 
HETATM   13  N2  UNL     1       4.517  -2.070   0.902  1.00  0.00    -0.295 NA
HETATM   14  C17 UNL     1       3.652  -2.901   0.145  1.00  0.00     0.215 A 
HETATM   15  H11 UNL     1      -0.472  -3.582  -1.495  1.00  0.00     0.198 HD
ENDROOT
BRANCH   1  16
HETATM   16  C7  UNL     1       0.103   0.487  -0.180  1.00  0.00     0.056 C 
BRANCH  16  17
HETATM   17  C6  UNL     1      -1.313   0.874  -0.253  1.00  0.00    -0.042 A 
HETATM   18  C4  UNL     1      -1.819   1.122  -1.474  1.00  0.00     0.106 A 
HETATM   19  C3  UNL     1      -3.218   1.511  -1.617  1.00  0.00     0.129 A 
HETATM   20  C2  UNL     1      -3.887   1.585  -0.475  1.00  0.00     0.082 A 
HETATM   21  C19 UNL     1      -3.475   1.345   0.918  1.00  0.00     0.072 A 
HETATM   22  C18 UNL     1      -2.041   0.954   1.039  1.00  0.00     0.044 A 
BRANCH  18  23
HETATM   23  O3  UNL     1      -1.043   1.019  -2.610  1.00  0.00    -0.353 OA
HETATM   24  C5  UNL     1      -0.445   2.131  -3.246  1.00  0.00     0.210 C 
ENDBRANCH  18  23
BRANCH  19  25
HETATM   25  O2  UNL     1      -3.839   1.788  -2.813  1.00  0.00    -0.356 OA
HETATM   26  H4  UNL     1      -3.888   2.691  -3.260  1.00  0.00     0.218 HD
ENDBRANCH  19  25
BRANCH  20  27
HETATM   27  O1  UNL     1      -5.224   1.955  -0.598  1.00  0.00    -0.357 OA
HETATM   28  C1  UNL     1      -6.191   1.227   0.107  1.00  0.00     0.209 C 
ENDBRANCH  20  27
ENDBRANCH  16  17
ENDBRANCH   1  16
TORSDOF 5
