REMARK  6 active torsions:
REMARK  status: ('A' for Active; 'I' for Inactive)
REMARK    1  A    between atoms: O1_2  and  C2_3 
REMARK    2  A    between atoms: C6_9  and  C7_10 
REMARK    3  A    between atoms: C15_20  and  C16_21 
REMARK    4  A    between atoms: C16_21  and  C17_22 
REMARK    5  A    between atoms: C17_22  and  O2_23 
REMARK    6  A    between atoms: O2_23  and  O3_24 
ROOT
HETATM    1  C2  UNL     1      -1.932  -1.459  -0.012  1.00  0.00     0.076 A 
HETATM    2  C3  UNL     1      -1.187  -2.341  -0.757  1.00  0.00     0.069 A 
HETATM    3  C4  UNL     1       0.157  -2.139  -0.985  1.00  0.00     0.073 A 
HETATM    4  N1  UNL     1       0.955  -2.942  -1.708  1.00  0.00    -0.241 NA
HETATM    5  C5  UNL     1       2.269  -2.671  -1.896  1.00  0.00     0.234 A 
HETATM    6  N2  UNL     1       2.797  -1.565  -1.345  1.00  0.00    -0.240 NA
HETATM    7  C6  UNL     1       2.055  -0.699  -0.598  1.00  0.00     0.081 A 
HETATM    8  C13 UNL     1       0.725  -1.013  -0.434  1.00  0.00     0.023 A 
HETATM    9  C14 UNL     1       0.024  -0.098   0.320  1.00  0.00     0.026 A 
HETATM   10  C15 UNL     1      -1.319  -0.324   0.532  1.00  0.00    -0.022 A 
ENDROOT
BRANCH   7  11
HETATM   11  C7  UNL     1       2.829   0.424  -0.106  1.00  0.00    -0.005 A 
HETATM   12  C8  UNL     1       3.587   1.102  -1.071  1.00  0.00     0.017 A 
HETATM   13  C9  UNL     1       4.408   2.186  -0.826  1.00  0.00     0.045 A 
HETATM   14  C10 UNL     1       4.483   2.633   0.476  1.00  0.00     0.138 A 
HETATM   15  F1  UNL     1       5.250   3.691   0.869  1.00  0.00    -0.204 F 
HETATM   16  C11 UNL     1       3.761   2.006   1.468  1.00  0.00     0.073 A 
HETATM   17 CL1  UNL     1       3.820   2.533   3.136  1.00  0.00    -0.081 Cl
HETATM   18  C12 UNL     1       2.958   0.929   1.168  1.00  0.00     0.041 A 
ENDBRANCH   7  11
BRANCH  10  19
HETATM   19  C16 UNL     1      -2.116   0.636   1.340  1.00  0.00     0.071 C 
BRANCH  19  20
HETATM   20  C17 UNL     1      -2.986   1.512   0.477  1.00  0.00     0.214 C 
BRANCH  20  21
HETATM   21  O2  UNL     1      -3.729   2.409   1.244  1.00  0.00    -0.243 OA
BRANCH  21  22
HETATM   22  O3  UNL     1      -4.475   3.174   0.502  1.00  0.00    -0.251 OA
HETATM   23  H14 UNL     1      -5.416   3.229   0.802  1.00  0.00     0.253 HD
ENDBRANCH  21  22
ENDBRANCH  20  21
ENDBRANCH  19  20
ENDBRANCH  10  19
BRANCH   1  24
HETATM   24  O1  UNL     1      -3.288  -1.641   0.232  1.00  0.00    -0.355 OA
HETATM   25  C1  UNL     1      -3.900  -2.790  -0.321  1.00  0.00     0.210 C 
ENDBRANCH   1  24
TORSDOF 6
