REMARK  1 active torsions:
REMARK  status: ('A' for Active; 'I' for Inactive)
REMARK    1  A    between atoms: C14_18  and  O4_20 
ROOT
HETATM    1  C1  UNL     1      -7.829  -3.964  -0.462  1.00  0.00     0.017 C 
HETATM    2  C2  UNL     1      -6.832  -3.302  -0.412  1.00  0.00    -0.082 C 
HETATM    3  C3  UNL     1      -5.587  -2.505  -0.355  1.00  0.00     0.000 C 
HETATM    4  C4  UNL     1      -5.872  -1.309   0.083  1.00  0.00     0.017 C 
HETATM    5  C5  UNL     1      -5.234  -0.046   0.395  1.00  0.00     0.001 C 
HETATM    6  C6  UNL     1      -4.100   0.593   0.419  1.00  0.00     0.000 C 
HETATM    7  O1  UNL     1      -2.963   1.359   0.485  1.00  0.00     0.000 OA
HETATM    8  N1  UNL     1      -2.632   2.043   1.676  1.00  0.00     0.338 N 
HETATM    9  C7  UNL     1      -1.420   2.563   1.161  1.00  0.00     0.217 A 
HETATM   10  O2  UNL     1      -2.105   1.842   0.382  1.00  0.00     0.000 OA
HETATM   11  C8  UNL     1      -0.191   3.410   1.447  1.00  0.00     0.072 C 
HETATM   12  C9  UNL     1       0.641   3.401   0.186  1.00  0.00     0.006 C 
HETATM   13  C10 UNL     1       1.983   4.027   0.409  1.00  0.00     0.002 C 
HETATM   14  C11 UNL     1       2.750   3.312   1.508  1.00  0.00     0.027 C 
HETATM   15  C12 UNL     1       2.789   1.826   1.275  1.00  0.00     0.175 C 
HETATM   16  O3  UNL     1       3.300   1.434   0.029  1.00  0.00    -0.353 OA
HETATM   17  C13 UNL     1       3.148   0.069  -0.325  1.00  0.00     0.077 C 
HETATM   18  C14 UNL     1       4.241  -0.712  -0.212  1.00  0.00     0.071 C 
HETATM   19  C15 UNL     1       4.317  -2.167  -0.524  1.00  0.00     0.079 C 
HETATM   20  C17 UNL     1       1.738  -0.183  -0.763  1.00  0.00     0.102 C 
HETATM   21  C18 UNL     1       1.500  -1.581  -1.216  1.00  0.00     0.187 A 
HETATM   22  N2  UNL     1       1.016  -2.608  -0.452  1.00  0.00    -0.260 NA
HETATM   23  C19 UNL     1       0.055  -1.895  -1.127  1.00  0.00     0.146 A 
HETATM   24  N3  UNL     1      -1.312  -2.252  -1.005  1.00  0.00    -0.248 NA
HETATM   25  C20 UNL     1      -1.893  -3.348  -1.282  1.00  0.00     0.093 C 
HETATM   26  C21 UNL     1      -3.302  -3.606  -1.119  1.00  0.00     0.022 C 
HETATM   27  C22 UNL     1      -4.177  -2.681  -0.661  1.00  0.00     0.075 C 
HETATM   28  H5  UNL     1      -2.938   2.265   2.674  1.00  0.00     0.366 HD
ENDROOT
BRANCH  18  29
HETATM   29  O4  UNL     1       5.401  -0.095   0.237  1.00  0.00    -0.358 OA
HETATM   30  C16 UNL     1       6.100  -0.628   1.333  1.00  0.00     0.209 C 
ENDBRANCH  18  29
TORSDOF 1
