REMARK  3 active torsions:
REMARK  status: ('A' for Active; 'I' for Inactive)
REMARK    1  A    between atoms: C3_3  and  C4_4 
REMARK    2  A    between atoms: C14_17  and  O1_18 
REMARK    3  A    between atoms: C15_19  and  O2_20 
ROOT
HETATM    1  C1  UNL     1       6.163  -1.202   1.321  1.00  0.00     0.012 C 
HETATM    2  C2  UNL     1       5.021  -1.537   1.555  1.00  0.00    -0.113 C 
HETATM    3  C3  UNL     1       3.667  -1.956   1.848  1.00  0.00     0.131 C 
ENDROOT
BRANCH   3   4
HETATM    4  C4  UNL     1       2.689  -1.466   0.854  1.00  0.00    -0.045 A 
HETATM    5  C5  UNL     1       2.393  -2.232  -0.274  1.00  0.00     0.009 A 
HETATM    6  C6  UNL     1       1.458  -1.744  -1.195  1.00  0.00     0.012 A 
HETATM    7  C7  UNL     1       0.765  -0.522  -1.097  1.00  0.00    -0.007 A 
HETATM    8  C8  UNL     1       1.088   0.205   0.033  1.00  0.00     0.042 A 
HETATM    9  C16 UNL     1      -0.107  -0.430  -2.267  1.00  0.00     0.218 C 
HETATM   10  C9  UNL     1       2.002  -0.267   0.939  1.00  0.00     0.038 A 
HETATM   11  N1  UNL     1       0.616   1.461   0.447  1.00  0.00    -0.344 N 
HETATM   12  C10 UNL     1      -0.672   1.801   0.914  1.00  0.00     0.111 C 
HETATM   13  H7  UNL     1       1.301   2.240   0.426  1.00  0.00     0.167 HD
HETATM   14  N2  UNL     1      -0.644   1.437   2.145  1.00  0.00    -0.228 NA
HETATM   15  C17 UNL     1      -1.888   2.413   0.405  1.00  0.00     0.137 C 
HETATM   16  C11 UNL     1      -1.851   1.666   2.938  1.00  0.00     0.235 C 
HETATM   17  N3  UNL     1      -2.810   2.245   2.178  1.00  0.00    -0.246 NA
HETATM   18  C12 UNL     1      -3.062   1.634   0.921  1.00  0.00     0.045 C 
HETATM   19  C13 UNL     1      -3.615   1.019  -0.133  1.00  0.00     0.069 C 
HETATM   20  C14 UNL     1      -3.475   0.460  -1.498  1.00  0.00     0.125 C 
HETATM   21  C15 UNL     1      -2.405   0.377  -2.218  1.00  0.00     0.212 C 
HETATM   22  O3  UNL     1      -1.015   0.664  -2.181  1.00  0.00    -0.324 OA
BRANCH  20  23
HETATM   23  O1  UNL     1      -4.702   0.017  -1.917  1.00  0.00    -0.356 OA
HETATM   24  H10 UNL     1      -5.247  -0.678  -1.440  1.00  0.00     0.218 HD
ENDBRANCH  20  23
BRANCH  21  25
HETATM   25  O2  UNL     1      -2.590  -0.189  -3.472  1.00  0.00    -0.339 OA
HETATM   26  H11 UNL     1      -3.141  -1.032  -3.615  1.00  0.00     0.220 HD
ENDBRANCH  21  25
ENDBRANCH   3   4
TORSDOF 3
