REMARK  5 active torsions:
REMARK  status: ('A' for Active; 'I' for Inactive)
REMARK    1  A    between atoms: O1_2  and  O2_3 
REMARK    2  A    between atoms: O2_3  and  O3_4 
REMARK    3  A    between atoms: O3_4  and  C2_5 
REMARK    4  A    between atoms: C13_17  and  N1_18 
REMARK    5  A    between atoms: N1_18  and  C14_19 
ROOT
HETATM    1  C2  UNL     1      -1.094   0.802   0.353  1.00  0.00     0.193 C 
HETATM    2  C3  UNL     1      -1.857   0.906  -0.936  1.00  0.00     0.040 C 
HETATM    3  C4  UNL     1      -3.131   1.619  -0.864  1.00  0.00     0.003 C 
HETATM    4  C5  UNL     1      -4.256   1.232  -0.028  1.00  0.00     0.002 C 
HETATM    5  C6  UNL     1      -5.070   0.020  -0.223  1.00  0.00     0.027 C 
HETATM    6  C7  UNL     1      -4.553  -1.342   0.029  1.00  0.00     0.174 C 
HETATM    7  O4  UNL     1      -3.492  -1.818  -0.679  1.00  0.00    -0.363 OA
HETATM    8  C8  UNL     1      -2.947  -3.048  -0.826  1.00  0.00     0.130 C 
HETATM    9  C9  UNL     1      -1.732  -3.174  -0.251  1.00  0.00    -0.002 C 
HETATM   10  C10 UNL     1      -1.323  -1.913   0.401  1.00  0.00     0.033 C 
HETATM   11  C11 UNL     1      -0.193  -1.282  -0.361  1.00  0.00     0.042 C 
HETATM   12  C12 UNL     1       0.179   0.051   0.240  1.00  0.00    -0.033 C 
HETATM   13  C13 UNL     1       1.379   0.457   0.626  1.00  0.00     0.094 C 
ENDROOT
BRANCH   1  14
HETATM   14  O3  UNL     1      -0.772   2.154   0.697  1.00  0.00    -0.201 OA
BRANCH  14  15
HETATM   15  O2  UNL     1      -1.315   2.458   1.855  1.00  0.00    -0.067 OA
BRANCH  15  16
HETATM   16  O1  UNL     1      -0.776   3.611   2.206  1.00  0.00    -0.216 OA
HETATM   17  C1  UNL     1      -1.047   4.499   1.143  1.00  0.00     0.250 C 
ENDBRANCH  15  16
ENDBRANCH  14  15
ENDBRANCH   1  14
BRANCH  13  18
HETATM   18  N1  UNL     1       2.474  -0.446   0.415  1.00  0.00    -0.363 N 
HETATM   19  H22 UNL     1       2.384  -1.050   1.252  1.00  0.00     0.165 HD
BRANCH  18  20
HETATM   20  C14 UNL     1       3.461  -0.576  -0.604  1.00  0.00     0.076 A 
HETATM   21  C15 UNL     1       3.317  -0.591  -1.906  1.00  0.00     0.116 A 
HETATM   22  N2  UNL     1       4.418  -0.783  -2.548  1.00  0.00    -0.243 NA
HETATM   23  C16 UNL     1       5.458  -0.851  -1.579  1.00  0.00     0.070 A 
HETATM   24  C17 UNL     1       6.829  -1.010  -1.654  1.00  0.00     0.032 A 
HETATM   25  C21 UNL     1       4.904  -0.725  -0.322  1.00  0.00     0.022 A 
HETATM   26  C18 UNL     1       7.655  -1.047  -0.547  1.00  0.00     0.002 A 
HETATM   27  C19 UNL     1       7.043  -0.915   0.691  1.00  0.00     0.001 A 
HETATM   28  C20 UNL     1       5.670  -0.754   0.809  1.00  0.00     0.016 A 
ENDBRANCH  18  20
ENDBRANCH  13  18
TORSDOF 5
