REMARK  1 active torsions:
REMARK  status: ('A' for Active; 'I' for Inactive)
REMARK    1  A    between atoms: O1_2  and  C2_3 
ROOT
HETATM    1  C2  UNL     1      -0.812   3.259  -0.477  1.00  0.00     0.321 C 
HETATM    2  C3  UNL     1       0.320   2.484   0.277  1.00  0.00     0.053 C 
HETATM    3  C4  UNL     1       0.617   1.356  -0.266  1.00  0.00     0.092 C 
HETATM    4  N1  UNL     1       1.573   0.418   0.184  1.00  0.00    -0.356 N 
HETATM    5  C5  UNL     1       0.811   0.243   1.458  1.00  0.00     0.155 C 
HETATM    6  C6  UNL     1       0.641  -1.164   1.667  1.00  0.00    -0.006 C 
HETATM    7  C7  UNL     1       0.519  -2.518   1.957  1.00  0.00     0.025 C 
HETATM    8  C8  UNL     1      -0.148  -3.158   0.656  1.00  0.00     0.267 C 
HETATM    9  N2  UNL     1       0.781  -2.498  -0.326  1.00  0.00    -0.266 NA
HETATM   10  C9  UNL     1       1.950  -2.131   0.138  1.00  0.00     0.122 C 
HETATM   11  C10 UNL     1       3.150  -1.507  -0.251  1.00  0.00    -0.018 C 
HETATM   12  C11 UNL     1       2.774  -0.257  -0.181  1.00  0.00     0.019 C 
HETATM   13  C12 UNL     1       3.741   0.742  -0.708  1.00  0.00     0.058 C 
HETATM   14  C13 UNL     1       5.024  -0.070  -0.691  1.00  0.00     0.011 C 
HETATM   15  C14 UNL     1       4.539  -1.487  -0.657  1.00  0.00     0.042 C 
HETATM   16  O2  UNL     1      -1.298  -2.433   0.520  1.00  0.00    -0.362 OA
HETATM   17  C15 UNL     1      -2.520  -2.925   0.575  1.00  0.00     0.170 C 
HETATM   18  C16 UNL     1      -3.689  -1.963   0.404  1.00  0.00     0.026 C 
HETATM   19  C17 UNL     1      -3.895  -1.308  -0.895  1.00  0.00     0.004 C 
HETATM   20  C18 UNL     1      -2.950  -0.440  -1.537  1.00  0.00     0.029 C 
HETATM   21  C19 UNL     1      -2.606   0.937  -0.897  1.00  0.00     0.210 C 
HETATM   22  O3  UNL     1      -1.812   1.639  -1.706  1.00  0.00    -0.238 OA
HETATM   23  O4  UNL     1      -1.055   2.580  -1.615  1.00  0.00    -0.204 OA
ENDROOT
BRANCH   1  24
HETATM   24  O1  UNL     1      -0.423   4.548  -0.667  1.00  0.00    -0.360 OA
HETATM   25  C1  UNL     1      -1.127   5.328   0.314  1.00  0.00     0.205 C 
ENDBRANCH   1  24
TORSDOF 1
