REMARK  0 active torsions:
REMARK  status: ('A' for Active; 'I' for Inactive)
ROOT
HETATM    1  C1  UNL     1       4.695   2.248   0.882  1.00  0.00     0.052 C 
HETATM    2  C2  UNL     1       3.290   1.940   0.605  1.00  0.00    -0.009 C 
HETATM    3  C3  UNL     1       2.262   2.759   0.386  1.00  0.00     0.176 C 
HETATM    4  O1  UNL     1       1.071   2.089   0.158  1.00  0.00    -0.247 OA
HETATM    5  N1  UNL     1      -0.108   2.830   0.031  1.00  0.00    -0.230 N 
HETATM    6  C4  UNL     1      -1.222   1.975  -0.195  1.00  0.00     0.241 C 
HETATM    7  O2  UNL     1      -0.221   1.231  -0.096  1.00  0.00    -0.271 OA
HETATM    8  C5  UNL     1      -2.671   2.229  -0.394  1.00  0.00     0.105 C 
HETATM    9  C6  UNL     1      -3.321   0.856  -0.553  1.00  0.00     0.009 C 
HETATM   10  C7  UNL     1      -3.084   0.021   0.690  1.00  0.00     0.001 C 
HETATM   11  C8  UNL     1      -3.696  -1.307   0.635  1.00  0.00     0.002 C 
HETATM   12  C9  UNL     1      -3.344  -2.282  -0.389  1.00  0.00     0.027 C 
HETATM   13  C10 UNL     1      -1.970  -2.785  -0.528  1.00  0.00     0.174 C 
HETATM   14  O3  UNL     1      -1.092  -1.722  -0.798  1.00  0.00    -0.361 OA
HETATM   15  C11 UNL     1       0.266  -1.839  -1.036  1.00  0.00     0.159 C 
HETATM   16  C12 UNL     1       1.371  -1.687  -0.300  1.00  0.00     0.035 C 
HETATM   17  C13 UNL     1       1.385  -1.309   1.127  1.00  0.00     0.088 C 
HETATM   18  C14 UNL     1       2.312  -0.149   1.381  1.00  0.00     0.012 C 
HETATM   19  C15 UNL     1       3.227   0.474   0.615  1.00  0.00     0.062 C 
HETATM   20  N2  UNL     1       4.159  -0.264  -0.206  1.00  0.00    -0.244 NA
HETATM   21  C16 UNL     1       3.785  -1.276  -0.951  1.00  0.00     0.208 C 
HETATM   22  N3  UNL     1       2.513  -1.948  -1.140  1.00  0.00    -0.352 N 
HETATM   23  H5  UNL     1      -0.470   3.824   0.044  1.00  0.00     0.198 HD
HETATM   24  H23 UNL     1       2.396  -2.637  -1.895  1.00  0.00     0.166 HD
ENDROOT
TORSDOF 0
