REMARK  2 active torsions:
REMARK  status: ('A' for Active; 'I' for Inactive)
REMARK    1  A    between atoms: O1_2  and  C2_3 
REMARK    2  A    between atoms: C6_7  and  C7_8 
ROOT
HETATM    1  C7  UNL     1       0.704  -0.438  -0.385  1.00  0.00     0.082 C 
HETATM    2  C8  UNL     1      -0.563  -0.749  -0.388  1.00  0.00     0.126 C 
HETATM    3  C9  UNL     1      -1.264  -1.945  -0.456  1.00  0.00     0.024 C 
HETATM    4  C10 UNL     1      -1.827  -2.935  -0.498  1.00  0.00    -0.175 C 
HETATM    5  C11 UNL     1      -2.499  -4.165  -0.541  1.00  0.00     0.087 C 
HETATM    6  C12 UNL     1      -4.001  -4.073  -0.361  1.00  0.00     0.030 C 
HETATM    7  C13 UNL     1      -3.949  -2.759  -0.303  1.00  0.00     0.138 C 
HETATM    8  N1  UNL     1      -4.939  -1.764  -0.139  1.00  0.00    -0.263 N 
HETATM    9  O2  UNL     1      -5.829  -0.758  -0.124  1.00  0.00    -0.051 OA
HETATM   10  N2  UNL     1      -5.620  -0.023   1.033  1.00  0.00     0.236 N 
HETATM   11  C14 UNL     1      -4.820   1.047   1.557  1.00  0.00     0.390 A 
HETATM   12  O3  UNL     1      -4.592   0.742   0.362  1.00  0.00    -0.120 OA
HETATM   13  C15 UNL     1      -3.755   2.126   1.502  1.00  0.00     0.084 C 
HETATM   14  C16 UNL     1      -3.099   2.015   0.173  1.00  0.00     0.005 C 
HETATM   15  C17 UNL     1      -1.968   2.933  -0.115  1.00  0.00     0.002 C 
HETATM   16  C18 UNL     1      -0.812   2.786   0.841  1.00  0.00     0.027 C 
HETATM   17  C19 UNL     1      -0.300   1.399   0.951  1.00  0.00     0.175 C 
HETATM   18  O4  UNL     1       0.094   0.833  -0.286  1.00  0.00    -0.352 OA
HETATM   19  H11 UNL     1      -4.960  -1.058  -0.956  1.00  0.00     0.190 HD
HETATM   20  H12 UNL     1      -6.238  -0.297   1.861  1.00  0.00     0.365 HD
ENDROOT
BRANCH   1  21
HETATM   21  C6  UNL     1       2.103  -0.898  -0.433  1.00  0.00     0.100 A 
HETATM   22  C5  UNL     1       3.235  -0.168  -0.489  1.00  0.00     0.024 A 
HETATM   23  C4  UNL     1       3.037   1.184  -0.560  1.00  0.00     0.019 A 
HETATM   24  C21 UNL     1       4.411  -0.866  -0.475  1.00  0.00     0.073 A 
HETATM   25  C3  UNL     1       4.177   1.957  -0.626  1.00  0.00     0.038 A 
HETATM   26  C2  UNL     1       5.443   1.357  -0.619  1.00  0.00     0.070 A 
HETATM   27  C22 UNL     1       5.528  -0.026  -0.545  1.00  0.00     0.069 A 
HETATM   28  N4  UNL     1       4.468  -2.204  -0.412  1.00  0.00    -0.241 NA
HETATM   29  C20 UNL     1       3.329  -2.910  -0.358  1.00  0.00     0.234 A 
HETATM   30  N3  UNL     1       2.185  -2.243  -0.370  1.00  0.00    -0.239 NA
BRANCH  26  31
HETATM   31  O1  UNL     1       6.625   2.075  -0.683  1.00  0.00    -0.356 OA
HETATM   32  C1  UNL     1       7.895   1.468  -0.676  1.00  0.00     0.210 C 
ENDBRANCH  26  31
ENDBRANCH   1  21
TORSDOF 2
