REMARK  3 active torsions:
REMARK  status: ('A' for Active; 'I' for Inactive)
REMARK    1  A    between atoms: C9_12  and  N2_13 
REMARK    2  A    between atoms: N2_13  and  C10_14 
REMARK    3  A    between atoms: C14_18  and  C15_19 
ROOT
HETATM    1  C1  UNL     1      -3.543  -0.567   0.466  1.00  0.00     0.138 C 
HETATM    2  C2  UNL     1      -4.485  -1.454   0.678  1.00  0.00     0.177 C 
HETATM    3  O1  UNL     1      -5.198  -0.304   0.603  1.00  0.00    -0.379 OA
HETATM    4  C3  UNL     1      -5.663   0.473   1.695  1.00  0.00     0.195 C 
HETATM    5  C4  UNL     1      -4.710   1.665   1.865  1.00  0.00     0.200 C 
HETATM    6  O2  UNL     1      -4.699   2.419   0.655  1.00  0.00    -0.360 OA
HETATM    7  C5  UNL     1      -3.677   2.366  -0.235  1.00  0.00     0.144 C 
HETATM    8  C6  UNL     1      -2.602   1.998  -0.946  1.00  0.00    -0.001 A 
HETATM    9  C7  UNL     1      -2.344   3.058  -1.943  1.00  0.00     0.090 A 
HETATM   10  C8  UNL     1      -1.169   2.619  -2.732  1.00  0.00     0.097 A 
HETATM   11  N1  UNL     1      -0.486   1.519  -2.582  1.00  0.00    -0.245 NA
HETATM   12  C9  UNL     1      -0.854   0.578  -1.559  1.00  0.00     0.154 A 
HETATM   13  C22 UNL     1      -1.887   0.752  -0.717  1.00  0.00     0.083 A 
HETATM   14  N3  UNL     1      -2.217  -0.188   0.278  1.00  0.00    -0.377 N 
HETATM   15  H21 UNL     1      -1.272  -0.414   0.732  1.00  0.00     0.160 HD
ENDROOT
BRANCH  12  16
HETATM   16  N2  UNL     1      -0.070  -0.589  -1.440  1.00  0.00    -0.339 N 
HETATM   17  H11 UNL     1      -0.450  -1.564  -1.277  1.00  0.00     0.167 HD
BRANCH  16  18
HETATM   18  C10 UNL     1       1.296  -0.938  -1.476  1.00  0.00     0.034 A 
HETATM   19  C11 UNL     1       1.851  -1.266  -2.709  1.00  0.00     0.029 A 
HETATM   20  C12 UNL     1       3.193  -1.621  -2.812  1.00  0.00     0.003 A 
HETATM   21  C13 UNL     1       3.990  -1.649  -1.665  1.00  0.00     0.012 A 
HETATM   22  C14 UNL     1       3.456  -1.324  -0.416  1.00  0.00    -0.024 A 
HETATM   23  C21 UNL     1       2.139  -0.986  -0.392  1.00  0.00     0.041 A 
BRANCH  22  24
HETATM   24  C15 UNL     1       4.318  -1.370   0.766  1.00  0.00    -0.026 A 
HETATM   25  C16 UNL     1       5.648  -1.067   0.566  1.00  0.00     0.012 A 
HETATM   26  C17 UNL     1       6.536  -1.090   1.652  1.00  0.00     0.001 A 
HETATM   27  C18 UNL     1       5.961  -1.427   2.864  1.00  0.00     0.000 A 
HETATM   28  C19 UNL     1       4.638  -1.733   3.086  1.00  0.00     0.001 A 
HETATM   29  C20 UNL     1       3.795  -1.702   2.000  1.00  0.00     0.012 A 
ENDBRANCH  22  24
ENDBRANCH  16  18
ENDBRANCH  12  16
TORSDOF 3
