REMARK  7 active torsions:
REMARK  status: ('A' for Active; 'I' for Inactive)
REMARK    1  A    between atoms: C8_8  and  N1_9 
REMARK    2  A    between atoms: N1_9  and  C9_10 
REMARK    3  A    between atoms: C14_17  and  O1_18 
REMARK    4  A    between atoms: O1_18  and  C15_19 
REMARK    5  A    between atoms: C15_19  and  C16_20 
REMARK    6  A    between atoms: C16_20  and  O2_21 
REMARK    7  A    between atoms: C20_26  and  O4_27 
ROOT
HETATM    1  C1  UNL     1      -1.613  -3.790  -3.257  1.00  0.00     0.018 C 
HETATM    2  C2  UNL     1      -2.264  -3.197  -2.416  1.00  0.00    -0.075 C 
HETATM    3  C3  UNL     1      -3.036  -2.471  -1.425  1.00  0.00     0.043 A 
HETATM    4  C4  UNL     1      -3.964  -3.096  -0.617  1.00  0.00     0.023 A 
HETATM    5  C5  UNL     1      -4.712  -2.444   0.313  1.00  0.00     0.002 A 
HETATM    6  C6  UNL     1      -4.550  -1.070   0.483  1.00  0.00     0.002 A 
HETATM    7  C7  UNL     1      -3.620  -0.395  -0.313  1.00  0.00     0.031 A 
HETATM    8  C8  UNL     1      -2.883  -1.113  -1.251  1.00  0.00     0.052 A 
ENDROOT
BRANCH   8   9
HETATM    9  N1  UNL     1      -1.926  -0.470  -2.081  1.00  0.00    -0.339 N 
HETATM   10  H6  UNL     1      -1.344  -0.954  -2.790  1.00  0.00     0.167 HD
BRANCH   9  11
HETATM   11  C9  UNL     1      -1.447   0.849  -2.266  1.00  0.00     0.141 A 
HETATM   12  N2  UNL     1      -1.928   1.708  -3.154  1.00  0.00    -0.224 NA
HETATM   13  C10 UNL     1      -1.414   2.924  -3.257  1.00  0.00     0.235 A 
HETATM   14  N3  UNL     1      -0.377   3.349  -2.463  1.00  0.00    -0.245 NA
HETATM   15  C11 UNL     1       0.117   2.496  -1.564  1.00  0.00     0.057 A 
HETATM   16  C12 UNL     1      -0.431   1.235  -1.471  1.00  0.00     0.038 A 
HETATM   17  C22 UNL     1       1.038   3.235  -1.000  1.00  0.00     0.082 C 
HETATM   18  C13 UNL     1       0.153   0.585  -0.522  1.00  0.00     0.056 C 
HETATM   19  C14 UNL     1       0.909   0.037   0.539  1.00  0.00     0.091 C 
HETATM   20  C18 UNL     1       1.959   0.607   1.158  1.00  0.00     0.171 C 
HETATM   21  O3  UNL     1       2.361   1.801   0.758  1.00  0.00    -0.358 OA
HETATM   22  C19 UNL     1       2.177   3.112   1.137  1.00  0.00     0.207 C 
HETATM   23  C20 UNL     1       2.109   3.868  -0.240  1.00  0.00     0.155 C 
BRANCH  19  24
HETATM   24  O1  UNL     1       1.142  -0.990   1.401  1.00  0.00    -0.347 OA
BRANCH  24  25
HETATM   25  C15 UNL     1       0.484  -2.232   1.431  1.00  0.00     0.201 C 
BRANCH  25  26
HETATM   26  C16 UNL     1       1.271  -3.221   2.308  1.00  0.00     0.193 C 
BRANCH  26  27
HETATM   27  O2  UNL     1       1.365  -2.716   3.600  1.00  0.00    -0.394 OA
HETATM   28  C17 UNL     1       2.099  -3.613   4.401  1.00  0.00     0.201 C 
ENDBRANCH  26  27
ENDBRANCH  25  26
ENDBRANCH  24  25
ENDBRANCH  19  24
BRANCH  23  29
HETATM   29  O4  UNL     1       3.337   3.610  -0.825  1.00  0.00    -0.388 OA
HETATM   30  C21 UNL     1       4.055   4.780  -1.037  1.00  0.00     0.202 C 
ENDBRANCH  23  29
ENDBRANCH   9  11
ENDBRANCH   8   9
TORSDOF 7
