REMARK  6 active torsions:
REMARK  status: ('A' for Active; 'I' for Inactive)
REMARK    1  A    between atoms: C7_7  and  N1_8 
REMARK    2  A    between atoms: N1_8  and  C8_9 
REMARK    3  A    between atoms: C12_15  and  O1_16 
REMARK    4  A    between atoms: O1_16  and  C13_17 
REMARK    5  A    between atoms: C13_17  and  C14_18 
REMARK    6  A    between atoms: C14_18  and  O2_19 
ROOT
HETATM    1  C1  UNL     1       8.313  -2.295  -1.141  1.00  0.00     0.018 C 
HETATM    2  C2  UNL     1       7.529  -1.512  -0.650  1.00  0.00    -0.078 C 
HETATM    3  C3  UNL     1       6.596  -0.601  -0.055  1.00  0.00     0.019 A 
HETATM    4  C4  UNL     1       6.820   0.086   1.117  1.00  0.00     0.021 A 
HETATM    5  C5  UNL     1       5.949   0.967   1.711  1.00  0.00     0.004 A 
HETATM    6  C6  UNL     1       4.732   1.180   1.066  1.00  0.00     0.029 A 
HETATM    7  C7  UNL     1       4.468   0.511  -0.109  1.00  0.00     0.034 A 
HETATM    8  C22 UNL     1       5.376  -0.384  -0.695  1.00  0.00     0.050 A 
ENDROOT
BRANCH   7   9
HETATM    9  N1  UNL     1       3.220   0.730  -0.786  1.00  0.00    -0.349 N 
HETATM   10  H5  UNL     1       3.046   1.390  -1.607  1.00  0.00     0.167 HD
BRANCH   9  11
HETATM   11  C8  UNL     1       2.059   0.001  -0.336  1.00  0.00     0.075 C 
HETATM   12  N2  UNL     1       1.885  -0.251   0.833  1.00  0.00    -0.271 NA
HETATM   13  C9  UNL     1       1.463  -0.650   2.035  1.00  0.00     0.379 C 
HETATM   14  N3  UNL     1       0.311  -0.950   2.675  1.00  0.00    -0.263 NA
HETATM   15  C10 UNL     1      -0.932  -0.838   1.905  1.00  0.00     0.065 A 
HETATM   16  C11 UNL     1      -1.893  -1.619   1.479  1.00  0.00     0.071 A 
HETATM   17  C20 UNL     1      -0.920   0.539   1.388  1.00  0.00     0.007 A 
HETATM   18  C12 UNL     1      -2.649  -0.778   0.567  1.00  0.00     0.105 A 
HETATM   19  C16 UNL     1      -2.082   0.413   0.529  1.00  0.00     0.110 A 
HETATM   20  O3  UNL     1      -2.458   1.534  -0.236  1.00  0.00    -0.346 OA
HETATM   21  C17 UNL     1      -2.101   1.515  -1.637  1.00  0.00     0.202 C 
HETATM   22  C18 UNL     1      -1.141   0.379  -1.943  1.00  0.00     0.195 C 
HETATM   23  O4  UNL     1      -0.006   0.526  -1.222  1.00  0.00    -0.382 OA
HETATM   24  C19 UNL     1       0.954  -0.445  -1.275  1.00  0.00     0.237 C 
HETATM   25  C21 UNL     1      -0.219   1.638   1.602  1.00  0.00     0.049 C 
BRANCH  18  26
HETATM   26  O1  UNL     1      -3.776  -1.147  -0.152  1.00  0.00    -0.346 OA
BRANCH  26  27
HETATM   27  C13 UNL     1      -5.103  -0.904   0.234  1.00  0.00     0.201 C 
BRANCH  27  28
HETATM   28  C14 UNL     1      -6.013  -1.055  -0.989  1.00  0.00     0.193 C 
BRANCH  28  29
HETATM   29  O2  UNL     1      -7.321  -0.826  -0.661  1.00  0.00    -0.394 OA
HETATM   30  C15 UNL     1      -7.597   0.426  -0.152  1.00  0.00     0.201 C 
ENDBRANCH  28  29
ENDBRANCH  27  28
ENDBRANCH  26  27
ENDBRANCH  18  26
ENDBRANCH   9  11
ENDBRANCH   7   9
TORSDOF 6
