REMARK  3 active torsions:
REMARK  status: ('A' for Active; 'I' for Inactive)
REMARK    1  A    between atoms: C5_6  and  C6_7 
REMARK    2  A    between atoms: C6_7  and  O1_8 
REMARK    3  A    between atoms: O1_8  and  C7_9 
ROOT
HETATM    1  C7  UNL     1      -0.070  -0.161   0.470  1.00  0.00     0.069 A 
HETATM    2  C8  UNL     1      -0.707  -0.217   1.714  1.00  0.00     0.039 A 
HETATM    3  C9  UNL     1      -2.097  -0.276   1.803  1.00  0.00     0.032 A 
HETATM    4  C10 UNL     1      -2.822  -0.277   0.618  1.00  0.00     0.035 A 
HETATM    5  C11 UNL     1      -2.190  -0.222  -0.607  1.00  0.00    -0.026 A 
HETATM    6  C12 UNL     1      -0.823  -0.164  -0.686  1.00  0.00     0.046 A 
HETATM    7  C13 UNL     1      -2.832  -0.216  -1.948  1.00  0.00     0.068 C 
HETATM    8  C14 UNL     1      -3.985   0.755  -1.861  1.00  0.00    -0.024 C 
HETATM    9  C15 UNL     1      -5.044   0.775  -1.061  1.00  0.00    -0.011 C 
HETATM   10  C16 UNL     1      -5.364  -0.221   0.007  1.00  0.00     0.147 C 
HETATM   11  N1  UNL     1      -4.220  -0.340   0.864  1.00  0.00    -0.386 N 
HETATM   12  H15 UNL     1      -4.434  -0.508   1.889  1.00  0.00     0.160 HD
ENDROOT
BRANCH   1  13
HETATM   13  O1  UNL     1       1.302  -0.107   0.540  1.00  0.00    -0.347 OA
BRANCH  13  14
HETATM   14  C6  UNL     1       2.200  -0.045  -0.522  1.00  0.00     0.214 C 
BRANCH  14  15
HETATM   15  C5  UNL     1       3.619   0.003  -0.092  1.00  0.00    -0.031 A 
HETATM   16  C4  UNL     1       4.182   1.231   0.123  1.00  0.00     0.009 A 
HETATM   17  C3  UNL     1       5.485   1.370   0.521  1.00  0.00     0.004 A 
HETATM   18  C2  UNL     1       6.250   0.249   0.712  1.00  0.00     0.042 A 
HETATM   19  C1  UNL     1       5.713  -1.026   0.504  1.00  0.00     0.117 A 
HETATM   20  F1  UNL     1       6.428  -2.165   0.678  1.00  0.00    -0.206 F 
HETATM   21  C17 UNL     1       4.400  -1.128   0.103  1.00  0.00     0.051 A 
ENDBRANCH  14  15
ENDBRANCH  13  14
ENDBRANCH   1  13
TORSDOF 3
