REMARK  10 active torsions:
REMARK  status: ('A' for Active; 'I' for Inactive)
REMARK    1  A    between atoms: C2_2  and  C3_4 
REMARK    2  A    between atoms: C4_5  and  C5_6 
REMARK    3  A    between atoms: C5_6  and  O1_7 
REMARK    4  A    between atoms: O1_7  and  C6_8 
REMARK    5  A    between atoms: C6_8  and  C7_9 
REMARK    6  A    between atoms: C7_9  and  O2_10 
REMARK    7  A    between atoms: O2_10  and  C8_11 
REMARK    8  A    between atoms: C11_14  and  C12_15 
REMARK    9  A    between atoms: C12_15  and  N1_16 
REMARK   10  A    between atoms: N1_16  and  C13_17 
ROOT
HETATM    1  C8  UNL     1      -0.191  -1.007  -0.041  1.00  0.00     0.065 A 
HETATM    2  C9  UNL     1      -0.854  -2.118   0.238  1.00  0.00     0.014 A 
HETATM    3  C10 UNL     1      -2.287  -1.844   0.587  1.00  0.00     0.066 A 
HETATM    4  C11 UNL     1      -2.317  -0.357   0.455  1.00  0.00    -0.056 A 
HETATM    5  C17 UNL     1      -1.120   0.121   0.096  1.00  0.00     0.041 A 
ENDROOT
BRANCH   1   6
HETATM    6  O2  UNL     1       1.095  -0.639  -0.413  1.00  0.00    -0.349 OA
BRANCH   6   7
HETATM    7  C7  UNL     1       2.129  -0.610   0.528  1.00  0.00     0.201 C 
BRANCH   7   8
HETATM    8  C6  UNL     1       3.449  -0.182  -0.068  1.00  0.00     0.194 C 
BRANCH   8   9
HETATM    9  O1  UNL     1       3.863  -1.030  -1.073  1.00  0.00    -0.385 OA
BRANCH   9  10
HETATM   10  C5  UNL     1       5.096  -0.555  -1.567  1.00  0.00     0.195 C 
BRANCH  10  11
HETATM   11  C4  UNL     1       6.142  -0.506  -0.546  1.00  0.00     0.002 C 
HETATM   12  C3  UNL     1       6.891   0.450  -0.030  1.00  0.00     0.039 C 
BRANCH  12  13
HETATM   13  C2  UNL     1       6.838   1.853  -0.409  1.00  0.00     0.106 C 
HETATM   14  C1  UNL     1       7.636   2.732   0.173  1.00  0.00     0.056 C 
HETATM   15  F1  UNL     1       6.011   2.367  -1.347  1.00  0.00    -0.207 F 
ENDBRANCH  12  13
ENDBRANCH  10  11
ENDBRANCH   9  10
ENDBRANCH   8   9
ENDBRANCH   7   8
ENDBRANCH   6   7
ENDBRANCH   1   6
BRANCH   4  16
HETATM   16  C12 UNL     1      -3.634   0.250   0.742  1.00  0.00     0.156 C 
BRANCH  16  17
HETATM   17  N1  UNL     1      -4.626  -0.268  -0.166  1.00  0.00    -0.369 N 
HETATM   18  H16 UNL     1      -4.354  -0.971  -0.891  1.00  0.00     0.161 HD
BRANCH  17  19
HETATM   19  C13 UNL     1      -6.017   0.116  -0.159  1.00  0.00     0.148 A 
HETATM   20  N2  UNL     1      -6.454   1.014   0.740  1.00  0.00    -0.223 NA
HETATM   21  C14 UNL     1      -7.723   1.445   0.839  1.00  0.00     0.235 A 
HETATM   22  N3  UNL     1      -8.631   0.931  -0.039  1.00  0.00    -0.252 NA
HETATM   23  C15 UNL     1      -8.224   0.020  -0.961  1.00  0.00     0.145 A 
HETATM   24  C16 UNL     1      -6.940  -0.419  -1.065  1.00  0.00     0.097 A 
HETATM   25 CL1  UNL     1      -6.358  -1.580  -2.221  1.00  0.00    -0.079 Cl
ENDBRANCH  17  19
ENDBRANCH  16  17
ENDBRANCH   4  16
TORSDOF 10
