REMARK  4 active torsions:
REMARK  status: ('A' for Active; 'I' for Inactive)
REMARK    1  A    between atoms: O1_2  and  C2_3 
REMARK    2  A    between atoms: C6_9  and  N3_10 
REMARK    3  A    between atoms: N3_10  and  C7_11 
REMARK    4  A    between atoms: C15_21  and  N4_22 
ROOT
HETATM    1  N4  UNL     1       3.062   2.556   0.658  1.00  0.00    -0.203 NA
HETATM    2  C16 UNL     1       2.593   3.501  -0.048  1.00  0.00     0.337 C 
HETATM    3  O2  UNL     1       2.253   4.386  -0.854  1.00  0.00    -0.260 OA
ENDROOT
BRANCH   1   4
HETATM    4  C15 UNL     1       2.606   1.231   0.390  1.00  0.00     0.095 A 
HETATM    5  C2  UNL     1       3.533   0.218   0.258  1.00  0.00     0.099 A 
HETATM    6  C3  UNL     1       3.069  -1.049  -0.000  1.00  0.00     0.071 A 
HETATM    7  C4  UNL     1       1.718  -1.295  -0.123  1.00  0.00     0.075 A 
HETATM    8  N1  UNL     1       1.390  -2.566  -0.374  1.00  0.00    -0.241 NA
HETATM    9  C13 UNL     1       0.759  -0.311   0.002  1.00  0.00     0.041 A 
HETATM   10  C5  UNL     1       0.087  -2.859  -0.502  1.00  0.00     0.236 A 
HETATM   11  N2  UNL     1      -0.831  -1.897  -0.379  1.00  0.00    -0.224 NA
HETATM   12  C6  UNL     1      -0.574  -0.613  -0.129  1.00  0.00     0.142 A 
HETATM   13  C14 UNL     1       1.278   0.926   0.258  1.00  0.00     0.052 A 
BRANCH   5  14
HETATM   14  O1  UNL     1       4.881   0.507   0.388  1.00  0.00    -0.353 OA
HETATM   15  C1  UNL     1       5.870  -0.499   0.261  1.00  0.00     0.210 C 
ENDBRANCH   5  14
BRANCH  12  16
HETATM   16  N3  UNL     1      -1.521   0.423   0.006  1.00  0.00    -0.340 N 
HETATM   17  H6  UNL     1      -1.244   1.403   0.198  1.00  0.00     0.167 HD
BRANCH  16  18
HETATM   18  C7  UNL     1      -2.933   0.363  -0.083  1.00  0.00     0.035 A 
HETATM   19  C8  UNL     1      -3.798   1.427   0.047  1.00  0.00     0.032 A 
HETATM   20  C9  UNL     1      -5.158   1.360  -0.039  1.00  0.00     0.046 A 
HETATM   21  C10 UNL     1      -5.766   0.160  -0.274  1.00  0.00     0.138 A 
HETATM   22  F1  UNL     1      -7.104   0.136  -0.352  1.00  0.00    -0.204 F 
HETATM   23  C11 UNL     1      -4.948  -0.955  -0.415  1.00  0.00     0.074 A 
HETATM   24 CL1  UNL     1      -5.784  -2.463  -0.713  1.00  0.00    -0.081 Cl
HETATM   25  C12 UNL     1      -3.587  -0.827  -0.318  1.00  0.00     0.056 A 
ENDBRANCH  16  18
ENDBRANCH  12  16
ENDBRANCH   1   4
TORSDOF 4
