REMARK  4 active torsions:
REMARK  status: ('A' for Active; 'I' for Inactive)
REMARK    1  A    between atoms: C3_3  and  C4_5 
REMARK    2  A    between atoms: C6_7  and  C7_8 
REMARK    3  A    between atoms: C8_9  and  N1_10 
REMARK    4  A    between atoms: N1_10  and  C9_11 
ROOT
HETATM    1  C9  UNL     1       0.767  -0.479   0.373  1.00  0.00     0.211 C 
HETATM    2  N2  UNL     1       0.523  -0.163  -1.075  1.00  0.00    -0.288 N 
HETATM    3  N3  UNL     1      -0.790   0.236  -1.559  1.00  0.00    -0.164 NA
HETATM    4  C10 UNL     1      -1.583   0.613  -0.625  1.00  0.00     0.127 C 
HETATM    5  C11 UNL     1      -1.264   0.372   0.802  1.00  0.00     0.097 C 
HETATM    6  C12 UNL     1      -0.558  -0.941   0.867  1.00  0.00     0.053 C 
HETATM    7  C13 UNL     1      -1.360  -1.803   1.442  1.00  0.00     0.274 A 
HETATM    8  N4  UNL     1      -2.403  -2.590   2.023  1.00  0.00     0.125 N 
HETATM    9  C14 UNL     1      -3.649  -1.845   1.775  1.00  0.00     0.177 A 
HETATM   10  O1  UNL     1      -2.439  -1.951   1.666  1.00  0.00     0.000 OA
HETATM   11  C15 UNL     1      -5.131  -1.471   1.744  1.00  0.00     0.070 C 
HETATM   12  C16 UNL     1      -5.254  -0.679   0.450  1.00  0.00     0.006 C 
HETATM   13  C17 UNL     1      -6.597  -0.340  -0.059  1.00  0.00     0.000 C 
HETATM   14  C18 UNL     1      -6.433   0.353  -1.452  1.00  0.00     0.000 C 
HETATM   15  C19 UNL     1      -5.796   1.669  -1.285  1.00  0.00     0.009 C 
HETATM   16  C20 UNL     1      -4.710   2.029  -2.312  1.00  0.00     0.103 C 
HETATM   17  C21 UNL     1      -3.709   0.905  -2.109  1.00  0.00     0.223 C 
HETATM   18  O2  UNL     1      -3.299  -0.241  -2.322  1.00  0.00    -0.273 OA
HETATM   19  N5  UNL     1      -2.699   1.234  -1.214  1.00  0.00    -0.314 N 
HETATM   20  H13 UNL     1       1.279  -0.217  -1.807  1.00  0.00     0.184 HD
HETATM   21  H17 UNL     1      -2.253  -3.547   2.524  1.00  0.00     0.323 HD
HETATM   22  H30 UNL     1      -2.569   2.135  -0.758  1.00  0.00     0.170 HD
ENDROOT
BRANCH   1  23
HETATM   23  N1  UNL     1       1.783  -1.493   0.461  1.00  0.00    -0.376 N 
HETATM   24  H11 UNL     1       1.474  -2.430   0.843  1.00  0.00     0.161 HD
BRANCH  23  25
HETATM   25  C8  UNL     1       3.157  -1.567   0.151  1.00  0.00     0.085 C 
HETATM   26  C7  UNL     1       3.948  -0.537   0.499  1.00  0.00     0.017 C 
BRANCH  26  27
HETATM   27  C6  UNL     1       5.367  -0.449   0.260  1.00  0.00     0.010 C 
HETATM   28  C4  UNL     1       6.251   0.489   0.580  1.00  0.00    -0.041 C 
HETATM   29  C5  UNL     1       5.781   1.692   1.314  1.00  0.00     0.050 C 
BRANCH  28  30
HETATM   30  C3  UNL     1       7.623   0.272   0.185  1.00  0.00     0.035 C 
HETATM   31  C2  UNL     1       8.656   1.054   0.439  1.00  0.00    -0.007 C 
HETATM   32  C1  UNL     1       9.938   0.678  -0.187  1.00  0.00     0.038 C 
HETATM   33 CL1  UNL     1       7.999  -1.087  -0.869  1.00  0.00    -0.084 Cl
ENDBRANCH  28  30
ENDBRANCH  26  27
ENDBRANCH  23  25
ENDBRANCH   1  23
TORSDOF 4
