REMARK  10 active torsions:
REMARK  status: ('A' for Active; 'I' for Inactive)
REMARK    1  A    between atoms: C6_7  and  O1_8 
REMARK    2  A    between atoms: O1_8  and  C7_9 
REMARK    3  A    between atoms: C7_9  and  C8_10 
REMARK    4  A    between atoms: C8_10  and  C9_11 
REMARK    5  A    between atoms: C9_11  and  C10_12 
REMARK    6  A    between atoms: C10_12  and  C11_13 
REMARK    7  A    between atoms: C11_13  and  C12_14 
REMARK    8  A    between atoms: C12_14  and  C13_15 
REMARK    9  A    between atoms: C13_15  and  N1_16 
REMARK   10  A    between atoms: C13_15  and  O2_17 
ROOT
HETATM    1  C1  UNL     1      -5.499   3.998   1.007  1.00  0.00     0.011 C 
HETATM    2  C2  UNL     1      -4.484   2.892   1.031  1.00  0.00     0.001 A 
HETATM    3  C3  UNL     1      -4.783   2.411   2.252  1.00  0.00    -0.003 A 
HETATM    4  C4  UNL     1      -3.733   1.740   1.563  1.00  0.00     0.137 A 
HETATM    5  C5  UNL     1      -2.727   1.059   0.965  1.00  0.00     0.134 C 
HETATM    6  F1  UNL     1      -2.629   1.750  -0.247  1.00  0.00    -0.241 F 
HETATM    7  C6  UNL     1      -1.868  -0.093   0.961  1.00  0.00     0.078 C 
HETATM    8  C15 UNL     1      -1.997  -1.013   1.858  1.00  0.00     0.019 C 
HETATM    9  C16 UNL     1      -3.025  -0.830   2.833  1.00  0.00     0.061 C 
HETATM   10  C17 UNL     1      -3.844  -0.956   3.789  1.00  0.00     0.065 C 
HETATM   11  N2  UNL     1      -4.490   0.410   3.650  1.00  0.00    -0.401 N 
HETATM   12  C18 UNL     1      -4.989   1.730   3.520  1.00  0.00     0.130 C 
HETATM   13  H27 UNL     1      -5.435  -0.108   3.633  1.00  0.00     0.158 HD
ENDROOT
BRANCH   7  14
HETATM   14  O1  UNL     1      -0.962  -0.094  -0.041  1.00  0.00    -0.353 OA
BRANCH  14  15
HETATM   15  C7  UNL     1      -0.276  -1.252  -0.448  1.00  0.00     0.175 C 
BRANCH  15  16
HETATM   16  C8  UNL     1       0.350  -0.973  -1.817  1.00  0.00     0.027 C 
BRANCH  16  17
HETATM   17  C9  UNL     1       1.245   0.235  -1.734  1.00  0.00     0.002 C 
BRANCH  17  18
HETATM   18  C10 UNL     1       2.358   0.145  -0.769  1.00  0.00     0.000 C 
BRANCH  18  19
HETATM   19  C11 UNL     1       3.386  -0.911  -1.000  1.00  0.00     0.004 C 
BRANCH  19  20
HETATM   20  C12 UNL     1       4.066  -0.691  -2.353  1.00  0.00     0.063 C 
BRANCH  20  21
HETATM   21  C13 UNL     1       5.143  -1.738  -2.603  1.00  0.00     0.353 C 
BRANCH  21  22
HETATM   22  N1  UNL     1       4.631  -3.089  -2.625  1.00  0.00     0.107 N 
HETATM   23  H19 UNL     1       5.020  -3.625  -3.428  1.00  0.00     0.316 HD
HETATM   24  H20 UNL     1       4.748  -3.595  -1.727  1.00  0.00     0.316 HD
ENDBRANCH  21  22
BRANCH  21  25
HETATM   25  O2  UNL     1       5.673  -1.454  -3.866  1.00  0.00    -0.362 OA
HETATM   26  C14 UNL     1       7.003  -1.146  -3.675  1.00  0.00     0.204 C 
ENDBRANCH  21  25
ENDBRANCH  20  21
ENDBRANCH  19  20
ENDBRANCH  18  19
ENDBRANCH  17  18
ENDBRANCH  16  17
ENDBRANCH  15  16
ENDBRANCH  14  15
ENDBRANCH   7  14
TORSDOF 10
