REMARK  4 active torsions:
REMARK  status: ('A' for Active; 'I' for Inactive)
REMARK    1  A    between atoms: O1_2  and  C2_3 
REMARK    2  A    between atoms: C9_13  and  C10_14 
REMARK    3  A    between atoms: C10_14  and  C11_15 
REMARK    4  A    between atoms: C10_14  and  C13_18 
ROOT
HETATM    1  C2  UNL     1      -1.694  -0.957   0.041  1.00  0.00     0.105 C 
HETATM    2  C3  UNL     1      -1.864   0.255  -0.419  1.00  0.00     0.054 C 
HETATM    3  C4  UNL     1      -2.646   1.228  -1.144  1.00  0.00     0.239 C 
HETATM    4  N1  UNL     1      -2.142   2.442  -1.226  1.00  0.00    -0.298 NA
HETATM    5  C5  UNL     1      -0.866   2.611  -0.569  1.00  0.00     0.164 C 
HETATM    6  N2  UNL     1      -0.860   2.030   0.554  1.00  0.00    -0.261 NA
HETATM    7  C6  UNL     1       0.167   1.928   1.533  1.00  0.00     0.421 C 
HETATM    8  N3  UNL     1       0.668   0.553   1.631  1.00  0.00     0.114 N 
HETATM    9  C7  UNL     1      -0.389  -0.334   2.088  1.00  0.00     0.285 A 
HETATM   10  C8  UNL     1      -0.411  -1.041   0.776  1.00  0.00     0.086 A 
HETATM   11  C9  UNL     1       0.658  -0.104   0.330  1.00  0.00     0.242 A 
ENDROOT
BRANCH  11  12
HETATM   12  C10 UNL     1       1.950  -0.839   0.031  1.00  0.00     0.050 C 
BRANCH  12  13
HETATM   13  C11 UNL     1       1.827  -1.479  -1.331  1.00  0.00     0.010 C 
HETATM   14  C12 UNL     1       2.587  -1.346  -2.429  1.00  0.00     0.184 C 
HETATM   15  F1  UNL     1       2.474  -1.920  -3.648  1.00  0.00    -0.220 F 
ENDBRANCH  12  13
BRANCH  12  16
HETATM   16  C13 UNL     1       3.133   0.026  -0.040  1.00  0.00     0.021 C 
HETATM   17  C14 UNL     1       3.243   1.317   0.131  1.00  0.00     0.238 C 
HETATM   18 CL1  UNL     1       4.846   2.059  -0.028  1.00  0.00    -0.255 Cl
ENDBRANCH  12  16
ENDBRANCH  11  12
BRANCH   1  19
HETATM   19  O1  UNL     1      -2.377  -2.212   0.042  1.00  0.00    -0.381 OA
HETATM   20  C1  UNL     1      -3.792  -2.180   0.235  1.00  0.00     0.202 C 
ENDBRANCH   1  19
TORSDOF 4
