REMARK  4 active torsions:
REMARK  status: ('A' for Active; 'I' for Inactive)
REMARK    1  A    between atoms: O1_2  and  C2_3 
REMARK    2  A    between atoms: C6_9  and  N3_10 
REMARK    3  A    between atoms: N3_10  and  C7_11 
REMARK    4  A    between atoms: C7_11  and  C8_12 
ROOT
HETATM    1  C2  UNL     1      -2.427   3.087  -0.354  1.00  0.00     0.259 C 
HETATM    2  C3  UNL     1      -1.232   2.703  -0.768  1.00  0.00     0.121 C 
HETATM    3  C4  UNL     1       0.213   2.510  -0.724  1.00  0.00     0.046 A 
HETATM    4  N1  UNL     1       0.872   3.486  -1.362  1.00  0.00    -0.248 NA
HETATM    5  C5  UNL     1       2.191   3.576  -1.466  1.00  0.00     0.235 A 
HETATM    6  N2  UNL     1       2.851   2.589  -0.865  1.00  0.00    -0.227 NA
HETATM    7  C6  UNL     1       2.259   1.584  -0.210  1.00  0.00     0.121 A 
HETATM    8  C14 UNL     1       0.894   1.472  -0.095  1.00  0.00     0.103 A 
HETATM    9  C15 UNL     1       0.378   0.330   0.615  1.00  0.00     0.006 A 
HETATM   10  C16 UNL     1       0.022  -0.701  -0.148  1.00  0.00    -0.054 A 
HETATM   11  O2  UNL     1       0.492   0.288  -0.984  1.00  0.00     0.000 OA
HETATM   12  C17 UNL     1      -0.560  -2.064   0.183  1.00  0.00     0.039 C 
HETATM   13  C18 UNL     1      -1.913  -2.119  -0.560  1.00  0.00     0.005 C 
HETATM   14  C19 UNL     1      -2.709  -3.305  -0.256  1.00  0.00     0.000 C 
HETATM   15  C20 UNL     1      -4.053  -3.340  -0.966  1.00  0.00     0.000 C 
HETATM   16  C21 UNL     1      -4.782  -2.054  -0.703  1.00  0.00     0.009 C 
HETATM   17  C22 UNL     1      -4.401  -0.913  -1.572  1.00  0.00     0.105 C 
HETATM   18  C23 UNL     1      -4.744   0.359  -0.835  1.00  0.00     0.241 C 
HETATM   19  O3  UNL     1      -5.088   1.359  -0.182  1.00  0.00    -0.271 OA
HETATM   20  N4  UNL     1      -3.906   1.454  -1.279  1.00  0.00    -0.231 N 
HETATM   21  O4  UNL     1      -3.472   2.791  -1.243  1.00  0.00    -0.231 OA
HETATM   22  H15 UNL     1       0.365   0.173  -1.978  1.00  0.00     0.000 HD
HETATM   23  H28 UNL     1      -3.174   1.375  -2.049  1.00  0.00     0.197 HD
ENDROOT
BRANCH   7  24
HETATM   24  N3  UNL     1       2.964   0.538   0.460  1.00  0.00    -0.373 N 
HETATM   25  H6  UNL     1       2.615  -0.252   0.990  1.00  0.00     0.161 HD
BRANCH  24  26
HETATM   26  C7  UNL     1       4.405   0.612   0.373  1.00  0.00     0.159 C 
BRANCH  26  27
HETATM   27  C8  UNL     1       5.104  -0.498   1.044  1.00  0.00    -0.041 A 
HETATM   28  C9  UNL     1       5.370  -1.620   0.275  1.00  0.00     0.009 A 
HETATM   29  C10 UNL     1       6.022  -2.684   0.855  1.00  0.00     0.001 A 
HETATM   30  C11 UNL     1       6.425  -2.691   2.170  1.00  0.00     0.000 A 
HETATM   31  C12 UNL     1       6.158  -1.564   2.945  1.00  0.00     0.001 A 
HETATM   32  C13 UNL     1       5.506  -0.498   2.364  1.00  0.00     0.009 A 
ENDBRANCH  26  27
ENDBRANCH  24  26
ENDBRANCH   7  24
BRANCH   1  33
HETATM   33  O1  UNL     1      -3.497   3.607   0.366  1.00  0.00    -0.353 OA
HETATM   34  C1  UNL     1      -3.348   4.691   1.262  1.00  0.00     0.206 C 
ENDBRANCH   1  33
TORSDOF 4
