REMARK  7 active torsions:
REMARK  status: ('A' for Active; 'I' for Inactive)
REMARK    1  A    between atoms: C1_2  and  C2_3 
REMARK    2  A    between atoms: C2_3  and  C3_4 
REMARK    3  A    between atoms: C3_4  and  S1_5 
REMARK    4  A    between atoms: S1_5  and  C4_6 
REMARK    5  A    between atoms: C5_7  and  C6_8 
REMARK    6  A    between atoms: C9_13  and  N3_14 
REMARK    7  A    between atoms: N3_14  and  C10_15 
ROOT
HETATM    1  C6  UNL     1      -0.115  -0.400  -0.739  1.00  0.00     0.028 A 
HETATM    2  C7  UNL     1       0.372   0.085  -1.936  1.00  0.00     0.133 A 
HETATM    3  N1  UNL     1      -0.420   0.161  -3.015  1.00  0.00    -0.253 NA
HETATM    4  C8  UNL     1      -1.690  -0.245  -2.900  1.00  0.00     0.234 A 
HETATM    5  N2  UNL     1      -2.195  -0.726  -1.736  1.00  0.00    -0.224 NA
HETATM    6  C9  UNL     1      -1.425  -0.822  -0.606  1.00  0.00     0.141 A 
ENDROOT
BRANCH   6   7
HETATM    7  N3  UNL     1      -1.878  -1.328   0.666  1.00  0.00    -0.340 N 
HETATM    8  H10 UNL     1      -1.327  -2.018   1.223  1.00  0.00     0.167 HD
BRANCH   7   9
HETATM    9  C10 UNL     1      -3.145  -0.652   0.825  1.00  0.00     0.035 A 
HETATM   10  C11 UNL     1      -3.274   0.612   1.383  1.00  0.00     0.032 A 
HETATM   11  C12 UNL     1      -4.548   1.168   1.446  1.00  0.00     0.046 A 
HETATM   12  C13 UNL     1      -5.626   0.467   0.965  1.00  0.00     0.138 A 
HETATM   13  F1  UNL     1      -6.867   1.044   1.037  1.00  0.00    -0.204 F 
HETATM   14  C14 UNL     1      -5.490  -0.788   0.415  1.00  0.00     0.074 A 
HETATM   15 CL1  UNL     1      -6.885  -1.690  -0.201  1.00  0.00    -0.081 Cl
HETATM   16  C15 UNL     1      -4.237  -1.348   0.347  1.00  0.00     0.056 A 
ENDBRANCH   7   9
ENDBRANCH   6   7
BRANCH   1  17
HETATM   17  C5  UNL     1       0.799  -0.429   0.408  1.00  0.00     0.023 C 
HETATM   18  C4  UNL     1       2.037   0.022   0.390  1.00  0.00     0.046 C 
BRANCH  18  19
HETATM   19  S1  UNL     1       3.172   0.007   1.746  1.00  0.00    -0.141 SA
BRANCH  19  20
HETATM   20  C3  UNL     1       4.909  -0.085   1.234  1.00  0.00     0.085 C 
BRANCH  20  21
HETATM   21  C2  UNL     1       5.334   1.157   0.488  1.00  0.00     0.080 C 
BRANCH  21  22
HETATM   22  C1  UNL     1       6.754   1.051   0.113  1.00  0.00     0.231 C 
HETATM   23  O1  UNL     1       7.192   0.478  -0.865  1.00  0.00    -0.307 OA
ENDBRANCH  21  22
ENDBRANCH  20  21
ENDBRANCH  19  20
ENDBRANCH  18  19
ENDBRANCH   1  17
TORSDOF 7
