REMARK  7 active torsions:
REMARK  status: ('A' for Active; 'I' for Inactive)
REMARK    1  A    between atoms: O1_1  and  N1_2 
REMARK    2  A    between atoms: N1_2  and  C1_3 
REMARK    3  A    between atoms: C1_3  and  C2_4 
REMARK    4  A    between atoms: C6_10  and  O2_11 
REMARK    5  A    between atoms: O2_11  and  N4_12 
REMARK    6  A    between atoms: N4_12  and  C7_13 
REMARK    7  A    between atoms: C7_13  and  C8_14 
ROOT
HETATM    1  C2  UNL     1      -4.463   1.440  -0.047  1.00  0.00     0.004 C 
HETATM    2  C3  UNL     1      -3.438   0.667  -0.367  1.00  0.00     0.008 A 
HETATM    3  C4  UNL     1      -2.939  -0.570  -0.955  1.00  0.00     0.084 A 
HETATM    4  N2  UNL     1      -2.501  -1.733  -1.512  1.00  0.00    -0.240 NA
HETATM    5  C5  UNL     1      -1.164  -1.945  -1.527  1.00  0.00     0.236 A 
HETATM    6  N3  UNL     1      -0.225  -1.114  -1.044  1.00  0.00    -0.216 NA
HETATM    7  C6  UNL     1      -0.631   0.043  -0.490  1.00  0.00     0.199 A 
HETATM    8  C14 UNL     1      -2.004   0.315  -0.446  1.00  0.00     0.060 A 
ENDROOT
BRANCH   7   9
HETATM    9  O2  UNL     1       0.176   1.007   0.051  1.00  0.00    -0.243 OA
BRANCH   9  10
HETATM   10  N4  UNL     1       1.539   0.989   0.135  1.00  0.00    -0.194 NA
HETATM   11  H7  UNL     1       1.774   1.075   1.148  1.00  0.00     0.154 HD
BRANCH  10  12
HETATM   12  C7  UNL     1       2.151  -0.237  -0.317  1.00  0.00     0.156 C 
BRANCH  12  13
HETATM   13  C8  UNL     1       3.651  -0.146  -0.178  1.00  0.00    -0.043 A 
HETATM   14  C9  UNL     1       4.474   0.330  -1.178  1.00  0.00     0.008 A 
HETATM   15  C10 UNL     1       5.830   0.356  -0.909  1.00  0.00     0.001 A 
HETATM   16  C11 UNL     1       6.379  -0.063   0.282  1.00  0.00     0.000 A 
HETATM   17  C12 UNL     1       5.490  -0.528   1.239  1.00  0.00     0.001 A 
HETATM   18  C13 UNL     1       4.132  -0.588   1.057  1.00  0.00     0.008 A 
ENDBRANCH  12  13
ENDBRANCH  10  12
ENDBRANCH   9  10
ENDBRANCH   7   9
BRANCH   1  19
HETATM   19  C1  UNL     1      -5.839   0.985  -0.370  1.00  0.00     0.145 C 
BRANCH  19  20
HETATM   20  N1  UNL     1      -6.650   0.866   0.834  1.00  0.00    -0.205 NA
HETATM   21  H2  UNL     1      -7.636   0.680   0.633  1.00  0.00     0.153 HD
BRANCH  20  22
HETATM   22  O1  UNL     1      -6.092  -0.033   1.678  1.00  0.00    -0.315 OA
HETATM   23  H1  UNL     1      -6.028  -0.952   1.268  1.00  0.00     0.236 HD
ENDBRANCH  20  22
ENDBRANCH  19  20
ENDBRANCH   1  19
TORSDOF 7
