REMARK  6 active torsions:
REMARK  status: ('A' for Active; 'I' for Inactive)
REMARK    1  A    between atoms: C2_2  and  C3_4 
REMARK    2  A    between atoms: C4_6  and  C5_7 
REMARK    3  A    between atoms: C5_7  and  C6_8 
REMARK    4  A    between atoms: C10_14  and  C11_15 
REMARK    5  A    between atoms: C11_15  and  N3_16 
REMARK    6  A    between atoms: C12_17  and  N4_18 
ROOT
HETATM    1  C6  UNL     1       3.075  -2.101  -0.208  1.00  0.00     0.052 A 
HETATM    2  N1  UNL     1       3.799  -3.216  -0.104  1.00  0.00    -0.245 NA
HETATM    3  C7  UNL     1       3.197  -4.414   0.173  1.00  0.00     0.234 A 
HETATM    4  N2  UNL     1       1.866  -4.491   0.343  1.00  0.00    -0.241 NA
HETATM    5  C8  UNL     1       1.081  -3.401   0.250  1.00  0.00     0.071 A 
HETATM    6  C9  UNL     1      -0.282  -3.540   0.426  1.00  0.00     0.043 A 
HETATM    7  C10 UNL     1      -1.091  -2.430   0.324  1.00  0.00     0.000 A 
HETATM    8  C12 UNL     1      -0.553  -1.215   0.051  1.00  0.00     0.060 A 
HETATM    9  C21 UNL     1       0.797  -1.137  -0.112  1.00  0.00     0.047 A 
HETATM   10  C22 UNL     1       1.693  -2.176  -0.031  1.00  0.00     0.020 A 
ENDROOT
BRANCH   8  11
HETATM   11  N4  UNL     1      -1.314  -0.034  -0.091  1.00  0.00    -0.285 N 
HETATM   12  N5  UNL     1      -2.249   0.434   0.923  1.00  0.00    -0.267 N 
HETATM   13  C13 UNL     1      -3.191   0.914   1.960  1.00  0.00     0.236 C 
HETATM   14  H14 UNL     1      -1.278   0.715   1.302  1.00  0.00     0.190 HD
HETATM   15  O1  UNL     1      -2.657   1.464   2.910  1.00  0.00    -0.272 OA
HETATM   16  C14 UNL     1      -4.691   0.612   1.550  1.00  0.00     0.104 C 
HETATM   17  C15 UNL     1      -4.724   1.369   0.344  1.00  0.00     0.009 C 
HETATM   18  C16 UNL     1      -4.869   2.075  -0.859  1.00  0.00     0.001 C 
HETATM   19  C17 UNL     1      -3.528   2.835  -1.029  1.00  0.00     0.002 C 
HETATM   20  C18 UNL     1      -2.252   2.244  -0.687  1.00  0.00     0.027 C 
HETATM   21  C19 UNL     1      -1.585   1.029  -1.155  1.00  0.00     0.104 C 
HETATM   22  C20 UNL     1      -0.271   1.279  -1.880  1.00  0.00     0.034 C 
ENDBRANCH   8  11
BRANCH   7  23
HETATM   23  C11 UNL     1      -2.535  -2.579   0.541  1.00  0.00     0.307 C 
BRANCH  23  24
HETATM   24  N3  UNL     1      -3.209  -2.445  -0.728  1.00  0.00     0.082 N 
HETATM   25  H12 UNL     1      -3.736  -1.545  -0.807  1.00  0.00     0.313 HD
HETATM   26  H13 UNL     1      -2.532  -2.581  -1.495  1.00  0.00     0.313 HD
ENDBRANCH  23  24
ENDBRANCH   7  23
BRANCH   1  27
HETATM   27  C5  UNL     1       3.605  -0.758  -0.501  1.00  0.00     0.088 C 
BRANCH  27  28
HETATM   28  C4  UNL     1       3.758   0.126   0.665  1.00  0.00     0.002 C 
HETATM   29  C3  UNL     1       4.857   0.769   1.085  1.00  0.00     0.042 C 
HETATM   30 CL1  UNL     1       4.788   1.809   2.519  1.00  0.00    -0.086 Cl
BRANCH  29  31
HETATM   31  C2  UNL     1       6.277   0.886   0.631  1.00  0.00     0.210 C 
HETATM   32  C1  UNL     1       6.598   2.335   0.310  1.00  0.00     0.051 C 
HETATM   33  F1  UNL     1       6.559   0.140  -0.485  1.00  0.00    -0.244 F 
ENDBRANCH  29  31
ENDBRANCH  27  28
ENDBRANCH   1  27
TORSDOF 6
