REMARK  6 active torsions:
REMARK  status: ('A' for Active; 'I' for Inactive)
REMARK    1  A    between atoms: C4_5  and  C5_6 
REMARK    2  A    between atoms: C5_6  and  O1_7 
REMARK    3  A    between atoms: O1_7  and  C6_8 
REMARK    4  A    between atoms: C11_15  and  O2_16 
REMARK    5  A    between atoms: O2_16  and  C12_17 
REMARK    6  A    between atoms: C12_17  and  P1_18 
ROOT
HETATM    1  C6  UNL     1      -0.913  -0.902   0.148  1.00  0.00     0.174 C 
HETATM    2  C7  UNL     1      -1.021  -1.588   1.466  1.00  0.00     0.065 C 
HETATM    3  C8  UNL     1      -1.355  -3.017   1.173  1.00  0.00    -0.005 C 
HETATM    4  C9  UNL     1      -2.542  -3.470   0.791  1.00  0.00     0.114 C 
HETATM    5  N1  UNL     1      -3.775  -2.793   0.559  1.00  0.00    -0.257 NA
HETATM    6  C10 UNL     1      -4.094  -1.565   0.313  1.00  0.00     0.204 C 
HETATM    7  N2  UNL     1      -3.333  -0.369   0.173  1.00  0.00    -0.356 N 
HETATM    8  C11 UNL     1      -2.013   0.043  -0.191  1.00  0.00     0.251 C 
HETATM    9  H11 UNL     1      -3.924   0.482   0.411  1.00  0.00     0.163 HD
ENDROOT
BRANCH   1  10
HETATM   10  O1  UNL     1       0.294  -0.168   0.187  1.00  0.00    -0.377 OA
BRANCH  10  11
HETATM   11  C5  UNL     1       1.132  -0.610  -0.824  1.00  0.00     0.207 C 
BRANCH  11  12
HETATM   12  C4  UNL     1       2.404   0.144  -0.805  1.00  0.00    -0.033 A 
HETATM   13  C3  UNL     1       2.715   1.307  -1.462  1.00  0.00     0.012 A 
HETATM   14  C2  UNL     1       3.931   1.915  -1.368  1.00  0.00     0.044 A 
HETATM   15  C1  UNL     1       4.924   1.345  -0.568  1.00  0.00     0.138 A 
HETATM   16  F1  UNL     1       6.158   1.889  -0.424  1.00  0.00    -0.204 F 
HETATM   17  C14 UNL     1       4.675   0.183   0.113  1.00  0.00     0.073 A 
HETATM   18  C13 UNL     1       3.417  -0.393  -0.020  1.00  0.00     0.036 A 
HETATM   19 CL1  UNL     1       5.901  -0.562   1.128  1.00  0.00    -0.081 Cl
ENDBRANCH  11  12
ENDBRANCH  10  11
ENDBRANCH   1  10
BRANCH   8  20
HETATM   20  O2  UNL     1      -1.728   1.293   0.355  1.00  0.00    -0.360 OA
BRANCH  20  21
HETATM   21  C12 UNL     1      -1.498   2.248  -0.628  1.00  0.00     0.198 C 
BRANCH  21  22
HETATM   22  P1  UNL     1      -1.130   3.868   0.215  1.00  0.00    -0.116 P 
HETATM   23  H15 UNL     1      -1.483   4.991  -0.635  1.00  0.00     0.056 HD
HETATM   24  H16 UNL     1      -1.928   3.986   1.421  1.00  0.00     0.056 HD
ENDBRANCH  21  22
ENDBRANCH  20  21
ENDBRANCH   8  20
TORSDOF 6
