REMARK  4 active torsions:
REMARK  status: ('A' for Active; 'I' for Inactive)
REMARK    1  A    between atoms: O1_2  and  O2_3 
REMARK    2  A    between atoms: O2_3  and  C2_4 
REMARK    3  A    between atoms: C12_15  and  N1_16 
REMARK    4  A    between atoms: N1_16  and  C13_17 
ROOT
HETATM    1  C2  UNL     1       1.914   1.706   0.120  1.00  0.00     0.213 C 
HETATM    2  C3  UNL     1       2.672   0.603  -0.676  1.00  0.00     0.041 C 
HETATM    3  C4  UNL     1       3.936   0.314  -0.016  1.00  0.00     0.003 C 
HETATM    4  C5  UNL     1       4.674  -0.931  -0.364  1.00  0.00     0.000 C 
HETATM    5  C6  UNL     1       3.956  -2.147   0.149  1.00  0.00     0.002 C 
HETATM    6  C7  UNL     1       2.834  -2.675  -0.626  1.00  0.00     0.027 C 
HETATM    7  C8  UNL     1       1.944  -3.622   0.228  1.00  0.00     0.174 C 
HETATM    8  O3  UNL     1       1.489  -2.847   1.335  1.00  0.00    -0.363 OA
HETATM    9  C9  UNL     1       0.994  -1.565   1.221  1.00  0.00     0.135 C 
HETATM   10  C10 UNL     1       0.339  -0.662   0.537  1.00  0.00     0.041 C 
HETATM   11  C11 UNL     1      -0.301   0.559   0.093  1.00  0.00     0.039 A 
HETATM   12  C12 UNL     1      -1.655   0.405  -0.069  1.00  0.00     0.138 A 
HETATM   13  N2  UNL     1      -2.362   1.500  -0.495  1.00  0.00    -0.224 NA
HETATM   14  C20 UNL     1      -1.611   2.595  -0.699  1.00  0.00     0.235 A 
HETATM   15  N3  UNL     1      -0.282   2.711  -0.530  1.00  0.00    -0.243 NA
HETATM   16  C21 UNL     1       0.472   1.682  -0.115  1.00  0.00     0.082 A 
ENDROOT
BRANCH  12  17
HETATM   17  N1  UNL     1      -2.328  -0.813   0.175  1.00  0.00    -0.361 N 
HETATM   18  H19 UNL     1      -1.805  -1.647   0.492  1.00  0.00     0.162 HD
BRANCH  17  19
HETATM   19  C13 UNL     1      -3.765  -0.886  -0.022  1.00  0.00     0.049 A 
HETATM   20  C14 UNL     1      -4.227  -2.305   0.308  1.00  0.00     0.043 C 
HETATM   21  C15 UNL     1      -4.377   0.027   1.008  1.00  0.00     0.007 A 
HETATM   22  C16 UNL     1      -5.216   1.026   0.822  1.00  0.00     0.040 A 
HETATM   23  C17 UNL     1      -5.652   1.351  -0.516  1.00  0.00     0.112 A 
HETATM   24  F1  UNL     1      -6.510   2.356  -0.806  1.00  0.00    -0.206 F 
HETATM   25  C18 UNL     1      -5.154   0.591  -1.474  1.00  0.00     0.018 A 
HETATM   26  C19 UNL     1      -4.211  -0.552  -1.399  1.00  0.00     0.065 A 
ENDBRANCH  17  19
ENDBRANCH  12  17
BRANCH   1  27
HETATM   27  O2  UNL     1       2.584   2.863  -0.027  1.00  0.00    -0.230 OA
BRANCH  27  28
HETATM   28  O1  UNL     1       3.182   3.344   1.023  1.00  0.00    -0.245 OA
HETATM   29  C1  UNL     1       2.990   4.730   1.006  1.00  0.00     0.247 C 
ENDBRANCH  27  28
ENDBRANCH   1  27
TORSDOF 4
