REMARK  3 active torsions:
REMARK  status: ('A' for Active; 'I' for Inactive)
REMARK    1  A    between atoms: C10_12  and  N1_13 
REMARK    2  A    between atoms: N1_13  and  C11_14 
REMARK    3  A    between atoms: C11_14  and  C12_15 
ROOT
HETATM    1  O1  UNL     1       2.566  -2.249  -1.771  1.00  0.00    -0.297 OA
HETATM    2  C1  UNL     1       2.868  -1.440  -0.873  1.00  0.00     0.143 C 
HETATM    3  C2  UNL     1       4.272  -0.952  -1.306  1.00  0.00     0.079 C 
HETATM    4  C3  UNL     1       4.545  -0.099  -0.157  1.00  0.00     0.007 C 
HETATM    5  C4  UNL     1       5.597   0.800   0.199  1.00  0.00     0.002 C 
HETATM    6  C5  UNL     1       5.146   1.195   1.636  1.00  0.00     0.027 C 
HETATM    7  C6  UNL     1       3.654   1.470   1.742  1.00  0.00     0.175 C 
HETATM    8  O2  UNL     1       2.856   0.347   1.605  1.00  0.00    -0.354 OA
HETATM    9  C7  UNL     1       1.741   0.031   0.877  1.00  0.00     0.064 A 
HETATM   10  C8  UNL     1       0.592   0.653   0.658  1.00  0.00     0.050 A 
HETATM   11  C9  UNL     1      -0.184  -0.220  -0.216  1.00  0.00     0.038 A 
HETATM   12  C10 UNL     1      -1.450  -0.002  -0.719  1.00  0.00     0.137 A 
HETATM   13  N2  UNL     1      -2.018  -0.923  -1.516  1.00  0.00    -0.224 NA
HETATM   14  C18 UNL     1      -1.344  -2.042  -1.811  1.00  0.00     0.235 A 
HETATM   15  N3  UNL     1      -0.107  -2.266  -1.326  1.00  0.00    -0.244 NA
HETATM   16  C19 UNL     1       0.510  -1.369  -0.518  1.00  0.00     0.067 A 
HETATM   17  C20 UNL     1       1.827  -1.276   0.184  1.00  0.00     0.165 A 
ENDROOT
BRANCH  12  18
HETATM   18  N1  UNL     1      -2.223   1.161  -0.452  1.00  0.00    -0.370 N 
HETATM   19  H12 UNL     1      -1.728   1.856   0.180  1.00  0.00     0.161 HD
BRANCH  18  20
HETATM   20  C11 UNL     1      -3.543   1.501  -0.911  1.00  0.00     0.160 C 
BRANCH  20  21
HETATM   21  C12 UNL     1      -4.605   0.574  -0.490  1.00  0.00    -0.040 A 
HETATM   22  C13 UNL     1      -5.126   0.905   0.752  1.00  0.00     0.012 A 
HETATM   23  C14 UNL     1      -6.146   0.193   1.376  1.00  0.00     0.043 A 
HETATM   24  C15 UNL     1      -6.675  -0.911   0.722  1.00  0.00     0.116 A 
HETATM   25  F1  UNL     1      -7.661  -1.626   1.290  1.00  0.00    -0.206 F 
HETATM   26  C16 UNL     1      -6.151  -1.230  -0.509  1.00  0.00     0.043 A 
HETATM   27  C17 UNL     1      -5.142  -0.512  -1.107  1.00  0.00     0.012 A 
ENDBRANCH  20  21
ENDBRANCH  18  20
ENDBRANCH  12  18
TORSDOF 3
