REMARK  8 active torsions:
REMARK  status: ('A' for Active; 'I' for Inactive)
REMARK    1  A    between atoms: O1_2  and  C2_3 
REMARK    2  A    between atoms: C6_9  and  C7_10 
REMARK    3  A    between atoms: C6_9  and  N4_12 
REMARK    4  A    between atoms: C7_10  and  N3_11 
REMARK    5  A    between atoms: N4_12  and  C8_13 
REMARK    6  A    between atoms: C16_21  and  C17_22 
REMARK    7  A    between atoms: C17_22  and  C18_23 
REMARK    8  A    between atoms: C18_23  and  C19_24 
ROOT
HETATM    1  C2  UNL     1       3.947  -3.265   1.287  1.00  0.00     0.149 C 
HETATM    2  C3  UNL     1       2.580  -3.164   1.847  1.00  0.00     0.081 C 
HETATM    3  C4  UNL     1       1.479  -3.741   1.051  1.00  0.00     0.094 C 
HETATM    4  N1  UNL     1       0.462  -3.172   0.606  1.00  0.00    -0.247 NA
HETATM    5  C5  UNL     1      -0.175  -1.968   0.562  1.00  0.00     0.294 C 
HETATM    6  N2  UNL     1      -0.200  -0.792   0.396  1.00  0.00    -0.407 NA
HETATM    7  C6  UNL     1      -0.597   0.539   0.283  1.00  0.00     0.193 C 
HETATM    8  C16 UNL     1       0.452   1.328  -0.477  1.00  0.00     0.050 C 
HETATM    9  C20 UNL     1       1.820   0.685  -0.404  1.00  0.00     0.012 C 
HETATM   10  C21 UNL     1       2.395   0.471   0.936  1.00  0.00     0.027 C 
HETATM   11  C22 UNL     1       3.553  -0.543   0.756  1.00  0.00     0.167 C 
HETATM   12  O4  UNL     1       4.065  -0.986   1.937  1.00  0.00    -0.389 OA
HETATM   13  C23 UNL     1       4.850  -2.095   1.851  1.00  0.00     0.199 C 
ENDROOT
BRANCH   7  14
HETATM   14  C7  UNL     1      -1.106   1.179   1.515  1.00  0.00     0.335 C 
BRANCH  14  15
HETATM   15  N3  UNL     1      -0.256   1.247   2.672  1.00  0.00     0.083 N 
HETATM   16  H11 UNL     1       0.605   1.841   2.437  1.00  0.00     0.312 HD
HETATM   17  H12 UNL     1      -0.742   1.896   3.379  1.00  0.00     0.312 HD
ENDBRANCH  14  15
ENDBRANCH   7  14
BRANCH   7  18
HETATM   18  N4  UNL     1      -1.750   0.485  -0.680  1.00  0.00    -0.374 N 
HETATM   19  H13 UNL     1      -1.427   0.577  -1.642  1.00  0.00     0.157 HD
BRANCH  18  20
HETATM   20  C8  UNL     1      -2.853  -0.306  -0.396  1.00  0.00     0.126 C 
HETATM   21  C9  UNL     1      -3.362  -0.944  -1.737  1.00  0.00     0.002 C 
HETATM   22  C10 UNL     1      -4.158  -0.765  -2.730  1.00  0.00    -0.002 C 
HETATM   23  C11 UNL     1      -5.074   0.414  -2.946  1.00  0.00     0.000 C 
HETATM   24  C12 UNL     1      -5.439   1.159  -1.875  1.00  0.00     0.006 C 
HETATM   25  C13 UNL     1      -5.207   1.178  -0.362  1.00  0.00    -0.064 C 
HETATM   26  C14 UNL     1      -6.231   1.888   0.390  1.00  0.00     0.048 C 
HETATM   27  C15 UNL     1      -4.110   0.511  -0.136  1.00  0.00     0.008 C 
ENDBRANCH  18  20
ENDBRANCH   7  18
BRANCH   8  28
HETATM   28  C17 UNL     1       0.472   2.756  -0.606  1.00  0.00     0.013 C 
BRANCH  28  29
HETATM   29  C18 UNL     1      -0.746   3.427  -1.266  1.00  0.00     0.049 C 
BRANCH  29  30
HETATM   30  C19 UNL     1      -0.378   4.882  -1.579  1.00  0.00     0.170 A 
HETATM   31  O2  UNL     1       0.451   4.398  -2.379  1.00  0.00    -0.222 OA
HETATM   32  O3  UNL     1       0.431   5.707  -2.337  1.00  0.00     0.000 OA
HETATM   33  H28 UNL     1       0.103   6.686  -2.549  1.00  0.00     0.000 HD
ENDBRANCH  29  30
ENDBRANCH  28  29
ENDBRANCH   8  28
BRANCH   1  34
HETATM   34  O1  UNL     1       4.673  -4.378   1.302  1.00  0.00    -0.388 OA
HETATM   35  C1  UNL     1       5.535  -4.757   0.350  1.00  0.00     0.202 C 
ENDBRANCH   1  34
TORSDOF 8
