REMARK  11 active torsions:
REMARK  status: ('A' for Active; 'I' for Inactive)
REMARK    1  A    between atoms: C7_7  and  N1_8 
REMARK    2  A    between atoms: N1_8  and  C9_10 
REMARK    3  A    between atoms: C13_16  and  O1_17 
REMARK    4  A    between atoms: C15_20  and  C16_21 
REMARK    5  A    between atoms: C16_21  and  C17_22 
REMARK    6  A    between atoms: C17_22  and  C18_23 
REMARK    7  A    between atoms: C18_23  and  C19_24 
REMARK    8  A    between atoms: C19_24  and  C20_25 
REMARK    9  A    between atoms: C20_25  and  C21_26 
REMARK   10  A    between atoms: C21_26  and  O4_28 
REMARK   11  A    between atoms: C22_29  and  N4_30 
ROOT
HETATM    1  C9  UNL     1      -2.040  -0.064  -1.065  1.00  0.00     0.262 C 
HETATM    2  N2  UNL     1      -2.153  -1.368  -1.751  1.00  0.00    -0.251 NA
HETATM    3  C10 UNL     1      -2.175  -2.488  -1.159  1.00  0.00     0.229 C 
HETATM    4  N3  UNL     1      -2.285  -3.752  -1.816  1.00  0.00    -0.254 NA
HETATM    5  C11 UNL     1      -1.174  -4.371  -2.019  1.00  0.00     0.120 C 
HETATM    6  C12 UNL     1       0.212  -4.789  -2.091  1.00  0.00     0.053 C 
HETATM    7  C13 UNL     1       1.222  -4.115  -1.645  1.00  0.00     0.068 C 
HETATM    8  C14 UNL     1       1.504  -2.851  -0.973  1.00  0.00     0.239 C 
HETATM    9  O2  UNL     1       0.448  -2.034  -0.663  1.00  0.00    -0.347 OA
HETATM   10  C15 UNL     1       0.340  -0.822  -0.085  1.00  0.00     0.072 C 
HETATM   11  C22 UNL     1      -0.766  -0.104  -0.348  1.00  0.00     0.077 C 
ENDROOT
BRANCH   1  12
HETATM   12  N1  UNL     1      -3.202   0.156  -0.228  1.00  0.00    -0.357 N 
HETATM   13  C8  UNL     1      -3.615  -0.761   0.817  1.00  0.00     0.152 C 
BRANCH  12  14
HETATM   14  C7  UNL     1      -3.959   1.337  -0.474  1.00  0.00     0.037 A 
HETATM   15  C2  UNL     1      -4.064   2.179   0.612  1.00  0.00    -0.035 A 
HETATM   16  C1  UNL     1      -3.537   2.078   1.991  1.00  0.00     0.050 C 
HETATM   17  C3  UNL     1      -4.792   3.365   0.451  1.00  0.00     0.009 A 
HETATM   18  C4  UNL     1      -5.393   3.693  -0.758  1.00  0.00     0.001 A 
HETATM   19  C5  UNL     1      -5.277   2.839  -1.832  1.00  0.00     0.002 A 
HETATM   20  C6  UNL     1      -4.559   1.673  -1.669  1.00  0.00     0.030 A 
ENDBRANCH  12  14
ENDBRANCH   1  12
BRANCH  11  21
HETATM   21  N4  UNL     1      -0.862   1.203   0.257  1.00  0.00    -0.397 N 
HETATM   22  H29 UNL     1      -0.788   1.810   1.094  1.00  0.00     0.156 HD
HETATM   23  H30 UNL     1      -0.903   2.094   0.788  1.00  0.00     0.156 HD
ENDBRANCH  11  21
BRANCH  10  24
HETATM   24  C16 UNL     1       1.336  -0.216   0.815  1.00  0.00     0.067 C 
BRANCH  24  25
HETATM   25  C17 UNL     1       2.686   0.018   0.226  1.00  0.00     0.007 C 
BRANCH  25  26
HETATM   26  C18 UNL     1       3.596   0.655   1.292  1.00  0.00     0.001 C 
BRANCH  26  27
HETATM   27  C19 UNL     1       4.982   0.893   0.679  1.00  0.00     0.010 C 
BRANCH  27  28
HETATM   28  C20 UNL     1       5.821   1.522   1.792  1.00  0.00     0.110 C 
BRANCH  28  29
HETATM   29  C21 UNL     1       7.205   1.800   1.306  1.00  0.00     0.139 C 
HETATM   30  O3  UNL     1       8.044   2.313   2.066  1.00  0.00    -0.650 OA
BRANCH  29  31
HETATM   31  O4  UNL     1       7.897   1.627   0.104  1.00  0.00    -0.776 OA
HETATM   32  H28 UNL     1       8.169   2.432  -0.461  1.00  0.00     0.167 HD
ENDBRANCH  29  31
ENDBRANCH  28  29
ENDBRANCH  27  28
ENDBRANCH  26  27
ENDBRANCH  25  26
ENDBRANCH  24  25
ENDBRANCH  10  24
BRANCH   7  33
HETATM   33  O1  UNL     1       2.456  -4.767  -1.852  1.00  0.00    -0.363 OA
HETATM   34  H15 UNL     1       2.919  -5.224  -1.077  1.00  0.00     0.217 HD
ENDBRANCH   7  33
TORSDOF 11
