REMARK  6 active torsions:
REMARK  status: ('A' for Active; 'I' for Inactive)
REMARK    1  A    between atoms: O1_1  and  O2_2 
REMARK    2  A    between atoms: O2_2  and  N1_3 
REMARK    3  A    between atoms: N1_3  and  O3_4 
REMARK    4  A    between atoms: O3_4  and  C1_5 
REMARK    5  A    between atoms: C6_12  and  N4_13 
REMARK    6  A    between atoms: N4_13  and  C7_14 
ROOT
HETATM    1  C1  UNL     1       2.866   2.116   1.725  1.00  0.00     0.107 A 
HETATM    2  C2  UNL     1       1.572   2.026   2.143  1.00  0.00     0.153 A 
HETATM    3  C3  UNL     1       0.506   1.192   1.435  1.00  0.00     0.053 A 
HETATM    4  C4  UNL     1      -0.425   1.684   2.489  1.00  0.00     0.013 A 
HETATM    5  N2  UNL     1       0.432   1.330   1.654  1.00  0.00     0.000 N 
HETATM    6  C5  UNL     1       1.704   1.444   1.286  1.00  0.00     0.101 A 
HETATM    7  N3  UNL     1       0.681   0.885   0.941  1.00  0.00    -0.278 N 
HETATM    8  C6  UNL     1      -0.075   0.238   0.367  1.00  0.00     0.175 A 
ENDROOT
BRANCH   8   9
HETATM    9  N4  UNL     1       0.101  -0.496  -0.775  1.00  0.00    -0.380 N 
HETATM   10  H5  UNL     1       0.866  -0.744  -1.424  1.00  0.00     0.157 HD
BRANCH   9  11
HETATM   11  C7  UNL     1      -1.262  -0.833  -0.739  1.00  0.00     0.127 C 
HETATM   12  C8  UNL     1      -1.652  -1.860   0.211  1.00  0.00     0.002 C 
HETATM   13  C9  UNL     1      -2.846  -2.447   0.371  1.00  0.00     0.001 C 
HETATM   14  C10 UNL     1      -4.041  -2.148  -0.427  1.00  0.00     0.044 C 
HETATM   15  C11 UNL     1      -4.166  -1.639  -1.668  1.00  0.00     0.137 C 
HETATM   16  F1  UNL     1      -5.371  -1.437  -2.223  1.00  0.00    -0.204 F 
HETATM   17  C12 UNL     1      -2.968  -1.301  -2.443  1.00  0.00     0.071 C 
HETATM   18 CL1  UNL     1      -3.217  -1.307  -4.189  1.00  0.00    -0.081 Cl
HETATM   19  C13 UNL     1      -1.735  -0.962  -2.137  1.00  0.00     0.028 C 
ENDBRANCH   9  11
ENDBRANCH   8   9
BRANCH   1  20
HETATM   20  O3  UNL     1       4.116   2.190   1.304  1.00  0.00    -0.248 OA
BRANCH  20  21
HETATM   21  N1  UNL     1       4.888   1.765   0.377  1.00  0.00    -0.140 N 
HETATM   22  H2  UNL     1       5.272   2.376  -0.338  1.00  0.00     0.226 HD
BRANCH  21  23
HETATM   23  O2  UNL     1       4.581   0.574  -0.145  1.00  0.00    -0.094 OA
BRANCH  23  24
HETATM   24  O1  UNL     1       5.247   0.370  -1.263  1.00  0.00    -0.225 OA
HETATM   25  H1  UNL     1       5.743  -0.481  -1.177  1.00  0.00     0.256 HD
ENDBRANCH  23  24
ENDBRANCH  21  23
ENDBRANCH  20  21
ENDBRANCH   1  20
TORSDOF 6
