REMARK  2 active torsions:
REMARK  status: ('A' for Active; 'I' for Inactive)
REMARK    1  A    between atoms: C2_2  and  C3_3 
REMARK    2  A    between atoms: C13_18  and  O3_19 
ROOT
HETATM    1  C3  UNL     1       1.560   0.581   1.631  1.00  0.00     0.091 C 
HETATM    2  B1  UNL     1       1.917   1.203   0.210  1.00  0.00     0.494 B 
HETATM    3  O1  UNL     1       0.899   1.095  -0.829  1.00  0.00    -0.503 OA
HETATM    4  B2  UNL     1       0.372   2.362  -1.290  1.00  0.00     0.292 B 
HETATM    5  C4  UNL     1      -0.936   2.937  -0.665  1.00  0.00    -0.022 C 
HETATM    6  C5  UNL     1      -2.200   2.200  -1.070  1.00  0.00    -0.008 C 
HETATM    7  C6  UNL     1      -2.039   0.729  -0.697  1.00  0.00    -0.001 C 
HETATM    8  C7  UNL     1      -3.221  -0.120  -0.933  1.00  0.00     0.000 C 
HETATM    9  C8  UNL     1      -2.999  -1.583  -0.727  1.00  0.00     0.001 C 
HETATM   10  C9  UNL     1      -2.401  -2.049   0.539  1.00  0.00     0.017 C 
HETATM   11  C10 UNL     1      -0.933  -1.850   0.709  1.00  0.00     0.118 C 
HETATM   12  N1  UNL     1      -0.430  -2.271   2.015  1.00  0.00    -0.200 NA
HETATM   13  O2  UNL     1       0.918  -1.998   2.099  1.00  0.00    -0.269 OA
HETATM   14  C11 UNL     1       1.461  -0.888   1.442  1.00  0.00     0.074 C 
HETATM   15  C12 UNL     1       2.071  -1.280   0.304  1.00  0.00     0.065 C 
HETATM   16  C13 UNL     1       3.000  -0.601  -0.637  1.00  0.00     0.269 C 
HETATM   17  O4  UNL     1       3.248   0.716  -0.258  1.00  0.00    -0.398 OA
HETATM   18  H5  UNL     1       0.674   2.736  -2.376  1.00  0.00     0.006 HD
HETATM   19  H20 UNL     1      -0.481  -3.327   2.017  1.00  0.00     0.154 HD
ENDROOT
BRANCH   1  20
HETATM   20  C2  UNL     1       0.398   1.199   2.280  1.00  0.00    -0.030 C 
HETATM   21  C1  UNL     1       0.664   2.411   2.778  1.00  0.00     0.007 C 
ENDBRANCH   1  20
BRANCH  16  22
HETATM   22  O3  UNL     1       4.206  -1.282  -0.658  1.00  0.00    -0.364 OA
HETATM   23  C14 UNL     1       4.481  -1.705  -1.967  1.00  0.00     0.205 C 
ENDBRANCH  16  22
TORSDOF 2
