REMARK  5 active torsions:
REMARK  status: ('A' for Active; 'I' for Inactive)
REMARK    1  A    between atoms: C2_2  and  O1_3 
REMARK    2  A    between atoms: O1_3  and  N1_4 
REMARK    3  A    between atoms: C9_16  and  N6_17 
REMARK    4  A    between atoms: N6_17  and  C10_18 
REMARK    5  A    between atoms: C10_18  and  C11_19 
ROOT
HETATM    1  N1  UNL     1      -2.239  -1.273   0.319  1.00  0.00    -0.191 NA
HETATM    2  C3  UNL     1      -2.463   0.122   0.015  1.00  0.00     0.151 C 
HETATM    3  C4  UNL     1      -3.583   0.320  -0.960  1.00  0.00     0.286 C 
HETATM    4  N2  UNL     1      -3.952   1.671  -1.186  1.00  0.00     0.088 N 
HETATM    5  C5  UNL     1      -2.917   2.431  -1.794  1.00  0.00     0.301 C 
HETATM    6  P1  UNL     1      -1.805   3.246  -0.586  1.00  0.00    -0.082 P 
HETATM    7  C6  UNL     1      -0.007   2.906  -0.807  1.00  0.00     0.148 C 
HETATM    8  N3  UNL     1       0.613   3.243   0.472  1.00  0.00    -0.399 N 
HETATM    9  C7  UNL     1       0.109   2.712   1.680  1.00  0.00     0.196 A 
HETATM   10  C8  UNL     1      -0.112   1.706   2.507  1.00  0.00     0.145 A 
HETATM   11  N4  UNL     1       0.553   1.129   1.407  1.00  0.00    -0.172 NA
HETATM   12  N5  UNL     1       0.611  -0.153   1.231  1.00  0.00    -0.178 NA
HETATM   13  C9  UNL     1       1.334  -0.522   0.051  1.00  0.00     0.149 C 
HETATM   14  C14 UNL     1       0.750  -1.204  -0.951  1.00  0.00     0.025 A 
HETATM   15  C15 UNL     1       0.539  -1.901  -2.213  1.00  0.00    -0.039 A 
HETATM   16  C16 UNL     1       1.170  -2.308  -3.534  1.00  0.00     0.050 C 
HETATM   17  C17 UNL     1      -0.435  -1.801  -1.254  1.00  0.00    -0.021 A 
HETATM   18  C18 UNL     1      -1.788  -2.076  -0.768  1.00  0.00     0.160 C 
HETATM   19  H10 UNL     1      -4.364   2.121  -0.345  1.00  0.00     0.316 HD
HETATM   20  H13 UNL     1      -2.230   3.032   0.797  1.00  0.00     0.060 HD
HETATM   21  H16 UNL     1       1.458   3.889   0.471  1.00  0.00     0.155 HD
ENDROOT
BRANCH  13  22
HETATM   22  N6  UNL     1       2.665  -0.050   0.204  1.00  0.00    -0.370 N 
HETATM   23  H19 UNL     1       2.889   0.950   0.402  1.00  0.00     0.161 HD
BRANCH  22  24
HETATM   24  C10 UNL     1       3.614  -1.161   0.043  1.00  0.00     0.150 C 
BRANCH  24  25
HETATM   25  C11 UNL     1       4.970  -0.591   0.230  1.00  0.00     0.011 C 
HETATM   26  C12 UNL     1       5.688   0.497   0.485  1.00  0.00     0.005 C 
HETATM   27  C13 UNL     1       7.190   0.607   0.590  1.00  0.00     0.061 C 
HETATM   28 CL1  UNL     1       5.102   2.139   0.777  1.00  0.00    -0.090 Cl
ENDBRANCH  24  25
ENDBRANCH  22  24
ENDBRANCH  13  22
BRANCH   1  29
HETATM   29  O1  UNL     1      -3.319  -1.746   0.932  1.00  0.00    -0.304 OA
BRANCH  29  30
HETATM   30  C2  UNL     1      -3.071  -2.515   2.043  1.00  0.00     0.189 C 
HETATM   31  C1  UNL     1      -4.432  -2.859   2.639  1.00  0.00     0.035 C 
ENDBRANCH  29  30
ENDBRANCH   1  29
TORSDOF 5
