REMARK  4 active torsions:
REMARK  status: ('A' for Active; 'I' for Inactive)
REMARK    1  A    between atoms: C3_3  and  O1_4 
REMARK    2  A    between atoms: C5_6  and  N1_7 
REMARK    3  A    between atoms: N1_7  and  C6_8 
REMARK    4  A    between atoms: C7_10  and  C8_11 
ROOT
HETATM    1  C8  UNL     1       0.817  -0.429   0.149  1.00  0.00     0.033 C 
HETATM    2  C9  UNL     1      -0.308   0.115  -0.349  1.00  0.00     0.064 C 
HETATM    3  C10 UNL     1      -0.482   1.573  -0.501  1.00  0.00     0.210 C 
HETATM    4  N2  UNL     1      -1.565   2.174   0.233  1.00  0.00    -0.297 N 
HETATM    5  O2  UNL     1      -2.772   1.821  -0.105  1.00  0.00    -0.285 OA
HETATM    6  C11 UNL     1      -3.771   1.921   0.815  1.00  0.00     0.201 C 
HETATM    7  C12 UNL     1      -4.584   0.621   0.888  1.00  0.00     0.029 C 
HETATM    8  C13 UNL     1      -5.163   0.223  -0.442  1.00  0.00     0.004 C 
HETATM    9  C14 UNL     1      -5.831  -1.092  -0.485  1.00  0.00     0.026 C 
HETATM   10  C15 UNL     1      -5.172  -2.289   0.084  1.00  0.00     0.167 C 
HETATM   11  O3  UNL     1      -4.042  -2.850  -0.177  1.00  0.00    -0.389 OA
HETATM   12  C16 UNL     1      -2.768  -2.516  -0.063  1.00  0.00     0.199 C 
HETATM   13  C17 UNL     1      -2.114  -1.470  -0.880  1.00  0.00     0.148 C 
HETATM   14  C18 UNL     1      -2.097  -1.890  -2.371  1.00  0.00     0.042 C 
HETATM   15  O4  UNL     1      -0.774  -1.196  -0.470  1.00  0.00    -0.347 OA
HETATM   16  H10 UNL     1      -1.373   2.375   1.222  1.00  0.00     0.188 HD
ENDROOT
BRANCH   1  17
HETATM   17  C7  UNL     1       2.082   0.153   0.644  1.00  0.00     0.158 A 
HETATM   18  C6  UNL     1       3.240   0.611   1.100  1.00  0.00     0.087 A 
HETATM   19 CL1  UNL     1       3.442  -1.115   1.277  1.00  0.00    -0.153 Cl
BRANCH  18  20
HETATM   20  N1  UNL     1       4.144   1.647   1.420  1.00  0.00    -0.347 N 
HETATM   21  H5  UNL     1       3.835   2.541   1.816  1.00  0.00     0.167 HD
BRANCH  20  22
HETATM   22  C5  UNL     1       5.424   1.157   1.079  1.00  0.00     0.075 A 
HETATM   23  C4  UNL     1       6.204   0.007   1.578  1.00  0.00     0.070 A 
HETATM   24  C3  UNL     1       7.378  -0.040   0.933  1.00  0.00     0.080 A 
HETATM   25  C2  UNL     1       7.437   1.058  -0.012  1.00  0.00     0.029 A 
HETATM   26  C1  UNL     1       8.436   1.336  -0.825  1.00  0.00     0.029 C 
HETATM   27  C19 UNL     1       6.182   1.752   0.144  1.00  0.00     0.155 A 
HETATM   28  F1  UNL     1       5.886   2.864  -0.605  1.00  0.00    -0.203 F 
BRANCH  24  29
HETATM   29  O1  UNL     1       8.327  -1.021   1.193  1.00  0.00    -0.360 OA
HETATM   30  H3  UNL     1       9.112  -1.173   0.574  1.00  0.00     0.217 HD
ENDBRANCH  24  29
ENDBRANCH  20  22
ENDBRANCH  18  20
ENDBRANCH   1  17
TORSDOF 4
