REMARK  8 active torsions:
REMARK  status: ('A' for Active; 'I' for Inactive)
REMARK    1  A    between atoms: C2_2  and  C3_3 
REMARK    2  A    between atoms: C3_3  and  N1_4 
REMARK    3  A    between atoms: C8_11  and  N4_12 
REMARK    4  A    between atoms: N4_12  and  C9_13 
REMARK    5  A    between atoms: C12_16  and  O1_17 
REMARK    6  A    between atoms: O1_17  and  C13_18 
REMARK    7  A    between atoms: C13_18  and  C14_19 
REMARK    8  A    between atoms: C14_19  and  C15_20 
ROOT
HETATM    1  N4  UNL     1      -1.065  -0.843  -0.227  1.00  0.00    -0.351 N 
HETATM    2  H15 UNL     1      -0.965  -1.823  -0.617  1.00  0.00     0.163 HD
ENDROOT
BRANCH   1   3
HETATM    3  C8  UNL     1      -2.217  -0.107   0.169  1.00  0.00     0.310 C 
HETATM    4  N1  UNL     1      -3.477  -0.683  -0.017  1.00  0.00    -0.374 N 
HETATM    5  C4  UNL     1      -3.625  -1.954  -0.589  1.00  0.00     0.140 C 
HETATM    6  C5  UNL     1      -3.684  -2.973   0.555  1.00  0.00     0.138 C 
HETATM    7  N2  UNL     1      -2.556  -2.887   1.426  1.00  0.00    -0.395 N 
HETATM    8  C6  UNL     1      -2.011  -2.002   2.398  1.00  0.00     0.117 C 
HETATM    9  H12 UNL     1      -1.924  -3.727   1.337  1.00  0.00     0.159 HD
HETATM   10  C7  UNL     1      -2.132  -0.709   2.627  1.00  0.00     0.100 C 
HETATM   11  N3  UNL     1      -2.067   0.090   1.634  1.00  0.00    -0.241 NA
BRANCH   4  12
HETATM   12  C3  UNL     1      -4.613   0.090   0.273  1.00  0.00     0.120 C 
BRANCH  12  13
HETATM   13  C2  UNL     1      -5.399   0.601  -0.907  1.00  0.00     0.015 C 
HETATM   14  C1  UNL     1      -4.538   1.490  -1.788  1.00  0.00     0.006 C 
ENDBRANCH  12  13
ENDBRANCH   4  12
ENDBRANCH   1   3
BRANCH   1  15
HETATM   15  C9  UNL     1       0.200  -0.186  -0.088  1.00  0.00     0.032 A 
HETATM   16  C10 UNL     1       1.400  -0.761  -0.446  1.00  0.00     0.032 A 
HETATM   17  C11 UNL     1       2.618  -0.137  -0.324  1.00  0.00     0.041 A 
HETATM   18  C12 UNL     1       2.675   1.136   0.182  1.00  0.00     0.090 A 
HETATM   19  C17 UNL     1       1.506   1.800   0.572  1.00  0.00     0.069 A 
HETATM   20 CL1  UNL     1       1.559   3.415   1.216  1.00  0.00    -0.081 Cl
HETATM   21  C18 UNL     1       0.336   1.090   0.410  1.00  0.00     0.056 A 
BRANCH  18  22
HETATM   22  O1  UNL     1       3.892   1.832   0.331  1.00  0.00    -0.349 OA
BRANCH  22  23
HETATM   23  C13 UNL     1       5.047   1.133  -0.073  1.00  0.00     0.179 C 
BRANCH  23  24
HETATM   24  C14 UNL     1       6.322   1.928   0.101  1.00  0.00     0.056 C 
BRANCH  24  25
HETATM   25  C15 UNL     1       7.506   1.157  -0.350  1.00  0.00     0.005 C 
HETATM   26  C16 UNL     1       8.538   0.822   0.342  1.00  0.00     0.184 C 
HETATM   27  F1  UNL     1       8.384   1.303   1.620  1.00  0.00    -0.220 F 
ENDBRANCH  24  25
ENDBRANCH  23  24
ENDBRANCH  22  23
ENDBRANCH  18  22
ENDBRANCH   1  15
TORSDOF 8
