REMARK  6 active torsions:
REMARK  status: ('A' for Active; 'I' for Inactive)
REMARK    1  A    between atoms: C2_2  and  C3_4 
REMARK    2  A    between atoms: C5_6  and  N1_8 
REMARK    3  A    between atoms: N1_8  and  C6_9 
REMARK    4  A    between atoms: C6_9  and  C7_10 
REMARK    5  A    between atoms: C7_10  and  N2_11 
REMARK    6  A    between atoms: C16_24  and  C17_25 
ROOT
HETATM    1  C3  UNL     1       1.482   0.381  -2.242  1.00  0.00     0.192 A 
HETATM    2  C4  UNL     1       1.354  -0.615  -1.320  1.00  0.00     0.115 A 
HETATM    3  C5  UNL     1       0.804   0.459  -0.650  1.00  0.00     0.225 A 
HETATM    4  O1  UNL     1       0.287   1.282   0.076  1.00  0.00    -0.273 OA
HETATM    5  N4  UNL     1       1.649  -1.987  -1.457  1.00  0.00    -0.361 N 
HETATM    6  C13 UNL     1       2.837  -2.459  -2.173  1.00  0.00     0.109 C 
HETATM    7  C14 UNL     1       2.248  -3.372  -2.976  1.00  0.00     0.158 C 
HETATM    8  N5  UNL     1       0.812  -3.297  -2.630  1.00  0.00    -0.159 NA
HETATM    9  N6  UNL     1       0.275  -2.201  -3.180  1.00  0.00    -0.133 NA
HETATM   10  C15 UNL     1       1.372  -1.529  -3.914  1.00  0.00     0.143 C 
HETATM   11  C16 UNL     1       1.851  -2.045  -5.087  1.00  0.00     0.025 C 
HETATM   12  N7  UNL     1       2.027  -0.399  -3.285  1.00  0.00    -0.347 N 
HETATM   13  H19 UNL     1       0.879  -2.397  -0.939  1.00  0.00     0.165 HD
HETATM   14  H28 UNL     1       2.958  -0.044  -3.497  1.00  0.00     0.163 HD
ENDROOT
BRANCH   3  15
HETATM   15  N1  UNL     1       0.338  -0.286   0.617  1.00  0.00    -0.359 N 
HETATM   16  H3  UNL     1       0.403  -1.321   0.981  1.00  0.00     0.162 HD
BRANCH  15  17
HETATM   17  C6  UNL     1      -0.360   0.608   1.578  1.00  0.00     0.142 C 
BRANCH  17  18
HETATM   18  C7  UNL     1      -0.897  -0.268   2.708  1.00  0.00     0.136 C 
BRANCH  18  19
HETATM   19  N2  UNL     1      -1.598   0.479   3.673  1.00  0.00    -0.408 N 
HETATM   20  C8  UNL     1      -2.145  -0.286   4.686  1.00  0.00     0.147 C 
HETATM   21  C9  UNL     1      -3.180   0.379   5.586  1.00  0.00     0.291 C 
HETATM   22  N3  UNL     1      -3.059   1.796   5.568  1.00  0.00     0.087 N 
HETATM   23  C10 UNL     1      -4.181   2.418   6.264  1.00  0.00     0.310 C 
HETATM   24  C11 UNL     1      -3.022   2.371   4.271  1.00  0.00     0.291 C 
HETATM   25  C12 UNL     1      -1.794   1.856   3.516  1.00  0.00     0.147 C 
ENDBRANCH  18  19
ENDBRANCH  17  18
ENDBRANCH  15  17
ENDBRANCH   3  15
BRANCH   1  26
HETATM   26  C2  UNL     1       1.323   1.807  -2.663  1.00  0.00     0.034 C 
HETATM   27  C1  UNL     1       1.582   2.269  -3.958  1.00  0.00     0.055 C 
HETATM   28 CL1  UNL     1       1.005   3.216  -1.609  1.00  0.00    -0.090 Cl
ENDBRANCH   1  26
BRANCH  11  29
HETATM   29  C17 UNL     1       2.920  -1.359  -5.777  1.00  0.00     0.026 C 
HETATM   30  C18 UNL     1       2.557  -1.044  -7.216  1.00  0.00     0.009 C 
ENDBRANCH  11  29
TORSDOF 6
