REMARK  5 active torsions:
REMARK  status: ('A' for Active; 'I' for Inactive)
REMARK    1  A    between atoms: C3_3  and  C4_4 
REMARK    2  A    between atoms: C3_3  and  N1_16 
REMARK    3  A    between atoms: C5_5  and  C6_7 
REMARK    4  A    between atoms: C6_7  and  C7_8 
REMARK    5  A    between atoms: C7_8  and  C8_9 
ROOT
HETATM    1  C4  UNL     1      -0.563  -1.212  -1.495  1.00  0.00     0.051 C 
HETATM    2  C5  UNL     1       0.212  -1.268  -0.407  1.00  0.00     0.014 C 
HETATM    3 CL1  UNL     1      -0.351  -0.312   0.946  1.00  0.00    -0.089 Cl
ENDROOT
BRANCH   2   4
HETATM    4  C6  UNL     1       1.434  -2.097  -0.374  1.00  0.00     0.056 C 
BRANCH   4   5
HETATM    5  C7  UNL     1       2.680  -1.310  -0.183  1.00  0.00     0.044 C 
BRANCH   5   6
HETATM    6  C8  UNL     1       2.750  -0.509   1.057  1.00  0.00    -0.055 A 
HETATM    7  C9  UNL     1       3.222  -1.095   2.231  1.00  0.00     0.007 A 
HETATM    8  C10 UNL     1       3.307  -0.353   3.402  1.00  0.00     0.003 A 
HETATM    9  C11 UNL     1       2.921   0.971   3.395  1.00  0.00     0.042 A 
HETATM   10  C12 UNL     1       2.444   1.606   2.260  1.00  0.00     0.116 A 
HETATM   11  F1  UNL     1       2.058   2.906   2.226  1.00  0.00    -0.206 F 
HETATM   12  C13 UNL     1       2.375   0.834   1.119  1.00  0.00     0.049 A 
ENDBRANCH   5   6
ENDBRANCH   4   5
ENDBRANCH   2   4
BRANCH   1  13
HETATM   13  C3  UNL     1      -1.771  -0.446  -1.600  1.00  0.00     0.056 C 
HETATM   14  C2  UNL     1      -2.500  -0.439  -2.729  1.00  0.00     0.001 C 
HETATM   15  C1  UNL     1      -2.317  -1.122  -4.035  1.00  0.00     0.038 C 
BRANCH  13  16
HETATM   16  N1  UNL     1      -2.299   0.355  -0.556  1.00  0.00    -0.228 N 
HETATM   17  C14 UNL     1      -1.876   1.735  -0.566  1.00  0.00     0.118 A 
HETATM   18  C15 UNL     1      -2.364   2.512   0.410  1.00  0.00     0.016 A 
HETATM   19  C16 UNL     1      -3.286   2.018   1.456  1.00  0.00     0.204 A 
HETATM   20  N2  UNL     1      -3.618   0.621   1.335  1.00  0.00    -0.171 NA
HETATM   21  N3  UNL     1      -3.182  -0.140   0.437  1.00  0.00    -0.066 NA
ENDBRANCH  13  16
ENDBRANCH   1  13
TORSDOF 5
