REMARK  6 active torsions:
REMARK  status: ('A' for Active; 'I' for Inactive)
REMARK    1  A    between atoms: C2_2  and  O1_3 
REMARK    2  A    between atoms: O1_3  and  C3_4 
REMARK    3  A    between atoms: C3_4  and  C4_6 
REMARK    4  A    between atoms: N3_15  and  C11_16 
REMARK    5  A    between atoms: C14_19  and  O3_20 
REMARK    6  A    between atoms: O3_20  and  C15_21 
ROOT
HETATM    1  C4  UNL     1      -3.007   0.985   0.650  1.00  0.00     0.044 A 
HETATM    2  C5  UNL     1      -1.893   1.680   0.863  1.00  0.00     0.023 A 
HETATM    3  C6  UNL     1      -1.441   2.194  -0.447  1.00  0.00     0.168 A 
HETATM    4  C7  UNL     1      -2.479   1.676  -1.380  1.00  0.00    -0.004 A 
HETATM    5  C8  UNL     1      -3.383   0.979  -0.757  1.00  0.00    -0.036 A 
HETATM    6  C9  UNL     1      -4.533   0.343  -1.443  1.00  0.00     0.050 C 
HETATM    7  C10 UNL     1      -2.252   2.072  -2.787  1.00  0.00     0.150 C 
HETATM    8  N1  UNL     1      -1.026   2.252  -3.216  1.00  0.00    -0.171 NA
HETATM    9  N2  UNL     1       0.002   2.042  -2.261  1.00  0.00    -0.217 N 
HETATM   10  N3  UNL     1      -0.186   1.660  -0.905  1.00  0.00    -0.264 N 
HETATM   11  H12 UNL     1       0.920   2.219  -2.760  1.00  0.00     0.210 HD
ENDROOT
BRANCH  10  12
HETATM   12  C11 UNL     1       0.857   0.889  -0.342  1.00  0.00     0.055 A 
HETATM   13  C12 UNL     1       2.115   0.967  -0.878  1.00  0.00     0.034 A 
HETATM   14  C13 UNL     1       3.148   0.219  -0.360  1.00  0.00     0.041 A 
HETATM   15  C14 UNL     1       2.968  -0.632   0.708  1.00  0.00     0.098 A 
HETATM   16  C21 UNL     1       1.711  -0.734   1.272  1.00  0.00     0.070 A 
HETATM   17 CL1  UNL     1       1.441  -1.810   2.636  1.00  0.00    -0.081 Cl
HETATM   18  C22 UNL     1       0.716   0.029   0.722  1.00  0.00     0.058 A 
BRANCH  15  19
HETATM   19  O3  UNL     1       4.008  -1.403   1.251  1.00  0.00    -0.309 OA
BRANCH  19  20
HETATM   20  C15 UNL     1       5.284  -1.327   0.711  1.00  0.00     0.079 A 
HETATM   21  C16 UNL     1       6.280  -0.450   1.098  1.00  0.00     0.037 A 
HETATM   22  C17 UNL     1       7.512  -0.445   0.508  1.00  0.00     0.006 A 
HETATM   23  C18 UNL     1       7.750  -1.349  -0.503  1.00  0.00     0.042 A 
HETATM   24  C19 UNL     1       6.764  -2.240  -0.910  1.00  0.00     0.119 A 
HETATM   25  F1  UNL     1       7.079  -3.093  -1.909  1.00  0.00    -0.206 F 
HETATM   26  C20 UNL     1       5.516  -2.249  -0.315  1.00  0.00     0.079 A 
ENDBRANCH  19  20
ENDBRANCH  15  19
ENDBRANCH  10  12
BRANCH   1  27
HETATM   27  C3  UNL     1      -3.755   0.318   1.711  1.00  0.00     0.293 C 
HETATM   28  O2  UNL     1      -3.418   0.340   2.902  1.00  0.00    -0.259 OA
BRANCH  27  29
HETATM   29  O1  UNL     1      -4.913  -0.396   1.438  1.00  0.00    -0.318 OA
BRANCH  29  30
HETATM   30  C2  UNL     1      -5.704  -1.069   2.372  1.00  0.00     0.174 C 
HETATM   31  C1  UNL     1      -6.868  -1.707   1.620  1.00  0.00     0.034 C 
ENDBRANCH  29  30
ENDBRANCH  27  29
ENDBRANCH   1  27
TORSDOF 6
