REMARK  8 active torsions:
REMARK  status: ('A' for Active; 'I' for Inactive)
REMARK    1  A    between atoms: C2_2  and  C3_3 
REMARK    2  A    between atoms: C2_2  and  C4_5 
REMARK    3  A    between atoms: C3_3  and  N1_4 
REMARK    4  A    between atoms: C5_6  and  N2_7 
REMARK    5  A    between atoms: N2_7  and  C6_8 
REMARK    6  A    between atoms: C9_11  and  O1_12 
REMARK    7  A    between atoms: O1_12  and  C10_13 
REMARK    8  A    between atoms: C10_13  and  C11_14 
ROOT
HETATM    1  C6  UNL     1       1.867  -0.729  -0.556  1.00  0.00     0.033 A 
HETATM    2  C7  UNL     1       1.154   0.261  -1.175  1.00  0.00     0.032 A 
HETATM    3  C8  UNL     1      -0.211   0.447  -0.944  1.00  0.00     0.041 A 
HETATM    4  C9  UNL     1      -0.884  -0.380  -0.069  1.00  0.00     0.091 A 
HETATM    5  C17 UNL     1      -0.179  -1.378   0.558  1.00  0.00     0.069 A 
HETATM    6 CL1  UNL     1      -0.933  -2.484   1.687  1.00  0.00    -0.081 Cl
HETATM    7  C18 UNL     1       1.173  -1.561   0.329  1.00  0.00     0.056 A 
ENDROOT
BRANCH   1   8
HETATM    8  N2  UNL     1       3.260  -0.922  -0.789  1.00  0.00    -0.366 N 
HETATM    9  H7  UNL     1       3.732  -0.285  -1.449  1.00  0.00     0.165 HD
BRANCH   8  10
HETATM   10  C5  UNL     1       3.932  -1.976  -0.105  1.00  0.00     0.089 C 
HETATM   11  C4  UNL     1       4.995  -1.654   0.611  1.00  0.00     0.034 C 
BRANCH  11  12
HETATM   12  C2  UNL     1       5.456  -0.252   0.688  1.00  0.00     0.003 C 
HETATM   13  C1  UNL     1       4.741   1.052   0.926  1.00  0.00     0.059 C 
BRANCH  12  14
HETATM   14  C3  UNL     1       6.757  -0.076   0.516  1.00  0.00    -0.018 C 
BRANCH  14  15
HETATM   15  N1  UNL     1       7.989   0.032   0.180  1.00  0.00    -0.258 NA
HETATM   16  H4  UNL     1       8.149   0.174  -0.862  1.00  0.00     0.197 HD
ENDBRANCH  14  15
ENDBRANCH  12  14
ENDBRANCH  11  12
ENDBRANCH   8  10
ENDBRANCH   1   8
BRANCH   4  17
HETATM   17  O1  UNL     1      -2.242  -0.278   0.228  1.00  0.00    -0.345 OA
BRANCH  17  18
HETATM   18  C10 UNL     1      -2.971   0.731  -0.402  1.00  0.00     0.214 C 
BRANCH  18  19
HETATM   19  C11 UNL     1      -4.404   0.769  -0.030  1.00  0.00    -0.031 A 
HETATM   20  C12 UNL     1      -5.283   0.016  -0.797  1.00  0.00     0.009 A 
HETATM   21  C13 UNL     1      -6.620  -0.002  -0.517  1.00  0.00     0.004 A 
HETATM   22  C14 UNL     1      -7.105   0.748   0.555  1.00  0.00     0.042 A 
HETATM   23  C15 UNL     1      -6.243   1.507   1.335  1.00  0.00     0.117 A 
HETATM   24  F1  UNL     1      -6.704   2.237   2.376  1.00  0.00    -0.206 F 
HETATM   25  C16 UNL     1      -4.879   1.514   1.034  1.00  0.00     0.051 A 
ENDBRANCH  18  19
ENDBRANCH  17  18
ENDBRANCH   4  17
TORSDOF 8
