REMARK  6 active torsions:
REMARK  status: ('A' for Active; 'I' for Inactive)
REMARK    1  A    between atoms: N1_2  and  C2_3 
REMARK    2  A    between atoms: C5_6  and  O1_7 
REMARK    3  A    between atoms: C8_10  and  C9_11 
REMARK    4  A    between atoms: C11_13  and  N2_14 
REMARK    5  A    between atoms: N2_14  and  C12_15 
REMARK    6  A    between atoms: C19_25  and  N5_26 
ROOT
HETATM    1  C9  UNL     1      -0.267  -0.262  -0.170  1.00  0.00     0.028 C 
HETATM    2  C10 UNL     1       0.470  -1.219   0.340  1.00  0.00     0.042 A 
HETATM    3  C11 UNL     1       1.879  -1.243  -0.085  1.00  0.00     0.139 A 
HETATM    4  N3  UNL     1       2.747  -2.079   0.337  1.00  0.00    -0.224 NA
HETATM    5  C18 UNL     1       2.412  -3.082   1.278  1.00  0.00     0.232 A 
HETATM    6  N4  UNL     1       1.219  -3.119   1.683  1.00  0.00    -0.243 NA
HETATM    7  C19 UNL     1       0.120  -2.272   1.319  1.00  0.00     0.377 A 
ENDROOT
BRANCH   1   8
HETATM    8  C8  UNL     1      -1.641   0.226  -0.117  1.00  0.00    -0.006 A 
HETATM    9  C2  UNL     1      -2.718  -0.591  -0.351  1.00  0.00     0.038 A 
HETATM   10  C3  UNL     1      -4.022  -0.140  -0.237  1.00  0.00     0.033 A 
HETATM   11  C4  UNL     1      -4.249   1.168   0.119  1.00  0.00     0.039 A 
HETATM   12  C5  UNL     1      -3.215   2.040   0.366  1.00  0.00     0.069 A 
HETATM   13  C7  UNL     1      -1.900   1.570   0.248  1.00  0.00     0.050 A 
BRANCH   9  14
HETATM   14  N1  UNL     1      -2.565  -1.932  -0.782  1.00  0.00    -0.394 N 
HETATM   15  C1  UNL     1      -3.710  -2.799  -1.013  1.00  0.00     0.146 C 
HETATM   16  H4  UNL     1      -1.667  -2.425  -0.992  1.00  0.00     0.159 HD
ENDBRANCH   9  14
BRANCH  12  17
HETATM   17  O1  UNL     1      -3.200   3.378   0.729  1.00  0.00    -0.356 OA
HETATM   18  C6  UNL     1      -4.361   4.161   0.927  1.00  0.00     0.210 C 
ENDBRANCH  12  17
ENDBRANCH   1   8
BRANCH   3  19
HETATM   19  N2  UNL     1       2.403  -0.293  -1.022  1.00  0.00    -0.340 N 
HETATM   20  H12 UNL     1       1.790   0.005  -1.820  1.00  0.00     0.167 HD
BRANCH  19  21
HETATM   21  C12 UNL     1       3.704   0.312  -1.001  1.00  0.00     0.035 A 
HETATM   22  C13 UNL     1       3.715   1.369  -0.082  1.00  0.00     0.029 A 
HETATM   23  C14 UNL     1       4.825   2.159   0.155  1.00  0.00     0.004 A 
HETATM   24  C15 UNL     1       5.963   1.875  -0.558  1.00  0.00     0.024 A 
HETATM   25  C16 UNL     1       5.957   0.830  -1.469  1.00  0.00     0.036 A 
HETATM   26 CL1  UNL     1       7.379   0.428  -2.407  1.00  0.00    -0.084 Cl
HETATM   27  C17 UNL     1       4.846   0.057  -1.690  1.00  0.00     0.053 A 
ENDBRANCH  19  21
ENDBRANCH   3  19
BRANCH   7  28
HETATM   28  N5  UNL     1      -0.336  -1.649   2.585  1.00  0.00     0.107 N 
HETATM   29  H19 UNL     1       0.534  -1.334   3.083  1.00  0.00     0.316 HD
HETATM   30  H20 UNL     1      -0.673  -2.479   3.152  1.00  0.00     0.316 HD
ENDBRANCH   7  28
TORSDOF 6
