REMARK  8 active torsions:
REMARK  status: ('A' for Active; 'I' for Inactive)
REMARK    1  A    between atoms: C2_2  and  N1_3 
REMARK    2  A    between atoms: N1_3  and  C3_4 
REMARK    3  A    between atoms: N1_3  and  C5_6 
REMARK    4  A    between atoms: C5_6  and  C6_7 
REMARK    5  A    between atoms: C6_7  and  N2_8 
REMARK       I    between atoms: N2_8  and  C7_9 
REMARK    6  A    between atoms: C7_9  and  C8_11 
REMARK    7  A    between atoms: C8_11  and  C9_12 
REMARK    8  A    between atoms: C9_12  and  P1_13 
ROOT
HETATM    1  P1  UNL     1       1.949   0.670   1.236  1.00  0.00     0.021 P 
HETATM    2  C10 UNL     1       2.494  -0.566   0.295  1.00  0.00     0.036 C 
HETATM    3 CL1  UNL     1       2.248  -2.112   1.093  1.00  0.00    -0.086 Cl
HETATM    4  C11 UNL     1       3.160  -0.731  -1.065  1.00  0.00     0.092 C 
HETATM    5  C12 UNL     1       4.549  -1.171  -0.785  1.00  0.00    -0.044 A 
HETATM    6  C13 UNL     1       4.605  -2.511  -0.501  1.00  0.00     0.011 A 
HETATM    7  C14 UNL     1       5.760  -3.238  -0.187  1.00  0.00     0.043 A 
HETATM    8  C15 UNL     1       6.963  -2.530  -0.161  1.00  0.00     0.117 A 
HETATM    9  F1  UNL     1       8.117  -3.169   0.136  1.00  0.00    -0.206 F 
HETATM   10  C16 UNL     1       6.885  -1.186  -0.451  1.00  0.00     0.052 A 
HETATM   11  C17 UNL     1       5.733  -0.456  -0.766  1.00  0.00    -0.025 A 
HETATM   12  C18 UNL     1       6.054   0.950  -1.055  1.00  0.00     0.207 C 
HETATM   13  O2  UNL     1       5.003   1.798  -0.926  1.00  0.00    -0.383 OA
HETATM   14  C19 UNL     1       4.501   1.916   0.349  1.00  0.00     0.195 C 
HETATM   15  C20 UNL     1       3.277   2.806   0.299  1.00  0.00     0.001 C 
HETATM   16  C21 UNL     1       2.080   2.375   0.668  1.00  0.00     0.022 C 
ENDROOT
BRANCH   1  17
HETATM   17  C9  UNL     1       0.405   0.373   1.664  1.00  0.00    -0.110 C 
BRANCH  17  18
HETATM   18  C8  UNL     1      -0.754   0.181   2.289  1.00  0.00     0.130 C 
BRANCH  18  19
HETATM   19  C7  UNL     1      -1.827   0.451   1.396  1.00  0.00     0.248 C 
HETATM   20  N2  UNL     1      -1.976   0.124   0.040  1.00  0.00    -0.355 N 
HETATM   21  H15 UNL     1      -1.161  -0.401  -0.354  1.00  0.00     0.162 HD
HETATM   22  O1  UNL     1      -2.711   1.081   2.034  1.00  0.00    -0.268 OA
BRANCH  20  23
HETATM   23  C6  UNL     1      -3.120   0.460  -0.771  1.00  0.00     0.153 C 
BRANCH  23  24
HETATM   24  C5  UNL     1      -4.340  -0.193  -0.157  1.00  0.00     0.292 C 
BRANCH  24  25
HETATM   25  N1  UNL     1      -5.538   0.088  -0.900  1.00  0.00     0.089 N 
BRANCH  25  26
HETATM   26  C2  UNL     1      -5.933   1.453  -0.818  1.00  0.00     0.268 C 
HETATM   27  C1  UNL     1      -6.185   1.969   0.563  1.00  0.00     0.037 C 
ENDBRANCH  25  26
BRANCH  25  28
HETATM   28  C3  UNL     1      -6.559  -0.855  -0.531  1.00  0.00     0.268 C 
HETATM   29  C4  UNL     1      -6.060  -2.261  -0.660  1.00  0.00     0.037 C 
ENDBRANCH  25  28
ENDBRANCH  24  25
ENDBRANCH  23  24
ENDBRANCH  20  23
ENDBRANCH  18  19
ENDBRANCH  17  18
ENDBRANCH   1  17
TORSDOF 8
