REMARK  5 active torsions:
REMARK  status: ('A' for Active; 'I' for Inactive)
REMARK    1  A    between atoms: C1_2  and  N1_3 
REMARK    2  A    between atoms: N1_3  and  C2_4 
REMARK    3  A    between atoms: C5_9  and  N4_10 
REMARK    4  A    between atoms: N4_10  and  C6_11 
REMARK    5  A    between atoms: C10_16  and  C11_17 
ROOT
HETATM    1  C6  UNL     1      -0.660  -0.914   0.390  1.00  0.00     0.035 C 
HETATM    2  C7  UNL     1      -0.331  -1.294   1.634  1.00  0.00     0.031 C 
HETATM    3  C8  UNL     1       0.906  -1.668   2.327  1.00  0.00     0.026 C 
HETATM    4  C9  UNL     1       2.125  -1.989   1.918  1.00  0.00     0.136 C 
HETATM    5  O1  UNL     1       2.671  -2.086   0.645  1.00  0.00    -0.347 OA
HETATM    6  C10 UNL     1       2.688  -1.374  -0.535  1.00  0.00     0.205 C 
HETATM    7  C17 UNL     1       1.426  -0.918  -1.100  1.00  0.00     0.047 C 
HETATM    8 CL1  UNL     1       1.669  -0.447  -2.796  1.00  0.00    -0.086 Cl
HETATM    9  C18 UNL     1       0.136  -0.721  -0.806  1.00  0.00     0.052 C 
ENDROOT
BRANCH   1  10
HETATM   10  N4  UNL     1      -2.036  -0.640   0.156  1.00  0.00    -0.338 N 
HETATM   11  H6  UNL     1      -2.395  -1.619   0.110  1.00  0.00     0.167 HD
BRANCH  10  12
HETATM   12  C5  UNL     1      -2.735   0.581   0.023  1.00  0.00     0.177 A 
HETATM   13  C2  UNL     1      -4.094   0.640  -0.205  1.00  0.00     0.079 A 
HETATM   14  C3  UNL     1      -4.651   1.896  -0.315  1.00  0.00     0.054 A 
HETATM   15  C4  UNL     1      -3.859   3.042  -0.198  1.00  0.00     0.143 A 
HETATM   16  N2  UNL     1      -2.521   2.912   0.027  1.00  0.00    -0.161 NA
HETATM   17  N3  UNL     1      -1.977   1.691   0.135  1.00  0.00    -0.130 NA
BRANCH  13  18
HETATM   18  N1  UNL     1      -4.861  -0.534  -0.317  1.00  0.00    -0.361 N 
HETATM   19  H3  UNL     1      -4.399  -1.464  -0.227  1.00  0.00     0.162 HD
BRANCH  18  20
HETATM   20  C1  UNL     1      -6.286  -0.409  -0.557  1.00  0.00     0.345 C 
HETATM   21  F1  UNL     1      -6.912   0.295   0.466  1.00  0.00    -0.234 F 
ENDBRANCH  18  20
ENDBRANCH  13  18
ENDBRANCH  10  12
ENDBRANCH   1  10
BRANCH   6  22
HETATM   22  C11 UNL     1       3.720  -0.287  -0.407  1.00  0.00    -0.021 A 
HETATM   23  C12 UNL     1       4.904  -0.766   0.155  1.00  0.00     0.010 A 
HETATM   24  C13 UNL     1       5.980   0.078   0.358  1.00  0.00     0.004 A 
HETATM   25  C14 UNL     1       5.844   1.407  -0.012  1.00  0.00     0.042 A 
HETATM   26  C15 UNL     1       4.667   1.882  -0.570  1.00  0.00     0.117 A 
HETATM   27  F2  UNL     1       4.485   3.177  -0.950  1.00  0.00    -0.206 F 
HETATM   28  C16 UNL     1       3.595   1.038  -0.772  1.00  0.00     0.052 A 
ENDBRANCH   6  22
TORSDOF 5
