REMARK  5 active torsions:
REMARK  status: ('A' for Active; 'I' for Inactive)
REMARK    1  A    between atoms: C2_2  and  C3_3 
REMARK    2  A    between atoms: C6_6  and  C7_7 
REMARK    3  A    between atoms: C7_7  and  N1_8 
REMARK    4  A    between atoms: N1_8  and  C8_9 
REMARK    5  A    between atoms: C19_23  and  N4_24 
ROOT
HETATM    1  N1  UNL     1       1.001   0.917   1.228  1.00  0.00    -0.353 N 
HETATM    2  H8  UNL     1       1.125  -0.097   1.138  1.00  0.00     0.158 HD
ENDROOT
BRANCH   1   3
HETATM    3  C7  UNL     1       0.073   1.442   0.299  1.00  0.00     0.146 C 
BRANCH   3   4
HETATM    4  C6  UNL     1      -1.022   0.471   0.094  1.00  0.00    -0.000 C 
HETATM    5  C5  UNL     1      -2.305   0.202   0.126  1.00  0.00    -0.056 C 
HETATM    6  C4  UNL     1      -2.714  -1.142  -0.252  1.00  0.00     0.016 C 
HETATM    7  C17 UNL     1      -3.250   1.285   0.482  1.00  0.00     0.067 C 
HETATM    8  C3  UNL     1      -3.973  -1.404  -0.525  1.00  0.00    -0.029 C 
HETATM    9  C19 UNL     1      -4.962  -0.357  -0.343  1.00  0.00     0.058 C 
HETATM   10  C18 UNL     1      -4.619   0.836   0.103  1.00  0.00     0.010 C 
BRANCH   8  11
HETATM   11  C2  UNL     1      -4.408  -2.735  -0.913  1.00  0.00     0.006 C 
HETATM   12  C1  UNL     1      -5.566  -3.268  -1.230  1.00  0.00     0.039 C 
ENDBRANCH   8  11
BRANCH   9  13
HETATM   13  N4  UNL     1      -6.362  -0.354  -0.593  1.00  0.00    -0.272 NA
HETATM   14  C20 UNL     1      -6.767   0.138  -1.706  1.00  0.00     0.149 C 
ENDBRANCH   9  13
ENDBRANCH   3   4
ENDBRANCH   1   3
BRANCH   1  15
HETATM   15  C8  UNL     1       2.179   1.626   1.545  1.00  0.00     0.532 A 
HETATM   16  N2  UNL     1       2.241   3.018   1.600  1.00  0.00     0.428 N 
HETATM   17  C9  UNL     1       2.868   2.241   0.498  1.00  0.00     0.467 A 
HETATM   18  O1  UNL     1       3.508   1.619  -0.613  1.00  0.00    -0.298 OA
HETATM   19  C10 UNL     1       4.462   0.586  -0.290  1.00  0.00     0.080 A 
HETATM   20  C11 UNL     1       4.876  -0.028  -1.435  1.00  0.00     0.037 A 
HETATM   21  C15 UNL     1       4.939   0.220   0.997  1.00  0.00     0.003 A 
HETATM   22  C12 UNL     1       5.800  -1.064  -1.395  1.00  0.00     0.003 A 
HETATM   23  C13 UNL     1       6.267  -1.425  -0.139  1.00  0.00     0.001 A 
HETATM   24  C14 UNL     1       5.872  -0.826   1.028  1.00  0.00     0.012 A 
HETATM   25  C16 UNL     1       4.447   0.964   2.181  1.00  0.00     0.317 C 
HETATM   26  N3  UNL     1       3.040   0.845   2.455  1.00  0.00     0.157 N 
HETATM   27  H15 UNL     1       2.707  -0.139   2.471  1.00  0.00     0.322 HD
ENDBRANCH   1  15
TORSDOF 5
