REMARK  7 active torsions:
REMARK  status: ('A' for Active; 'I' for Inactive)
REMARK    1  A    between atoms: C2_2  and  O1_3 
REMARK    2  A    between atoms: O1_3  and  C3_4 
REMARK       I    between atoms: C3_4  and  N1_6 
REMARK    3  A    between atoms: C9_12  and  O3_13 
REMARK    4  A    between atoms: O3_13  and  C10_14 
REMARK    5  A    between atoms: C10_14  and  C11_15 
REMARK    6  A    between atoms: C17_23  and  N3_24 
REMARK    7  A    between atoms: N3_24  and  C18_25 
ROOT
HETATM    1  C3  UNL     1       2.241  -0.345   1.199  1.00  0.00     0.363 C 
HETATM    2  O2  UNL     1       1.734   0.613   1.794  1.00  0.00    -0.238 OA
HETATM    3  N1  UNL     1       2.303  -0.888  -0.139  1.00  0.00    -0.315 N 
HETATM    4  C4  UNL     1       3.091  -2.136  -0.341  1.00  0.00     0.133 C 
HETATM    5  C5  UNL     1       2.198  -3.119  -1.174  1.00  0.00     0.062 C 
HETATM    6  C6  UNL     1       1.128  -2.102  -1.564  1.00  0.00    -0.013 C 
HETATM    7  C7  UNL     1       1.586  -1.098  -2.345  1.00  0.00     0.014 C 
HETATM    8  C8  UNL     1       1.585  -0.152  -1.158  1.00  0.00     0.163 C 
HETATM    9  C9  UNL     1       0.139   0.182  -0.850  1.00  0.00     0.273 C 
HETATM   10  N2  UNL     1      -0.725  -0.975  -1.285  1.00  0.00    -0.238 NA
HETATM   11  C17 UNL     1      -0.196  -2.131  -0.922  1.00  0.00     0.132 C 
ENDROOT
BRANCH   9  12
HETATM   12  O3  UNL     1      -0.289   1.330  -1.457  1.00  0.00    -0.358 OA
BRANCH  12  13
HETATM   13  C10 UNL     1      -0.727   2.304  -0.563  1.00  0.00     0.209 C 
BRANCH  13  14
HETATM   14  C11 UNL     1      -1.162   3.487  -1.349  1.00  0.00    -0.032 A 
HETATM   15  C12 UNL     1      -0.268   4.496  -1.666  1.00  0.00     0.009 A 
HETATM   16  C13 UNL     1      -0.679   5.592  -2.396  1.00  0.00     0.004 A 
HETATM   17  C14 UNL     1      -1.989   5.738  -2.843  1.00  0.00     0.042 A 
HETATM   18  C15 UNL     1      -2.854   4.714  -2.508  1.00  0.00     0.117 A 
HETATM   19  F1  UNL     1      -4.164   4.721  -2.876  1.00  0.00    -0.206 F 
HETATM   20  C16 UNL     1      -2.467   3.608  -1.779  1.00  0.00     0.051 A 
ENDBRANCH  13  14
ENDBRANCH  12  13
ENDBRANCH   9  12
BRANCH  11  21
HETATM   21  N3  UNL     1      -0.600  -3.280  -0.190  1.00  0.00    -0.341 N 
HETATM   22  H19 UNL     1      -0.060  -4.152  -0.367  1.00  0.00     0.167 HD
BRANCH  21  23
HETATM   23  C18 UNL     1      -1.703  -3.033   0.661  1.00  0.00     0.035 A 
HETATM   24  C19 UNL     1      -1.756  -2.617   1.963  1.00  0.00     0.029 A 
HETATM   25  C20 UNL     1      -2.968  -2.443   2.593  1.00  0.00     0.004 A 
HETATM   26  C21 UNL     1      -4.161  -2.690   1.909  1.00  0.00     0.024 A 
HETATM   27  C22 UNL     1      -4.141  -3.114   0.586  1.00  0.00     0.036 A 
HETATM   28 CL1  UNL     1      -5.660  -3.398  -0.191  1.00  0.00    -0.084 Cl
HETATM   29  C23 UNL     1      -2.895  -3.282  -0.029  1.00  0.00     0.053 A 
ENDBRANCH  21  23
ENDBRANCH  11  21
BRANCH   1  30
HETATM   30  O1  UNL     1       2.886  -0.963   2.236  1.00  0.00    -0.304 OA
BRANCH  30  31
HETATM   31  C2  UNL     1       2.873  -0.494   3.570  1.00  0.00     0.176 C 
HETATM   32  C1  UNL     1       3.472   0.894   3.590  1.00  0.00     0.034 C 
ENDBRANCH  30  31
ENDBRANCH   1  30
TORSDOF 7
