REMARK  3 active torsions:
REMARK  status: ('A' for Active; 'I' for Inactive)
REMARK    1  A    between atoms: C2_2  and  N1_3 
REMARK    2  A    between atoms: C6_7  and  O1_8 
REMARK    3  A    between atoms: O1_8  and  C7_9 
ROOT
HETATM    1  N1  UNL     1      -1.179   2.714   0.424  1.00  0.00    -0.408 N 
HETATM    2  C3  UNL     1       0.156   2.473   0.772  1.00  0.00     0.144 C 
HETATM    3  C4  UNL     1       1.186   2.859  -0.208  1.00  0.00    -0.009 C 
HETATM    4  C5  UNL     1       2.055   2.008  -0.699  1.00  0.00     0.008 C 
HETATM    5  C6  UNL     1       2.343   0.562  -0.526  1.00  0.00     0.192 C 
HETATM    6  C13 UNL     1       1.628  -0.218  -1.558  1.00  0.00     0.026 A 
HETATM    7 CL1  UNL     1       1.629   0.185  -3.257  1.00  0.00    -0.176 Cl
HETATM    8  C14 UNL     1       0.892  -1.242  -1.921  1.00  0.00     0.141 A 
HETATM    9  C15 UNL     1       0.104  -2.211  -2.709  1.00  0.00     0.299 C 
HETATM   10  N2  UNL     1      -1.235  -2.368  -2.271  1.00  0.00     0.131 N 
HETATM   11  C16 UNL     1      -1.368  -3.063  -0.975  1.00  0.00     0.469 C 
HETATM   12  N3  UNL     1      -1.619  -4.459  -1.380  1.00  0.00    -0.134 NA
HETATM   13  N4  UNL     1      -2.779  -4.926  -1.435  1.00  0.00    -0.162 NA
HETATM   14  C17 UNL     1      -3.992  -4.258  -1.128  1.00  0.00     0.170 C 
HETATM   15  C18 UNL     1      -3.929  -2.992  -0.714  1.00  0.00     0.054 C 
HETATM   16  C19 UNL     1      -4.691  -1.828  -0.289  1.00  0.00     0.057 C 
HETATM   17  C20 UNL     1      -3.868  -0.875   0.188  1.00  0.00     0.025 C 
HETATM   18  C21 UNL     1      -2.679  -1.627   0.633  1.00  0.00     0.183 C 
HETATM   19  N5  UNL     1      -2.583  -2.602  -0.423  1.00  0.00    -0.326 N 
HETATM   20  N6  UNL     1      -4.121   0.520   0.225  1.00  0.00    -0.390 N 
HETATM   21  C22 UNL     1      -3.194   1.503   0.695  1.00  0.00     0.139 C 
HETATM   22  C23 UNL     1      -1.971   1.700  -0.151  1.00  0.00     0.136 C 
HETATM   23  H18 UNL     1      -1.752  -2.842  -3.033  1.00  0.00     0.321 HD
HETATM   24  H24 UNL     1      -5.044   0.877  -0.110  1.00  0.00     0.159 HD
ENDROOT
BRANCH   5  25
HETATM   25  O1  UNL     1       3.724   0.289  -0.635  1.00  0.00    -0.337 OA
BRANCH  25  26
HETATM   26  C7  UNL     1       4.536  -0.260   0.309  1.00  0.00     0.073 A 
HETATM   27  C8  UNL     1       5.852  -0.398  -0.109  1.00  0.00     0.037 A 
HETATM   28  C9  UNL     1       6.834  -0.945   0.725  1.00  0.00     0.006 A 
HETATM   29  C10 UNL     1       6.508  -1.362   1.996  1.00  0.00     0.042 A 
HETATM   30  C11 UNL     1       5.205  -1.232   2.428  1.00  0.00     0.119 A 
HETATM   31  F1  UNL     1       4.769  -1.611   3.666  1.00  0.00    -0.206 F 
HETATM   32  C12 UNL     1       4.233  -0.686   1.590  1.00  0.00     0.079 A 
ENDBRANCH  25  26
ENDBRANCH   5  25
BRANCH   1  33
HETATM   33  C2  UNL     1      -1.648   4.044   0.368  1.00  0.00     0.112 C 
HETATM   34  C1  UNL     1      -1.665   4.603   1.796  1.00  0.00     0.026 C 
ENDBRANCH   1  33
TORSDOF 3
