REMARK  8 active torsions:
REMARK  status: ('A' for Active; 'I' for Inactive)
REMARK    1  A    between atoms: C1_2  and  C2_3 
REMARK    2  A    between atoms: C2_3  and  N1_4 
REMARK    3  A    between atoms: N1_4  and  C3_5 
REMARK    4  A    between atoms: C6_10  and  N4_11 
REMARK    5  A    between atoms: N4_11  and  C7_12 
REMARK    6  A    between atoms: C10_16  and  O2_17 
REMARK    7  A    between atoms: O2_17  and  C11_18 
REMARK    8  A    between atoms: C11_18  and  C12_19 
ROOT
HETATM    1  C7  UNL     1      -0.667   2.299  -0.356  1.00  0.00     0.134 A 
HETATM    2  C8  UNL     1       0.110   2.983   0.680  1.00  0.00     0.029 A 
HETATM    3  C9  UNL     1       1.309   2.394   0.819  1.00  0.00     0.065 A 
HETATM    4 CL1  UNL     1       2.380   3.085   2.023  1.00  0.00    -0.082 Cl
HETATM    5  C10 UNL     1       1.387   1.281  -0.125  1.00  0.00     0.089 A 
HETATM    6  C18 UNL     1       0.255   1.217  -0.806  1.00  0.00     0.040 A 
ENDROOT
BRANCH   1   7
HETATM    7  N4  UNL     1      -1.862   1.638   0.126  1.00  0.00    -0.360 N 
HETATM    8  H7  UNL     1      -2.016   1.731   1.135  1.00  0.00     0.162 HD
BRANCH   7   9
HETATM    9  C6  UNL     1      -2.721   0.927  -0.774  1.00  0.00     0.173 A 
HETATM   10  C3  UNL     1      -3.847   0.313  -0.276  1.00  0.00     0.077 A 
HETATM   11  C4  UNL     1      -4.582  -0.333  -1.248  1.00  0.00     0.054 A 
HETATM   12  C5  UNL     1      -4.241  -0.371  -2.584  1.00  0.00     0.143 A 
HETATM   13  N2  UNL     1      -3.120   0.259  -2.983  1.00  0.00    -0.161 NA
HETATM   14  N3  UNL     1      -2.391   0.889  -2.077  1.00  0.00    -0.130 NA
BRANCH  10  15
HETATM   15  N1  UNL     1      -4.238   0.323   1.070  1.00  0.00    -0.380 N 
HETATM   16  H4  UNL     1      -3.694   0.805   1.802  1.00  0.00     0.160 HD
BRANCH  15  17
HETATM   17  C2  UNL     1      -5.441  -0.353   1.512  1.00  0.00     0.189 C 
BRANCH  17  18
HETATM   18  C1  UNL     1      -5.386  -1.817   1.237  1.00  0.00     0.250 C 
HETATM   19  O1  UNL     1      -6.418  -2.384   1.619  1.00  0.00    -0.305 OA
ENDBRANCH  17  18
ENDBRANCH  15  17
ENDBRANCH  10  15
ENDBRANCH   7   9
ENDBRANCH   1   7
BRANCH   5  20
HETATM   20  O2  UNL     1       2.592   0.592  -0.071  1.00  0.00    -0.345 OA
BRANCH  20  21
HETATM   21  C11 UNL     1       2.739  -0.796  -0.115  1.00  0.00     0.214 C 
BRANCH  21  22
HETATM   22  C12 UNL     1       4.218  -1.067  -0.027  1.00  0.00    -0.031 A 
HETATM   23  C13 UNL     1       4.671  -1.216   1.278  1.00  0.00     0.009 A 
HETATM   24  C14 UNL     1       5.995  -1.470   1.577  1.00  0.00     0.004 A 
HETATM   25  C15 UNL     1       6.864  -1.572   0.487  1.00  0.00     0.042 A 
HETATM   26  C16 UNL     1       6.418  -1.426  -0.792  1.00  0.00     0.117 A 
HETATM   27  F1  UNL     1       7.253  -1.522  -1.867  1.00  0.00    -0.206 F 
HETATM   28  C17 UNL     1       5.093  -1.172  -1.081  1.00  0.00     0.051 A 
ENDBRANCH  21  22
ENDBRANCH  20  21
ENDBRANCH   5  20
TORSDOF 8
