REMARK  4 active torsions:
REMARK  status: ('A' for Active; 'I' for Inactive)
REMARK    1  A    between atoms: C5_6  and  C6_7 
REMARK    2  A    between atoms: C10_12  and  N1_13 
REMARK    3  A    between atoms: N1_13  and  C11_14 
REMARK    4  A    between atoms: C14_19  and  N4_20 
ROOT
HETATM    1  C6  UNL     1      -1.984  -0.674   0.775  1.00  0.00     0.205 C 
HETATM    2  O1  UNL     1      -1.586   0.434   1.499  1.00  0.00    -0.347 OA
HETATM    3  C7  UNL     1      -1.032   1.693   1.354  1.00  0.00     0.136 C 
HETATM    4  C8  UNL     1       0.039   2.139   0.682  1.00  0.00     0.026 C 
HETATM    5  C9  UNL     1       0.942   1.328  -0.121  1.00  0.00     0.031 C 
HETATM    6  C10 UNL     1       1.107   0.149  -0.672  1.00  0.00     0.035 C 
HETATM    7  C15 UNL     1       0.223  -1.041  -0.645  1.00  0.00     0.052 C 
HETATM    8  C16 UNL     1      -0.955  -1.301  -0.073  1.00  0.00     0.047 C 
HETATM    9 CL2  UNL     1      -1.243  -3.003  -0.503  1.00  0.00    -0.086 Cl
ENDROOT
BRANCH   6  10
HETATM   10  N1  UNL     1       2.328  -0.005  -1.377  1.00  0.00    -0.338 N 
HETATM   11  H8  UNL     1       2.691   0.172  -2.331  1.00  0.00     0.167 HD
BRANCH  10  12
HETATM   12  C11 UNL     1       3.302  -0.582  -0.491  1.00  0.00     0.178 A 
HETATM   13  N2  UNL     1       2.940  -1.693   0.196  1.00  0.00    -0.130 NA
HETATM   14  N3  UNL     1       3.839  -2.253   1.024  1.00  0.00    -0.161 NA
HETATM   15  C12 UNL     1       5.052  -1.692   1.132  1.00  0.00     0.143 A 
HETATM   16  C13 UNL     1       5.493  -0.565   0.466  1.00  0.00     0.055 A 
HETATM   17  C14 UNL     1       4.550   0.009  -0.391  1.00  0.00     0.092 A 
BRANCH  17  18
HETATM   18  N4  UNL     1       4.925   1.182  -1.086  1.00  0.00    -0.295 N 
HETATM   19 CL1  UNL     1       4.830   2.656  -0.133  1.00  0.00     0.011 Cl
HETATM   20  H11 UNL     1       5.225   1.111  -2.067  1.00  0.00     0.180 HD
ENDBRANCH  17  18
ENDBRANCH  10  12
ENDBRANCH   6  10
BRANCH   1  21
HETATM   21  C5  UNL     1      -3.269  -0.416   0.058  1.00  0.00    -0.021 A 
HETATM   22  C4  UNL     1      -3.875  -1.194  -0.889  1.00  0.00     0.010 A 
HETATM   23  C3  UNL     1      -5.052  -0.917  -1.534  1.00  0.00     0.004 A 
HETATM   24  C2  UNL     1      -5.708   0.241  -1.219  1.00  0.00     0.042 A 
HETATM   25  C1  UNL     1      -5.153   1.073  -0.271  1.00  0.00     0.117 A 
HETATM   26  F1  UNL     1      -5.825   2.214   0.012  1.00  0.00    -0.206 F 
HETATM   27  C17 UNL     1      -3.956   0.753   0.357  1.00  0.00     0.052 A 
ENDBRANCH   1  21
TORSDOF 4
