REMARK  7 active torsions:
REMARK  status: ('A' for Active; 'I' for Inactive)
REMARK    1  A    between atoms: C4_4  and  C5_5 
REMARK    2  A    between atoms: C5_5  and  N1_6 
REMARK    3  A    between atoms: N1_6  and  C6_7 
REMARK    4  A    between atoms: C7_9  and  C8_10 
REMARK    5  A    between atoms: C17_23  and  C18_24 
REMARK    6  A    between atoms: C18_24  and  C19_25 
REMARK    7  A    between atoms: C19_25  and  C20_26 
ROOT
HETATM    1  C1  UNL     1       0.236  -3.408  -0.908  1.00  0.00     0.044 C 
HETATM    2  C2  UNL     1       0.044  -2.466  -0.074  1.00  0.00    -0.045 C 
HETATM    3  C3  UNL     1      -0.855  -1.166   0.167  1.00  0.00     0.020 C 
HETATM    4  C4  UNL     1      -0.136  -0.004   0.573  1.00  0.00     0.006 C 
HETATM    5  C11 UNL     1       1.010  -0.296   1.574  1.00  0.00     0.135 C 
HETATM    6  N4  UNL     1       1.051  -1.099   2.683  1.00  0.00    -0.242 NA
HETATM    7  C12 UNL     1       1.178  -2.584   2.346  1.00  0.00     0.131 C 
HETATM    8  C13 UNL     1       1.211  -2.632   0.961  1.00  0.00    -0.011 C 
HETATM    9  C14 UNL     1       2.286  -2.662  -0.141  1.00  0.00     0.029 C 
HETATM   10  C15 UNL     1       3.327  -1.728  -0.265  1.00  0.00     0.015 C 
HETATM   11  C16 UNL     1       4.403  -2.140  -0.886  1.00  0.00     0.391 C 
HETATM   12  O1  UNL     1       5.369  -2.632  -1.487  1.00  0.00    -0.405 OA
HETATM   13  C17 UNL     1       3.246  -0.232   0.139  1.00  0.00     0.045 C 
HETATM   14  N5  UNL     1       2.029   0.437   0.760  1.00  0.00    -0.340 N 
HETATM   15  H23 UNL     1       1.639   1.316   0.718  1.00  0.00     0.167 HD
ENDROOT
BRANCH  13  16
HETATM   16  C18 UNL     1       4.100   0.596  -0.105  1.00  0.00     0.030 C 
BRANCH  16  17
HETATM   17  C19 UNL     1       5.340   1.043  -0.641  1.00  0.00    -0.002 C 
BRANCH  17  18
HETATM   18  C20 UNL     1       6.193   2.019  -0.848  1.00  0.00    -0.031 C 
HETATM   19  C21 UNL     1       5.834   3.387  -0.330  1.00  0.00     0.036 C 
ENDBRANCH  17  18
ENDBRANCH  16  17
ENDBRANCH  13  16
BRANCH   4  20
HETATM   20  C5  UNL     1      -0.065   1.384   0.256  1.00  0.00     0.164 C 
BRANCH  20  21
HETATM   21  N1  UNL     1      -1.210   1.371  -0.714  1.00  0.00    -0.363 N 
HETATM   22  H6  UNL     1      -1.324   1.502  -1.704  1.00  0.00     0.162 HD
BRANCH  21  23
HETATM   23  C6  UNL     1      -2.476   1.095  -0.018  1.00  0.00     0.186 A 
HETATM   24  N2  UNL     1      -3.563   0.950  -0.368  1.00  0.00    -0.207 NA
HETATM   25  C7  UNL     1      -4.611   0.721   0.390  1.00  0.00     0.141 A 
HETATM   26  N3  UNL     1      -4.449   0.636   1.763  1.00  0.00    -0.192 NA
HETATM   27  S1  UNL     1      -2.635   0.917   1.860  1.00  0.00     0.051 SA
BRANCH  25  28
HETATM   28  C8  UNL     1      -6.010   0.537  -0.080  1.00  0.00     0.050 C 
HETATM   29  C9  UNL     1      -6.860   1.700   0.436  1.00  0.00     0.018 C 
HETATM   30  C10 UNL     1      -6.621  -0.731   0.424  1.00  0.00     0.018 C 
ENDBRANCH  25  28
ENDBRANCH  21  23
ENDBRANCH  20  21
ENDBRANCH   4  20
TORSDOF 7
