REMARK  5 active torsions:
REMARK  status: ('A' for Active; 'I' for Inactive)
REMARK    1  A    between atoms: N1_2  and  C3_4 
REMARK    2  A    between atoms: C8_9  and  C9_10 
REMARK    3  A    between atoms: C9_10  and  S1_12 
REMARK    4  A    between atoms: S1_12  and  N2_14 
REMARK    5  A    between atoms: N2_14  and  C10_15 
ROOT
HETATM    1  C10 UNL     1       5.390  -1.001  -0.738  1.00  0.00     0.226 C 
HETATM    2  C11 UNL     1       6.508  -0.699   0.160  1.00  0.00     0.074 C 
HETATM    3  N3  UNL     1       7.391  -0.477   0.877  1.00  0.00    -0.196 NA
ENDROOT
BRANCH   1   4
HETATM    4  N2  UNL     1       4.236  -1.378   0.091  1.00  0.00    -0.223 NA
HETATM    5  H10 UNL     1       3.426  -1.608  -0.525  1.00  0.00     0.138 HD
BRANCH   4   6
HETATM    6  S1  UNL     1       3.932   0.036   1.098  1.00  0.00     0.168 S 
HETATM    7  O2  UNL     1       3.962  -0.291   2.567  1.00  0.00    -0.233 OA
BRANCH   6   8
HETATM    8  C9  UNL     1       2.416   0.784   0.579  1.00  0.00     0.264 C 
HETATM    9  O1  UNL     1       3.046   1.822   0.289  1.00  0.00    -0.276 OA
BRANCH   8  10
HETATM   10  C8  UNL     1       1.122   0.131   0.621  1.00  0.00     0.036 A 
HETATM   11  C7  UNL     1      -0.011   0.763   0.206  1.00  0.00    -0.009 A 
HETATM   12  C6  UNL     1      -0.005   2.054  -0.263  1.00  0.00     0.013 A 
HETATM   13  C15 UNL     1      -1.220   0.134   0.251  1.00  0.00     0.002 A 
HETATM   14  C5  UNL     1      -1.177   2.647  -0.657  1.00  0.00     0.003 A 
HETATM   15  C4  UNL     1      -2.356   1.947  -0.583  1.00  0.00     0.030 A 
HETATM   16  C3  UNL     1      -2.440   0.647  -0.123  1.00  0.00     0.040 A 
HETATM   17  C14 UNL     1      -1.225  -1.156   0.735  1.00  0.00     0.014 A 
HETATM   18  C13 UNL     1      -0.082  -1.797   1.155  1.00  0.00     0.002 A 
HETATM   19  C12 UNL     1       1.143  -1.154   1.106  1.00  0.00     0.017 A 
BRANCH  16  20
HETATM   20  N1  UNL     1      -3.712   0.019  -0.152  1.00  0.00    -0.389 N 
HETATM   21  C1  UNL     1      -4.864   0.928   0.020  1.00  0.00     0.149 C 
HETATM   22  C2  UNL     1      -4.176  -1.339  -0.361  1.00  0.00     0.149 C 
ENDBRANCH  16  20
ENDBRANCH   8  10
ENDBRANCH   6   8
ENDBRANCH   4   6
ENDBRANCH   1   4
TORSDOF 5
