REMARK  3 active torsions:
REMARK  status: ('A' for Active; 'I' for Inactive)
REMARK    1  A    between atoms: C1_2  and  C2_3 
REMARK    2  A    between atoms: C2_3  and  C3_4 
REMARK    3  A    between atoms: C3_4  and  C4_5 
ROOT
HETATM    1  C4  UNL     1      -3.342  -0.724   0.134  1.00  0.00     0.123 A 
HETATM    2  N1  UNL     1      -2.682   0.256   0.628  1.00  0.00    -0.237 NA
HETATM    3  C5  UNL     1      -1.322   0.137   0.238  1.00  0.00     0.167 A 
HETATM    4  C6  UNL     1      -0.988   1.339  -0.614  1.00  0.00     0.056 C 
HETATM    5  C7  UNL     1      -0.444   2.360  -1.320  1.00  0.00     0.006 C 
HETATM    6  C8  UNL     1       0.956   2.829  -1.567  1.00  0.00     0.015 C 
HETATM    7  C9  UNL     1       2.313   2.998  -1.601  1.00  0.00     0.096 A 
HETATM    8  C10 UNL     1       3.520   2.342  -1.053  1.00  0.00    -0.005 A 
HETATM    9 BR1  UNL     1       4.042   3.871  -2.102  1.00  0.00    -0.121 Br
HETATM   10  C11 UNL     1       4.367   1.544  -0.430  1.00  0.00     0.047 C 
HETATM   11  C12 UNL     1       4.311   0.368   0.397  1.00  0.00     0.071 A 
HETATM   12  N2  UNL     1       5.502  -0.210   0.560  1.00  0.00    -0.241 NA
HETATM   13  C13 UNL     1       5.756  -1.323   1.250  1.00  0.00     0.234 A 
HETATM   14  N3  UNL     1       4.767  -1.985   1.871  1.00  0.00    -0.241 NA
HETATM   15  C14 UNL     1       3.517  -1.446   1.745  1.00  0.00     0.070 A 
HETATM   16  C15 UNL     1       2.521  -2.154   2.377  1.00  0.00     0.035 A 
HETATM   17  C16 UNL     1       1.191  -1.722   2.314  1.00  0.00     0.031 A 
HETATM   18  C17 UNL     1       0.850  -0.562   1.606  1.00  0.00     0.031 A 
HETATM   19  C18 UNL     1       1.978  -0.027   1.069  1.00  0.00     0.045 A 
HETATM   20  C19 UNL     1       3.303  -0.297   1.025  1.00  0.00     0.024 A 
HETATM   21  N4  UNL     1      -0.432   0.020   1.393  1.00  0.00    -0.357 N 
HETATM   22  C20 UNL     1      -1.291  -1.097  -0.582  1.00  0.00     0.147 A 
HETATM   23  N5  UNL     1      -2.505  -1.588  -0.628  1.00  0.00    -0.245 NA
HETATM   24  H15 UNL     1      -0.475   0.311   2.394  1.00  0.00     0.162 HD
ENDROOT
BRANCH   1  25
HETATM   25  C3  UNL     1      -4.802  -0.933   0.331  1.00  0.00     0.087 C 
BRANCH  25  26
HETATM   26  C2  UNL     1      -5.521  -0.931  -1.012  1.00  0.00     0.077 C 
BRANCH  26  27
HETATM   27  C1  UNL     1      -6.987  -1.140  -0.835  1.00  0.00     0.231 C 
HETATM   28  O1  UNL     1      -7.584  -1.296   0.227  1.00  0.00    -0.307 OA
ENDBRANCH  26  27
ENDBRANCH  25  26
ENDBRANCH   1  25
TORSDOF 3
