REMARK  8 active torsions:
REMARK  status: ('A' for Active; 'I' for Inactive)
REMARK    1  A    between atoms: C2_2  and  C3_4 
REMARK    2  A    between atoms: C3_4  and  C4_5 
REMARK    3  A    between atoms: C4_5  and  C5_6 
REMARK    4  A    between atoms: C5_6  and  C6_7 
REMARK    5  A    between atoms: C6_7  and  C7_8 
REMARK    6  A    between atoms: C7_8  and  N1_9 
REMARK    7  A    between atoms: N1_9  and  C8_10 
REMARK    8  A    between atoms: C13_17  and  N4_18 
ROOT
HETATM    1  C8  UNL     1      -0.982   0.343  -1.192  1.00  0.00     0.141 A 
HETATM    2  N2  UNL     1      -0.469   1.445  -1.771  1.00  0.00    -0.224 NA
HETATM    3  C9  UNL     1      -1.253   2.516  -2.046  1.00  0.00     0.236 A 
HETATM    4  N3  UNL     1      -2.568   2.552  -1.767  1.00  0.00    -0.241 NA
HETATM    5  C10 UNL     1      -3.140   1.480  -1.187  1.00  0.00     0.072 A 
HETATM    6  C11 UNL     1      -4.489   1.468  -0.880  1.00  0.00     0.035 A 
HETATM    7  C12 UNL     1      -5.050   0.350  -0.284  1.00  0.00     0.031 A 
HETATM    8  C13 UNL     1      -4.293  -0.742   0.006  1.00  0.00     0.026 A 
HETATM    9  C14 UNL     1      -2.957  -0.719  -0.303  1.00  0.00     0.046 A 
HETATM   10  C15 UNL     1      -2.338   0.371  -0.900  1.00  0.00     0.041 A 
ENDROOT
BRANCH   1  11
HETATM   11  N1  UNL     1      -0.201  -0.824  -0.876  1.00  0.00    -0.343 N 
HETATM   12  H7  UNL     1       0.041  -1.681  -1.389  1.00  0.00     0.167 HD
BRANCH  11  13
HETATM   13  C7  UNL     1       0.152  -0.404   0.432  1.00  0.00     0.145 C 
BRANCH  13  14
HETATM   14  C6  UNL     1       1.411  -0.036   0.639  1.00  0.00    -0.111 C 
BRANCH  14  15
HETATM   15  C5  UNL     1       2.730   0.022   0.693  1.00  0.00     0.057 C 
BRANCH  15  16
HETATM   16  C4  UNL     1       3.499  -1.138   0.995  1.00  0.00     0.009 C 
BRANCH  16  17
HETATM   17  C3  UNL     1       4.819  -1.079   1.026  1.00  0.00     0.015 C 
BRANCH  17  18
HETATM   18  C2  UNL     1       5.643   0.094   0.776  1.00  0.00    -0.012 A 
HETATM   19  C1  UNL     1       6.924   0.328   0.765  1.00  0.00     0.124 A 
HETATM   20 BR1  UNL     1       5.560   1.945   0.334  1.00  0.00    -0.128 Br
ENDBRANCH  17  18
ENDBRANCH  16  17
ENDBRANCH  15  16
ENDBRANCH  14  15
ENDBRANCH  13  14
ENDBRANCH  11  13
ENDBRANCH   1  11
BRANCH   8  21
HETATM   21  N4  UNL     1      -4.883  -1.897   0.624  1.00  0.00    -0.399 N 
HETATM   22  H11 UNL     1      -4.910  -2.576  -0.177  1.00  0.00     0.156 HD
HETATM   23  H12 UNL     1      -5.206  -2.041   1.607  1.00  0.00     0.156 HD
ENDBRANCH   8  21
TORSDOF 8
