REMARK  3 active torsions:
REMARK  status: ('A' for Active; 'I' for Inactive)
REMARK    1  A    between atoms: C15_21  and  O2_22 
REMARK    2  A    between atoms: O2_22  and  C16_23 
REMARK    3  A    between atoms: C16_23  and  C17_24 
ROOT
HETATM    1  O1  UNL     1       2.153  -2.640   0.005  1.00  0.00    -0.265 OA
HETATM    2  C1  UNL     1       1.596  -1.605  -0.385  1.00  0.00     0.274 C 
HETATM    3  N1  UNL     1       0.412  -2.387  -0.353  1.00  0.00    -0.354 N 
HETATM    4  C2  UNL     1       0.035  -3.740  -0.006  1.00  0.00     0.142 C 
HETATM    5  C3  UNL     1      -1.431  -3.983  -0.145  1.00  0.00     0.133 C 
HETATM    6  N2  UNL     1      -2.252  -3.289   0.785  1.00  0.00    -0.417 N 
HETATM    7  C4  UNL     1      -2.297  -1.882   0.709  1.00  0.00     0.141 C 
HETATM    8  C5  UNL     1      -3.355  -1.235   1.581  1.00  0.00    -0.012 C 
HETATM    9  C6  UNL     1      -4.342  -0.475   1.038  1.00  0.00    -0.026 C 
HETATM   10  C7  UNL     1      -5.553   0.395   0.936  1.00  0.00     0.077 C 
HETATM   11  C8  UNL     1      -5.171   1.689   0.262  1.00  0.00     0.198 A 
HETATM   12  C9  UNL     1      -6.100   2.383  -0.603  1.00  0.00     0.017 A 
HETATM   13  C10 UNL     1      -5.142   1.652  -1.240  1.00  0.00     0.017 A 
HETATM   14  N3  UNL     1      -4.057   2.361   0.841  1.00  0.00     0.121 N 
HETATM   15  C11 UNL     1      -2.827   2.114   0.141  1.00  0.00     0.444 C 
HETATM   16  N4  UNL     1      -2.980   2.421  -1.253  1.00  0.00    -0.163 NA
HETATM   17  N5  UNL     1      -2.065   2.530  -2.105  1.00  0.00    -0.166 NA
HETATM   18  C12 UNL     1      -0.718   2.373  -1.861  1.00  0.00     0.140 C 
HETATM   19  C13 UNL     1       0.127   1.461  -1.477  1.00  0.00     0.024 C 
HETATM   20  C14 UNL     1       1.365   0.831  -1.114  1.00  0.00     0.044 C 
HETATM   21  C15 UNL     1       1.933  -0.255  -0.721  1.00  0.00     0.136 C 
HETATM   22  H1  UNL     1      -0.220  -1.662  -0.743  1.00  0.00     0.162 HD
HETATM   23  H6  UNL     1      -2.372  -3.692   1.714  1.00  0.00     0.153 HD
HETATM   24  H15 UNL     1      -4.259   3.382   0.893  1.00  0.00     0.320 HD
ENDROOT
BRANCH  21  25
HETATM   25  O2  UNL     1       3.296  -0.076  -0.572  1.00  0.00    -0.341 OA
BRANCH  25  26
HETATM   26  C16 UNL     1       3.873   0.129   0.701  1.00  0.00     0.216 C 
BRANCH  26  27
HETATM   27  C17 UNL     1       5.304   0.488   0.444  1.00  0.00    -0.009 A 
HETATM   28  C18 UNL     1       5.649   1.811   0.564  1.00  0.00     0.053 A 
HETATM   29  C19 UNL     1       6.926   2.296   0.353  1.00  0.00     0.117 A 
HETATM   30  F1  UNL     1       7.195   3.618   0.490  1.00  0.00    -0.206 F 
HETATM   31  C20 UNL     1       7.881   1.364   0.003  1.00  0.00     0.044 A 
HETATM   32  C21 UNL     1       7.544   0.029  -0.120  1.00  0.00     0.027 A 
HETATM   33  C22 UNL     1       6.253  -0.439   0.096  1.00  0.00     0.042 A 
HETATM   34 CL1  UNL     1       5.799  -2.124  -0.052  1.00  0.00    -0.084 Cl
ENDBRANCH  26  27
ENDBRANCH  25  26
ENDBRANCH  21  25
TORSDOF 3
