REMARK  7 active torsions:
REMARK  status: ('A' for Active; 'I' for Inactive)
REMARK    1  A    between atoms: C3_3  and  C4_4 
REMARK    2  A    between atoms: C3_3  and  N4_18 
REMARK    3  A    between atoms: C7_9  and  N3_10 
REMARK    4  A    between atoms: N3_10  and  C8_11 
REMARK       I    between atoms: N4_18  and  C14_19 
REMARK    5  A    between atoms: C14_19  and  C15_21 
REMARK    6  A    between atoms: C15_21  and  O2_22 
REMARK    7  A    between atoms: O2_22  and  C16_23 
ROOT
HETATM    1  C1  UNL     1       1.862  -2.810  -2.350  1.00  0.00     0.038 C 
HETATM    2  C2  UNL     1       0.524  -2.297  -2.035  1.00  0.00    -0.002 C 
HETATM    3  C3  UNL     1       0.216  -1.156  -1.405  1.00  0.00     0.033 C 
ENDROOT
BRANCH   3   4
HETATM    4  C4  UNL     1      -1.173  -0.798  -1.173  1.00  0.00     0.065 C 
HETATM    5  C5  UNL     1      -1.527   0.302  -0.535  1.00  0.00     0.106 A 
HETATM    6  N1  UNL     1      -0.767   1.350   0.052  1.00  0.00    -0.238 NA
HETATM    7  C7  UNL     1      -2.912   0.713  -0.274  1.00  0.00     0.158 A 
HETATM    8  C6  UNL     1      -1.558   2.228   0.570  1.00  0.00     0.236 A 
HETATM    9  N2  UNL     1      -2.904   1.820   0.361  1.00  0.00    -0.222 NA
BRANCH   7  10
HETATM   10  N3  UNL     1      -4.084   0.033  -0.643  1.00  0.00    -0.339 N 
HETATM   11  H7  UNL     1      -4.060  -0.530  -1.539  1.00  0.00     0.167 HD
BRANCH  10  12
HETATM   12  C8  UNL     1      -5.302   0.033   0.086  1.00  0.00     0.035 A 
HETATM   13  C9  UNL     1      -5.531   0.680   1.278  1.00  0.00     0.029 A 
HETATM   14  C10 UNL     1      -6.715   0.666   1.958  1.00  0.00     0.004 A 
HETATM   15  C11 UNL     1      -7.779  -0.026   1.461  1.00  0.00     0.019 A 
HETATM   16  C12 UNL     1      -7.611  -0.687   0.284  1.00  0.00     0.013 A 
HETATM   17 BR1  UNL     1      -9.076  -1.667  -0.445  1.00  0.00    -0.051 Br
HETATM   18  C13 UNL     1      -6.407  -0.652  -0.375  1.00  0.00     0.048 A 
ENDBRANCH  10  12
ENDBRANCH   7  10
ENDBRANCH   3   4
BRANCH   3  19
HETATM   19  N4  UNL     1       1.380  -0.429  -1.040  1.00  0.00    -0.326 N 
HETATM   20  C14 UNL     1       1.842   0.864  -1.426  1.00  0.00     0.246 C 
HETATM   21  O1  UNL     1       1.358   1.741  -2.203  1.00  0.00    -0.271 OA
HETATM   22  H12 UNL     1       2.003  -0.947  -0.364  1.00  0.00     0.169 HD
BRANCH  20  23
HETATM   23  C15 UNL     1       3.119   1.393  -0.881  1.00  0.00     0.278 C 
BRANCH  23  24
HETATM   24  O2  UNL     1       3.683   0.447  -0.015  1.00  0.00    -0.342 OA
BRANCH  24  25
HETATM   25  C16 UNL     1       4.859   0.591   0.668  1.00  0.00     0.069 A 
HETATM   26  C17 UNL     1       5.138  -0.523   1.439  1.00  0.00     0.037 A 
HETATM   27  C18 UNL     1       6.285  -0.616   2.229  1.00  0.00     0.003 A 
HETATM   28  C19 UNL     1       7.165   0.466   2.224  1.00  0.00     0.000 A 
HETATM   29  C20 UNL     1       6.900   1.579   1.463  1.00  0.00     0.003 A 
HETATM   30  C21 UNL     1       5.746   1.623   0.695  1.00  0.00     0.037 A 
ENDBRANCH  24  25
ENDBRANCH  23  24
ENDBRANCH  20  23
ENDBRANCH   3  19
TORSDOF 7
