REMARK  5 active torsions:
REMARK  status: ('A' for Active; 'I' for Inactive)
REMARK    1  A    between atoms: C2_2  and  C4_4 
REMARK    2  A    between atoms: C5_7  and  C6_8 
REMARK       I    between atoms: C6_8  and  N2_10 
REMARK    3  A    between atoms: N2_10  and  C7_11 
REMARK    4  A    between atoms: C12_18  and  N5_19 
REMARK    5  A    between atoms: N5_19  and  C13_20 
ROOT
HETATM    1  C7  UNL     1      -1.209   1.026   0.555  1.00  0.00     0.036 A 
HETATM    2  C8  UNL     1      -1.449   2.212   1.221  1.00  0.00     0.032 A 
HETATM    3  C9  UNL     1      -2.744   2.477   1.618  1.00  0.00     0.035 A 
HETATM    4  C10 UNL     1      -3.758   1.581   1.353  1.00  0.00     0.072 A 
HETATM    5  N3  UNL     1      -5.043   1.833   1.741  1.00  0.00    -0.241 NA
HETATM    6  C11 UNL     1      -6.019   0.922   1.461  1.00  0.00     0.235 A 
HETATM    7  N4  UNL     1      -5.765  -0.222   0.815  1.00  0.00    -0.224 NA
HETATM    8  C12 UNL     1      -4.528  -0.542   0.401  1.00  0.00     0.138 A 
HETATM    9  C14 UNL     1      -3.554   0.389   0.691  1.00  0.00     0.041 A 
HETATM   10  C15 UNL     1      -2.250   0.154   0.309  1.00  0.00     0.047 A 
ENDROOT
BRANCH   1  11
HETATM   11  N2  UNL     1       0.139   0.786   0.161  1.00  0.00    -0.321 N 
HETATM   12  C6  UNL     1       0.730   1.168  -1.074  1.00  0.00     0.283 C 
HETATM   13  O1  UNL     1       0.150   1.773  -1.998  1.00  0.00    -0.265 OA
HETATM   14  H8  UNL     1       0.614   0.285   0.930  1.00  0.00     0.169 HD
BRANCH  12  15
HETATM   15  C5  UNL     1       2.193   0.731  -1.116  1.00  0.00     0.185 A 
HETATM   16  S1  UNL     1       3.001   1.231  -2.756  1.00  0.00     0.039 SA
HETATM   17  N1  UNL     1       4.614   0.475  -2.205  1.00  0.00    -0.194 NA
HETATM   18  C4  UNL     1       4.259   0.005  -0.939  1.00  0.00     0.139 A 
HETATM   19  N6  UNL     1       3.003   0.210  -0.530  1.00  0.00    -0.218 NA
BRANCH  18  20
HETATM   20  C2  UNL     1       5.366  -0.672  -0.215  1.00  0.00     0.050 C 
HETATM   21  C1  UNL     1       6.545   0.247  -0.072  1.00  0.00     0.018 C 
HETATM   22  C3  UNL     1       5.781  -1.889  -1.024  1.00  0.00     0.018 C 
ENDBRANCH  18  20
ENDBRANCH  12  15
ENDBRANCH   1  11
BRANCH   8  23
HETATM   23  N5  UNL     1      -4.273  -1.767  -0.289  1.00  0.00    -0.361 N 
HETATM   24  H12 UNL     1      -3.361  -2.079  -0.633  1.00  0.00     0.162 HD
BRANCH  23  25
HETATM   25  C13 UNL     1      -5.406  -2.647  -0.521  1.00  0.00     0.237 C 
HETATM   26 CL1  UNL     1      -6.602  -1.742  -1.503  1.00  0.00    -0.109 Cl
ENDBRANCH  23  25
ENDBRANCH   8  23
TORSDOF 5
