REMARK  6 active torsions:
REMARK  status: ('A' for Active; 'I' for Inactive)
REMARK    1  A    between atoms: C5_5  and  N1_6 
REMARK    2  A    between atoms: N1_6  and  C6_7 
REMARK    3  A    between atoms: C11_14  and  N4_15 
REMARK       I    between atoms: N4_15  and  C12_16 
REMARK    4  A    between atoms: C12_16  and  C13_18 
REMARK    5  A    between atoms: C13_18  and  O2_19 
REMARK    6  A    between atoms: O2_19  and  C14_20 
ROOT
HETATM    1  C6  UNL     1      -3.165  -1.180  -0.633  1.00  0.00     0.142 A 
HETATM    2  N2  UNL     1      -4.175  -1.695  -1.397  1.00  0.00    -0.224 NA
HETATM    3  C7  UNL     1      -3.815  -2.128  -2.634  1.00  0.00     0.236 A 
HETATM    4  N3  UNL     1      -2.547  -2.059  -3.091  1.00  0.00    -0.241 NA
HETATM    5  C8  UNL     1      -1.592  -1.545  -2.301  1.00  0.00     0.072 A 
HETATM    6  C9  UNL     1      -0.318  -1.509  -2.813  1.00  0.00     0.035 A 
HETATM    7  C10 UNL     1       0.679  -0.996  -2.011  1.00  0.00     0.032 A 
HETATM    8  C11 UNL     1       0.369  -0.543  -0.742  1.00  0.00     0.035 A 
HETATM    9  C20 UNL     1      -0.888  -0.558  -0.191  1.00  0.00     0.047 A 
HETATM   10  C21 UNL     1      -1.841  -1.078  -1.031  1.00  0.00     0.041 A 
ENDROOT
BRANCH   8  11
HETATM   11  N4  UNL     1       1.467  -0.034   0.029  1.00  0.00    -0.325 N 
HETATM   12  C12 UNL     1       2.067  -1.165   0.684  1.00  0.00     0.246 C 
HETATM   13  O1  UNL     1       1.513  -2.297   0.445  1.00  0.00    -0.271 OA
HETATM   14  H10 UNL     1       1.997   0.817   0.306  1.00  0.00     0.169 HD
BRANCH  12  15
HETATM   15  C13 UNL     1       3.172  -1.434   1.585  1.00  0.00     0.278 C 
BRANCH  15  16
HETATM   16  O2  UNL     1       3.953  -0.378   2.011  1.00  0.00    -0.342 OA
BRANCH  16  17
HETATM   17  C14 UNL     1       4.667   0.397   1.135  1.00  0.00     0.069 A 
HETATM   18  C15 UNL     1       4.742   0.275  -0.225  1.00  0.00     0.037 A 
HETATM   19  C16 UNL     1       5.437   1.019  -1.159  1.00  0.00     0.003 A 
HETATM   20  C17 UNL     1       6.169   2.058  -0.555  1.00  0.00     0.000 A 
HETATM   21  C18 UNL     1       6.198   2.313   0.815  1.00  0.00     0.003 A 
HETATM   22  C19 UNL     1       5.437   1.456   1.569  1.00  0.00     0.037 A 
ENDBRANCH  16  17
ENDBRANCH  15  16
ENDBRANCH  12  15
ENDBRANCH   8  11
BRANCH   1  23
HETATM   23  N1  UNL     1      -3.629  -0.748   0.645  1.00  0.00    -0.340 N 
HETATM   24  H6  UNL     1      -3.402  -1.201   1.549  1.00  0.00     0.167 HD
BRANCH  23  25
HETATM   25  C5  UNL     1      -4.484   0.413   0.669  1.00  0.00     0.036 A 
HETATM   26  C2  UNL     1      -5.291   1.169   1.661  1.00  0.00    -0.037 A 
HETATM   27  C1  UNL     1      -5.401   0.888   2.971  1.00  0.00     0.021 C 
HETATM   28  C3  UNL     1      -5.746   2.121   0.607  1.00  0.00     0.069 A 
HETATM   29  C4  UNL     1      -4.905   1.273  -0.238  1.00  0.00     0.008 A 
ENDBRANCH  23  25
ENDBRANCH   1  23
TORSDOF 6
