REMARK  6 active torsions:
REMARK  status: ('A' for Active; 'I' for Inactive)
REMARK    1  A    between atoms: O1_2  and  C2_3 
REMARK    2  A    between atoms: C2_3  and  C5_7 
REMARK    3  A    between atoms: C3_4  and  C4_5 
REMARK    4  A    between atoms: C4_5  and  N1_6 
REMARK    5  A    between atoms: C5_7  and  C6_8 
REMARK    6  A    between atoms: N4_16  and  C12_17 
ROOT
HETATM    1  C6  UNL     1      -0.416  -0.441  -0.351  1.00  0.00     0.068 C 
HETATM    2  C7  UNL     1       0.628   0.168  -1.270  1.00  0.00     0.185 C 
HETATM    3  N2  UNL     1       1.729  -0.913  -1.378  1.00  0.00    -0.369 N 
HETATM    4  C8  UNL     1       1.385  -2.383  -1.226  1.00  0.00     0.124 C 
HETATM    5  C9  UNL     1       0.292  -2.763  -1.962  1.00  0.00     0.060 C 
HETATM    6  C10 UNL     1      -0.395  -3.009  -0.681  1.00  0.00     0.197 C 
HETATM    7  C11 UNL     1       0.427  -4.153  -0.120  1.00  0.00     0.148 C 
HETATM    8  N3  UNL     1       1.522  -3.895   0.597  1.00  0.00    -0.179 NA
HETATM    9  N4  UNL     1       2.178  -2.762  -0.021  1.00  0.00    -0.219 N 
HETATM   10  O2  UNL     1      -0.501  -1.843   0.093  1.00  0.00    -0.339 OA
HETATM   11  H12 UNL     1       2.764  -0.777  -1.517  1.00  0.00     0.161 HD
ENDROOT
BRANCH   1  12
HETATM   12  C5  UNL     1      -1.361   0.245   0.146  1.00  0.00     0.070 C 
BRANCH  12  13
HETATM   13  C2  UNL     1      -2.253   1.272   0.515  1.00  0.00     0.068 C 
HETATM   14  C3  UNL     1      -3.149   2.101   0.921  1.00  0.00     0.039 C 
BRANCH  13  15
HETATM   15  O1  UNL     1      -1.506   2.303  -0.122  1.00  0.00    -0.356 OA
HETATM   16  C1  UNL     1      -0.467   2.930   0.638  1.00  0.00     0.210 C 
ENDBRANCH  13  15
BRANCH  14  17
HETATM   17  C4  UNL     1      -3.283   3.554   0.742  1.00  0.00     0.297 C 
BRANCH  17  18
HETATM   18  N1  UNL     1      -4.585   3.864   0.092  1.00  0.00     0.081 N 
HETATM   19  H7  UNL     1      -5.092   2.950  -0.072  1.00  0.00     0.313 HD
HETATM   20  H8  UNL     1      -5.159   4.458   0.722  1.00  0.00     0.313 HD
ENDBRANCH  17  18
ENDBRANCH  14  17
ENDBRANCH  12  13
ENDBRANCH   1  12
BRANCH   9  21
HETATM   21  C12 UNL     1       3.336  -2.039   0.246  1.00  0.00     0.060 A 
HETATM   22  C13 UNL     1       3.392  -1.066   1.142  1.00  0.00     0.032 A 
HETATM   23  C14 UNL     1       4.772  -0.947   0.761  1.00  0.00     0.005 A 
HETATM   24  C15 UNL     1       4.742  -1.917  -0.141  1.00  0.00     0.032 A 
ENDBRANCH   9  21
TORSDOF 6
