REMARK  3 active torsions:
REMARK  status: ('A' for Active; 'I' for Inactive)
REMARK    1  A    between atoms: C2_2  and  C3_3 
REMARK       I    between atoms: C3_3  and  N1_5 
REMARK    2  A    between atoms: C7_9  and  C8_10 
REMARK    3  A    between atoms: C17_21  and  N3_22 
ROOT
HETATM    1  C3  UNL     1      -2.367  -0.065   0.889  1.00  0.00     0.242 C 
HETATM    2  O1  UNL     1      -1.922  -0.005   2.075  1.00  0.00    -0.271 OA
HETATM    3  N1  UNL     1      -1.382   0.491   0.027  1.00  0.00    -0.313 N 
HETATM    4  C4  UNL     1      -0.178   0.971   0.626  1.00  0.00     0.167 C 
HETATM    5  C5  UNL     1       1.035   0.463  -0.093  1.00  0.00    -0.030 A 
HETATM    6  C6  UNL     1       2.223   0.358   0.489  1.00  0.00     0.041 A 
HETATM    7  C7  UNL     1       3.384  -0.140  -0.239  1.00  0.00     0.062 A 
HETATM    8  N2  UNL     1       3.316  -0.500  -1.470  1.00  0.00    -0.284 NA
HETATM    9  C14 UNL     1       2.112  -0.457  -2.269  1.00  0.00     0.188 A 
HETATM   10  C15 UNL     1       0.959   0.055  -1.488  1.00  0.00    -0.030 A 
HETATM   11  C16 UNL     1      -0.210   0.149  -2.090  1.00  0.00     0.038 C 
HETATM   12  C17 UNL     1      -1.433   0.644  -1.421  1.00  0.00     0.346 C 
ENDROOT
BRANCH   1  13
HETATM   13  C2  UNL     1      -3.681  -0.625   0.534  1.00  0.00     0.107 C 
HETATM   14  C1  UNL     1      -3.471  -1.789  -0.411  1.00  0.00     0.039 C 
HETATM   15  C18 UNL     1      -4.579   0.369  -0.153  1.00  0.00     0.037 C 
HETATM   16  C19 UNL     1      -5.618   0.970   0.762  1.00  0.00     0.049 C 
HETATM   17  C20 UNL     1      -6.559  -0.009   1.331  1.00  0.00     0.098 C 
HETATM   18  N4  UNL     1      -6.169  -1.073   1.942  1.00  0.00    -0.231 NA
HETATM   19  S1  UNL     1      -4.421  -1.275   2.053  1.00  0.00    -0.011 SA
ENDBRANCH   1  13
BRANCH  12  20
HETATM   20  N3  UNL     1      -1.596   2.046  -1.760  1.00  0.00     0.105 N 
HETATM   21  H15 UNL     1      -2.306   2.186  -2.511  1.00  0.00     0.315 HD
HETATM   22  H16 UNL     1      -0.682   2.476  -2.009  1.00  0.00     0.315 HD
ENDBRANCH  12  20
BRANCH   7  23
HETATM   23  C8  UNL     1       4.687  -0.254   0.404  1.00  0.00    -0.006 A 
HETATM   24  C9  UNL     1       5.768  -0.725  -0.300  1.00  0.00     0.014 A 
HETATM   25  C10 UNL     1       7.028  -0.862   0.235  1.00  0.00     0.002 A 
HETATM   26  C11 UNL     1       7.238  -0.510   1.550  1.00  0.00     0.019 A 
HETATM   27  C12 UNL     1       6.183  -0.032   2.295  1.00  0.00     0.011 A 
HETATM   28 BR1  UNL     1       6.421   0.470   4.127  1.00  0.00    -0.051 Br
HETATM   29  C13 UNL     1       4.945   0.085   1.715  1.00  0.00     0.032 A 
ENDBRANCH   7  23
TORSDOF 3
