REMARK  2 active torsions:
REMARK  status: ('A' for Active; 'I' for Inactive)
REMARK    1  A    between atoms: C16_21  and  C17_22 
REMARK    2  A    between atoms: C17_22  and  C18_23 
ROOT
HETATM    1  C1  UNL     1       1.111   0.865  -2.964  1.00  0.00     0.045 A 
HETATM    2  C2  UNL     1       2.006   0.745  -2.033  1.00  0.00    -0.065 A 
HETATM    3  C3  UNL     1       0.723   1.228  -1.634  1.00  0.00     0.076 A 
HETATM    4  C4  UNL     1       0.118   1.609  -0.407  1.00  0.00     0.027 C 
HETATM    5 BR1  UNL     1       1.848   1.197   0.391  1.00  0.00    -0.093 Br
HETATM    6  C5  UNL     1      -0.397   2.025   0.962  1.00  0.00     0.298 A 
HETATM    7  C6  UNL     1      -0.152   2.370   2.116  1.00  0.00     0.279 A 
HETATM    8  N1  UNL     1      -1.544   2.339   2.124  1.00  0.00     0.011 N 
HETATM    9  C7  UNL     1      -2.910   2.526   1.801  1.00  0.00     0.261 C 
HETATM   10  C8  UNL     1      -3.619   1.231   1.474  1.00  0.00     0.039 C 
HETATM   11  C9  UNL     1      -3.007  -0.014   1.964  1.00  0.00     0.026 C 
HETATM   12  C10 UNL     1      -2.742  -0.976   0.867  1.00  0.00     0.014 C 
HETATM   13  C11 UNL     1      -2.225  -1.842  -0.043  1.00  0.00     0.141 C 
HETATM   14  C12 UNL     1      -2.898  -2.612  -1.162  1.00  0.00     0.079 C 
HETATM   15  N2  UNL     1      -0.826  -2.121   0.041  1.00  0.00     0.116 N 
HETATM   16  C13 UNL     1       0.350  -1.995  -0.724  1.00  0.00     0.380 A 
HETATM   17  O1  UNL     1      -0.701  -1.570  -1.334  1.00  0.00    -0.143 OA
HETATM   18  C14 UNL     1       1.750  -2.019  -1.199  1.00  0.00     0.249 C 
HETATM   19  O2  UNL     1       1.791  -1.477  -2.488  1.00  0.00    -0.381 OA
HETATM   20  C15 UNL     1       3.090  -0.979  -2.777  1.00  0.00     0.206 C 
HETATM   21  C16 UNL     1       3.258   0.128  -1.703  1.00  0.00    -0.033 C 
HETATM   22  C19 UNL     1      -1.746   0.176   2.761  1.00  0.00     0.126 C 
HETATM   23  N3  UNL     1      -1.744   1.525   3.253  1.00  0.00    -0.150 NA
HETATM   24  H15 UNL     1      -0.764  -2.546   1.010  1.00  0.00     0.329 HD
HETATM   25  H25 UNL     1      -1.244   1.735   4.097  1.00  0.00     0.153 HD
ENDROOT
BRANCH  21  26
HETATM   26  C17 UNL     1       4.264  -0.041  -0.905  1.00  0.00     0.013 C 
BRANCH  26  27
HETATM   27  C18 UNL     1       5.144   0.098   0.253  1.00  0.00     0.250 C 
HETATM   28  F1  UNL     1       6.435   0.515  -0.062  1.00  0.00    -0.251 F 
ENDBRANCH  26  27
ENDBRANCH  21  26
TORSDOF 2
