REMARK  7 active torsions:
REMARK  status: ('A' for Active; 'I' for Inactive)
REMARK    1  A    between atoms: C1_2  and  C2_3 
REMARK       I    between atoms: C1_2  and  N1_11 
REMARK    2  A    between atoms: C2_3  and  O2_4 
REMARK    3  A    between atoms: O2_4  and  C3_5 
REMARK    4  A    between atoms: N1_11  and  C9_12 
REMARK    5  A    between atoms: C9_12  and  C10_13 
REMARK    6  A    between atoms: C14_17  and  N2_18 
REMARK    7  A    between atoms: N2_18  and  C15_19 
ROOT
HETATM    1  C10 UNL     1      -0.712  -1.698  -1.138  1.00  0.00     0.102 A 
HETATM    2  C11 UNL     1      -0.107  -1.017  -2.349  1.00  0.00     0.006 A 
HETATM    3  C12 UNL     1      -0.629   0.169  -2.115  1.00  0.00    -0.013 A 
HETATM    4  C13 UNL     1      -1.280  -0.393  -0.888  1.00  0.00     0.113 A 
HETATM    5  C14 UNL     1      -2.766  -0.370  -1.146  1.00  0.00     0.116 A 
HETATM    6  N3  UNL     1      -3.536  -1.352  -1.538  1.00  0.00    -0.228 NA
HETATM    7  C21 UNL     1      -2.849  -2.582  -1.739  1.00  0.00     0.230 A 
HETATM    8  N4  UNL     1      -1.614  -2.767  -1.572  1.00  0.00    -0.265 NA
ENDROOT
BRANCH   1   9
HETATM    9  C9  UNL     1       0.348  -2.310  -0.256  1.00  0.00     0.161 C 
BRANCH   9  10
HETATM   10  N1  UNL     1       1.347  -1.508   0.306  1.00  0.00    -0.356 N 
HETATM   11  C1  UNL     1       1.716  -0.457   1.171  1.00  0.00     0.241 C 
HETATM   12  O1  UNL     1       0.808   0.116   1.814  1.00  0.00    -0.271 OA
HETATM   13  H8  UNL     1       2.339  -1.755  -0.050  1.00  0.00     0.162 HD
BRANCH  11  14
HETATM   14  C2  UNL     1       2.980   0.179   1.532  1.00  0.00     0.278 C 
BRANCH  14  15
HETATM   15  O2  UNL     1       4.095  -0.380   0.868  1.00  0.00    -0.342 OA
BRANCH  15  16
HETATM   16  C3  UNL     1       5.362   0.167   1.151  1.00  0.00     0.069 A 
HETATM   17  C4  UNL     1       6.499  -0.339   0.531  1.00  0.00     0.037 A 
HETATM   18  C5  UNL     1       7.759   0.168   0.780  1.00  0.00     0.003 A 
HETATM   19  C6  UNL     1       7.811   1.196   1.673  1.00  0.00     0.000 A 
HETATM   20  C7  UNL     1       6.747   1.767   2.340  1.00  0.00     0.003 A 
HETATM   21  C8  UNL     1       5.518   1.212   2.044  1.00  0.00     0.037 A 
ENDBRANCH  15  16
ENDBRANCH  14  15
ENDBRANCH  11  14
ENDBRANCH   9  10
ENDBRANCH   1   9
BRANCH   5  22
HETATM   22  N2  UNL     1      -3.458   0.879  -0.943  1.00  0.00    -0.344 N 
HETATM   23  H14 UNL     1      -2.923   1.789  -1.019  1.00  0.00     0.167 HD
BRANCH  22  24
HETATM   24  C15 UNL     1      -4.864   0.942  -0.636  1.00  0.00     0.034 A 
HETATM   25  C16 UNL     1      -5.272   0.920   0.684  1.00  0.00     0.029 A 
HETATM   26  C17 UNL     1      -6.564   0.972   1.132  1.00  0.00     0.004 A 
HETATM   27  C18 UNL     1      -7.505   1.052   0.126  1.00  0.00     0.019 A 
HETATM   28  C19 UNL     1      -7.193   1.079  -1.212  1.00  0.00     0.013 A 
HETATM   29 BR1  UNL     1      -8.506   1.190  -2.587  1.00  0.00    -0.051 Br
HETATM   30  C20 UNL     1      -5.854   1.023  -1.590  1.00  0.00     0.048 A 
ENDBRANCH  22  24
ENDBRANCH   5  22
TORSDOF 7
