REMARK  5 active torsions:
REMARK  status: ('A' for Active; 'I' for Inactive)
REMARK    1  A    between atoms: C11_15  and  N3_16 
REMARK    2  A    between atoms: N3_16  and  C12_17 
REMARK    3  A    between atoms: C12_17  and  C13_18 
REMARK    4  A    between atoms: C13_18  and  O2_19 
REMARK    5  A    between atoms: O2_19  and  C14_20 
ROOT
HETATM    1  O1  UNL     1       0.268  -1.151  -1.838  1.00  0.00    -0.295 OA
HETATM    2  C1  UNL     1       0.794  -1.457  -0.757  1.00  0.00     0.163 C 
HETATM    3  C2  UNL     1       1.274  -2.736  -0.104  1.00  0.00     0.230 C 
HETATM    4  N1  UNL     1       2.640  -2.311   0.273  1.00  0.00    -0.268 NA
HETATM    5  C3  UNL     1       2.604  -1.023   0.600  1.00  0.00     0.112 C 
HETATM    6  N2  UNL     1       4.029  -1.023   0.875  1.00  0.00    -0.374 N 
HETATM    7  C4  UNL     1       5.210  -1.058   0.030  1.00  0.00     0.149 C 
HETATM    8  C5  UNL     1       5.495   0.143  -0.734  1.00  0.00     0.008 C 
HETATM    9  C6  UNL     1       5.548   1.363  -1.322  1.00  0.00    -0.008 C 
HETATM   10 BR1  UNL     1       6.853   1.959  -2.633  1.00  0.00    -0.056 Br
HETATM   11  C7  UNL     1       4.434   2.034  -0.671  1.00  0.00     0.040 C 
HETATM   12  C8  UNL     1       3.489   2.852  -0.234  1.00  0.00     0.004 C 
HETATM   13  C9  UNL     1       2.654   2.208   0.811  1.00  0.00     0.035 C 
HETATM   14  C10 UNL     1       1.260   2.037   0.390  1.00  0.00    -0.001 C 
HETATM   15  C11 UNL     1       0.838   0.759   0.294  1.00  0.00     0.020 C 
HETATM   16  C20 UNL     1       1.205  -0.627   0.443  1.00  0.00     0.175 C 
HETATM   17  H3  UNL     1       4.266  -0.972   1.926  1.00  0.00     0.161 HD
ENDROOT
BRANCH  15  18
HETATM   18  N3  UNL     1      -0.552   0.879  -0.133  1.00  0.00    -0.390 N 
HETATM   19  H12 UNL     1      -0.571   1.261  -1.117  1.00  0.00     0.159 HD
BRANCH  18  20
HETATM   20  C12 UNL     1      -1.887   0.609   0.401  1.00  0.00     0.146 C 
BRANCH  20  21
HETATM   21  C13 UNL     1      -2.233  -0.843   0.505  1.00  0.00     0.195 C 
BRANCH  21  22
HETATM   22  O2  UNL     1      -3.503  -1.005   1.021  1.00  0.00    -0.350 OA
BRANCH  22  23
HETATM   23  C14 UNL     1      -4.733  -0.645   0.622  1.00  0.00     0.068 A 
HETATM   24  C15 UNL     1      -5.286   0.011  -0.441  1.00  0.00     0.037 A 
HETATM   25  C16 UNL     1      -6.620   0.258  -0.611  1.00  0.00     0.003 A 
HETATM   26  C17 UNL     1      -7.489  -0.181   0.352  1.00  0.00     0.000 A 
HETATM   27  C18 UNL     1      -7.034  -0.852   1.461  1.00  0.00     0.003 A 
HETATM   28  C19 UNL     1      -5.663  -1.073   1.577  1.00  0.00     0.037 A 
ENDBRANCH  22  23
ENDBRANCH  21  22
ENDBRANCH  20  21
ENDBRANCH  18  20
ENDBRANCH  15  18
TORSDOF 5
