REMARK  2 active torsions:
REMARK  status: ('A' for Active; 'I' for Inactive)
REMARK    1  A    between atoms: C11_14  and  N1_15 
REMARK    2  A    between atoms: N1_15  and  C12_16 
ROOT
HETATM    1  O1  UNL     1      -3.189  -0.939   0.488  1.00  0.00    -0.177 OA
HETATM    2  C1  UNL     1      -3.719  -1.686  -0.334  1.00  0.00     0.155 A 
HETATM    3  C2  UNL     1      -4.188  -0.211  -0.625  1.00  0.00     0.095 A 
HETATM    4  O2  UNL     1      -3.501   0.450   0.320  1.00  0.00     0.000 OA
HETATM    5  C3  UNL     1      -2.864   1.077   1.199  1.00  0.00    -0.015 A 
HETATM    6  C4  UNL     1      -3.585   1.747   2.132  1.00  0.00     0.016 A 
HETATM    7  C5  UNL     1      -2.919   2.432   3.112  1.00  0.00     0.043 A 
HETATM    8  C6  UNL     1      -1.581   2.491   3.221  1.00  0.00     0.117 A 
HETATM    9  F1  UNL     1      -0.932   3.166   4.188  1.00  0.00    -0.206 F 
HETATM   10  C7  UNL     1      -0.889   1.786   2.233  1.00  0.00     0.054 A 
HETATM   11  C8  UNL     1      -1.456   1.041   1.169  1.00  0.00    -0.021 A 
HETATM   12  C9  UNL     1      -0.448   0.414   0.317  1.00  0.00     0.026 C 
HETATM   13  C10 UNL     1      -0.075  -0.732  -0.245  1.00  0.00     0.017 A 
HETATM   14  C11 UNL     1       1.171  -0.572  -1.034  1.00  0.00     0.138 A 
HETATM   15  N2  UNL     1       1.789  -1.555  -1.582  1.00  0.00    -0.224 NA
HETATM   16  C18 UNL     1       1.351  -2.889  -1.518  1.00  0.00     0.230 A 
HETATM   17  N3  UNL     1       0.280  -3.054  -0.905  1.00  0.00    -0.269 NA
HETATM   18  C19 UNL     1      -0.553  -2.113  -0.289  1.00  0.00     0.170 A 
HETATM   19  C20 UNL     1      -1.118  -2.661   0.951  1.00  0.00     0.022 C 
HETATM   20  C21 UNL     1      -2.391  -3.083   1.073  1.00  0.00     0.088 C 
HETATM   21  N4  UNL     1      -3.298  -3.015  -0.073  1.00  0.00    -0.348 N 
HETATM   22  H16 UNL     1      -3.933  -3.058  -0.894  1.00  0.00     0.167 HD
ENDROOT
BRANCH  14  23
HETATM   23  N1  UNL     1       1.855   0.653  -1.330  1.00  0.00    -0.340 N 
HETATM   24  H7  UNL     1       1.186   1.452  -1.493  1.00  0.00     0.167 HD
BRANCH  23  25
HETATM   25  C12 UNL     1       3.248   0.913  -1.426  1.00  0.00     0.035 A 
HETATM   26  C13 UNL     1       3.679   2.172  -1.761  1.00  0.00     0.029 A 
HETATM   27  C14 UNL     1       5.016   2.475  -1.865  1.00  0.00     0.004 A 
HETATM   28  C15 UNL     1       6.004   1.539  -1.639  1.00  0.00     0.019 A 
HETATM   29  C16 UNL     1       5.551   0.290  -1.306  1.00  0.00     0.013 A 
HETATM   30 BR1  UNL     1       6.867  -1.067  -0.977  1.00  0.00    -0.051 Br
HETATM   31  C17 UNL     1       4.210  -0.042  -1.194  1.00  0.00     0.048 A 
ENDBRANCH  23  25
ENDBRANCH  14  23
TORSDOF 2
