REMARK  9 active torsions:
REMARK  status: ('A' for Active; 'I' for Inactive)
REMARK    1  A    between atoms: C2_2  and  C3_3 
REMARK    2  A    between atoms: C2_2  and  N1_12 
REMARK    3  A    between atoms: C3_3  and  O1_4 
REMARK    4  A    between atoms: O1_4  and  C4_5 
REMARK    5  A    between atoms: C4_5  and  C5_6 
REMARK    6  A    between atoms: C6_7  and  C7_9 
REMARK    7  A    between atoms: C7_9  and  C8_10 
REMARK    8  A    between atoms: C8_10  and  O2_11 
REMARK    9  A    between atoms: N1_12  and  C9_13 
ROOT
HETATM    1  C9  UNL     1      -1.627  -0.007   0.392  1.00  0.00     0.110 C 
HETATM    2  C10 UNL     1      -2.493  -0.228  -0.796  1.00  0.00     0.009 C 
HETATM    3  C11 UNL     1      -3.782  -0.488  -1.078  1.00  0.00    -0.011 A 
HETATM    4  C12 UNL     1      -3.801  -0.560  -2.562  1.00  0.00     0.191 A 
HETATM    5  N2  UNL     1      -5.061  -0.793  -3.159  1.00  0.00    -0.278 NA
HETATM    6  C13 UNL     1      -6.165  -0.958  -2.559  1.00  0.00     0.227 A 
HETATM    7  N3  UNL     1      -6.066  -0.890  -1.170  1.00  0.00    -0.242 NA
HETATM    8  C14 UNL     1      -5.057  -0.688  -0.415  1.00  0.00     0.065 A 
HETATM    9  C15 UNL     1      -5.574  -0.736   0.972  1.00  0.00     0.029 C 
HETATM   10  C16 UNL     1      -5.171  -0.329   2.190  1.00  0.00    -0.015 C 
HETATM   11  C17 UNL     1      -4.350   0.267   3.239  1.00  0.00     0.042 C 
HETATM   12  C18 UNL     1      -3.224   0.908   3.592  1.00  0.00    -0.016 C 
HETATM   13  C19 UNL     1      -1.908   1.560   3.391  1.00  0.00     0.011 C 
HETATM   14  C20 UNL     1      -1.340   1.692   2.210  1.00  0.00    -0.009 C 
HETATM   15 BR1  UNL     1       0.361   2.575   2.439  1.00  0.00    -0.056 Br
HETATM   16  C21 UNL     1      -1.909   1.385   0.889  1.00  0.00     0.075 C 
ENDROOT
BRANCH   1  17
HETATM   17  N1  UNL     1      -0.254  -0.294   0.242  1.00  0.00    -0.384 N 
HETATM   18  H13 UNL     1       0.244  -0.996   0.872  1.00  0.00     0.160 HD
BRANCH  17  19
HETATM   19  C2  UNL     1       0.752   0.154  -0.615  1.00  0.00     0.020 C 
HETATM   20  C1  UNL     1       0.618  -0.664  -1.675  1.00  0.00     0.040 C 
BRANCH  19  21
HETATM   21  C3  UNL     1       1.790   1.190  -0.610  1.00  0.00     0.223 C 
BRANCH  21  22
HETATM   22  O1  UNL     1       2.714   1.081   0.420  1.00  0.00    -0.382 OA
BRANCH  22  23
HETATM   23  C4  UNL     1       3.410  -0.100   0.409  1.00  0.00     0.198 C 
BRANCH  23  24
HETATM   24  C5  UNL     1       4.201  -0.346  -0.822  1.00  0.00     0.037 C 
HETATM   25  C6  UNL     1       5.490  -0.540  -1.113  1.00  0.00     0.094 C 
HETATM   26  F1  UNL     1       6.043  -0.755  -2.335  1.00  0.00    -0.211 F 
BRANCH  25  27
HETATM   27  C7  UNL     1       6.555  -0.550  -0.091  1.00  0.00     0.096 C 
BRANCH  27  28
HETATM   28  C8  UNL     1       7.578   0.535  -0.365  1.00  0.00     0.170 C 
BRANCH  28  29
HETATM   29  O2  UNL     1       8.187   0.382  -1.589  1.00  0.00    -0.400 OA
HETATM   30  H12 UNL     1       9.053  -0.104  -1.447  1.00  0.00     0.209 HD
ENDBRANCH  28  29
ENDBRANCH  27  28
ENDBRANCH  25  27
ENDBRANCH  23  24
ENDBRANCH  22  23
ENDBRANCH  21  22
ENDBRANCH  19  21
ENDBRANCH  17  19
ENDBRANCH   1  17
TORSDOF 9
