REMARK  6 active torsions:
REMARK  status: ('A' for Active; 'I' for Inactive)
REMARK    1  A    between atoms: C1_2  and  C2_3 
REMARK    2  A    between atoms: C2_3  and  N1_4 
REMARK    3  A    between atoms: N1_4  and  C3_5 
REMARK    4  A    between atoms: C3_5  and  C4_6 
REMARK    5  A    between atoms: C9_13  and  N4_14 
REMARK    6  A    between atoms: N4_14  and  C10_15 
ROOT
HETATM    1  C4  UNL     1      -2.001  -0.642  -1.217  1.00  0.00     0.001 C 
HETATM    2  C5  UNL     1      -1.365  -0.965  -0.125  1.00  0.00    -0.041 C 
HETATM    3  C6  UNL     1      -1.964  -1.260   1.167  1.00  0.00     0.036 C 
HETATM    4  C7  UNL     1      -0.837  -1.163   1.838  1.00  0.00     0.052 C 
HETATM    5  N2  UNL     1      -0.021  -1.180   2.996  1.00  0.00    -0.245 NA
HETATM    6  C8  UNL     1       1.224  -0.757   2.910  1.00  0.00     0.235 C 
HETATM    7  N3  UNL     1       1.689  -0.341   1.641  1.00  0.00    -0.228 NA
HETATM    8  C9  UNL     1       1.054  -0.358   0.529  1.00  0.00     0.120 C 
HETATM    9  C16 UNL     1      -0.141  -1.189   0.549  1.00  0.00     0.140 C 
ENDROOT
BRANCH   8  10
HETATM   10  N4  UNL     1       1.552   0.099  -0.725  1.00  0.00    -0.344 N 
HETATM   11  H10 UNL     1       0.955   0.254  -1.562  1.00  0.00     0.167 HD
BRANCH  10  12
HETATM   12  C10 UNL     1       2.980   0.332  -0.727  1.00  0.00     0.034 A 
HETATM   13  C11 UNL     1       3.925  -0.530  -0.193  1.00  0.00     0.029 A 
HETATM   14  C12 UNL     1       5.280  -0.259  -0.193  1.00  0.00     0.004 A 
HETATM   15  C13 UNL     1       5.739   0.908  -0.737  1.00  0.00     0.019 A 
HETATM   16  C14 UNL     1       4.832   1.795  -1.280  1.00  0.00     0.013 A 
HETATM   17 BR1  UNL     1       5.595   3.391  -2.005  1.00  0.00    -0.051 Br
HETATM   18  C15 UNL     1       3.496   1.500  -1.269  1.00  0.00     0.048 A 
ENDBRANCH  10  12
ENDBRANCH   8  10
BRANCH   1  19
HETATM   19  C3  UNL     1      -3.342  -0.414  -1.757  1.00  0.00     0.142 C 
BRANCH  19  20
HETATM   20  N1  UNL     1      -4.438  -0.532  -0.867  1.00  0.00    -0.412 N 
HETATM   21  H4  UNL     1      -4.989  -1.376  -0.913  1.00  0.00     0.153 HD
BRANCH  20  22
HETATM   22  C2  UNL     1      -4.661   0.429   0.124  1.00  0.00     0.183 C 
BRANCH  22  23
HETATM   23  C1  UNL     1      -5.091   1.779  -0.436  1.00  0.00     0.250 C 
HETATM   24  O1  UNL     1      -5.188   1.925  -1.648  1.00  0.00    -0.305 OA
ENDBRANCH  22  23
ENDBRANCH  20  22
ENDBRANCH  19  20
ENDBRANCH   1  19
TORSDOF 6
