REMARK  6 active torsions:
REMARK  status: ('A' for Active; 'I' for Inactive)
REMARK    1  A    between atoms: C1_2  and  C2_3 
REMARK       I    between atoms: C1_2  and  N1_11 
REMARK    2  A    between atoms: C2_3  and  O2_4 
REMARK    3  A    between atoms: O2_4  and  C3_5 
REMARK    4  A    between atoms: N1_11  and  C8_12 
REMARK    5  A    between atoms: C13_19  and  N4_20 
REMARK    6  A    between atoms: N4_20  and  C14_21 
ROOT
HETATM    1  C8  UNL     1       0.699   1.727  -0.275  1.00  0.00     0.035 A 
HETATM    2  C9  UNL     1       0.868   3.096  -0.264  1.00  0.00     0.032 A 
HETATM    3  C10 UNL     1      -0.251   3.898  -0.210  1.00  0.00     0.035 A 
HETATM    4  C11 UNL     1      -1.501   3.324  -0.168  1.00  0.00     0.072 A 
HETATM    5  N2  UNL     1      -2.579   4.158  -0.114  1.00  0.00    -0.241 NA
HETATM    6  C12 UNL     1      -3.828   3.651  -0.072  1.00  0.00     0.236 A 
HETATM    7  N3  UNL     1      -4.034   2.333  -0.081  1.00  0.00    -0.224 NA
HETATM    8  C13 UNL     1      -3.018   1.477  -0.132  1.00  0.00     0.142 A 
HETATM    9  C20 UNL     1      -1.739   1.972  -0.176  1.00  0.00     0.041 A 
HETATM   10  C21 UNL     1      -0.584   1.232  -0.231  1.00  0.00     0.047 A 
ENDROOT
BRANCH   1  11
HETATM   11  N1  UNL     1       1.847   0.890  -0.331  1.00  0.00    -0.325 N 
HETATM   12  C1  UNL     1       2.402   0.505   0.928  1.00  0.00     0.246 C 
HETATM   13  O1  UNL     1       1.870   0.909   2.004  1.00  0.00    -0.271 OA
HETATM   14  H7  UNL     1       2.400   0.474  -1.123  1.00  0.00     0.169 HD
BRANCH  12  15
HETATM   15  C2  UNL     1       3.587  -0.354   1.188  1.00  0.00     0.278 C 
BRANCH  15  16
HETATM   16  O2  UNL     1       4.156  -0.787  -0.021  1.00  0.00    -0.346 OA
BRANCH  16  17
HETATM   17  C3  UNL     1       5.287  -1.582   0.063  1.00  0.00     0.053 A 
HETATM   18  C4  UNL     1       6.303  -1.012  -0.601  1.00  0.00     0.035 A 
HETATM   19  C5  UNL     1       7.488  -1.877  -0.494  1.00  0.00     0.040 A 
HETATM   20  C6  UNL     1       7.184  -2.962   0.231  1.00  0.00     0.100 A 
HETATM   21  F1  UNL     1       7.766  -4.083   0.685  1.00  0.00    -0.210 F 
HETATM   22  C7  UNL     1       5.760  -2.869   0.648  1.00  0.00     0.134 A 
ENDBRANCH  16  17
ENDBRANCH  15  16
ENDBRANCH  12  15
ENDBRANCH   1  11
BRANCH   8  23
HETATM   23  N4  UNL     1      -3.182   0.070  -0.144  1.00  0.00    -0.340 N 
HETATM   24  H11 UNL     1      -2.378  -0.581  -0.200  1.00  0.00     0.167 HD
BRANCH  23  25
HETATM   25  C14 UNL     1      -4.359  -0.715  -0.088  1.00  0.00     0.035 A 
HETATM   26  C15 UNL     1      -4.423  -2.103  -0.224  1.00  0.00     0.029 A 
HETATM   27  C16 UNL     1      -5.592  -2.817  -0.157  1.00  0.00     0.004 A 
HETATM   28  C17 UNL     1      -6.797  -2.192   0.054  1.00  0.00     0.019 A 
HETATM   29  C18 UNL     1      -6.787  -0.822   0.195  1.00  0.00     0.013 A 
HETATM   30 BR1  UNL     1      -8.484  -0.011   0.484  1.00  0.00    -0.051 Br
HETATM   31  C19 UNL     1      -5.594  -0.145   0.121  1.00  0.00     0.048 A 
ENDBRANCH  23  25
ENDBRANCH   8  23
TORSDOF 6
