REMARK  5 active torsions:
REMARK  status: ('A' for Active; 'I' for Inactive)
REMARK    1  A    between atoms: C1_2  and  C2_3 
REMARK    2  A    between atoms: C1_2  and  C9_11 
REMARK    3  A    between atoms: C2_3  and  O2_4 
REMARK    4  A    between atoms: O2_4  and  C3_5 
REMARK    5  A    between atoms: N1_18  and  C16_19 
ROOT
HETATM    1  C9  UNL     1       1.237  -1.321  -0.249  1.00  0.00     0.013 A 
HETATM    2  C10 UNL     1       1.451  -0.860   1.029  1.00  0.00     0.016 A 
HETATM    3  C11 UNL     1       0.580  -0.132   1.807  1.00  0.00     0.010 A 
HETATM    4  C12 UNL     1      -0.623   0.135   1.191  1.00  0.00    -0.036 A 
HETATM    5  C13 UNL     1      -0.923  -0.286  -0.084  1.00  0.00    -0.030 A 
HETATM    6  C14 UNL     1       0.009  -1.008  -0.787  1.00  0.00     0.024 A 
HETATM    7  C15 UNL     1      -2.238   0.034  -0.696  1.00  0.00     0.182 C 
HETATM    8  N1  UNL     1      -3.194   0.176   0.384  1.00  0.00    -0.312 N 
HETATM    9  N2  UNL     1      -2.898   0.116   1.770  1.00  0.00    -0.234 NA
HETATM   10  C21 UNL     1      -1.664   0.908   1.899  1.00  0.00     0.149 C 
HETATM   11  H18 UNL     1      -3.682   0.583   2.277  1.00  0.00     0.147 HD
ENDROOT
BRANCH   1  12
HETATM   12  C1  UNL     1       2.178  -2.058  -1.068  1.00  0.00     0.183 C 
HETATM   13  O1  UNL     1       1.719  -2.494  -2.192  1.00  0.00    -0.290 OA
BRANCH  12  14
HETATM   14  C2  UNL     1       3.561  -2.529  -1.099  1.00  0.00     0.259 C 
BRANCH  14  15
HETATM   15  O2  UNL     1       4.394  -2.070  -0.081  1.00  0.00    -0.344 OA
BRANCH  15  16
HETATM   16  C3  UNL     1       4.744  -0.746   0.155  1.00  0.00     0.069 A 
HETATM   17  C4  UNL     1       4.204   0.180  -0.713  1.00  0.00     0.037 A 
HETATM   18  C5  UNL     1       4.518   1.497  -0.524  1.00  0.00     0.003 A 
HETATM   19  C6  UNL     1       5.364   1.832   0.533  1.00  0.00     0.000 A 
HETATM   20  C7  UNL     1       5.900   0.878   1.400  1.00  0.00     0.003 A 
HETATM   21  C8  UNL     1       5.578  -0.470   1.206  1.00  0.00     0.037 A 
ENDBRANCH  15  16
ENDBRANCH  14  15
ENDBRANCH  12  14
ENDBRANCH   1  12
BRANCH   8  22
HETATM   22  C16 UNL     1      -4.537   0.395  -0.031  1.00  0.00     0.027 A 
HETATM   23  C17 UNL     1      -4.759   1.671  -0.332  1.00  0.00     0.026 A 
HETATM   24  C18 UNL     1      -6.169   1.812  -0.751  1.00  0.00    -0.002 A 
HETATM   25  C19 UNL     1      -6.743   0.619  -0.688  1.00  0.00    -0.021 A 
HETATM   26  C20 UNL     1      -5.773  -0.405  -0.226  1.00  0.00     0.085 A 
ENDBRANCH   8  22
TORSDOF 5
