REMARK  6 active torsions:
REMARK  status: ('A' for Active; 'I' for Inactive)
REMARK    1  A    between atoms: C6_7  and  O1_8 
REMARK    2  A    between atoms: O1_8  and  C7_9 
REMARK    3  A    between atoms: C7_9  and  C8_10 
REMARK       I    between atoms: C8_10  and  N1_12 
REMARK    4  A    between atoms: N1_12  and  C9_13 
REMARK    5  A    between atoms: C14_20  and  N4_21 
REMARK    6  A    between atoms: N4_21  and  C15_22 
ROOT
HETATM    1  C9  UNL     1      -0.560  -1.312   0.882  1.00  0.00     0.035 A 
HETATM    2  C10 UNL     1      -0.524  -2.523   1.555  1.00  0.00     0.032 A 
HETATM    3  C11 UNL     1      -1.540  -3.454   1.466  1.00  0.00     0.035 A 
HETATM    4  C12 UNL     1      -2.652  -3.185   0.675  1.00  0.00     0.072 A 
HETATM    5  N2  UNL     1      -3.673  -4.064   0.554  1.00  0.00    -0.241 NA
HETATM    6  C13 UNL     1      -4.712  -3.702  -0.247  1.00  0.00     0.236 A 
HETATM    7  N3  UNL     1      -4.732  -2.520  -0.895  1.00  0.00    -0.224 NA
HETATM    8  C14 UNL     1      -3.722  -1.625  -0.789  1.00  0.00     0.142 A 
HETATM    9  C21 UNL     1      -2.653  -1.971   0.020  1.00  0.00     0.041 A 
HETATM   10  C22 UNL     1      -1.653  -1.024   0.092  1.00  0.00     0.047 A 
ENDROOT
BRANCH   1  11
HETATM   11  N1  UNL     1       0.580  -0.513   1.114  1.00  0.00    -0.325 N 
HETATM   12  C8  UNL     1       1.749  -0.589   0.292  1.00  0.00     0.246 C 
HETATM   13  O2  UNL     1       1.728  -1.414  -0.670  1.00  0.00    -0.271 OA
HETATM   14  H9  UNL     1       0.519   0.154   1.940  1.00  0.00     0.169 HD
BRANCH  12  15
HETATM   15  C7  UNL     1       2.858   0.333   0.689  1.00  0.00     0.278 C 
BRANCH  15  16
HETATM   16  O1  UNL     1       3.987   0.241  -0.125  1.00  0.00    -0.345 OA
BRANCH  16  17
HETATM   17  C6  UNL     1       5.099   1.041   0.131  1.00  0.00     0.057 A 
HETATM   18  C2  UNL     1       6.376   0.581  -0.475  1.00  0.00     0.100 A 
HETATM   19  C1  UNL     1       6.222   0.563  -1.983  1.00  0.00     0.024 C 
HETATM   20  C3  UNL     1       7.365   1.603  -0.045  1.00  0.00     0.104 A 
HETATM   21  F1  UNL     1       8.688   1.592  -0.369  1.00  0.00    -0.210 F 
HETATM   22  C4  UNL     1       6.747   2.510   0.694  1.00  0.00     0.041 A 
HETATM   23  C5  UNL     1       5.320   2.154   0.804  1.00  0.00     0.036 A 
ENDBRANCH  16  17
ENDBRANCH  15  16
ENDBRANCH  12  15
ENDBRANCH   1  11
BRANCH   8  24
HETATM   24  N4  UNL     1      -3.840  -0.406  -1.514  1.00  0.00    -0.340 N 
HETATM   25  H13 UNL     1      -3.471  -0.268  -2.502  1.00  0.00     0.167 HD
BRANCH  24  26
HETATM   26  C15 UNL     1      -4.490   0.689  -0.878  1.00  0.00     0.033 A 
HETATM   27  C16 UNL     1      -4.984   0.534   0.399  1.00  0.00     0.029 A 
HETATM   28  C17 UNL     1      -5.628   1.552   1.082  1.00  0.00     0.002 A 
HETATM   29  C18 UNL     1      -5.753   2.745   0.414  1.00  0.00     0.000 A 
HETATM   30  C19 UNL     1      -5.274   2.941  -0.860  1.00  0.00     0.002 A 
HETATM   31  C20 UNL     1      -4.630   1.906  -1.528  1.00  0.00     0.029 A 
ENDBRANCH  24  26
ENDBRANCH   8  24
TORSDOF 6
