REMARK  8 active torsions:
REMARK  status: ('A' for Active; 'I' for Inactive)
REMARK    1  A    between atoms: C2_2  and  C3_3 
REMARK    2  A    between atoms: C4_4  and  C5_5 
REMARK    3  A    between atoms: C4_4  and  N4_19 
REMARK    4  A    between atoms: C9_11  and  N3_12 
REMARK    5  A    between atoms: N3_12  and  C10_13 
REMARK       I    between atoms: N4_19  and  C15_20 
REMARK    6  A    between atoms: C15_20  and  C16_22 
REMARK    7  A    between atoms: C16_22  and  O2_23 
REMARK    8  A    between atoms: O2_23  and  C17_24 
ROOT
HETATM    1  C3  UNL     1      -0.225  -2.449  -1.585  1.00  0.00     0.002 C 
HETATM    2  C4  UNL     1      -0.452  -1.614  -0.601  1.00  0.00     0.031 C 
ENDROOT
BRANCH   2   3
HETATM    3  C5  UNL     1      -1.697  -0.913  -0.317  1.00  0.00     0.042 C 
HETATM    4  C6  UNL     1      -2.030  -0.094   0.625  1.00  0.00     0.010 A 
HETATM    5  C7  UNL     1      -1.138   0.340   1.700  1.00  0.00     0.192 A 
HETATM    6  C9  UNL     1      -3.434   0.366   0.553  1.00  0.00     0.137 A 
HETATM    7  N1  UNL     1      -1.818   1.195   2.614  1.00  0.00    -0.278 NA
HETATM    8  C8  UNL     1      -3.035   1.551   2.502  1.00  0.00     0.229 A 
HETATM    9  N2  UNL     1      -3.903   1.151   1.456  1.00  0.00    -0.224 NA
BRANCH   6  10
HETATM   10  N3  UNL     1      -4.359  -0.009  -0.477  1.00  0.00    -0.343 N 
HETATM   11  H11 UNL     1      -4.250  -0.986  -0.864  1.00  0.00     0.167 HD
BRANCH  10  12
HETATM   12  C10 UNL     1      -5.385   0.884  -0.960  1.00  0.00     0.029 A 
HETATM   13  C11 UNL     1      -5.398   2.181  -0.744  1.00  0.00     0.026 A 
HETATM   14  C12 UNL     1      -6.577   2.761  -1.377  1.00  0.00    -0.001 A 
HETATM   15  C13 UNL     1      -7.260   1.778  -1.973  1.00  0.00    -0.005 A 
HETATM   16  C14 UNL     1      -6.542   0.473  -1.752  1.00  0.00     0.130 A 
HETATM   17 BR1  UNL     1      -7.747  -0.695  -0.812  1.00  0.00    -0.080 Br
ENDBRANCH  10  12
ENDBRANCH   6  10
ENDBRANCH   2   3
BRANCH   2  18
HETATM   18  N4  UNL     1       0.815  -1.647   0.030  1.00  0.00    -0.326 N 
HETATM   19  C15 UNL     1       1.717  -0.568   0.167  1.00  0.00     0.246 C 
HETATM   20  O1  UNL     1       2.041   0.622  -0.012  1.00  0.00    -0.271 OA
HETATM   21  H16 UNL     1       1.293  -2.447   0.502  1.00  0.00     0.169 HD
BRANCH  19  22
HETATM   22  C16 UNL     1       3.049  -0.511   0.806  1.00  0.00     0.278 C 
BRANCH  22  23
HETATM   23  O2  UNL     1       3.590   0.772   0.708  1.00  0.00    -0.342 OA
BRANCH  23  24
HETATM   24  C17 UNL     1       4.840   1.025   1.251  1.00  0.00     0.069 A 
HETATM   25  C18 UNL     1       5.708   0.188   1.915  1.00  0.00     0.040 A 
HETATM   26  C19 UNL     1       6.918   0.654   2.379  1.00  0.00     0.045 A 
HETATM   27  C20 UNL     1       7.286   1.989   2.181  1.00  0.00     0.116 A 
HETATM   28  F1  UNL     1       8.494   2.360   2.670  1.00  0.00    -0.206 F 
HETATM   29  C21 UNL     1       6.423   2.833   1.517  1.00  0.00     0.045 A 
HETATM   30  C22 UNL     1       5.192   2.365   1.044  1.00  0.00     0.040 A 
ENDBRANCH  23  24
ENDBRANCH  22  23
ENDBRANCH  19  22
ENDBRANCH   2  18
BRANCH   1  31
HETATM   31  C2  UNL     1       0.626  -3.356  -2.343  1.00  0.00     0.025 C 
HETATM   32  C1  UNL     1       2.034  -3.523  -1.788  1.00  0.00     0.009 C 
ENDBRANCH   1  31
TORSDOF 8
