REMARK  7 active torsions:
REMARK  status: ('A' for Active; 'I' for Inactive)
REMARK    1  A    between atoms: C2_2  and  C3_3 
REMARK    2  A    between atoms: C3_3  and  N1_4 
REMARK    3  A    between atoms: N1_4  and  C4_5 
REMARK    4  A    between atoms: C4_5  and  O1_6 
REMARK    5  A    between atoms: O1_6  and  C5_7 
REMARK    6  A    between atoms: C10_14  and  N4_15 
REMARK    7  A    between atoms: N4_15  and  C11_16 
ROOT
HETATM    1  C4  UNL     1      -1.237  -0.087   0.526  1.00  0.00     0.150 C 
HETATM    2  C7  UNL     1      -0.448  -0.153   1.586  1.00  0.00     0.058 A 
HETATM    3  C8  UNL     1      -0.852  -0.827   2.837  1.00  0.00     0.197 A 
HETATM    4  N2  UNL     1       0.227  -0.736   3.796  1.00  0.00    -0.278 NA
HETATM    5  C9  UNL     1       1.351  -0.186   3.641  1.00  0.00     0.229 A 
HETATM    6  N3  UNL     1       1.722   0.452   2.435  1.00  0.00    -0.224 NA
HETATM    7  C10 UNL     1       0.856   0.467   1.447  1.00  0.00     0.141 A 
ENDROOT
BRANCH   1   8
HETATM    8  N1  UNL     1      -2.571  -0.584   0.274  1.00  0.00    -0.367 N 
HETATM    9  H6  UNL     1      -3.450  -0.028   0.093  1.00  0.00     0.161 HD
BRANCH   8  10
HETATM   10  C3  UNL     1      -2.728  -2.015   0.288  1.00  0.00     0.148 C 
BRANCH  10  11
HETATM   11  C2  UNL     1      -4.068  -2.398  -0.283  1.00  0.00    -0.018 C 
HETATM   12  C1  UNL     1      -5.012  -3.075   0.363  1.00  0.00     0.008 C 
ENDBRANCH  10  11
ENDBRANCH   8  10
ENDBRANCH   1   8
BRANCH   1  13
HETATM   13  O1  UNL     1      -1.072   0.470  -0.708  1.00  0.00    -0.336 OA
BRANCH  13  14
HETATM   14  C5  UNL     1      -1.845   1.466  -1.335  1.00  0.00     0.173 C 
HETATM   15  C6  UNL     1      -1.239   1.622  -2.734  1.00  0.00     0.034 C 
ENDBRANCH  13  14
ENDBRANCH   1  13
BRANCH   7  16
HETATM   16  N4  UNL     1       1.363   1.147   0.302  1.00  0.00    -0.340 N 
HETATM   17  H15 UNL     1       0.657   1.786  -0.143  1.00  0.00     0.167 HD
BRANCH  16  18
HETATM   18  C11 UNL     1       2.665   1.027  -0.252  1.00  0.00     0.035 A 
HETATM   19  C12 UNL     1       2.984   1.818  -1.330  1.00  0.00     0.029 A 
HETATM   20  C13 UNL     1       4.216   1.767  -1.940  1.00  0.00     0.004 A 
HETATM   21  C14 UNL     1       5.208   0.904  -1.495  1.00  0.00     0.019 A 
HETATM   22  C15 UNL     1       4.860   0.107  -0.398  1.00  0.00     0.013 A 
HETATM   23 BR1  UNL     1       6.237  -1.067   0.191  1.00  0.00    -0.051 Br
HETATM   24  C16 UNL     1       3.629   0.162   0.211  1.00  0.00     0.048 A 
ENDBRANCH  16  18
ENDBRANCH   7  16
TORSDOF 7
