REMARK  3 active torsions:
REMARK  status: ('A' for Active; 'I' for Inactive)
REMARK    1  A    between atoms: O1_1  and  C1_2 
REMARK    2  A    between atoms: C6_8  and  C7_9 
REMARK    3  A    between atoms: C8_10  and  C9_11 
ROOT
HETATM    1  C9  UNL     1      -0.326  -0.377  -0.174  1.00  0.00     0.047 C 
HETATM    2  C10 UNL     1      -1.029  -1.432  -0.936  1.00  0.00     0.038 C 
HETATM    3  C11 UNL     1      -1.478  -2.625  -0.079  1.00  0.00     0.045 C 
HETATM    4  C12 UNL     1      -2.394  -1.966   0.914  1.00  0.00     0.104 A 
HETATM    5  C13 UNL     1      -1.525  -1.174   1.821  1.00  0.00     0.155 C 
HETATM    6  N1  UNL     1      -0.546  -0.371   1.238  1.00  0.00    -0.406 N 
HETATM    7  O2  UNL     1      -3.611  -2.423   1.271  1.00  0.00    -0.366 OA
HETATM    8  C14 UNL     1      -3.532  -1.412   0.332  1.00  0.00     0.176 A 
HETATM    9  C15 UNL     1      -3.890   0.005   0.705  1.00  0.00     0.151 C 
HETATM   10  N2  UNL     1      -2.960   0.871   0.141  1.00  0.00    -0.410 N 
HETATM   11  C16 UNL     1      -2.395   1.929   0.862  1.00  0.00     0.117 C 
HETATM   12  C17 UNL     1      -0.923   1.986   0.487  1.00  0.00     0.027 C 
HETATM   13  C18 UNL     1      -0.577   1.033  -0.658  1.00  0.00     0.020 C 
HETATM   14  C19 UNL     1      -1.607   1.165  -1.745  1.00  0.00     0.027 C 
HETATM   15  C20 UNL     1      -3.033   1.117  -1.267  1.00  0.00     0.117 C 
HETATM   16  H13 UNL     1       0.267  -0.180   1.831  1.00  0.00     0.154 HD
ENDROOT
BRANCH   1  17
HETATM   17  C8  UNL     1       1.136  -0.673  -0.306  1.00  0.00     0.005 C 
HETATM   18  C7  UNL     1       2.089   0.196   0.032  1.00  0.00     0.012 C 
BRANCH  18  19
HETATM   19  C6  UNL     1       3.542   0.061  -0.036  1.00  0.00    -0.002 A 
HETATM   20  C1  UNL     1       4.399   1.092   0.367  1.00  0.00     0.093 A 
HETATM   21  C2  UNL     1       5.747   0.847   0.257  1.00  0.00     0.044 A 
HETATM   22 BR1  UNL     1       6.896   2.247   0.804  1.00  0.00    -0.048 Br
HETATM   23  C3  UNL     1       6.287  -0.325  -0.216  1.00  0.00     0.022 A 
HETATM   24  C4  UNL     1       5.431  -1.339  -0.613  1.00  0.00     0.002 A 
HETATM   25  C5  UNL     1       4.072  -1.121  -0.513  1.00  0.00     0.014 A 
BRANCH  20  26
HETATM   26  O1  UNL     1       3.872   2.283   0.847  1.00  0.00    -0.358 OA
HETATM   27  H1  UNL     1       3.320   2.898   0.232  1.00  0.00     0.217 HD
ENDBRANCH  20  26
ENDBRANCH  18  19
ENDBRANCH   1  17
TORSDOF 3
