REMARK  2 active torsions:
REMARK  status: ('A' for Active; 'I' for Inactive)
REMARK    1  A    between atoms: C4_5  and  N1_6 
REMARK    2  A    between atoms: N1_6  and  C5_7 
ROOT
HETATM    1  C5  UNL     1      -0.747  -1.999  -0.415  1.00  0.00     0.160 A 
HETATM    2  N2  UNL     1      -0.769  -3.226   0.140  1.00  0.00    -0.222 NA
HETATM    3  C6  UNL     1       0.378  -3.735   0.660  1.00  0.00     0.238 A 
HETATM    4  N3  UNL     1       1.549  -3.037   0.634  1.00  0.00    -0.215 NA
HETATM    5  C7  UNL     1       1.558  -1.798   0.070  1.00  0.00     0.202 A 
HETATM    6  C8  UNL     1       0.424  -1.237  -0.471  1.00  0.00     0.129 A 
HETATM    7  N4  UNL     1       0.226   0.011  -1.089  1.00  0.00    -0.379 N 
HETATM    8  C9  UNL     1       0.959   1.225  -0.912  1.00  0.00     0.161 C 
HETATM    9  C10 UNL     1       2.348   1.097  -0.498  1.00  0.00    -0.007 A 
HETATM   10  C11 UNL     1       2.913   2.361  -0.605  1.00  0.00     0.011 A 
HETATM   11  C12 UNL     1       4.236   2.593  -0.285  1.00  0.00     0.001 A 
HETATM   12  C13 UNL     1       5.071   1.578   0.162  1.00  0.00     0.003 A 
HETATM   13  C14 UNL     1       4.524   0.297   0.278  1.00  0.00     0.038 A 
HETATM   14  C15 UNL     1       3.197   0.104  -0.052  1.00  0.00     0.086 A 
HETATM   15  O1  UNL     1       2.813  -1.219   0.118  1.00  0.00    -0.289 OA
HETATM   16  H5  UNL     1      -0.571   0.032  -1.768  1.00  0.00     0.160 HD
ENDROOT
BRANCH   1  17
HETATM   17  N1  UNL     1      -1.940  -1.446  -0.967  1.00  0.00    -0.339 N 
HETATM   18  H3  UNL     1      -2.026  -1.717  -1.970  1.00  0.00     0.167 HD
BRANCH  17  19
HETATM   19  C4  UNL     1      -2.926  -0.639  -0.340  1.00  0.00     0.035 A 
HETATM   20  C3  UNL     1      -4.015  -0.214  -1.075  1.00  0.00     0.032 A 
HETATM   21  C2  UNL     1      -4.958   0.570  -0.443  1.00  0.00     0.046 A 
HETATM   22  C1  UNL     1      -4.795   0.906   0.889  1.00  0.00     0.138 A 
HETATM   23  F1  UNL     1      -5.768   1.682   1.443  1.00  0.00    -0.204 F 
HETATM   24  C17 UNL     1      -3.712   0.490   1.646  1.00  0.00     0.074 A 
HETATM   25  C16 UNL     1      -2.789  -0.291   0.983  1.00  0.00     0.056 A 
HETATM   26 CL1  UNL     1      -3.562   0.949   3.327  1.00  0.00    -0.081 Cl
ENDBRANCH  17  19
ENDBRANCH   1  17
TORSDOF 2
