REMARK  5 active torsions:
REMARK  status: ('A' for Active; 'I' for Inactive)
REMARK    1  A    between atoms: C3_3  and  N1_5 
REMARK    2  A    between atoms: N1_5  and  C4_6 
REMARK    3  A    between atoms: C9_13  and  C10_14 
REMARK    4  A    between atoms: C11_15  and  C12_16 
REMARK    5  A    between atoms: C13_17  and  C14_18 
ROOT
HETATM    1  C4  UNL     1      -2.596  -0.637  -0.454  1.00  0.00     0.035 A 
HETATM    2  C5  UNL     1      -3.124  -1.624   0.350  1.00  0.00     0.032 A 
HETATM    3  C6  UNL     1      -2.264  -2.408   1.089  1.00  0.00     0.035 A 
HETATM    4  C7  UNL     1      -0.914  -2.203   1.021  1.00  0.00     0.070 A 
HETATM    5  N2  UNL     1      -0.110  -3.005   1.772  1.00  0.00    -0.241 NA
HETATM    6  C8  UNL     1       1.243  -2.823   1.724  1.00  0.00     0.234 A 
HETATM    7  N3  UNL     1       1.741  -1.862   0.940  1.00  0.00    -0.241 NA
HETATM    8  C9  UNL     1       1.041  -1.027   0.169  1.00  0.00     0.070 A 
HETATM    9  C15 UNL     1      -0.316  -1.237   0.241  1.00  0.00     0.024 A 
HETATM   10  C16 UNL     1      -1.226  -0.489  -0.472  1.00  0.00     0.045 A 
ENDROOT
BRANCH   1  11
HETATM   11  N1  UNL     1      -3.460   0.186  -1.228  1.00  0.00    -0.337 N 
HETATM   12  H4  UNL     1      -3.909   0.221  -2.168  1.00  0.00     0.168 HD
BRANCH  11  13
HETATM   13  C3  UNL     1      -3.882   1.348  -0.561  1.00  0.00     0.141 A 
HETATM   14  C2  UNL     1      -4.726   2.497  -0.844  1.00  0.00     0.056 A 
HETATM   15  C1  UNL     1      -4.573   3.113   0.339  1.00  0.00     0.209 A 
HETATM   16  O1  UNL     1      -3.844   2.060   0.499  1.00  0.00    -0.332 OA
ENDBRANCH  11  13
ENDBRANCH   1  11
BRANCH   8  17
HETATM   17  C10 UNL     1       1.588   0.014  -0.679  1.00  0.00     0.032 C 
HETATM   18  C11 UNL     1       2.859   0.305  -0.827  1.00  0.00     0.002 C 
BRANCH  18  19
HETATM   19  C12 UNL     1       3.967  -0.343  -0.184  1.00  0.00    -0.003 C 
HETATM   20  C13 UNL     1       5.234   0.002  -0.378  1.00  0.00    -0.016 C 
BRANCH  20  21
HETATM   21  C14 UNL     1       5.859   1.050  -1.226  1.00  0.00     0.112 C 
HETATM   22 BR1  UNL     1       6.880   2.277  -0.102  1.00  0.00    -0.092 Br
ENDBRANCH  20  21
ENDBRANCH  18  19
ENDBRANCH   8  17
TORSDOF 5
