REMARK  7 active torsions:
REMARK  status: ('A' for Active; 'I' for Inactive)
REMARK    1  A    between atoms: C2_2  and  C3_3 
REMARK    2  A    between atoms: C3_3  and  C4_4 
REMARK    3  A    between atoms: C4_4  and  N1_5 
REMARK    4  A    between atoms: C7_8  and  C9_10 
REMARK    5  A    between atoms: C9_10  and  O1_11 
REMARK    6  A    between atoms: C13_16  and  N3_17 
REMARK    7  A    between atoms: C21_28  and  O2_29 
ROOT
HETATM    1  C9  UNL     1      -0.151  -0.706  -0.083  1.00  0.00     0.320 C 
HETATM    2  N2  UNL     1       0.302  -2.035   0.218  1.00  0.00     0.127 N 
HETATM    3  C10 UNL     1       1.687  -2.207  -0.021  1.00  0.00     0.302 C 
HETATM    4  C11 UNL     1       2.511  -1.001   0.198  1.00  0.00     0.016 C 
HETATM    5  C12 UNL     1       2.302   0.038   0.988  1.00  0.00     0.014 A 
HETATM    6  C13 UNL     1       3.454   0.914   0.784  1.00  0.00     0.143 A 
HETATM    7  N4  UNL     1       3.462   2.020   1.490  1.00  0.00    -0.224 NA
HETATM    8  C19 UNL     1       2.307   2.152   2.341  1.00  0.00     0.230 A 
HETATM    9  N5  UNL     1       1.261   1.440   2.574  1.00  0.00    -0.270 NA
HETATM   10  C20 UNL     1       1.127   0.184   1.853  1.00  0.00     0.179 A 
HETATM   11  C21 UNL     1      -0.210   0.061   1.183  1.00  0.00     0.216 C 
HETATM   12  H18 UNL     1       0.036  -2.339   1.190  1.00  0.00     0.320 HD
ENDROOT
BRANCH   1  13
HETATM   13  C7  UNL     1      -1.430  -0.740  -0.897  1.00  0.00     0.220 A 
HETATM   14  N1  UNL     1      -2.551  -1.355  -0.296  1.00  0.00     0.103 N 
HETATM   15  C5  UNL     1      -2.563  -2.455  -1.268  1.00  0.00     0.276 A 
HETATM   16  C6  UNL     1      -1.315  -1.914  -1.849  1.00  0.00     0.077 A 
HETATM   17  C8  UNL     1      -1.605   0.544  -1.652  1.00  0.00     0.055 C 
BRANCH  14  18
HETATM   18  C4  UNL     1      -3.820  -0.705  -0.367  1.00  0.00     0.273 C 
BRANCH  18  19
HETATM   19  C3  UNL     1      -4.051   0.399   0.631  1.00  0.00     0.030 C 
BRANCH  19  20
HETATM   20  C2  UNL     1      -5.475   0.898   0.326  1.00  0.00    -0.003 C 
HETATM   21  C1  UNL     1      -5.897   2.008   1.227  1.00  0.00     0.005 C 
ENDBRANCH  19  20
ENDBRANCH  18  19
ENDBRANCH  14  18
ENDBRANCH   1  13
BRANCH   1  22
HETATM   22  O1  UNL     1       0.789  -0.063  -0.896  1.00  0.00    -0.359 OA
HETATM   23  H17 UNL     1       0.983  -0.546  -1.738  1.00  0.00     0.212 HD
ENDBRANCH   1  22
BRANCH  11  24
HETATM   24  O2  UNL     1      -0.664   1.377   1.024  1.00  0.00    -0.388 OA
HETATM   25  H28 UNL     1      -0.655   1.879   1.857  1.00  0.00     0.210 HD
ENDBRANCH  11  24
BRANCH   6  26
HETATM   26  N3  UNL     1       4.515   0.620  -0.108  1.00  0.00    -0.315 N 
HETATM   27  C14 UNL     1       4.709   1.008  -1.485  1.00  0.00     0.110 C 
HETATM   28  C15 UNL     1       5.593   0.347  -2.191  1.00  0.00    -0.007 C 
HETATM   29  C16 UNL     1       6.673  -0.088  -1.618  1.00  0.00     0.034 C 
HETATM   30  C17 UNL     1       6.584  -0.539  -0.237  1.00  0.00     0.027 C 
HETATM   31 BR1  UNL     1       7.997  -1.616   0.462  1.00  0.00    -0.050 Br
HETATM   32  C18 UNL     1       5.527  -0.198   0.521  1.00  0.00     0.117 C 
ENDBRANCH   6  26
TORSDOF 7
