REMARK  5 active torsions:
REMARK  status: ('A' for Active; 'I' for Inactive)
REMARK    1  A    between atoms: C2_2  and  C3_3 
REMARK    2  A    between atoms: C8_9  and  N1_10 
REMARK    3  A    between atoms: N1_10  and  C9_11 
REMARK    4  A    between atoms: C14_18  and  N4_19 
REMARK    5  A    between atoms: N4_19  and  C15_20 
ROOT
HETATM    1  C9  UNL     1       0.071  -1.443  -0.127  1.00  0.00     0.142 A 
HETATM    2  N2  UNL     1      -0.236  -2.681   0.273  1.00  0.00    -0.224 NA
HETATM    3  C10 UNL     1       0.580  -3.550   0.858  1.00  0.00     0.236 A 
HETATM    4  N3  UNL     1       1.843  -3.196   1.090  1.00  0.00    -0.241 NA
HETATM    5  C11 UNL     1       2.288  -1.974   0.737  1.00  0.00     0.072 A 
HETATM    6  C12 UNL     1       3.614  -1.731   1.020  1.00  0.00     0.035 A 
HETATM    7  C13 UNL     1       4.116  -0.502   0.667  1.00  0.00     0.032 A 
HETATM    8  C14 UNL     1       3.294   0.419   0.057  1.00  0.00     0.035 A 
HETATM    9  C16 UNL     1       1.980   0.089  -0.187  1.00  0.00     0.047 A 
HETATM   10  C17 UNL     1       1.407  -1.113   0.136  1.00  0.00     0.041 A 
ENDROOT
BRANCH   1  11
HETATM   11  N1  UNL     1      -0.642  -0.416  -0.750  1.00  0.00    -0.339 N 
HETATM   12  H7  UNL     1      -0.295  -0.250  -1.735  1.00  0.00     0.167 HD
BRANCH  11  13
HETATM   13  C8  UNL     1      -1.678   0.476  -0.502  1.00  0.00     0.045 A 
HETATM   14  C3  UNL     1      -2.976   0.153  -0.246  1.00  0.00    -0.010 A 
HETATM   15  C4  UNL     1      -3.986   1.081  -0.002  1.00  0.00     0.015 A 
HETATM   16  C5  UNL     1      -3.662   2.419  -0.021  1.00  0.00     0.020 A 
HETATM   17  C6  UNL     1      -2.367   2.803  -0.277  1.00  0.00     0.013 A 
HETATM   18 BR1  UNL     1      -1.968   4.669  -0.292  1.00  0.00    -0.051 Br
HETATM   19  C7  UNL     1      -1.419   1.828  -0.509  1.00  0.00     0.049 A 
BRANCH  14  20
HETATM   20  C2  UNL     1      -3.494  -1.176  -0.217  1.00  0.00     0.003 C 
HETATM   21  C1  UNL     1      -4.563  -1.915  -0.053  1.00  0.00     0.012 C 
ENDBRANCH  14  20
ENDBRANCH  11  13
ENDBRANCH   1  11
BRANCH   8  22
HETATM   22  N4  UNL     1       3.839   1.682  -0.303  1.00  0.00    -0.334 N 
HETATM   23  H11 UNL     1       4.157   1.419  -1.283  1.00  0.00     0.168 HD
BRANCH  22  24
HETATM   24  C15 UNL     1       3.927   2.901   0.418  1.00  0.00     0.353 C 
HETATM   25  O1  UNL     1       3.429   2.813   1.564  1.00  0.00    -0.283 OA
ENDBRANCH  22  24
ENDBRANCH   8  22
TORSDOF 5
