REMARK  4 active torsions:
REMARK  status: ('A' for Active; 'I' for Inactive)
REMARK       I    between atoms: C1_2  and  N1_3 
REMARK    1  A    between atoms: C1_2  and  C14_20 
REMARK    2  A    between atoms: N1_3  and  C2_4 
REMARK    3  A    between atoms: C15_22  and  C16_23 
REMARK    4  A    between atoms: C16_23  and  N5_24 
ROOT
HETATM    1  C2  UNL     1       1.309  -0.618   1.298  1.00  0.00     0.014 C 
HETATM    2  C3  UNL     1       2.104   0.251   0.710  1.00  0.00     0.032 C 
HETATM    3  C4  UNL     1       3.426   0.416   1.322  1.00  0.00     0.183 C 
HETATM    4  N2  UNL     1       4.329   1.148   0.487  1.00  0.00    -0.290 NA
HETATM    5  C5  UNL     1       4.124   2.034  -0.377  1.00  0.00     0.086 C 
HETATM    6  C6  UNL     1       5.421   2.448  -0.940  1.00  0.00     0.021 C 
HETATM    7  C7  UNL     1       6.341   1.693  -0.290  1.00  0.00     0.075 C 
HETATM    8  C8  UNL     1       7.815   1.742  -0.508  1.00  0.00     0.009 C 
HETATM    9 BR1  UNL     1       9.414   2.430  -1.384  1.00  0.00    -0.054 Br
HETATM   10  C9  UNL     1       8.328   0.833   0.341  1.00  0.00     0.104 C 
HETATM   11  N3  UNL     1       7.570   0.029   1.232  1.00  0.00    -0.360 N 
HETATM   12  C10 UNL     1       6.182  -0.077   1.511  1.00  0.00     0.207 C 
HETATM   13  N4  UNL     1       5.413  -1.093   1.204  1.00  0.00    -0.246 NA
HETATM   14  C11 UNL     1       4.048  -0.924   1.607  1.00  0.00     0.061 C 
HETATM   15  C12 UNL     1       3.221  -1.762   2.194  1.00  0.00     0.009 C 
HETATM   16  C13 UNL     1       1.835  -1.309   2.493  1.00  0.00     0.086 C 
HETATM   17  H8  UNL     1       7.861  -0.697   1.914  1.00  0.00     0.166 HD
ENDROOT
BRANCH   1  18
HETATM   18  N1  UNL     1      -0.006  -0.956   0.907  1.00  0.00    -0.328 N 
HETATM   19  C1  UNL     1      -0.738  -0.435  -0.162  1.00  0.00     0.253 C 
HETATM   20  O1  UNL     1      -0.328   0.439  -0.962  1.00  0.00    -0.270 OA
HETATM   21  H1  UNL     1      -0.594  -1.660   1.397  1.00  0.00     0.168 HD
BRANCH  19  22
HETATM   22  C14 UNL     1      -2.093  -0.650  -0.727  1.00  0.00     0.244 A 
HETATM   23  O2  UNL     1      -2.623  -1.944  -0.696  1.00  0.00    -0.364 OA
HETATM   24  C15 UNL     1      -3.119  -1.111   0.276  1.00  0.00     0.189 A 
BRANCH  24  25
HETATM   25  C16 UNL     1      -4.482  -0.540   0.274  1.00  0.00     0.307 C 
BRANCH  25  26
HETATM   26  N5  UNL     1      -4.904   0.267  -0.815  1.00  0.00     0.091 N 
HETATM   27  C17 UNL     1      -6.174   0.933  -0.551  1.00  0.00     0.272 C 
HETATM   28  C18 UNL     1      -7.236  -0.098  -0.482  1.00  0.00     0.030 C 
HETATM   29  C19 UNL     1      -7.375  -0.800  -1.789  1.00  0.00     0.003 C 
HETATM   30  C20 UNL     1      -6.246  -0.578  -2.740  1.00  0.00     0.030 C 
HETATM   31  C21 UNL     1      -4.908  -0.360  -2.108  1.00  0.00     0.272 C 
ENDBRANCH  25  26
ENDBRANCH  24  25
ENDBRANCH  19  22
ENDBRANCH   1  18
TORSDOF 4
