REMARK  4 active torsions:
REMARK  status: ('A' for Active; 'I' for Inactive)
REMARK    1  A    between atoms: C2_2  and  C3_3 
REMARK       I    between atoms: C3_3  and  N1_5 
REMARK    2  A    between atoms: N1_5  and  C4_6 
REMARK    3  A    between atoms: C9_13  and  N4_14 
REMARK    4  A    between atoms: N4_14  and  C10_15 
ROOT
HETATM    1  C4  UNL     1       2.308  -0.001  -1.105  1.00  0.00     0.013 C 
HETATM    2  C5  UNL     1       2.541   0.608  -2.248  1.00  0.00     0.005 C 
HETATM    3  C6  UNL     1       1.631   0.393  -3.435  1.00  0.00     0.089 C 
HETATM    4  C7  UNL     1       0.267   0.586  -2.810  1.00  0.00     0.049 A 
HETATM    5  N2  UNL     1      -0.658   1.383  -3.403  1.00  0.00    -0.245 NA
HETATM    6  C8  UNL     1      -1.884   1.561  -2.840  1.00  0.00     0.235 A 
HETATM    7  N3  UNL     1      -2.123   0.922  -1.694  1.00  0.00    -0.224 NA
HETATM    8  C9  UNL     1      -1.285   0.118  -1.033  1.00  0.00     0.138 A 
HETATM    9  C16 UNL     1      -0.022  -0.068  -1.610  1.00  0.00     0.018 A 
HETATM   10  C17 UNL     1       1.098  -0.898  -1.111  1.00  0.00     0.101 C 
ENDROOT
BRANCH   8  11
HETATM   11  N4  UNL     1      -1.526  -0.565   0.179  1.00  0.00    -0.340 N 
HETATM   12  H9  UNL     1      -0.817  -1.164   0.606  1.00  0.00     0.167 HD
BRANCH  11  13
HETATM   13  C10 UNL     1      -2.707  -0.545   0.961  1.00  0.00     0.035 A 
HETATM   14  C11 UNL     1      -3.832   0.181   0.638  1.00  0.00     0.029 A 
HETATM   15  C12 UNL     1      -4.988   0.215   1.383  1.00  0.00     0.004 A 
HETATM   16  C13 UNL     1      -5.065  -0.515   2.538  1.00  0.00     0.019 A 
HETATM   17  C14 UNL     1      -3.982  -1.260   2.918  1.00  0.00     0.013 A 
HETATM   18 BR1  UNL     1      -4.052  -2.277   4.503  1.00  0.00    -0.051 Br
HETATM   19  C15 UNL     1      -2.861  -1.251   2.134  1.00  0.00     0.048 A 
ENDBRANCH  11  13
ENDBRANCH   8  11
BRANCH   1  20
HETATM   20  N1  UNL     1       3.055   0.090   0.093  1.00  0.00    -0.328 N 
HETATM   21  C3  UNL     1       4.214   0.820   0.411  1.00  0.00     0.241 C 
HETATM   22  O1  UNL     1       4.712   1.530  -0.485  1.00  0.00    -0.269 OA
HETATM   23  H4  UNL     1       2.721  -0.474   0.925  1.00  0.00     0.169 HD
BRANCH  21  24
HETATM   24  C2  UNL     1       4.855   0.799   1.701  1.00  0.00     0.048 C 
HETATM   25  C1  UNL     1       5.050   0.459   2.964  1.00  0.00     0.037 C 
ENDBRANCH  21  24
ENDBRANCH   1  20
TORSDOF 4
