REMARK  5 active torsions:
REMARK  status: ('A' for Active; 'I' for Inactive)
REMARK    1  A    between atoms: C6_7  and  O1_8 
REMARK    2  A    between atoms: C14_20  and  O2_21 
REMARK    3  A    between atoms: O2_21  and  C15_22 
REMARK    4  A    between atoms: C15_22  and  C16_23 
REMARK    5  A    between atoms: C16_23  and  N5_24 
ROOT
HETATM    1  C1  UNL     1      -4.873   0.310   2.046  1.00  0.00     0.047 C 
HETATM    2  C2  UNL     1      -3.974  -0.122   0.913  1.00  0.00     0.244 C 
HETATM    3  C3  UNL     1      -2.759  -0.795   1.447  1.00  0.00     0.006 C 
HETATM    4  C4  UNL     1      -1.998  -1.811   1.105  1.00  0.00     0.001 C 
HETATM    5  C5  UNL     1      -0.921  -2.798   1.134  1.00  0.00     0.309 C 
HETATM    6  N1  UNL     1      -0.068  -2.728  -0.037  1.00  0.00     0.174 N 
HETATM    7  C6  UNL     1      -0.570  -3.360  -1.197  1.00  0.00     0.388 C 
HETATM    8  C7  UNL     1      -0.774  -2.468  -2.371  1.00  0.00     0.055 C 
HETATM    9  C8  UNL     1      -1.141  -1.214  -2.165  1.00  0.00     0.115 C 
HETATM   10  N2  UNL     1      -0.783  -0.666  -0.877  1.00  0.00    -0.250 N 
HETATM   11  N3  UNL     1      -1.454   0.404  -0.323  1.00  0.00    -0.298 N 
HETATM   12  C9  UNL     1      -2.658   0.836  -0.890  1.00  0.00     0.342 C 
HETATM   13  C10 UNL     1      -2.402   2.170  -1.570  1.00  0.00     0.104 C 
HETATM   14  C11 UNL     1      -3.532   3.103  -1.348  1.00  0.00    -0.010 C 
HETATM   15 BR1  UNL     1      -3.046   4.896  -1.894  1.00  0.00    -0.056 Br
HETATM   16  C12 UNL     1      -4.758   2.934  -0.868  1.00  0.00     0.018 C 
HETATM   17  C13 UNL     1      -4.899   1.494  -0.526  1.00  0.00     0.304 C 
HETATM   18  N4  UNL     1      -3.670   1.053   0.122  1.00  0.00     0.124 N 
HETATM   19  C14 UNL     1       0.351  -1.341  -0.219  1.00  0.00     0.492 C 
HETATM   20  H13 UNL     1      -0.773   1.133  -0.063  1.00  0.00     0.183 HD
ENDROOT
BRANCH  19  21
HETATM   21  O2  UNL     1       1.385  -1.358  -1.111  1.00  0.00    -0.339 OA
BRANCH  21  22
HETATM   22  C15 UNL     1       2.559  -0.828  -0.654  1.00  0.00     0.202 C 
BRANCH  22  23
HETATM   23  C16 UNL     1       2.365   0.629  -0.325  1.00  0.00     0.298 C 
BRANCH  23  24
HETATM   24  N5  UNL     1       3.589   1.190   0.141  1.00  0.00     0.090 N 
HETATM   25  C17 UNL     1       4.605   1.296  -0.846  1.00  0.00     0.272 C 
HETATM   26  C18 UNL     1       5.839   0.559  -0.379  1.00  0.00     0.030 C 
HETATM   27  C19 UNL     1       6.318   1.233   0.901  1.00  0.00     0.003 C 
HETATM   28  C20 UNL     1       5.229   1.432   1.904  1.00  0.00     0.030 C 
HETATM   29  C21 UNL     1       4.002   0.688   1.405  1.00  0.00     0.272 C 
ENDBRANCH  23  24
ENDBRANCH  22  23
ENDBRANCH  21  22
ENDBRANCH  19  21
BRANCH   7  30
HETATM   30  O1  UNL     1      -1.801  -3.993  -1.010  1.00  0.00    -0.365 OA
HETATM   31  H10 UNL     1      -1.693  -4.960  -0.812  1.00  0.00     0.212 HD
ENDBRANCH   7  30
TORSDOF 5
