REMARK  6 active torsions:
REMARK  status: ('A' for Active; 'I' for Inactive)
REMARK    1  A    between atoms: N1_5  and  C5_6 
REMARK    2  A    between atoms: C10_13  and  N4_14 
REMARK       I    between atoms: N4_14  and  C11_15 
REMARK    3  A    between atoms: C11_15  and  C12_17 
REMARK    4  A    between atoms: C12_17  and  O2_18 
REMARK    5  A    between atoms: O2_18  and  C13_19 
REMARK    6  A    between atoms: C13_19  and  N5_20 
ROOT
HETATM    1  C5  UNL     1      -3.563  -1.777  -1.124  1.00  0.00     0.140 A 
HETATM    2  N2  UNL     1      -4.272  -2.817  -1.653  1.00  0.00    -0.224 NA
HETATM    3  C6  UNL     1      -3.746  -3.735  -2.472  1.00  0.00     0.236 A 
HETATM    4  N3  UNL     1      -2.457  -3.665  -2.817  1.00  0.00    -0.241 NA
HETATM    5  C7  UNL     1      -1.663  -2.696  -2.366  1.00  0.00     0.072 A 
HETATM    6  C8  UNL     1      -0.334  -2.550  -2.684  1.00  0.00     0.035 A 
HETATM    7  C9  UNL     1       0.462  -1.515  -2.203  1.00  0.00     0.032 A 
HETATM    8  C10 UNL     1      -0.162  -0.593  -1.353  1.00  0.00     0.035 A 
HETATM    9  C19 UNL     1      -1.486  -0.760  -1.052  1.00  0.00     0.047 A 
HETATM   10  C20 UNL     1      -2.258  -1.787  -1.532  1.00  0.00     0.041 A 
ENDROOT
BRANCH   8  11
HETATM   11  N4  UNL     1       0.679   0.451  -0.882  1.00  0.00    -0.325 N 
HETATM   12  C11 UNL     1       1.434   0.329   0.332  1.00  0.00     0.245 C 
HETATM   13  O1  UNL     1       1.187  -0.805   0.809  1.00  0.00    -0.271 OA
HETATM   14  H10 UNL     1       0.590   1.231  -1.596  1.00  0.00     0.169 HD
BRANCH  12  15
HETATM   15  C12 UNL     1       2.230   1.562   0.596  1.00  0.00     0.273 C 
BRANCH  15  16
HETATM   16  O2  UNL     1       2.942   1.420   1.760  1.00  0.00    -0.353 OA
BRANCH  16  17
HETATM   17  C13 UNL     1       3.834   0.380   1.776  1.00  0.00     0.440 C 
BRANCH  17  18
HETATM   18  N5  UNL     1       4.868   0.453   0.761  1.00  0.00     0.111 N 
HETATM   19  C14 UNL     1       5.755  -0.695   0.838  1.00  0.00     0.275 C 
HETATM   20  C15 UNL     1       6.994  -0.330   1.607  1.00  0.00     0.030 C 
HETATM   21  C16 UNL     1       7.856   0.666   0.857  1.00  0.00     0.003 C 
HETATM   22  C17 UNL     1       6.939   1.588   0.118  1.00  0.00     0.030 C 
HETATM   23  C18 UNL     1       5.626   1.687   0.864  1.00  0.00     0.275 C 
ENDBRANCH  17  18
ENDBRANCH  16  17
ENDBRANCH  15  16
ENDBRANCH  12  15
ENDBRANCH   8  11
BRANCH   1  24
HETATM   24  N1  UNL     1      -4.277  -0.938  -0.224  1.00  0.00    -0.357 N 
HETATM   25  C4  UNL     1      -5.734  -0.899  -0.406  1.00  0.00     0.152 C 
HETATM   26  C3  UNL     1      -6.269   0.453  -0.586  1.00  0.00    -0.005 C 
HETATM   27  C2  UNL     1      -5.562   1.479  -0.157  1.00  0.00    -0.084 C 
HETATM   28  C1  UNL     1      -6.202   2.823  -0.392  1.00  0.00     0.043 C 
HETATM   29  C23 UNL     1      -4.237   1.353   0.507  1.00  0.00     0.058 C 
HETATM   30  C21 UNL     1      -4.047  -0.092   0.899  1.00  0.00     0.086 C 
HETATM   31  C22 UNL     1      -5.076  -0.323   2.035  1.00  0.00     0.032 C 
ENDBRANCH   1  24
TORSDOF 6
