REMARK  7 active torsions:
REMARK  status: ('A' for Active; 'I' for Inactive)
REMARK    1  A    between atoms: N1_2  and  C1_3 
REMARK    2  A    between atoms: C1_3  and  C2_4 
REMARK    3  A    between atoms: C2_4  and  N2_5 
REMARK    4  A    between atoms: C2_4  and  N4_15 
REMARK    5  A    between atoms: N2_5  and  C3_6 
REMARK    6  A    between atoms: C4_7  and  C5_8 
REMARK    7  A    between atoms: N4_15  and  C11_16 
ROOT
HETATM    1  C2  UNL     1      -1.025   0.602   0.521  1.00  0.00     0.195 C 
ENDROOT
BRANCH   1   2
HETATM    2  C1  UNL     1      -0.740   1.639  -0.541  1.00  0.00     0.151 C 
BRANCH   2   3
HETATM    3  N1  UNL     1      -1.192   2.949  -0.103  1.00  0.00    -0.234 NA
HETATM    4 CL1  UNL     1      -0.883   4.156  -1.296  1.00  0.00    -0.024 Cl
HETATM    5  H1  UNL     1      -2.138   2.945   0.291  1.00  0.00     0.141 HD
ENDBRANCH   2   3
ENDBRANCH   1   2
BRANCH   1   6
HETATM    6  N2  UNL     1      -0.338   0.952   1.747  1.00  0.00    -0.377 N 
HETATM    7  H5  UNL     1      -0.931   1.111   2.612  1.00  0.00     0.161 HD
BRANCH   6   8
HETATM    8  C3  UNL     1       1.078   1.063   1.731  1.00  0.00     0.085 C 
HETATM    9  C4  UNL     1       1.900   0.213   1.161  1.00  0.00     0.019 C 
BRANCH   9  10
HETATM   10  C5  UNL     1       3.315   0.514   1.261  1.00  0.00     0.033 C 
HETATM   11  C6  UNL     1       4.111  -0.344   0.688  1.00  0.00     0.063 C 
HETATM   12  N3  UNL     1       3.834  -1.532  -0.024  1.00  0.00    -0.264 NA
HETATM   13  C10 UNL     1       5.556  -0.377   0.580  1.00  0.00    -0.019 A 
HETATM   14  C7  UNL     1       4.866  -2.102  -0.512  1.00  0.00     0.103 C 
HETATM   15  C8  UNL     1       6.181  -1.462  -0.343  1.00  0.00     0.084 A 
HETATM   16  C9  UNL     1       6.871  -0.481   0.421  1.00  0.00    -0.002 A 
ENDBRANCH   9  10
ENDBRANCH   6   8
ENDBRANCH   1   6
BRANCH   1  17
HETATM   17  N4  UNL     1      -2.405   0.292   0.695  1.00  0.00    -0.368 N 
HETATM   18  H12 UNL     1      -2.772   0.613   1.629  1.00  0.00     0.161 HD
BRANCH  17  19
HETATM   19  C11 UNL     1      -3.299  -0.347  -0.165  1.00  0.00     0.030 A 
HETATM   20  C12 UNL     1      -2.995  -0.863  -1.407  1.00  0.00     0.029 A 
HETATM   21  C13 UNL     1      -3.873  -1.488  -2.268  1.00  0.00     0.004 A 
HETATM   22  C14 UNL     1      -5.177  -1.603  -1.835  1.00  0.00     0.019 A 
HETATM   23  C15 UNL     1      -5.570  -1.116  -0.606  1.00  0.00     0.013 A 
HETATM   24 BR1  UNL     1      -7.379  -1.275  -0.002  1.00  0.00    -0.051 Br
HETATM   25  C16 UNL     1      -4.622  -0.507   0.185  1.00  0.00     0.048 A 
ENDBRANCH  17  19
ENDBRANCH   1  17
TORSDOF 7
