REMARK  6 active torsions:
REMARK  status: ('A' for Active; 'I' for Inactive)
REMARK    1  A    between atoms: C1_2  and  C2_3 
REMARK       I    between atoms: C1_2  and  N2_13 
REMARK    2  A    between atoms: C3_5  and  C4_6 
REMARK    3  A    between atoms: C4_6  and  N1_7 
REMARK    4  A    between atoms: C14_20  and  N5_21 
REMARK    5  A    between atoms: N5_21  and  C15_22 
REMARK    6  A    between atoms: C15_22  and  C16_23 
ROOT
HETATM    1  C16 UNL     1      -5.690   2.869   1.186  1.00  0.00    -0.074 C 
HETATM    2  C17 UNL     1      -5.511   3.966   1.664  1.00  0.00    -0.022 C 
HETATM    3 BR1  UNL     1      -5.262   5.671   2.420  1.00  0.00     0.010 Br
ENDROOT
BRANCH   1   4
HETATM    4  C15 UNL     1      -5.899   1.540   0.613  1.00  0.00     0.216 C 
BRANCH   4   5
HETATM    5  N5  UNL     1      -4.706   0.692   0.773  1.00  0.00    -0.364 N 
HETATM    6  H19 UNL     1      -3.820   0.976   1.231  1.00  0.00     0.162 HD
BRANCH   5   7
HETATM    7  C14 UNL     1      -4.953  -0.587   0.202  1.00  0.00     0.135 C 
HETATM    8  N4  UNL     1      -5.909  -1.111  -0.486  1.00  0.00    -0.225 NA
HETATM    9  C13 UNL     1      -5.898  -2.463  -0.915  1.00  0.00     0.230 C 
HETATM   10  N3  UNL     1      -4.976  -3.391  -0.677  1.00  0.00    -0.269 NA
HETATM   11  C12 UNL     1      -3.883  -2.952   0.131  1.00  0.00     0.171 A 
HETATM   12  C11 UNL     1      -2.608  -3.616   0.046  1.00  0.00     0.023 A 
HETATM   13  C18 UNL     1      -3.772  -1.486   0.146  1.00  0.00     0.032 A 
HETATM   14  C10 UNL     1      -1.399  -3.086   0.007  1.00  0.00     0.098 A 
HETATM   15  N2  UNL     1      -1.288  -1.665   0.042  1.00  0.00    -0.301 N 
HETATM   16  C1  UNL     1      -0.021  -1.073   0.013  1.00  0.00     0.259 C 
HETATM   17  C19 UNL     1      -2.531  -0.980   0.109  1.00  0.00     0.113 A 
HETATM   18  O1  UNL     1       0.955  -1.898  -0.045  1.00  0.00    -0.270 OA
BRANCH  16  19
HETATM   19  C2  UNL     1       0.328   0.353   0.039  1.00  0.00     0.245 A 
HETATM   20  O2  UNL     1       1.424   0.640   0.833  1.00  0.00    -0.364 OA
HETATM   21  C3  UNL     1       1.519   0.960  -0.502  1.00  0.00     0.178 A 
BRANCH  21  22
HETATM   22  C4  UNL     1       2.578   0.300  -1.316  1.00  0.00     0.151 C 
BRANCH  22  23
HETATM   23  N1  UNL     1       3.921   0.517  -0.902  1.00  0.00    -0.410 N 
HETATM   24  C5  UNL     1       4.444   1.825  -1.037  1.00  0.00     0.117 C 
HETATM   25  C6  UNL     1       5.939   1.830  -1.023  1.00  0.00     0.019 C 
HETATM   26  C7  UNL     1       6.565   0.830  -0.094  1.00  0.00     0.003 C 
HETATM   27  C8  UNL     1       5.554   0.354   0.901  1.00  0.00     0.019 C 
HETATM   28  C9  UNL     1       4.333  -0.237   0.227  1.00  0.00     0.117 C 
ENDBRANCH  22  23
ENDBRANCH  21  22
ENDBRANCH  16  19
ENDBRANCH   5   7
ENDBRANCH   4   5
ENDBRANCH   1   4
TORSDOF 6
