REMARK  6 active torsions:
REMARK  status: ('A' for Active; 'I' for Inactive)
REMARK    1  A    between atoms: C1_2  and  C2_3 
REMARK       I    between atoms: C1_2  and  N2_10 
REMARK    2  A    between atoms: C2_3  and  N1_4 
REMARK    3  A    between atoms: N2_10  and  C6_11 
REMARK    4  A    between atoms: C10_17  and  N5_18 
REMARK    5  A    between atoms: N5_18  and  C11_19 
REMARK    6  A    between atoms: C11_19  and  C12_20 
ROOT
HETATM    1  C6  UNL     1       1.935   0.713  -1.300  1.00  0.00     0.032 C 
HETATM    2  C7  UNL     1       2.167   1.811  -0.626  1.00  0.00     0.024 C 
HETATM    3  C8  UNL     1       0.855   2.389  -0.500  1.00  0.00     0.179 C 
HETATM    4  N3  UNL     1       0.242   2.605   0.751  1.00  0.00    -0.279 NA
HETATM    5  C9  UNL     1      -0.587   1.721   1.247  1.00  0.00     0.229 C 
HETATM    6  N4  UNL     1      -0.427   0.870   0.139  1.00  0.00    -0.225 NA
HETATM    7  C10 UNL     1      -1.229   0.064  -0.391  1.00  0.00     0.125 C 
HETATM    8  C18 UNL     1      -0.267  -0.555  -1.334  1.00  0.00     0.052 C 
HETATM    9  C19 UNL     1       1.000  -0.308  -1.690  1.00  0.00     0.033 C 
ENDROOT
BRANCH   1  10
HETATM   10  N2  UNL     1       3.294   0.211  -1.422  1.00  0.00    -0.326 N 
HETATM   11  C1  UNL     1       3.628  -1.068  -0.868  1.00  0.00     0.241 C 
HETATM   12  O1  UNL     1       2.741  -1.741  -0.285  1.00  0.00    -0.271 OA
HETATM   13  H5  UNL     1       4.142   0.656  -1.880  1.00  0.00     0.169 HD
BRANCH  11  14
HETATM   14  C2  UNL     1       4.982  -1.671  -0.937  1.00  0.00     0.243 C 
BRANCH  14  15
HETATM   15  N1  UNL     1       5.813  -1.316   0.211  1.00  0.00    -0.276 N 
HETATM   16  S1  UNL     1       5.946  -2.215   1.756  1.00  0.00    -0.021 SA
HETATM   17  C3  UNL     1       7.163  -1.039   2.500  1.00  0.00     0.074 A 
HETATM   18  C4  UNL     1       7.328  -0.118   1.515  1.00  0.00     0.083 A 
HETATM   19  C5  UNL     1       6.650  -0.230   0.327  1.00  0.00     0.254 A 
HETATM   20  O2  UNL     1       6.742   0.573  -0.635  1.00  0.00    -0.268 OA
ENDBRANCH  14  15
ENDBRANCH  11  14
ENDBRANCH   1  10
BRANCH   7  21
HETATM   21  N5  UNL     1      -2.553  -0.400  -0.244  1.00  0.00    -0.371 N 
HETATM   22  H10 UNL     1      -2.878  -1.221  -0.798  1.00  0.00     0.161 HD
BRANCH  21  23
HETATM   23  C11 UNL     1      -3.196   0.477   0.751  1.00  0.00     0.157 C 
BRANCH  23  24
HETATM   24  C12 UNL     1      -4.596  -0.006   0.901  1.00  0.00    -0.045 A 
HETATM   25  C13 UNL     1      -4.956  -0.408   2.095  1.00  0.00     0.014 A 
HETATM   26 BR1  UNL     1      -3.811  -0.410   3.614  1.00  0.00    -0.051 Br
HETATM   27  C14 UNL     1      -6.333  -0.866   2.177  1.00  0.00     0.015 A 
HETATM   28  C15 UNL     1      -6.963  -0.791   1.040  1.00  0.00    -0.025 A 
HETATM   29  C16 UNL     1      -6.667  -0.363  -0.337  1.00  0.00     0.031 A 
HETATM   30  C17 UNL     1      -5.241   0.112  -0.419  1.00  0.00     0.041 A 
ENDBRANCH  23  24
ENDBRANCH  21  23
ENDBRANCH   7  21
TORSDOF 6
