REMARK  1 active torsions:
REMARK  status: ('A' for Active; 'I' for Inactive)
REMARK    1  A    between atoms: C4_5  and  C5_6 
ROOT
HETATM    1  C1  UNL     1       2.821   2.076   0.641  1.00  0.00     0.035 C 
HETATM    2  C2  UNL     1       3.125   1.268  -0.577  1.00  0.00     0.112 C 
HETATM    3  N1  UNL     1       1.938   0.834  -1.263  1.00  0.00    -0.299 NA
HETATM    4  C3  UNL     1       0.918   0.170  -0.858  1.00  0.00     0.095 C 
HETATM    5  C4  UNL     1       0.351  -0.494   0.374  1.00  0.00     0.081 C 
HETATM    6  C13 UNL     1       1.143  -1.713   0.645  1.00  0.00     0.044 C 
HETATM    7  C14 UNL     1       2.442  -1.285   1.289  1.00  0.00    -0.006 C 
HETATM    8  C15 UNL     1       3.565  -0.609   0.992  1.00  0.00     0.014 C 
HETATM    9 CL1  UNL     1       4.746  -0.485   2.310  1.00  0.00    -0.089 Cl
HETATM   10  C16 UNL     1       4.020   0.070  -0.252  1.00  0.00     0.050 C 
HETATM   11  C17 UNL     1       4.102  -0.829  -1.441  1.00  0.00     0.018 C 
ENDROOT
BRANCH   5  12
HETATM   12  C5  UNL     1      -1.089  -0.695   0.106  1.00  0.00     0.041 C 
HETATM   13  C6  UNL     1      -1.717  -1.872   0.087  1.00  0.00     0.160 C 
HETATM   14  O1  UNL     1      -3.044  -2.191  -0.148  1.00  0.00    -0.360 OA
HETATM   15  C7  UNL     1      -4.194  -1.339  -0.027  1.00  0.00     0.189 C 
HETATM   16  C8  UNL     1      -4.054  -0.122  -0.903  1.00  0.00     0.082 A 
HETATM   17  C9  UNL     1      -5.352   0.592  -0.916  1.00  0.00    -0.014 A 
HETATM   18  C12 UNL     1      -3.096   0.862  -0.335  1.00  0.00     0.019 A 
HETATM   19  C10 UNL     1      -5.137   1.807  -0.422  1.00  0.00    -0.001 A 
HETATM   20  C11 UNL     1      -3.734   1.995  -0.053  1.00  0.00     0.025 A 
HETATM   21  N2  UNL     1      -1.692   0.597  -0.129  1.00  0.00    -0.360 N 
HETATM   22  H14 UNL     1      -1.111   1.471  -0.165  1.00  0.00     0.165 HD
ENDBRANCH   5  12
TORSDOF 1
