REMARK  6 active torsions:
REMARK  status: ('A' for Active; 'I' for Inactive)
REMARK    1  A    between atoms: C3_3  and  S1_4 
REMARK    2  A    between atoms: S1_4  and  N1_5 
REMARK    3  A    between atoms: N1_5  and  C4_6 
REMARK    4  A    between atoms: C4_6  and  C5_7 
REMARK       I    between atoms: C5_7  and  N2_9 
REMARK    5  A    between atoms: N2_9  and  C6_10 
REMARK    6  A    between atoms: C11_17  and  C12_18 
ROOT
HETATM    1  C6  UNL     1      -1.279  -0.699   0.989  1.00  0.00     0.035 A 
HETATM    2  C7  UNL     1      -1.870  -1.388   2.020  1.00  0.00     0.032 A 
HETATM    3  C8  UNL     1      -3.226  -1.497   2.241  1.00  0.00     0.035 A 
HETATM    4  C9  UNL     1      -4.077  -0.863   1.360  1.00  0.00     0.070 A 
HETATM    5  N3  UNL     1      -5.413  -0.929   1.517  1.00  0.00    -0.241 NA
HETATM    6  C10 UNL     1      -6.203  -0.283   0.615  1.00  0.00     0.234 A 
HETATM    7  N4  UNL     1      -5.654   0.413  -0.424  1.00  0.00    -0.241 NA
HETATM    8  C11 UNL     1      -4.337   0.483  -0.587  1.00  0.00     0.077 A 
HETATM    9  C15 UNL     1      -3.524  -0.160   0.311  1.00  0.00     0.024 A 
HETATM   10  C16 UNL     1      -2.160  -0.082   0.134  1.00  0.00     0.045 A 
ENDROOT
BRANCH   1  11
HETATM   11  N2  UNL     1       0.101  -0.565   0.730  1.00  0.00    -0.326 N 
HETATM   12  C5  UNL     1       1.199  -1.092   1.445  1.00  0.00     0.235 C 
HETATM   13  O1  UNL     1       1.004  -1.782   2.458  1.00  0.00    -0.272 OA
HETATM   14  H9  UNL     1       0.427  -0.011  -0.092  1.00  0.00     0.169 HD
BRANCH  12  15
HETATM   15  C4  UNL     1       2.624  -0.889   1.084  1.00  0.00     0.202 C 
BRANCH  15  16
HETATM   16  N1  UNL     1       2.771  -0.072  -0.113  1.00  0.00    -0.256 NA
HETATM   17  H6  UNL     1       2.338  -0.588  -0.925  1.00  0.00     0.135 HD
BRANCH  16  18
HETATM   18  S1  UNL     1       4.470   0.160  -0.530  1.00  0.00    -0.056 SA
BRANCH  18  19
HETATM   19  C3  UNL     1       5.191   1.527   0.344  1.00  0.00     0.057 C 
HETATM   20  C2  UNL     1       6.362   1.477  -0.292  1.00  0.00    -0.023 C 
HETATM   21  C1  UNL     1       6.540   0.428  -1.331  1.00  0.00     0.036 C 
ENDBRANCH  18  19
ENDBRANCH  16  18
ENDBRANCH  15  16
ENDBRANCH  12  15
ENDBRANCH   1  11
BRANCH   8  22
HETATM   22  C12 UNL     1      -3.797   1.247  -1.724  1.00  0.00    -0.028 A 
HETATM   23  C13 UNL     1      -4.127   1.972  -2.763  1.00  0.00    -0.012 A 
HETATM   24  C14 UNL     1      -2.687   1.798  -2.577  1.00  0.00     0.068 A 
ENDBRANCH   8  22
TORSDOF 6
