REMARK  5 active torsions:
REMARK  status: ('A' for Active; 'I' for Inactive)
REMARK    1  A    between atoms: C1_2  and  C2_3 
REMARK       I    between atoms: C1_2  and  N2_14 
REMARK    2  A    between atoms: C2_3  and  N1_4 
REMARK       I    between atoms: N1_4  and  C3_5 
REMARK    3  A    between atoms: C3_5  and  O3_7 
REMARK    4  A    between atoms: O3_7  and  C4_8 
REMARK    5  A    between atoms: N2_14  and  C10_15 
ROOT
HETATM    1  O1  UNL     1       0.198  -0.086  -1.338  1.00  0.00    -0.272 OA
HETATM    2  C1  UNL     1       0.318  -1.253  -0.846  1.00  0.00     0.236 C 
HETATM    3  N2  UNL     1       1.528  -1.958  -1.023  1.00  0.00    -0.346 N 
HETATM    4  H9  UNL     1       1.316  -2.876  -0.530  1.00  0.00     0.163 HD
ENDROOT
BRANCH   2   5
HETATM    5  C2  UNL     1      -1.023  -1.289  -0.266  1.00  0.00     0.227 C 
BRANCH   5   6
HETATM    6  N1  UNL     1      -1.745  -0.034  -0.518  1.00  0.00    -0.328 N 
HETATM    7  C3  UNL     1      -3.069  -0.054   0.049  1.00  0.00     0.366 C 
HETATM    8  O2  UNL     1      -3.356  -1.133   0.641  1.00  0.00    -0.238 OA
HETATM    9  H3  UNL     1      -1.435   0.829  -1.027  1.00  0.00     0.165 HD
BRANCH   7  10
HETATM   10  O3  UNL     1      -3.826   1.102  -0.137  1.00  0.00    -0.262 OA
BRANCH  10  11
HETATM   11  C4  UNL     1      -5.120   1.250   0.340  1.00  0.00     0.081 A 
HETATM   12  C5  UNL     1      -5.391   1.668   1.626  1.00  0.00     0.037 A 
HETATM   13  C6  UNL     1      -6.636   1.837   2.168  1.00  0.00     0.003 A 
HETATM   14  C7  UNL     1      -7.687   1.550   1.303  1.00  0.00     0.000 A 
HETATM   15  C8  UNL     1      -7.554   1.123  -0.012  1.00  0.00     0.003 A 
HETATM   16  C9  UNL     1      -6.228   0.991  -0.437  1.00  0.00     0.037 A 
ENDBRANCH  10  11
ENDBRANCH   7  10
ENDBRANCH   5   6
ENDBRANCH   2   5
BRANCH   3  17
HETATM   17  C10 UNL     1       2.504  -1.323  -1.725  1.00  0.00     0.088 A 
HETATM   18  C11 UNL     1       3.110  -1.446  -0.493  1.00  0.00     0.072 A 
HETATM   19  C12 UNL     1       3.864  -1.522   0.796  1.00  0.00    -0.012 C 
HETATM   20  C17 UNL     1       3.662  -0.730  -2.038  1.00  0.00     0.089 A 
HETATM   21  C13 UNL     1       5.023  -1.250   1.478  1.00  0.00     0.023 C 
HETATM   22  C14 UNL     1       6.318  -0.617   1.122  1.00  0.00     0.224 C 
HETATM   23  N3  UNL     1       6.528  -0.231  -0.158  1.00  0.00    -0.443 NA
HETATM   24  C15 UNL     1       6.389   0.063  -1.289  1.00  0.00     0.274 C 
HETATM   25  N4  UNL     1       5.772   0.323  -2.539  1.00  0.00    -0.310 N 
HETATM   26  C16 UNL     1       4.619  -0.248  -2.276  1.00  0.00    -0.054 C 
HETATM   27  H16 UNL     1       6.095   0.785  -3.366  1.00  0.00     0.177 HD
ENDBRANCH   3  17
TORSDOF 5
