REMARK  4 active torsions:
REMARK  status: ('A' for Active; 'I' for Inactive)
REMARK    1  A    between atoms: C4_6  and  C5_7 
REMARK       I    between atoms: C5_7  and  N1_9 
REMARK    2  A    between atoms: N1_9  and  C6_10 
REMARK    3  A    between atoms: C10_16  and  N4_17 
REMARK    4  A    between atoms: N4_17  and  C11_18 
ROOT
HETATM    1  C6  UNL     1      -1.649  -1.070   1.132  1.00  0.00     0.134 A 
HETATM    2  C7  UNL     1      -1.086  -1.128   2.491  1.00  0.00     0.034 A 
HETATM    3  C8  UNL     1       0.215  -0.911   2.421  1.00  0.00     0.070 A 
HETATM    4  N2  UNL     1       1.096  -0.880   3.431  1.00  0.00    -0.241 NA
HETATM    5  C9  UNL     1       2.384  -0.644   3.178  1.00  0.00     0.235 A 
HETATM    6  N3  UNL     1       2.750  -0.447   1.914  1.00  0.00    -0.224 NA
HETATM    7  C10 UNL     1       1.968  -0.456   0.848  1.00  0.00     0.141 A 
HETATM    8  C17 UNL     1       0.640  -0.702   1.137  1.00  0.00     0.037 A 
HETATM    9  C18 UNL     1      -0.429  -0.785   0.326  1.00  0.00     0.020 A 
ENDROOT
BRANCH   1  10
HETATM   10  N1  UNL     1      -2.635  -0.016   0.995  1.00  0.00    -0.348 N 
HETATM   11  C5  UNL     1      -3.927  -0.432   0.513  1.00  0.00     0.240 C 
HETATM   12  O2  UNL     1      -4.148  -1.655   0.237  1.00  0.00    -0.272 OA
HETATM   13  H4  UNL     1      -2.359   0.945   1.244  1.00  0.00     0.163 HD
BRANCH  11  14
HETATM   14  C4  UNL     1      -4.964   0.647   0.364  1.00  0.00     0.217 A 
HETATM   15  C1  UNL     1      -6.224   0.077  -0.133  1.00  0.00     0.172 A 
HETATM   16  O1  UNL     1      -6.870  -0.555   0.756  1.00  0.00    -0.291 OA
HETATM   17  C2  UNL     1      -6.575   0.283  -1.504  1.00  0.00     0.058 A 
HETATM   18  C3  UNL     1      -5.753   1.058  -2.167  1.00  0.00     0.050 A 
HETATM   19  S1  UNL     1      -4.424   1.613  -1.093  1.00  0.00    -0.119 SA
ENDBRANCH  11  14
ENDBRANCH   1  10
BRANCH   7  20
HETATM   20  N4  UNL     1       2.339  -0.249  -0.491  1.00  0.00    -0.340 N 
HETATM   21  H8  UNL     1       1.598  -0.286  -1.242  1.00  0.00     0.167 HD
BRANCH  20  22
HETATM   22  C11 UNL     1       3.629   0.016  -1.010  1.00  0.00     0.035 A 
HETATM   23  C12 UNL     1       3.875   0.205  -2.374  1.00  0.00     0.029 A 
HETATM   24  C13 UNL     1       5.111   0.462  -2.904  1.00  0.00     0.004 A 
HETATM   25  C14 UNL     1       6.211   0.549  -2.080  1.00  0.00     0.019 A 
HETATM   26  C15 UNL     1       6.034   0.372  -0.731  1.00  0.00     0.013 A 
HETATM   27 BR1  UNL     1       7.572   0.499   0.376  1.00  0.00    -0.051 Br
HETATM   28  C16 UNL     1       4.778   0.117  -0.252  1.00  0.00     0.048 A 
ENDBRANCH  20  22
ENDBRANCH   7  20
TORSDOF 4
