REMARK  6 active torsions:
REMARK  status: ('A' for Active; 'I' for Inactive)
REMARK    1  A    between atoms: C1_2  and  C2_3 
REMARK       I    between atoms: C1_2  and  N1_11 
REMARK    2  A    between atoms: C2_3  and  O2_4 
REMARK    3  A    between atoms: O2_4  and  C3_5 
REMARK    4  A    between atoms: N1_11  and  C9_12 
REMARK    5  A    between atoms: C14_19  and  N4_20 
REMARK    6  A    between atoms: N4_20  and  C15_21 
ROOT
HETATM    1  C9  UNL     1       0.243  -1.229  -0.135  1.00  0.00     0.035 A 
HETATM    2  C10 UNL     1       0.170  -2.585  -0.343  1.00  0.00     0.032 A 
HETATM    3  C11 UNL     1       1.257  -3.414  -0.488  1.00  0.00     0.035 A 
HETATM    4  C12 UNL     1       2.492  -2.809  -0.413  1.00  0.00     0.072 A 
HETATM    5  N2  UNL     1       3.580  -3.623  -0.556  1.00  0.00    -0.241 NA
HETATM    6  C13 UNL     1       4.823  -3.130  -0.499  1.00  0.00     0.236 A 
HETATM    7  N3  UNL     1       4.920  -1.816  -0.297  1.00  0.00    -0.224 NA
HETATM    8  C14 UNL     1       3.932  -0.943  -0.146  1.00  0.00     0.142 A 
HETATM    9  C21 UNL     1       2.657  -1.456  -0.206  1.00  0.00     0.041 A 
HETATM   10  C22 UNL     1       1.512  -0.708  -0.073  1.00  0.00     0.047 A 
ENDROOT
BRANCH   1  11
HETATM   11  N1  UNL     1      -0.840  -0.339   0.020  1.00  0.00    -0.325 N 
HETATM   12  C1  UNL     1      -2.223  -0.609   0.000  1.00  0.00     0.246 C 
HETATM   13  O1  UNL     1      -2.598  -1.791  -0.176  1.00  0.00    -0.271 OA
HETATM   14  H10 UNL     1      -0.686   0.680   0.175  1.00  0.00     0.169 HD
BRANCH  12  15
HETATM   15  C2  UNL     1      -3.311   0.367   0.168  1.00  0.00     0.278 C 
BRANCH  15  16
HETATM   16  O2  UNL     1      -4.555  -0.310   0.083  1.00  0.00    -0.346 OA
BRANCH  16  17
HETATM   17  C3  UNL     1      -5.763   0.329   0.202  1.00  0.00     0.047 A 
HETATM   18  C4  UNL     1      -5.953   1.636   0.048  1.00  0.00     0.032 A 
HETATM   19  C5  UNL     1      -7.301   2.184   0.204  1.00  0.00    -0.002 A 
HETATM   20  C6  UNL     1      -8.286   1.353   0.495  1.00  0.00    -0.026 A 
HETATM   21  C7  UNL     1      -8.178  -0.100   0.685  1.00  0.00     0.033 A 
HETATM   22  C8  UNL     1      -6.808  -0.665   0.527  1.00  0.00     0.068 A 
ENDBRANCH  16  17
ENDBRANCH  15  16
ENDBRANCH  12  15
ENDBRANCH   1  11
BRANCH   8  23
HETATM   23  N4  UNL     1       4.128   0.439   0.065  1.00  0.00    -0.340 N 
HETATM   24  H14 UNL     1       3.335   1.093   0.199  1.00  0.00     0.167 HD
BRANCH  23  25
HETATM   25  C15 UNL     1       5.358   1.140   0.125  1.00  0.00     0.035 A 
HETATM   26  C16 UNL     1       6.575   0.597  -0.180  1.00  0.00     0.029 A 
HETATM   27  C17 UNL     1       7.773   1.254  -0.119  1.00  0.00     0.004 A 
HETATM   28  C18 UNL     1       7.803   2.573   0.277  1.00  0.00     0.019 A 
HETATM   29  C19 UNL     1       6.615   3.183   0.599  1.00  0.00     0.013 A 
HETATM   30 BR1  UNL     1       6.601   5.002   1.152  1.00  0.00    -0.051 Br
HETATM   31  C20 UNL     1       5.462   2.466   0.515  1.00  0.00     0.048 A 
ENDBRANCH  23  25
ENDBRANCH   8  23
TORSDOF 6
