REMARK  2 active torsions:
REMARK  status: ('A' for Active; 'I' for Inactive)
REMARK    1  A    between atoms: C5_6  and  N1_7 
REMARK    2  A    between atoms: N1_7  and  C6_8 
ROOT
HETATM    1  C6  UNL     1       2.059  -0.390  -0.021  1.00  0.00     0.171 A 
HETATM    2  C7  UNL     1       0.704  -0.060  -0.586  1.00  0.00     0.019 A 
HETATM    3  C8  UNL     1      -0.460   0.170  -1.130  1.00  0.00     0.153 C 
HETATM    4  O1  UNL     1      -1.613   0.242  -1.845  1.00  0.00    -0.324 OA
HETATM    5  C9  UNL     1      -2.699  -0.637  -1.616  1.00  0.00     0.079 C 
HETATM    6  C10 UNL     1      -2.684  -1.932  -1.982  1.00  0.00     0.011 C 
HETATM    7  C11 UNL     1      -3.950  -2.662  -1.633  1.00  0.00     0.056 C 
HETATM    8  C12 UNL     1      -4.357  -2.379  -0.207  1.00  0.00     0.172 C 
HETATM    9  O2  UNL     1      -4.121  -1.059   0.159  1.00  0.00    -0.377 OA
HETATM   10  C13 UNL     1      -3.965  -0.232  -0.953  1.00  0.00     0.195 C 
HETATM   11  C14 UNL     1      -3.830   1.188  -0.467  1.00  0.00     0.157 C 
HETATM   12  N2  UNL     1      -3.362   1.142   0.924  1.00  0.00    -0.396 N 
HETATM   13  C15 UNL     1      -3.140   2.348   1.687  1.00  0.00     0.079 C 
HETATM   14  C16 UNL     1      -2.153   3.069   2.250  1.00  0.00    -0.002 C 
HETATM   15  C17 UNL     1      -1.032   2.217   1.874  1.00  0.00     0.099 C 
HETATM   16  C18 UNL     1       0.269   2.304   2.091  1.00  0.00     0.097 C 
HETATM   17  N3  UNL     1       1.245   1.420   1.678  1.00  0.00    -0.290 NA
HETATM   18  C19 UNL     1       1.227   0.611   0.642  1.00  0.00     0.066 A 
HETATM   19  H15 UNL     1      -3.105   0.383   1.622  1.00  0.00     0.158 HD
ENDROOT
BRANCH   1  20
HETATM   20  N1  UNL     1       3.135   0.003  -0.936  1.00  0.00    -0.376 N 
HETATM   21  H4  UNL     1       3.042   0.459  -1.869  1.00  0.00     0.160 HD
BRANCH  20  22
HETATM   22  C5  UNL     1       4.450  -0.277  -0.485  1.00  0.00     0.030 A 
HETATM   23  C4  UNL     1       5.579   0.040  -1.247  1.00  0.00     0.029 A 
HETATM   24  C3  UNL     1       6.882  -0.204  -0.869  1.00  0.00     0.004 A 
HETATM   25  C2  UNL     1       7.049  -0.806   0.360  1.00  0.00     0.019 A 
HETATM   26  C1  UNL     1       6.008  -1.156   1.184  1.00  0.00     0.013 A 
HETATM   27 BR1  UNL     1       6.323  -1.987   2.870  1.00  0.00    -0.051 Br
HETATM   28  C20 UNL     1       4.748  -0.874   0.721  1.00  0.00     0.048 A 
ENDBRANCH  20  22
ENDBRANCH   1  20
TORSDOF 2
