REMARK  6 active torsions:
REMARK  status: ('A' for Active; 'I' for Inactive)
REMARK    1  A    between atoms: N1_1  and  C1_2 
REMARK    2  A    between atoms: N2_8  and  C6_9 
REMARK    3  A    between atoms: C11_15  and  C12_16 
REMARK    4  A    between atoms: C12_16  and  C13_18 
REMARK    5  A    between atoms: C13_18  and  O2_19 
REMARK    6  A    between atoms: O2_19  and  C14_20 
ROOT
HETATM    1  C6  UNL     1      -3.198   0.502   0.990  1.00  0.00     0.162 A 
HETATM    2  C7  UNL     1      -3.552  -0.034   2.326  1.00  0.00     0.120 A 
HETATM    3  N3  UNL     1      -2.496  -0.414   3.004  1.00  0.00    -0.262 NA
HETATM    4  C8  UNL     1      -1.335  -0.180   2.213  1.00  0.00     0.065 A 
HETATM    5  C9  UNL     1       0.002  -0.403   2.465  1.00  0.00     0.033 A 
HETATM    6  C10 UNL     1       0.879  -0.055   1.462  1.00  0.00     0.017 A 
HETATM    7  C11 UNL     1       0.530   0.489   0.251  1.00  0.00     0.013 A 
HETATM    8  C20 UNL     1      -0.813   0.699   0.034  1.00  0.00     0.027 A 
HETATM    9  C21 UNL     1      -1.726   0.367   1.005  1.00  0.00    -0.001 A 
ENDROOT
BRANCH   1  10
HETATM   10  N2  UNL     1      -3.869  -0.117  -0.096  1.00  0.00    -0.343 N 
HETATM   11  C1  UNL     1      -4.716   0.659  -0.980  1.00  0.00     0.343 A 
HETATM   12  C2  UNL     1      -5.322  -0.179  -2.047  1.00  0.00     0.030 A 
HETATM   13  C3  UNL     1      -5.168  -1.457  -2.242  1.00  0.00     0.020 A 
HETATM   14  C4  UNL     1      -4.299  -2.155  -1.303  1.00  0.00     0.026 A 
HETATM   15 BR1  UNL     1      -4.027  -4.030  -1.528  1.00  0.00    -0.050 Br
HETATM   16  C5  UNL     1      -3.708  -1.513  -0.318  1.00  0.00     0.108 A 
BRANCH  11  17
HETATM   17  N1  UNL     1      -5.819   1.298  -0.285  1.00  0.00     0.105 N 
HETATM   18  H1  UNL     1      -6.657   0.707  -0.351  1.00  0.00     0.315 HD
HETATM   19  H2  UNL     1      -5.995   2.203  -0.741  1.00  0.00     0.315 HD
ENDBRANCH  11  17
ENDBRANCH   1  10
BRANCH   7  20
HETATM   20  C12 UNL     1       1.433   0.867  -0.826  1.00  0.00     0.183 C 
HETATM   21  O1  UNL     1       0.981   1.369  -1.914  1.00  0.00    -0.290 OA
BRANCH  20  22
HETATM   22  C13 UNL     1       2.893   0.818  -1.011  1.00  0.00     0.259 C 
BRANCH  22  23
HETATM   23  O2  UNL     1       3.557   0.278   0.108  1.00  0.00    -0.344 OA
BRANCH  23  24
HETATM   24  C14 UNL     1       4.923   0.150   0.125  1.00  0.00     0.069 A 
HETATM   25  C15 UNL     1       5.836   0.486  -0.845  1.00  0.00     0.037 A 
HETATM   26  C16 UNL     1       7.186   0.286  -0.656  1.00  0.00     0.003 A 
HETATM   27  C17 UNL     1       7.654  -0.267   0.534  1.00  0.00     0.000 A 
HETATM   28  C18 UNL     1       6.755  -0.619   1.539  1.00  0.00     0.003 A 
HETATM   29  C19 UNL     1       5.402  -0.401   1.310  1.00  0.00     0.037 A 
ENDBRANCH  23  24
ENDBRANCH  22  23
ENDBRANCH  20  22
ENDBRANCH   7  20
TORSDOF 6
