REMARK  5 active torsions:
REMARK  status: ('A' for Active; 'I' for Inactive)
REMARK    1  A    between atoms: C1_2  and  C2_3 
REMARK       I    between atoms: C1_2  and  N1_11 
REMARK    2  A    between atoms: C2_3  and  O2_4 
REMARK    3  A    between atoms: O2_4  and  C3_5 
REMARK    4  A    between atoms: N1_11  and  C9_12 
REMARK    5  A    between atoms: N2_18  and  C15_19 
ROOT
HETATM    1  C9  UNL     1       0.150  -1.768  -0.456  1.00  0.00     0.037 A 
HETATM    2  C10 UNL     1       0.179  -3.131  -0.204  1.00  0.00     0.032 A 
HETATM    3  C11 UNL     1       1.373  -3.797   0.058  1.00  0.00     0.036 A 
HETATM    4  C12 UNL     1       2.540  -3.063   0.061  1.00  0.00     0.083 A 
HETATM    5  C13 UNL     1       2.447  -1.712  -0.193  1.00  0.00     0.066 A 
HETATM    6  C14 UNL     1       1.296  -1.001  -0.461  1.00  0.00     0.061 A 
HETATM    7  N2  UNL     1       3.685  -1.004  -0.090  1.00  0.00    -0.340 N 
HETATM    8  C21 UNL     1       5.019  -1.563  -0.139  1.00  0.00     0.176 C 
HETATM    9  C22 UNL     1       4.903  -3.025   0.143  1.00  0.00     0.110 C 
HETATM   10  N3  UNL     1       3.792  -3.719   0.235  1.00  0.00    -0.261 NA
ENDROOT
BRANCH   1  11
HETATM   11  N1  UNL     1      -1.099  -1.136  -0.720  1.00  0.00    -0.325 N 
HETATM   12  C1  UNL     1      -1.664  -0.689   0.505  1.00  0.00     0.246 C 
HETATM   13  O1  UNL     1      -1.070  -0.872   1.619  1.00  0.00    -0.271 OA
HETATM   14  H8  UNL     1      -1.686  -0.924  -1.549  1.00  0.00     0.169 HD
BRANCH  12  15
HETATM   15  C2  UNL     1      -2.939   0.017   0.740  1.00  0.00     0.278 C 
BRANCH  15  16
HETATM   16  O2  UNL     1      -3.669   0.263  -0.445  1.00  0.00    -0.342 OA
BRANCH  16  17
HETATM   17  C3  UNL     1      -4.893   0.915  -0.431  1.00  0.00     0.069 A 
HETATM   18  C4  UNL     1      -5.389   1.326   0.802  1.00  0.00     0.037 A 
HETATM   19  C5  UNL     1      -6.595   1.978   0.894  1.00  0.00     0.003 A 
HETATM   20  C6  UNL     1      -7.285   2.204  -0.281  1.00  0.00     0.000 A 
HETATM   21  C7  UNL     1      -6.783   1.790  -1.516  1.00  0.00     0.003 A 
HETATM   22  C8  UNL     1      -5.567   1.134  -1.597  1.00  0.00     0.037 A 
ENDBRANCH  16  17
ENDBRANCH  15  16
ENDBRANCH  12  15
ENDBRANCH   1  11
BRANCH   7  23
HETATM   23  C15 UNL     1       3.758   0.401   0.128  1.00  0.00     0.036 A 
HETATM   24  C16 UNL     1       2.891   1.122   0.910  1.00  0.00     0.030 A 
HETATM   25  C17 UNL     1       2.955   2.483   1.102  1.00  0.00     0.004 A 
HETATM   26  C18 UNL     1       3.945   3.204   0.484  1.00  0.00     0.019 A 
HETATM   27  C19 UNL     1       4.858   2.564  -0.316  1.00  0.00     0.013 A 
HETATM   28 BR1  UNL     1       6.240   3.541  -1.183  1.00  0.00    -0.051 Br
HETATM   29  C20 UNL     1       4.731   1.219  -0.459  1.00  0.00     0.048 A 
ENDBRANCH   7  23
TORSDOF 5
