REMARK  3 active torsions:
REMARK  status: ('A' for Active; 'I' for Inactive)
REMARK    1  A    between atoms: C10_15  and  C11_16 
REMARK    2  A    between atoms: C16_23  and  O2_24 
REMARK    3  A    between atoms: O2_24  and  C17_25 
ROOT
HETATM    1  O1  UNL     1       0.594  -1.052  -1.303  1.00  0.00    -0.271 OA
HETATM    2  C1  UNL     1       1.092  -1.057  -0.149  1.00  0.00     0.242 C 
HETATM    3  N1  UNL     1       0.644  -2.062   0.751  1.00  0.00    -0.326 N 
HETATM    4  C2  UNL     1      -0.345  -3.076   0.441  1.00  0.00     0.032 C 
HETATM    5  C3  UNL     1      -0.527  -4.354   0.052  1.00  0.00     0.009 C 
HETATM    6  C4  UNL     1      -1.480  -4.282  -1.109  1.00  0.00     0.089 C 
HETATM    7  C5  UNL     1      -2.564  -3.296  -0.900  1.00  0.00     0.050 C 
HETATM    8  C6  UNL     1      -1.805  -2.229  -0.631  1.00  0.00     0.003 C 
HETATM    9  C7  UNL     1      -1.574  -2.269   0.683  1.00  0.00     0.043 C 
HETATM   10  N2  UNL     1      -3.890  -2.819  -0.815  1.00  0.00    -0.245 NA
HETATM   11  C8  UNL     1      -4.281  -2.265   0.269  1.00  0.00     0.234 C 
HETATM   12  N3  UNL     1      -4.629  -1.655   1.531  1.00  0.00    -0.237 NA
HETATM   13  C9  UNL     1      -4.328  -0.458   1.808  1.00  0.00     0.208 C 
HETATM   14  N4  UNL     1      -3.627   0.346   0.877  1.00  0.00    -0.351 N 
HETATM   15  C10 UNL     1      -2.799   1.493   0.898  1.00  0.00     0.033 C 
HETATM   16  C13 UNL     1      -1.498   1.522   1.083  1.00  0.00     0.028 C 
HETATM   17  C14 UNL     1      -0.347   2.408   1.173  1.00  0.00    -0.013 C 
HETATM   18  C15 UNL     1       0.931   2.162   1.379  1.00  0.00    -0.079 C 
HETATM   19  B1  UNL     1       1.354   0.682   1.567  1.00  0.00     0.229 B 
HETATM   20  C16 UNL     1       2.122  -0.126   0.428  1.00  0.00     0.175 C 
HETATM   21  H1  UNL     1       0.962  -2.197   1.735  1.00  0.00     0.169 HD
HETATM   22  H8  UNL     1      -3.689   0.087  -0.130  1.00  0.00     0.166 HD
HETATM   23  H14 UNL     1       1.018   0.051   2.513  1.00  0.00    -0.019 HD
ENDROOT
BRANCH  20  24
HETATM   24  O2  UNL     1       2.439   0.786  -0.590  1.00  0.00    -0.347 OA
BRANCH  24  25
HETATM   25  C17 UNL     1       3.721   1.010  -1.001  1.00  0.00     0.068 A 
HETATM   26  C18 UNL     1       3.760   1.956  -2.018  1.00  0.00     0.037 A 
HETATM   27  C19 UNL     1       4.949   2.363  -2.611  1.00  0.00     0.003 A 
HETATM   28  C20 UNL     1       6.148   1.821  -2.191  1.00  0.00     0.000 A 
HETATM   29  C21 UNL     1       6.109   0.876  -1.175  1.00  0.00     0.003 A 
HETATM   30  C22 UNL     1       4.934   0.473  -0.588  1.00  0.00     0.037 A 
ENDBRANCH  24  25
ENDBRANCH  20  24
BRANCH  15  31
HETATM   31  C11 UNL     1      -3.534   2.728   0.685  1.00  0.00     0.037 C 
HETATM   32  C12 UNL     1      -3.260   4.017   0.613  1.00  0.00     0.166 C 
HETATM   33 BR1  UNL     1      -4.113   5.701   0.345  1.00  0.00    -0.172 Br
ENDBRANCH  15  31
TORSDOF 3
