REMARK  0 active torsions:
REMARK  status: ('A' for Active; 'I' for Inactive)
ROOT
HETATM    1  F1  UNL     1      -1.696  -4.147   1.137  1.00  0.00    -0.208 F 
HETATM    2  C1  UNL     1      -1.267  -2.828   0.860  1.00  0.00     0.124 C 
HETATM    3  C2  UNL     1      -1.673  -1.532   1.058  1.00  0.00     0.087 C 
HETATM    4  C3  UNL     1      -2.937  -1.142   1.784  1.00  0.00    -0.002 C 
HETATM    5  C4  UNL     1      -3.019   0.233   1.740  1.00  0.00     0.060 C 
HETATM    6  N1  UNL     1      -1.999   1.004   1.064  1.00  0.00    -0.254 NA
HETATM    7  C5  UNL     1      -1.538   1.637  -0.157  1.00  0.00     0.112 A 
HETATM    8  C6  UNL     1      -1.891   2.865  -0.730  1.00  0.00     0.064 A 
HETATM    9  C7  UNL     1      -1.321   3.292  -1.911  1.00  0.00     0.124 A 
HETATM   10  N2  UNL     1      -0.413   2.484  -2.495  1.00  0.00    -0.219 NA
HETATM   11  C8  UNL     1      -0.089   1.307  -1.927  1.00  0.00     0.275 A 
HETATM   12  N3  UNL     1      -0.630   0.876  -0.782  1.00  0.00    -0.194 NA
HETATM   13  O1  UNL     1       0.758   0.196  -2.154  1.00  0.00    -0.276 OA
HETATM   14  C9  UNL     1       1.713  -0.000  -1.137  1.00  0.00     0.089 A 
HETATM   15  C10 UNL     1       2.529   1.096  -1.073  1.00  0.00     0.038 A 
HETATM   16  C11 UNL     1       3.549   1.167  -0.152  1.00  0.00     0.003 A 
HETATM   17  C12 UNL     1       3.849   0.188   0.764  1.00  0.00     0.001 A 
HETATM   18  C13 UNL     1       2.961  -0.891   0.618  1.00  0.00     0.014 A 
HETATM   19  C14 UNL     1       1.892  -1.048  -0.293  1.00  0.00    -0.001 A 
HETATM   20  C15 UNL     1       1.200  -2.311  -0.105  1.00  0.00     0.041 C 
HETATM   21  C16 UNL     1       0.105  -2.968   0.295  1.00  0.00     0.070 C 
HETATM   22 CL1  UNL     1       0.560  -4.689  -0.019  1.00  0.00    -0.081 Cl
HETATM   23  H4  UNL     1      -2.793   0.794   0.361  1.00  0.00     0.134 HD
ENDROOT
TORSDOF 0
