REMARK  2 active torsions:
REMARK  status: ('A' for Active; 'I' for Inactive)
REMARK    1  A    between atoms: N1_2  and  C2_3 
REMARK    2  A    between atoms: C15_18  and  C16_19 
ROOT
HETATM    1  C2  UNL     1      -1.643   0.481   0.318  1.00  0.00     0.055 A 
HETATM    2  C3  UNL     1      -0.883  -0.575   0.277  1.00  0.00     0.032 A 
HETATM    3  C4  UNL     1       0.508  -1.003  -0.010  1.00  0.00     0.080 C 
HETATM    4  C5  UNL     1       1.586  -0.051   0.088  1.00  0.00    -0.005 A 
HETATM    5  C6  UNL     1       1.745   1.235   0.499  1.00  0.00     0.014 A 
HETATM    6  C7  UNL     1       2.871   2.014   0.451  1.00  0.00     0.002 A 
HETATM    7  C8  UNL     1       4.023   1.472  -0.073  1.00  0.00     0.019 A 
HETATM    8  C9  UNL     1       3.969   0.172  -0.518  1.00  0.00     0.011 A 
HETATM    9 BR1  UNL     1       5.580  -0.546  -1.237  1.00  0.00    -0.051 Br
HETATM   10  C10 UNL     1       2.795  -0.535  -0.431  1.00  0.00     0.032 A 
HETATM   11  N2  UNL     1       0.785  -2.214  -0.370  1.00  0.00    -0.259 NA
HETATM   12  C11 UNL     1      -0.060  -3.332  -0.565  1.00  0.00     0.129 C 
HETATM   13  C12 UNL     1      -1.016  -3.662   0.210  1.00  0.00    -0.006 C 
HETATM   14  C13 UNL     1      -1.891  -2.938   0.805  1.00  0.00     0.027 C 
HETATM   15  C14 UNL     1      -2.007  -1.471   0.648  1.00  0.00    -0.005 A 
HETATM   16  C15 UNL     1      -2.777  -0.395   0.692  1.00  0.00     0.040 A 
ENDROOT
BRANCH   1  17
HETATM   17  N1  UNL     1      -1.529   1.854   0.096  1.00  0.00    -0.393 N 
HETATM   18  C1  UNL     1      -1.498   2.419  -1.241  1.00  0.00     0.146 C 
HETATM   19  H4  UNL     1      -1.469   2.420   0.974  1.00  0.00     0.159 HD
ENDBRANCH   1  17
BRANCH  16  20
HETATM   20  C16 UNL     1      -4.183  -0.285   1.006  1.00  0.00     0.273 C 
HETATM   21  O1  UNL     1      -4.805  -1.341   1.284  1.00  0.00    -0.301 OA
ENDBRANCH  16  20
TORSDOF 2
