REMARK  1 active torsions:
REMARK  status: ('A' for Active; 'I' for Inactive)
REMARK    1  A    between atoms: N1_1  and  C1_2 
ROOT
HETATM    1  C1  UNL     1      -2.704   2.463   0.835  1.00  0.00     0.027 A 
HETATM    2  C2  UNL     1      -1.450   2.920   0.475  1.00  0.00     0.040 A 
HETATM    3  C3  UNL     1      -0.690   2.075  -0.299  1.00  0.00    -0.033 A 
HETATM    4  C4  UNL     1      -1.126   0.843  -0.707  1.00  0.00     0.025 A 
HETATM    5  C5  UNL     1      -2.396   0.386  -0.337  1.00  0.00    -0.004 A 
HETATM    6  C6  UNL     1      -3.206   1.212   0.450  1.00  0.00     0.042 A 
HETATM    7  C7  UNL     1      -3.095  -0.863  -0.588  1.00  0.00     0.081 A 
HETATM    8  N2  UNL     1      -4.293  -0.940  -1.154  1.00  0.00    -0.240 NA
HETATM    9  C8  UNL     1      -4.903  -2.146  -1.369  1.00  0.00     0.234 A 
HETATM   10  N3  UNL     1      -4.327  -3.337  -1.021  1.00  0.00    -0.241 NA
HETATM   11  C9  UNL     1      -3.112  -3.299  -0.444  1.00  0.00     0.070 A 
HETATM   12  C10 UNL     1      -2.504  -4.483  -0.083  1.00  0.00     0.035 A 
HETATM   13  C11 UNL     1      -1.263  -4.510   0.507  1.00  0.00     0.043 A 
HETATM   14  C12 UNL     1      -0.626  -3.339   0.739  1.00  0.00     0.171 A 
HETATM   15  C13 UNL     1      -1.309  -2.159   0.344  1.00  0.00     0.056 A 
HETATM   16  C14 UNL     1      -2.547  -2.059  -0.251  1.00  0.00     0.025 A 
HETATM   17  N4  UNL     1       0.610  -2.900   1.290  1.00  0.00     0.120 N 
HETATM   18  C15 UNL     1       1.735  -2.286   0.698  1.00  0.00     0.380 A 
HETATM   19  O1  UNL     1       0.844  -2.574  -0.144  1.00  0.00    -0.143 OA
HETATM   20  C16 UNL     1       2.782  -1.671  -0.129  1.00  0.00     0.255 C 
HETATM   21  O2  UNL     1       3.867  -1.253   0.688  1.00  0.00    -0.358 OA
HETATM   22  C17 UNL     1       4.194   0.120   0.526  1.00  0.00     0.133 C 
HETATM   23  C18 UNL     1       4.140   1.431   0.855  1.00  0.00     0.023 C 
HETATM   24  C19 UNL     1       4.838   2.508   0.141  1.00  0.00     0.197 C 
HETATM   25  O3  UNL     1       4.026   3.473  -0.379  1.00  0.00    -0.384 OA
HETATM   26  C20 UNL     1       3.066   3.074  -1.261  1.00  0.00     0.195 C 
HETATM   27  C21 UNL     1       1.987   2.231  -0.696  1.00  0.00    -0.000 C 
HETATM   28  C22 UNL     1       0.661   2.494  -0.676  1.00  0.00     0.009 C 
HETATM   29  H10 UNL     1       0.402  -3.201   2.245  1.00  0.00     0.329 HD
ENDROOT
BRANCH   1  30
HETATM   30  N1  UNL     1      -3.472   3.367   1.641  1.00  0.00    -0.399 N 
HETATM   31  H1  UNL     1      -3.626   2.927   2.572  1.00  0.00     0.156 HD
HETATM   32  H2  UNL     1      -3.814   4.307   1.337  1.00  0.00     0.156 HD
ENDBRANCH   1  30
TORSDOF 1
