REMARK  7 active torsions:
REMARK  status: ('A' for Active; 'I' for Inactive)
REMARK    1  A    between atoms: C7_7  and  O1_8 
REMARK    2  A    between atoms: O1_8  and  C8_9 
REMARK    3  A    between atoms: C8_9  and  C9_10 
REMARK       I    between atoms: C9_10  and  N1_12 
REMARK    4  A    between atoms: N1_12  and  C10_13 
REMARK    5  A    between atoms: N4_20  and  C15_21 
REMARK    6  A    between atoms: C16_22  and  C17_23 
REMARK    7  A    between atoms: C18_24  and  C19_25 
ROOT
HETATM    1  C10 UNL     1       0.043   0.990   0.583  1.00  0.00     0.133 C 
HETATM    2  C11 UNL     1       0.562   2.354   0.326  1.00  0.00     0.021 C 
HETATM    3  C12 UNL     1       1.664   2.904   0.792  1.00  0.00     0.116 C 
HETATM    4  N2  UNL     1       2.819   2.795   1.578  1.00  0.00    -0.254 NA
HETATM    5  C13 UNL     1       3.951   2.366   1.126  1.00  0.00     0.233 C 
HETATM    6  N3  UNL     1       3.494   2.142  -0.201  1.00  0.00    -0.237 NA
HETATM    7  C14 UNL     1       2.959   0.990  -0.474  1.00  0.00     0.214 C 
HETATM    8  N4  UNL     1       3.044   0.320   0.799  1.00  0.00    -0.327 N 
HETATM    9  C20 UNL     1       2.054   0.124   1.774  1.00  0.00     0.095 C 
HETATM   10  C21 UNL     1       0.779   0.400   1.704  1.00  0.00     0.020 C 
ENDROOT
BRANCH   1  11
HETATM   11  N1  UNL     1      -1.375   1.142   0.866  1.00  0.00    -0.348 N 
HETATM   12  C9  UNL     1      -2.447   0.647   0.087  1.00  0.00     0.242 C 
HETATM   13  O2  UNL     1      -2.035   0.031  -0.925  1.00  0.00    -0.271 OA
HETATM   14  H10 UNL     1      -1.398   1.696   1.768  1.00  0.00     0.163 HD
BRANCH  12  15
HETATM   15  C8  UNL     1      -3.741   1.014   0.719  1.00  0.00     0.278 C 
BRANCH  15  16
HETATM   16  O1  UNL     1      -4.848   0.565   0.014  1.00  0.00    -0.342 OA
BRANCH  16  17
HETATM   17  C7  UNL     1      -5.196  -0.720  -0.301  1.00  0.00     0.075 A 
HETATM   18  C2  UNL     1      -6.384  -0.765  -1.021  1.00  0.00    -0.029 A 
HETATM   19  C1  UNL     1      -7.202   0.412  -1.417  1.00  0.00     0.051 C 
HETATM   20  C3  UNL     1      -6.916  -1.989  -1.442  1.00  0.00     0.009 A 
HETATM   21  C4  UNL     1      -6.216  -3.130  -1.114  1.00  0.00     0.001 A 
HETATM   22  C5  UNL     1      -5.018  -3.122  -0.392  1.00  0.00     0.003 A 
HETATM   23  C6  UNL     1      -4.539  -1.898  -0.002  1.00  0.00     0.037 A 
ENDBRANCH  16  17
ENDBRANCH  15  16
ENDBRANCH  12  15
ENDBRANCH   1  11
BRANCH   8  24
HETATM   24  C15 UNL     1       4.374  -0.153   0.952  1.00  0.00     0.097 C 
HETATM   25  C16 UNL     1       5.203  -0.556   0.018  1.00  0.00     0.017 C 
BRANCH  25  26
HETATM   26  C17 UNL     1       6.553  -1.026   0.275  1.00  0.00    -0.002 C 
HETATM   27  C18 UNL     1       7.348  -1.419  -0.698  1.00  0.00    -0.016 C 
BRANCH  27  28
HETATM   28  C19 UNL     1       7.052  -1.461  -2.149  1.00  0.00     0.112 C 
HETATM   29 BR1  UNL     1       8.366  -0.291  -2.993  1.00  0.00    -0.092 Br
ENDBRANCH  27  28
ENDBRANCH  25  26
ENDBRANCH   8  24
TORSDOF 7
