REMARK  9 active torsions:
REMARK  status: ('A' for Active; 'I' for Inactive)
REMARK    1  A    between atoms: C1_2  and  C2_3 
REMARK       I    between atoms: C1_2  and  N1_12 
REMARK    2  A    between atoms: C2_3  and  O2_4 
REMARK    3  A    between atoms: O2_4  and  C3_5 
REMARK    4  A    between atoms: N1_12  and  C9_13 
REMARK    5  A    between atoms: C11_15  and  C12_16 
REMARK    6  A    between atoms: C12_16  and  N2_17 
REMARK    7  A    between atoms: N2_17  and  C13_18 
REMARK    8  A    between atoms: C21_26  and  N4_29 
REMARK    9  A    between atoms: C22_28  and  N4_29 
ROOT
HETATM    1  C9  UNL     1      -0.563  -0.370  -0.257  1.00  0.00     0.071 A 
HETATM    2  C10 UNL     1      -0.137   0.986  -0.364  1.00  0.00     0.037 A 
HETATM    3  C11 UNL     1       0.936   0.556  -1.148  1.00  0.00    -0.019 A 
HETATM    4  C19 UNL     1       1.511  -0.544  -1.683  1.00  0.00     0.236 A 
HETATM    5  C20 UNL     1       1.447  -1.753  -1.802  1.00  0.00     0.317 A 
HETATM    6  C21 UNL     1       0.264  -1.383  -0.952  1.00  0.00     0.270 A 
HETATM    7  N3  UNL     1      -0.370  -2.703  -0.704  1.00  0.00    -0.354 N 
HETATM    8  C22 UNL     1       0.781  -2.985  -1.521  1.00  0.00     0.341 A 
HETATM    9  N4  UNL     1       0.746  -1.702  -1.323  1.00  0.00     0.021 N 
HETATM   10  H18 UNL     1      -1.237  -3.057  -0.167  1.00  0.00     0.158 HD
ENDROOT
BRANCH   1  11
HETATM   11  N1  UNL     1      -1.712  -0.769   0.466  1.00  0.00    -0.325 N 
HETATM   12  C1  UNL     1      -1.544  -1.095   1.835  1.00  0.00     0.246 C 
HETATM   13  O1  UNL     1      -0.310  -0.957   2.151  1.00  0.00    -0.271 OA
HETATM   14  H7  UNL     1      -2.572  -0.796  -0.094  1.00  0.00     0.169 HD
BRANCH  12  15
HETATM   15  C2  UNL     1      -2.668  -1.514   2.660  1.00  0.00     0.278 C 
BRANCH  15  16
HETATM   16  O2  UNL     1      -3.917  -1.568   2.062  1.00  0.00    -0.342 OA
BRANCH  16  17
HETATM   17  C3  UNL     1      -4.517  -0.425   1.559  1.00  0.00     0.069 A 
HETATM   18  C4  UNL     1      -5.752  -0.784   1.006  1.00  0.00     0.040 A 
HETATM   19  C5  UNL     1      -6.583   0.174   0.423  1.00  0.00     0.045 A 
HETATM   20  C6  UNL     1      -6.205   1.502   0.377  1.00  0.00     0.116 A 
HETATM   21  F1  UNL     1      -6.936   2.482  -0.161  1.00  0.00    -0.206 F 
HETATM   22  C7  UNL     1      -4.995   1.845   0.921  1.00  0.00     0.045 A 
HETATM   23  C8  UNL     1      -4.152   0.925   1.504  1.00  0.00     0.040 A 
ENDBRANCH  16  17
ENDBRANCH  15  16
ENDBRANCH  12  15
ENDBRANCH   1  11
BRANCH   3  24
HETATM   24  C12 UNL     1       1.733   1.722  -1.584  1.00  0.00     0.157 C 
BRANCH  24  25
HETATM   25  N2  UNL     1       2.869   1.887  -0.730  1.00  0.00    -0.386 N 
HETATM   26  H11 UNL     1       2.653   2.689  -0.068  1.00  0.00     0.160 HD
BRANCH  25  27
HETATM   27  C13 UNL     1       4.149   1.402  -0.419  1.00  0.00     0.028 A 
HETATM   28  C14 UNL     1       4.960   1.860   0.627  1.00  0.00     0.029 A 
HETATM   29  C15 UNL     1       6.200   1.309   0.794  1.00  0.00     0.002 A 
HETATM   30  C16 UNL     1       6.689   0.320  -0.024  1.00  0.00     0.000 A 
HETATM   31  C17 UNL     1       5.910  -0.147  -1.061  1.00  0.00     0.002 A 
HETATM   32  C18 UNL     1       4.640   0.415  -1.235  1.00  0.00     0.029 A 
ENDBRANCH  25  27
ENDBRANCH  24  25
ENDBRANCH   3  24
TORSDOF 9
