REMARK  4 active torsions:
REMARK  status: ('A' for Active; 'I' for Inactive)
REMARK    1  A    between atoms: C4_4  and  N1_5 
REMARK    2  A    between atoms: N1_5  and  C5_6 
REMARK    3  A    between atoms: C10_13  and  N4_14 
REMARK       I    between atoms: N4_14  and  C11_15 
REMARK    4  A    between atoms: C11_15  and  C12_17 
ROOT
HETATM    1  C12 UNL     1       4.368  -1.881  -2.308  1.00  0.00     0.226 C 
HETATM    2  C13 UNL     1       4.696  -3.031  -1.464  1.00  0.00     0.068 C 
HETATM    3  N5  UNL     1       4.940  -3.947  -0.780  1.00  0.00    -0.197 NA
ENDROOT
BRANCH   1   4
HETATM    4  C11 UNL     1       3.631  -0.903  -1.444  1.00  0.00     0.235 C 
HETATM    5  N4  UNL     1       3.135   0.347  -1.877  1.00  0.00    -0.326 N 
HETATM    6  H10 UNL     1       3.297   0.610  -2.889  1.00  0.00     0.169 HD
HETATM    7  O1  UNL     1       3.418  -1.176  -0.234  1.00  0.00    -0.272 OA
BRANCH   5   8
HETATM    8  C10 UNL     1       2.486   1.020  -0.790  1.00  0.00     0.035 A 
HETATM    9  C9  UNL     1       3.241   1.851   0.012  1.00  0.00     0.032 A 
HETATM   10  C8  UNL     1       2.590   2.499   1.067  1.00  0.00     0.035 A 
HETATM   11  C7  UNL     1       1.232   2.291   1.271  1.00  0.00     0.072 A 
HETATM   12  N3  UNL     1       0.616   2.931   2.303  1.00  0.00    -0.241 NA
HETATM   13  C15 UNL     1       0.510   1.456   0.453  1.00  0.00     0.041 A 
HETATM   14  C6  UNL     1      -0.698   2.725   2.497  1.00  0.00     0.235 A 
HETATM   15  N2  UNL     1      -1.381   1.904   1.682  1.00  0.00    -0.224 NA
HETATM   16  C5  UNL     1      -0.824   1.252   0.655  1.00  0.00     0.138 A 
HETATM   17  C14 UNL     1       1.138   0.826  -0.571  1.00  0.00     0.047 A 
BRANCH  16  18
HETATM   18  N1  UNL     1      -1.648   0.408  -0.139  1.00  0.00    -0.366 N 
HETATM   19  H6  UNL     1      -1.369  -0.161  -0.964  1.00  0.00     0.161 HD
BRANCH  18  20
HETATM   20  C4  UNL     1      -3.058   0.308   0.223  1.00  0.00     0.110 A 
HETATM   21  C3  UNL     1      -3.872  -0.556  -0.602  1.00  0.00     0.001 A 
HETATM   22  C2  UNL     1      -4.170  -1.348   0.372  1.00  0.00    -0.083 A 
HETATM   23  C1  UNL     1      -5.003  -2.583   0.465  1.00  0.00     0.043 C 
HETATM   24  C16 UNL     1      -3.389  -0.583   1.342  1.00  0.00     0.062 A 
ENDBRANCH  18  20
ENDBRANCH  16  18
ENDBRANCH   5   8
ENDBRANCH   1   4
TORSDOF 4
