REMARK  3 active torsions:
REMARK  status: ('A' for Active; 'I' for Inactive)
REMARK    1  A    between atoms: C2_3  and  C3_4 
REMARK       I    between atoms: C3_4  and  N2_6 
REMARK    2  A    between atoms: N2_6  and  C4_7 
REMARK    3  A    between atoms: N3_14  and  C11_15 
ROOT
HETATM    1  N1  UNL     1       5.861  -2.155   2.985  1.00  0.00    -0.197 NA
HETATM    2  C1  UNL     1       5.508  -1.151   2.498  1.00  0.00     0.068 C 
HETATM    3  C2  UNL     1       5.073   0.120   1.909  1.00  0.00     0.226 C 
ENDROOT
BRANCH   3   4
HETATM    4  C3  UNL     1       3.840  -0.124   1.102  1.00  0.00     0.235 C 
HETATM    5  O1  UNL     1       3.273  -1.248   0.958  1.00  0.00    -0.272 OA
HETATM    6  N2  UNL     1       3.213   0.957   0.421  1.00  0.00    -0.326 N 
HETATM    7  H3  UNL     1       3.652   1.894   0.518  1.00  0.00     0.169 HD
BRANCH   6   8
HETATM    8  C4  UNL     1       2.052   0.536  -0.295  1.00  0.00     0.035 A 
HETATM    9  C5  UNL     1       2.201   0.117  -1.618  1.00  0.00     0.032 A 
HETATM   10  C6  UNL     1       1.072  -0.288  -2.302  1.00  0.00     0.033 A 
HETATM   11  C7  UNL     1      -0.172  -0.277  -1.685  1.00  0.00     0.052 A 
HETATM   12  C8  UNL     1      -0.285   0.142  -0.377  1.00  0.00    -0.009 A 
HETATM   13  N5  UNL     1      -1.350  -0.691  -2.372  1.00  0.00    -0.303 N 
HETATM   14  C9  UNL     1       0.813   0.553   0.338  1.00  0.00     0.040 A 
HETATM   15  C10 UNL     1      -1.580   0.193   0.385  1.00  0.00     0.186 C 
HETATM   16  N3  UNL     1      -2.638  -0.038  -0.559  1.00  0.00    -0.290 N 
HETATM   17  N4  UNL     1      -2.634  -0.424  -1.903  1.00  0.00    -0.146 NA
HETATM   18  H11 UNL     1      -3.201  -1.305  -1.950  1.00  0.00     0.173 HD
HETATM   19  H12 UNL     1      -1.263  -1.221  -3.270  1.00  0.00     0.182 HD
BRANCH  16  20
HETATM   20  C11 UNL     1      -3.956   0.164  -0.027  1.00  0.00     0.065 A 
HETATM   21  C12 UNL     1      -5.072  -0.530   0.232  1.00  0.00     0.038 A 
HETATM   22 BR1  UNL     1      -5.576  -2.371   0.008  1.00  0.00    -0.049 Br
HETATM   23  C13 UNL     1      -5.734   0.665   0.743  1.00  0.00     0.024 A 
HETATM   24  C14 UNL     1      -4.629   1.348   0.486  1.00  0.00     0.033 A 
ENDBRANCH  16  20
ENDBRANCH   6   8
ENDBRANCH   3   4
TORSDOF 3
