REMARK  4 active torsions:
REMARK  status: ('A' for Active; 'I' for Inactive)
REMARK    1  A    between atoms: C3_3  and  N1_4 
REMARK    2  A    between atoms: C11_15  and  C12_16 
REMARK    3  A    between atoms: C11_15  and  O2_18 
REMARK    4  A    between atoms: O2_18  and  C13_19 
ROOT
HETATM    1  N1  UNL     1      -3.211   0.381   0.230  1.00  0.00    -0.347 N 
HETATM    2  C4  UNL     1      -2.393   1.525   0.559  1.00  0.00     0.381 C 
HETATM    3  N2  UNL     1      -1.381   2.272   0.648  1.00  0.00    -0.368 NA
HETATM    4  C5  UNL     1      -0.144   1.742   0.070  1.00  0.00     0.192 C 
HETATM    5  N3  UNL     1       0.672   0.778  -0.028  1.00  0.00    -0.273 NA
HETATM    6  C6  UNL     1       0.709  -0.490   0.526  1.00  0.00     0.181 C 
HETATM    7  C7  UNL     1      -0.411  -1.438   0.351  1.00  0.00    -0.034 C 
HETATM    8  C8  UNL     1      -1.702  -1.528  -0.035  1.00  0.00     0.011 C 
HETATM    9 BR1  UNL     1      -2.915  -3.032  -0.123  1.00  0.00    -0.054 Br
HETATM   10  C9  UNL     1      -2.252  -0.238  -0.622  1.00  0.00     0.175 C 
HETATM   11  C10 UNL     1       0.619  -2.478   0.771  1.00  0.00     0.086 C 
HETATM   12  C11 UNL     1       1.607  -1.560  -0.004  1.00  0.00     0.150 C 
ENDROOT
BRANCH  12  13
HETATM   13  C12 UNL     1       1.479  -1.850  -1.440  1.00  0.00     0.272 C 
HETATM   14  O1  UNL     1       2.053  -2.105  -2.486  1.00  0.00    -0.303 OA
ENDBRANCH  12  13
BRANCH  12  15
HETATM   15  O2  UNL     1       2.885  -1.593   0.530  1.00  0.00    -0.330 OA
BRANCH  15  16
HETATM   16  C13 UNL     1       3.735  -0.532   0.481  1.00  0.00     0.070 A 
HETATM   17  C14 UNL     1       4.624  -0.246  -0.532  1.00  0.00     0.040 A 
HETATM   18  C15 UNL     1       5.478   0.840  -0.545  1.00  0.00     0.045 A 
HETATM   19  C16 UNL     1       5.460   1.712   0.521  1.00  0.00     0.116 A 
HETATM   20  F1  UNL     1       6.326   2.747   0.427  1.00  0.00    -0.206 F 
HETATM   21  C17 UNL     1       4.597   1.485   1.563  1.00  0.00     0.045 A 
HETATM   22  C18 UNL     1       3.754   0.384   1.537  1.00  0.00     0.040 A 
ENDBRANCH  15  16
ENDBRANCH  12  15
BRANCH   1  23
HETATM   23  C3  UNL     1      -4.162   0.981   1.066  1.00  0.00     0.088 C 
HETATM   24  C2  UNL     1      -5.361   0.757   0.552  1.00  0.00    -0.014 C 
HETATM   25  C1  UNL     1      -5.940   0.074  -0.616  1.00  0.00     0.037 C 
ENDBRANCH   1  23
TORSDOF 4
