REMARK  4 active torsions:
REMARK  status: ('A' for Active; 'I' for Inactive)
REMARK    1  A    between atoms: C2_3  and  C3_4 
REMARK       I    between atoms: C3_4  and  N2_6 
REMARK    2  A    between atoms: N2_6  and  C4_7 
REMARK    3  A    between atoms: C9_13  and  N3_14 
REMARK    4  A    between atoms: N3_14  and  C10_15 
ROOT
HETATM    1  N1  UNL     1      -3.551   4.090  -2.263  1.00  0.00    -0.197 NA
HETATM    2  C1  UNL     1      -3.330   2.953  -2.166  1.00  0.00     0.068 C 
HETATM    3  C2  UNL     1      -3.079   1.534  -2.052  1.00  0.00     0.226 C 
ENDROOT
BRANCH   3   4
HETATM    4  C3  UNL     1      -2.577   1.305  -0.665  1.00  0.00     0.235 C 
HETATM    5  O1  UNL     1      -2.385   2.195   0.196  1.00  0.00    -0.272 OA
HETATM    6  N2  UNL     1      -2.336  -0.065  -0.431  1.00  0.00    -0.323 N 
HETATM    7  H3  UNL     1      -2.480  -0.848  -1.134  1.00  0.00     0.169 HD
BRANCH   6   8
HETATM    8  C4  UNL     1      -1.873  -0.877   0.634  1.00  0.00     0.079 A 
HETATM    9  C5  UNL     1      -2.922  -1.235   1.488  1.00  0.00     0.040 A 
HETATM   10 BR1  UNL     1      -4.748  -0.672   1.249  1.00  0.00    -0.049 Br
HETATM   11  C6  UNL     1      -2.692  -2.042   2.588  1.00  0.00     0.021 A 
HETATM   12  C7  UNL     1      -1.423  -2.506   2.859  1.00  0.00     0.004 A 
HETATM   13  C8  UNL     1      -0.375  -2.167   2.033  1.00  0.00     0.032 A 
HETATM   14  C9  UNL     1      -0.623  -1.365   0.946  1.00  0.00     0.062 A 
BRANCH  14  15
HETATM   15  N3  UNL     1       0.385  -0.978   0.030  1.00  0.00    -0.338 N 
HETATM   16  H7  UNL     1       0.718  -1.895  -0.393  1.00  0.00     0.167 HD
BRANCH  15  17
HETATM   17  C10 UNL     1       1.104   0.073  -0.536  1.00  0.00     0.141 A 
HETATM   18  N4  UNL     1       0.614   1.055  -1.304  1.00  0.00    -0.224 NA
HETATM   19  C11 UNL     1       1.332   2.032  -1.838  1.00  0.00     0.235 A 
HETATM   20  N5  UNL     1       2.637   2.010  -1.574  1.00  0.00    -0.241 NA
HETATM   21  C12 UNL     1       3.256   1.086  -0.820  1.00  0.00     0.068 A 
HETATM   22  C13 UNL     1       2.476   0.090  -0.285  1.00  0.00     0.035 A 
HETATM   23  C16 UNL     1       4.543   0.968  -0.495  1.00  0.00     0.010 A 
HETATM   24  C14 UNL     1       3.264  -0.715   0.418  1.00  0.00    -0.005 A 
HETATM   25  C15 UNL     1       4.692  -0.235   0.361  1.00  0.00     0.057 A 
ENDBRANCH  15  17
ENDBRANCH  14  15
ENDBRANCH   6   8
ENDBRANCH   3   4
TORSDOF 4
