REMARK  4 active torsions:
REMARK  status: ('A' for Active; 'I' for Inactive)
REMARK    1  A    between atoms: C4_4  and  C5_5 
REMARK       I    between atoms: C5_5  and  N1_7 
REMARK    2  A    between atoms: N1_7  and  C6_8 
REMARK    3  A    between atoms: C11_15  and  N4_16 
REMARK    4  A    between atoms: N4_16  and  C12_17 
ROOT
HETATM    1  C6  UNL     1       1.218  -0.864   1.383  1.00  0.00     0.035 A 
HETATM    2  C7  UNL     1       1.599  -1.997   2.058  1.00  0.00     0.032 A 
HETATM    3  C8  UNL     1       0.708  -3.014   2.302  1.00  0.00     0.035 A 
HETATM    4  C9  UNL     1      -0.568  -2.885   1.863  1.00  0.00     0.072 A 
HETATM    5  N2  UNL     1      -1.395  -3.916   2.134  1.00  0.00    -0.241 NA
HETATM    6  C10 UNL     1      -2.670  -3.843   1.724  1.00  0.00     0.236 A 
HETATM    7  N3  UNL     1      -3.075  -2.761   1.067  1.00  0.00    -0.224 NA
HETATM    8  C11 UNL     1      -2.340  -1.698   0.755  1.00  0.00     0.142 A 
HETATM    9  C18 UNL     1      -1.035  -1.778   1.176  1.00  0.00     0.041 A 
HETATM   10  C19 UNL     1      -0.089  -0.801   0.969  1.00  0.00     0.047 A 
ENDROOT
BRANCH   1  11
HETATM   11  N1  UNL     1       2.224   0.113   1.194  1.00  0.00    -0.325 N 
HETATM   12  C5  UNL     1       2.162   1.367   0.547  1.00  0.00     0.255 C 
HETATM   13  O1  UNL     1       1.077   1.738   0.036  1.00  0.00    -0.270 OA
HETATM   14  H6  UNL     1       3.190  -0.034   1.557  1.00  0.00     0.169 HD
BRANCH  12  15
HETATM   15  C4  UNL     1       3.281   2.331   0.399  1.00  0.00     0.243 A 
HETATM   16  C3  UNL     1       3.551   2.522  -1.058  1.00  0.00     0.021 A 
HETATM   17  C2  UNL     1       4.667   2.214  -1.668  1.00  0.00    -0.061 A 
HETATM   18  C1  UNL     1       5.000   2.377  -3.106  1.00  0.00     0.048 C 
HETATM   19  C21 UNL     1       5.744   1.635  -0.873  1.00  0.00     0.030 A 
HETATM   20  C20 UNL     1       5.591   1.431   0.418  1.00  0.00     0.137 A 
HETATM   21  O2  UNL     1       4.412   1.763   1.028  1.00  0.00    -0.344 OA
ENDBRANCH  12  15
ENDBRANCH   1  11
BRANCH   8  22
HETATM   22  N4  UNL     1      -2.794  -0.558   0.057  1.00  0.00    -0.340 N 
HETATM   23  H10 UNL     1      -2.162   0.224  -0.166  1.00  0.00     0.167 HD
BRANCH  22  24
HETATM   24  C12 UNL     1      -4.099  -0.297  -0.426  1.00  0.00     0.035 A 
HETATM   25  C13 UNL     1      -5.181  -1.110  -0.188  1.00  0.00     0.029 A 
HETATM   26  C14 UNL     1      -6.461  -0.891  -0.645  1.00  0.00     0.004 A 
HETATM   27  C15 UNL     1      -6.717   0.220  -1.403  1.00  0.00     0.019 A 
HETATM   28  C16 UNL     1      -5.677   1.075  -1.678  1.00  0.00     0.013 A 
HETATM   29 BR1  UNL     1      -5.963   2.640  -2.727  1.00  0.00    -0.051 Br
HETATM   30  C17 UNL     1      -4.420   0.802  -1.193  1.00  0.00     0.048 A 
ENDBRANCH  22  24
ENDBRANCH   8  22
TORSDOF 4
