REMARK  6 active torsions:
REMARK  status: ('A' for Active; 'I' for Inactive)
REMARK    1  A    between atoms: C1_2  and  C2_3 
REMARK       I    between atoms: C1_2  and  N1_10 
REMARK    2  A    between atoms: C2_3  and  O2_4 
REMARK    3  A    between atoms: O2_4  and  C3_5 
REMARK    4  A    between atoms: N1_10  and  C8_11 
REMARK    5  A    between atoms: C13_18  and  N4_19 
REMARK    6  A    between atoms: N4_19  and  C14_20 
ROOT
HETATM    1  C8  UNL     1       0.516  -1.823   0.228  1.00  0.00     0.035 A 
HETATM    2  C9  UNL     1       0.749  -3.135  -0.108  1.00  0.00     0.032 A 
HETATM    3  C10 UNL     1      -0.271  -3.971  -0.507  1.00  0.00     0.035 A 
HETATM    4  C11 UNL     1      -1.567  -3.501  -0.578  1.00  0.00     0.072 A 
HETATM    5  N2  UNL     1      -2.647  -4.184  -0.932  1.00  0.00    -0.241 NA
HETATM    6  C12 UNL     1      -3.871  -3.692  -0.975  1.00  0.00     0.236 A 
HETATM    7  N3  UNL     1      -4.031  -2.401  -0.632  1.00  0.00    -0.224 NA
HETATM    8  C13 UNL     1      -3.001  -1.612  -0.257  1.00  0.00     0.142 A 
HETATM    9  C20 UNL     1      -1.757  -2.183  -0.233  1.00  0.00     0.041 A 
HETATM   10  C21 UNL     1      -0.752  -1.334   0.169  1.00  0.00     0.047 A 
ENDROOT
BRANCH   1  11
HETATM   11  N1  UNL     1       1.711  -1.166   0.615  1.00  0.00    -0.325 N 
HETATM   12  C1  UNL     1       2.399  -0.671  -0.514  1.00  0.00     0.246 C 
HETATM   13  O1  UNL     1       1.842  -0.903  -1.650  1.00  0.00    -0.271 OA
HETATM   14  H6  UNL     1       2.233  -0.931   1.482  1.00  0.00     0.169 HD
BRANCH  12  15
HETATM   15  C2  UNL     1       3.641   0.074  -0.772  1.00  0.00     0.278 C 
BRANCH  15  16
HETATM   16  O2  UNL     1       4.332   0.379   0.439  1.00  0.00    -0.341 OA
BRANCH  16  17
HETATM   17  C3  UNL     1       5.467   1.149   0.511  1.00  0.00     0.080 C 
HETATM   18  C4  UNL     1       5.308   2.312   1.127  1.00  0.00     0.010 C 
HETATM   19  C5  UNL     1       6.061   3.262   0.575  1.00  0.00     0.015 C 
HETATM   20  C6  UNL     1       7.226   2.449   0.177  1.00  0.00     0.004 C 
HETATM   21  C7  UNL     1       6.878   1.161   0.132  1.00  0.00     0.038 C 
ENDBRANCH  16  17
ENDBRANCH  15  16
ENDBRANCH  12  15
ENDBRANCH   1  11
BRANCH   8  22
HETATM   22  N4  UNL     1      -3.460  -0.360   0.053  1.00  0.00    -0.340 N 
HETATM   23  H10 UNL     1      -2.518   0.133  -0.021  1.00  0.00     0.167 HD
BRANCH  22  24
HETATM   24  C14 UNL     1      -3.895   0.918   0.369  1.00  0.00     0.035 A 
HETATM   25  C15 UNL     1      -3.651   1.683   1.535  1.00  0.00     0.029 A 
HETATM   26  C16 UNL     1      -4.167   2.930   1.680  1.00  0.00     0.004 A 
HETATM   27  C17 UNL     1      -4.928   3.389   0.635  1.00  0.00     0.019 A 
HETATM   28  C18 UNL     1      -5.248   2.776  -0.544  1.00  0.00     0.013 A 
HETATM   29 BR1  UNL     1      -6.306   3.511  -1.932  1.00  0.00    -0.051 Br
HETATM   30  C19 UNL     1      -4.687   1.495  -0.634  1.00  0.00     0.048 A 
ENDBRANCH  22  24
ENDBRANCH   8  22
TORSDOF 6
