REMARK  2 active torsions:
REMARK  status: ('A' for Active; 'I' for Inactive)
REMARK    1  A    between atoms: C4_7  and  N3_8 
REMARK    2  A    between atoms: N3_8  and  C5_9 
ROOT
HETATM    1  O1  UNL     1      -4.673  -0.545   1.199  1.00  0.00    -0.270 OA
HETATM    2  C1  UNL     1      -3.926  -0.976   0.266  1.00  0.00     0.255 C 
HETATM    3  C2  UNL     1      -3.465  -1.945  -0.800  1.00  0.00     0.254 C 
HETATM    4  N1  UNL     1      -2.287  -1.367  -1.398  1.00  0.00    -0.274 NA
HETATM    5  C3  UNL     1      -1.239  -1.074  -0.768  1.00  0.00     0.229 C 
HETATM    6  N2  UNL     1      -0.006  -0.697  -0.190  1.00  0.00    -0.224 NA
HETATM    7  C4  UNL     1       0.094   0.510   0.382  1.00  0.00     0.138 C 
HETATM    8  C11 UNL     1      -0.994   1.522   0.493  1.00  0.00     0.014 A 
HETATM    9  C12 UNL     1      -1.693   2.564  -0.133  1.00  0.00     0.018 A 
HETATM   10  C13 UNL     1      -2.018   2.120   1.228  1.00  0.00     0.159 A 
HETATM   11  N4  UNL     1      -3.256   1.451   1.414  1.00  0.00    -0.321 N 
HETATM   12  N5  UNL     1      -3.422   0.275   0.724  1.00  0.00    -0.272 N 
HETATM   13  H11 UNL     1      -3.571   1.486   2.380  1.00  0.00     0.181 HD
HETATM   14  H12 UNL     1      -2.671   0.422   0.042  1.00  0.00     0.189 HD
ENDROOT
BRANCH   7  15
HETATM   15  N3  UNL     1       1.379   0.715   0.897  1.00  0.00    -0.340 N 
HETATM   16  H4  UNL     1       1.405   1.420   1.700  1.00  0.00     0.167 HD
BRANCH  15  17
HETATM   17  C5  UNL     1       2.512   0.019   0.353  1.00  0.00     0.035 A 
HETATM   18  C6  UNL     1       2.931  -1.255   0.598  1.00  0.00     0.029 A 
HETATM   19  C7  UNL     1       4.079  -1.730  -0.031  1.00  0.00     0.004 A 
HETATM   20  C8  UNL     1       4.812  -0.953  -0.900  1.00  0.00     0.019 A 
HETATM   21  C9  UNL     1       4.386   0.325  -1.143  1.00  0.00     0.013 A 
HETATM   22 BR1  UNL     1       5.448   1.349  -2.355  1.00  0.00    -0.051 Br
HETATM   23  C10 UNL     1       3.254   0.811  -0.530  1.00  0.00     0.048 A 
ENDBRANCH  15  17
ENDBRANCH   7  15
TORSDOF 2
