REMARK  3 active torsions:
REMARK  status: ('A' for Active; 'I' for Inactive)
REMARK    1  A    between atoms: C7_8  and  N1_9 
REMARK    2  A    between atoms: N1_9  and  C8_10 
REMARK       I    between atoms: N4_17  and  C13_18 
REMARK    3  A    between atoms: C13_18  and  C14_20 
ROOT
HETATM    1  C14 UNL     1       4.908   1.481  -0.561  1.00  0.00     0.226 C 
HETATM    2  C15 UNL     1       6.313   1.084  -0.799  1.00  0.00     0.068 C 
HETATM    3  N5  UNL     1       7.414   0.785  -0.995  1.00  0.00    -0.197 NA
ENDROOT
BRANCH   1   4
HETATM    4  C13 UNL     1       4.105   0.273  -0.414  1.00  0.00     0.233 C 
HETATM    5  N4  UNL     1       2.713   0.098  -0.213  1.00  0.00    -0.345 N 
HETATM    6  C12 UNL     1       1.569   1.090  -0.093  1.00  0.00     0.168 C 
HETATM    7  C16 UNL     1       2.225  -1.313  -0.074  1.00  0.00     0.156 C 
HETATM    8  C11 UNL     1       0.686   0.214   0.783  1.00  0.00     0.006 C 
HETATM    9  C8  UNL     1      -0.654  -0.311   0.416  1.00  0.00     0.155 C 
HETATM   10  C10 UNL     1       1.326  -0.232   1.899  1.00  0.00     0.014 C 
HETATM   11  N2  UNL     1      -0.705  -1.141   1.443  1.00  0.00    -0.160 NA
HETATM   12  N3  UNL     1       0.311  -2.202   1.269  1.00  0.00    -0.302 N 
HETATM   13  C9  UNL     1       1.664  -1.580   1.300  1.00  0.00     0.143 C 
HETATM   14  H8  UNL     1       0.451  -3.251   1.131  1.00  0.00     0.183 HD
HETATM   15  O1  UNL     1       4.916  -0.712  -0.499  1.00  0.00    -0.272 OA
BRANCH   9  16
HETATM   16  N1  UNL     1      -1.286   0.256  -0.753  1.00  0.00    -0.339 N 
HETATM   17  H7  UNL     1      -0.712   0.837  -1.386  1.00  0.00     0.167 HD
BRANCH  16  18
HETATM   18  C7  UNL     1      -2.634  -0.205  -0.641  1.00  0.00     0.041 A 
HETATM   19  C2  UNL     1      -3.539   0.815  -0.480  1.00  0.00    -0.018 A 
HETATM   20  C1  UNL     1      -3.254   2.266  -0.440  1.00  0.00     0.052 C 
HETATM   21  C3  UNL     1      -4.901   0.534  -0.337  1.00  0.00     0.019 A 
HETATM   22 BR1  UNL     1      -6.257   1.858  -0.111  1.00  0.00    -0.051 Br
HETATM   23  C4  UNL     1      -5.323  -0.783  -0.360  1.00  0.00     0.020 A 
HETATM   24  C5  UNL     1      -4.384  -1.803  -0.525  1.00  0.00     0.004 A 
HETATM   25  C6  UNL     1      -3.037  -1.524  -0.666  1.00  0.00     0.030 A 
ENDBRANCH  16  18
ENDBRANCH   9  16
ENDBRANCH   1   4
TORSDOF 3
