REMARK  5 active torsions:
REMARK  status: ('A' for Active; 'I' for Inactive)
REMARK    1  A    between atoms: N1_1  and  C1_2 
REMARK    2  A    between atoms: C1_2  and  C15_20 
REMARK    3  A    between atoms: C2_3  and  C3_4 
REMARK    4  A    between atoms: C3_4  and  N2_5 
REMARK    5  A    between atoms: N2_5  and  C4_6 
ROOT
HETATM    1  C4  UNL     1      -0.053  -0.018  -0.420  1.00  0.00     0.298 C 
HETATM    2  C5  UNL     1      -0.575  -1.484  -0.730  1.00  0.00     0.175 C 
HETATM    3  N3  UNL     1      -1.792  -2.280  -0.522  1.00  0.00    -0.277 NA
HETATM    4  C6  UNL     1      -3.022  -1.366  -0.262  1.00  0.00     0.086 A 
HETATM    5  C7  UNL     1      -3.936  -1.180  -1.323  1.00  0.00     0.034 A 
HETATM    6  C8  UNL     1      -4.676   0.020  -1.242  1.00  0.00     0.003 A 
HETATM    7  C9  UNL     1      -4.621   1.022  -0.287  1.00  0.00     0.012 A 
HETATM    8  C10 UNL     1      -3.703   0.655   0.626  1.00  0.00    -0.004 A 
HETATM    9  C11 UNL     1      -2.817  -0.448   0.877  1.00  0.00     0.111 A 
HETATM   10  O1  UNL     1      -1.917  -0.674   1.995  1.00  0.00    -0.318 OA
HETATM   11  C12 UNL     1      -0.640  -0.041   1.981  1.00  0.00     0.169 C 
HETATM   12  C13 UNL     1      -0.721   0.589   0.758  1.00  0.00     0.063 C 
HETATM   13  N4  UNL     1      -1.536   1.840   0.552  1.00  0.00    -0.386 N 
HETATM   14  C14 UNL     1      -2.971   1.921   1.237  1.00  0.00     0.161 C 
HETATM   15  H13 UNL     1      -0.749   2.235  -0.071  1.00  0.00     0.159 HD
ENDROOT
BRANCH   1  16
HETATM   16  N2  UNL     1       1.333  -0.037  -0.473  1.00  0.00     0.099 N 
HETATM   17  H6  UNL     1       1.670  -0.208  -1.439  1.00  0.00     0.317 HD
BRANCH  16  18
HETATM   18  C3  UNL     1       2.024  -0.905   0.432  1.00  0.00     0.299 C 
BRANCH  18  19
HETATM   19  C2  UNL     1       3.470  -0.779   0.235  1.00  0.00     0.024 C 
HETATM   20  C1  UNL     1       4.221  -0.063  -0.567  1.00  0.00     0.009 C 
BRANCH  20  21
HETATM   21  N1  UNL     1       3.783   0.861  -1.540  1.00  0.00    -0.304 NA
HETATM   22  H1  UNL     1       3.412   1.107  -2.476  1.00  0.00     0.124 HD
HETATM   23  H2  UNL     1       3.411   1.128  -2.474  1.00  0.00     0.124 HD
ENDBRANCH  20  21
BRANCH  20  24
HETATM   24  C15 UNL     1       5.691  -0.185  -0.498  1.00  0.00     0.272 C 
HETATM   25  F1  UNL     1       6.213   1.042  -0.186  1.00  0.00    -0.250 F 
ENDBRANCH  20  24
ENDBRANCH  18  19
ENDBRANCH  16  18
ENDBRANCH   1  16
TORSDOF 5
