REMARK  8 active torsions:
REMARK  status: ('A' for Active; 'I' for Inactive)
REMARK    1  A    between atoms: C2_2  and  C3_3 
REMARK       I    between atoms: C3_3  and  N1_5 
REMARK    2  A    between atoms: N1_5  and  C4_6 
REMARK    3  A    between atoms: C9_13  and  N4_14 
REMARK    4  A    between atoms: N4_14  and  C10_15 
REMARK    5  A    between atoms: C10_15  and  C11_16 
REMARK    6  A    between atoms: C11_16  and  C12_17 
REMARK    7  A    between atoms: C12_17  and  C13_18 
REMARK    8  A    between atoms: C13_18  and  C14_19 
ROOT
HETATM    1  C4  UNL     1      -2.402  -1.372   0.548  1.00  0.00     0.035 A 
HETATM    2  C5  UNL     1      -3.041  -0.641  -0.435  1.00  0.00     0.033 A 
HETATM    3  C6  UNL     1      -2.812   0.185  -1.640  1.00  0.00     0.048 A 
HETATM    4  C7  UNL     1      -1.410   0.069  -1.630  1.00  0.00     0.122 A 
HETATM    5  N2  UNL     1      -0.435   0.462  -2.303  1.00  0.00    -0.398 NA
HETATM    6  C8  UNL     1       0.491   0.830  -2.935  1.00  0.00     0.301 A 
HETATM    7  N3  UNL     1       1.187   0.165  -2.046  1.00  0.00    -0.212 NA
HETATM    8  C9  UNL     1       0.947  -0.592  -0.935  1.00  0.00     0.140 A 
HETATM    9  C16 UNL     1      -0.480  -0.563  -0.824  1.00  0.00     0.052 A 
HETATM   10  C17 UNL     1      -1.046  -1.285   0.278  1.00  0.00     0.048 A 
ENDROOT
BRANCH   8  11
HETATM   11  N4  UNL     1       1.718  -1.322   0.110  1.00  0.00    -0.367 N 
HETATM   12  H8  UNL     1       1.164  -2.064   0.520  1.00  0.00     0.161 HD
BRANCH  11  13
HETATM   13  C10 UNL     1       2.880  -0.406  -0.126  1.00  0.00     0.134 C 
BRANCH  13  14
HETATM   14  C11 UNL     1       4.225  -0.483   0.258  1.00  0.00     0.004 C 
BRANCH  14  15
HETATM   15  C12 UNL     1       4.372   0.873  -0.447  1.00  0.00     0.022 C 
BRANCH  15  16
HETATM   16  C13 UNL     1       5.364   1.773  -0.733  1.00  0.00     0.029 C 
BRANCH  16  17
HETATM   17  C14 UNL     1       4.422   2.746  -1.453  1.00  0.00    -0.012 A 
HETATM   18  C15 UNL     1       4.464   3.970  -2.043  1.00  0.00     0.125 A 
HETATM   19 BR1  UNL     1       2.788   3.477  -2.327  1.00  0.00    -0.167 Br
ENDBRANCH  16  17
ENDBRANCH  15  16
ENDBRANCH  14  15
ENDBRANCH  13  14
ENDBRANCH  11  13
ENDBRANCH   8  11
BRANCH   1  20
HETATM   20  N1  UNL     1      -3.276  -1.835   1.397  1.00  0.00    -0.335 N 
HETATM   21  C3  UNL     1      -4.327  -1.177   2.121  1.00  0.00     0.178 C 
HETATM   22  O1  UNL     1      -3.959  -0.027   1.547  1.00  0.00    -0.172 OA
HETATM   23  H4  UNL     1      -3.560  -2.820   1.872  1.00  0.00     0.168 HD
BRANCH  21  24
HETATM   24  C2  UNL     1      -5.447  -1.134   3.037  1.00  0.00     0.049 C 
HETATM   25  C1  UNL     1      -5.850  -2.258   3.744  1.00  0.00     0.015 C 
ENDBRANCH  21  24
ENDBRANCH   1  20
TORSDOF 8
