REMARK  6 active torsions:
REMARK  status: ('A' for Active; 'I' for Inactive)
REMARK    1  A    between atoms: C2_3  and  C3_4 
REMARK       I    between atoms: C3_4  and  N2_6 
REMARK    2  A    between atoms: N2_6  and  C4_7 
REMARK    3  A    between atoms: C8_11  and  C9_12 
REMARK    4  A    between atoms: C9_12  and  N3_13 
REMARK    5  A    between atoms: C9_12  and  N4_14 
REMARK    6  A    between atoms: N4_14  and  C10_15 
ROOT
HETATM    1  N1  UNL     1       8.468   0.525   0.225  1.00  0.00    -0.197 NA
HETATM    2  C1  UNL     1       7.555   0.106  -0.362  1.00  0.00     0.068 C 
HETATM    3  C2  UNL     1       6.392  -0.412  -1.082  1.00  0.00     0.226 C 
ENDROOT
BRANCH   3   4
HETATM    4  C3  UNL     1       5.129   0.011  -0.428  1.00  0.00     0.235 C 
HETATM    5  O1  UNL     1       5.408   0.706   0.577  1.00  0.00    -0.272 OA
HETATM    6  N2  UNL     1       3.810  -0.290  -0.829  1.00  0.00    -0.321 N 
HETATM    7  H3  UNL     1       3.877  -0.873  -1.682  1.00  0.00     0.169 HD
BRANCH   6   8
HETATM    8  C4  UNL     1       2.592   0.099  -0.226  1.00  0.00     0.072 A 
HETATM    9  C5  UNL     1       2.486   0.839   0.855  1.00  0.00     0.037 A 
HETATM   10  C6  UNL     1       1.244   1.251   1.493  1.00  0.00     0.000 A 
HETATM   11  C7  UNL     1       0.086   0.877   0.980  1.00  0.00    -0.007 A 
HETATM   12  C8  UNL     1      -0.326   0.057  -0.206  1.00  0.00     0.118 A 
HETATM   13  S1  UNL     1       1.145  -0.506  -1.059  1.00  0.00    -0.100 SA
BRANCH  12  14
HETATM   14  C9  UNL     1      -1.221  -1.087   0.223  1.00  0.00     0.192 C 
BRANCH  14  15
HETATM   15  N3  UNL     1      -0.527  -1.924   1.145  1.00  0.00    -0.410 N 
HETATM   16  H9  UNL     1      -0.984  -2.811   1.367  1.00  0.00     0.152 HD
HETATM   17  H10 UNL     1       0.007  -1.456   1.883  1.00  0.00     0.152 HD
ENDBRANCH  14  15
BRANCH  14  18
HETATM   18  N4  UNL     1      -2.542  -0.718   0.586  1.00  0.00    -0.368 N 
HETATM   19  H11 UNL     1      -2.715  -0.874   1.605  1.00  0.00     0.161 HD
BRANCH  18  20
HETATM   20  C10 UNL     1      -3.596  -0.198  -0.191  1.00  0.00     0.030 A 
HETATM   21  C11 UNL     1      -3.559   0.043  -1.547  1.00  0.00     0.029 A 
HETATM   22  C12 UNL     1      -4.576   0.554  -2.297  1.00  0.00     0.004 A 
HETATM   23  C13 UNL     1      -5.751   0.857  -1.645  1.00  0.00     0.019 A 
HETATM   24  C14 UNL     1      -5.857   0.641  -0.294  1.00  0.00     0.013 A 
HETATM   25 BR1  UNL     1      -7.492   1.066   0.600  1.00  0.00    -0.051 Br
HETATM   26  C15 UNL     1      -4.799   0.127   0.398  1.00  0.00     0.048 A 
ENDBRANCH  18  20
ENDBRANCH  14  18
ENDBRANCH  12  14
ENDBRANCH   6   8
ENDBRANCH   3   4
TORSDOF 6
