REMARK  4 active torsions:
REMARK  status: ('A' for Active; 'I' for Inactive)
REMARK    1  A    between atoms: C2_2  and  C3_3 
REMARK       I    between atoms: C3_3  and  N1_5 
REMARK    2  A    between atoms: N1_5  and  C4_6 
REMARK    3  A    between atoms: C9_13  and  N4_14 
REMARK    4  A    between atoms: N4_14  and  C10_15 
ROOT
HETATM    1  C4  UNL     1       1.940   1.237  -0.658  1.00  0.00     0.036 A 
HETATM    2  C5  UNL     1       1.782   2.229  -1.625  1.00  0.00     0.032 A 
HETATM    3  C6  UNL     1       0.524   2.713  -1.883  1.00  0.00     0.035 A 
HETATM    4  C7  UNL     1      -0.571   2.248  -1.216  1.00  0.00     0.072 A 
HETATM    5  N2  UNL     1      -1.817   2.727  -1.470  1.00  0.00    -0.241 NA
HETATM    6  C8  UNL     1      -2.850   2.226  -0.779  1.00  0.00     0.235 A 
HETATM    7  N3  UNL     1      -2.691   1.262   0.161  1.00  0.00    -0.224 NA
HETATM    8  C9  UNL     1      -1.482   0.751   0.453  1.00  0.00     0.138 A 
HETATM    9  C15 UNL     1      -0.430   1.262  -0.251  1.00  0.00     0.041 A 
HETATM   10  C16 UNL     1       0.830   0.768   0.015  1.00  0.00     0.047 A 
ENDROOT
BRANCH   8  11
HETATM   11  N4  UNL     1      -1.396  -0.254   1.448  1.00  0.00    -0.363 N 
HETATM   12  H8  UNL     1      -0.560  -0.744   1.788  1.00  0.00     0.162 HD
BRANCH  11  13
HETATM   13  C10 UNL     1      -2.644  -0.662   2.084  1.00  0.00     0.129 A 
HETATM   14  C11 UNL     1      -2.464  -1.702   3.101  1.00  0.00     0.002 A 
HETATM   15  C12 UNL     1      -3.144  -2.780   2.737  1.00  0.00    -0.002 A 
HETATM   16  C13 UNL     1      -3.835  -2.591   1.475  1.00  0.00    -0.002 A 
HETATM   17  C14 UNL     1      -3.539  -1.343   1.095  1.00  0.00     0.002 A 
ENDBRANCH  11  13
ENDBRANCH   8  11
BRANCH   1  18
HETATM   18  N1  UNL     1       3.284   0.808  -0.475  1.00  0.00    -0.324 N 
HETATM   19  C3  UNL     1       3.619  -0.289  -1.334  1.00  0.00     0.244 C 
HETATM   20  O1  UNL     1       2.710  -0.700  -2.099  1.00  0.00    -0.268 OA
HETATM   21  H4  UNL     1       4.102   1.097   0.138  1.00  0.00     0.169 HD
BRANCH  19  22
HETATM   22  C2  UNL     1       4.945  -0.895  -1.321  1.00  0.00     0.064 C 
HETATM   23  C1  UNL     1       4.938  -1.868  -2.213  1.00  0.00     0.017 C 
ENDBRANCH  19  22
ENDBRANCH   1  18
TORSDOF 4
