REMARK  3 active torsions:
REMARK  status: ('A' for Active; 'I' for Inactive)
REMARK    1  A    between atoms: C2_2  and  C3_3 
REMARK       I    between atoms: C3_3  and  N1_5 
REMARK    2  A    between atoms: N1_5  and  C4_6 
REMARK    3  A    between atoms: C5_7  and  C6_8 
ROOT
HETATM    1  C6  UNL     1       1.261   0.285   1.731  1.00  0.00     0.033 C 
HETATM    2  C7  UNL     1      -0.056   0.372   1.696  1.00  0.00     0.058 C 
HETATM    3  C8  UNL     1      -0.793   0.213   0.450  1.00  0.00     0.043 C 
HETATM    4  C9  UNL     1      -2.093  -0.057   0.236  1.00  0.00    -0.006 C 
HETATM    5  C10 UNL     1      -1.928  -0.030  -1.227  1.00  0.00     0.070 C 
HETATM    6  C11 UNL     1      -3.190   0.119  -1.973  1.00  0.00    -0.022 C 
HETATM    7  C12 UNL     1      -4.501  -0.041  -2.026  1.00  0.00    -0.002 C 
HETATM    8  C13 UNL     1      -5.398  -0.607  -1.017  1.00  0.00     0.017 C 
HETATM    9  C14 UNL     1      -5.387  -0.896   0.274  1.00  0.00     0.090 C 
HETATM   10  N2  UNL     1      -4.385  -0.746   1.273  1.00  0.00    -0.350 N 
HETATM   11  C15 UNL     1      -3.051  -0.251   1.318  1.00  0.00     0.135 C 
HETATM   12  N3  UNL     1      -2.976  -0.040   2.581  1.00  0.00    -0.224 NA
HETATM   13  C16 UNL     1      -1.895   0.468   3.363  1.00  0.00     0.235 C 
HETATM   14  N4  UNL     1      -0.676   0.633   2.970  1.00  0.00    -0.242 NA
HETATM   15  H15 UNL     1      -4.699  -1.080   2.212  1.00  0.00     0.166 HD
ENDROOT
BRANCH   1  16
HETATM   16  C5  UNL     1       2.134   0.032   0.604  1.00  0.00     0.019 C 
HETATM   17  C4  UNL     1       3.464  -0.049   0.709  1.00  0.00     0.091 C 
BRANCH  17  18
HETATM   18  N1  UNL     1       4.339  -0.291  -0.364  1.00  0.00    -0.334 N 
HETATM   19  C3  UNL     1       5.262   0.747  -0.559  1.00  0.00     0.241 C 
HETATM   20  O1  UNL     1       5.151   1.705   0.250  1.00  0.00    -0.269 OA
HETATM   21  H4  UNL     1       4.376  -1.125  -1.007  1.00  0.00     0.168 HD
BRANCH  19  22
HETATM   22  C2  UNL     1       6.285   0.782  -1.584  1.00  0.00     0.048 C 
HETATM   23  C1  UNL     1       6.322  -0.269  -2.381  1.00  0.00     0.037 C 
ENDBRANCH  19  22
ENDBRANCH  17  18
ENDBRANCH   1  16
TORSDOF 3
