REMARK  4 active torsions:
REMARK  status: ('A' for Active; 'I' for Inactive)
REMARK    1  A    between atoms: C2_2  and  C3_3 
REMARK       I    between atoms: C3_3  and  N1_5 
REMARK    2  A    between atoms: N1_5  and  C4_6 
REMARK    3  A    between atoms: C7_9  and  N2_10 
REMARK    4  A    between atoms: N2_10  and  C8_11 
ROOT
HETATM    1  C4  UNL     1       2.457   0.130   0.011  1.00  0.00     0.036 A 
HETATM    2  C5  UNL     1       1.180   0.382  -0.182  1.00  0.00     0.044 A 
HETATM    3  C6  UNL     1       0.329  -0.606   0.509  1.00  0.00     0.002 A 
HETATM    4  C7  UNL     1      -0.999  -0.693   0.592  1.00  0.00     0.041 A 
HETATM    5  C14 UNL     1      -1.568  -1.816   1.336  1.00  0.00     0.206 A 
HETATM    6  N3  UNL     1      -0.572  -2.638   1.938  1.00  0.00    -0.295 NA
HETATM    7  C15 UNL     1       0.667  -2.550   1.892  1.00  0.00     0.123 A 
HETATM    8  C16 UNL     1       1.291  -1.477   1.137  1.00  0.00    -0.005 A 
HETATM    9  C17 UNL     1       2.524  -1.078   0.868  1.00  0.00     0.043 A 
ENDROOT
BRANCH   4  10
HETATM   10  N2  UNL     1      -1.739   0.297  -0.067  1.00  0.00    -0.357 N 
HETATM   11  H6  UNL     1      -1.212   1.198  -0.291  1.00  0.00     0.166 HD
BRANCH  10  12
HETATM   12  C8  UNL     1      -3.069   0.415  -0.510  1.00  0.00     0.033 A 
HETATM   13  C9  UNL     1      -4.094  -0.459  -0.270  1.00  0.00     0.029 A 
HETATM   14  C10 UNL     1      -5.394  -0.356  -0.725  1.00  0.00     0.004 A 
HETATM   15  C11 UNL     1      -5.712   0.725  -1.496  1.00  0.00     0.019 A 
HETATM   16  C12 UNL     1      -4.754   1.655  -1.789  1.00  0.00     0.013 A 
HETATM   17 BR1  UNL     1      -5.207   3.159  -2.866  1.00  0.00    -0.051 Br
HETATM   18  C13 UNL     1      -3.484   1.480  -1.299  1.00  0.00     0.048 A 
ENDBRANCH  10  12
ENDBRANCH   4  10
BRANCH   1  19
HETATM   19  N1  UNL     1       3.748   0.625  -0.328  1.00  0.00    -0.324 N 
HETATM   20  C3  UNL     1       4.792  -0.060  -1.050  1.00  0.00     0.241 C 
HETATM   21  O1  UNL     1       4.462  -1.220  -1.392  1.00  0.00    -0.269 OA
HETATM   22  H4  UNL     1       3.724   1.604   0.085  1.00  0.00     0.169 HD
BRANCH  20  23
HETATM   23  C2  UNL     1       5.958   0.794  -1.183  1.00  0.00     0.048 C 
HETATM   24  C1  UNL     1       6.495   1.971  -0.922  1.00  0.00     0.037 C 
ENDBRANCH  20  23
ENDBRANCH   1  19
TORSDOF 4
