REMARK  5 active torsions:
REMARK  status: ('A' for Active; 'I' for Inactive)
REMARK    1  A    between atoms: C2_2  and  C3_3 
REMARK    2  A    between atoms: C3_3  and  N1_4 
REMARK    3  A    between atoms: N1_4  and  C4_5 
REMARK    4  A    between atoms: C10_11  and  N2_12 
REMARK    5  A    between atoms: N2_12  and  C11_13 
ROOT
HETATM    1  C4  UNL     1       2.476  -0.873  -0.245  1.00  0.00     0.029 A 
HETATM    2  C5  UNL     1       2.780  -2.211  -0.362  1.00  0.00     0.031 A 
HETATM    3  C6  UNL     1       1.740  -3.123  -0.293  1.00  0.00     0.033 A 
HETATM    4  C7  UNL     1       0.449  -2.667  -0.113  1.00  0.00     0.046 A 
HETATM    5  C8  UNL     1       0.097  -1.350   0.008  1.00  0.00     0.039 A 
HETATM    6  C9  UNL     1       1.165  -0.485  -0.067  1.00  0.00     0.046 A 
HETATM    7  C10 UNL     1      -1.243  -0.885   0.198  1.00  0.00     0.141 A 
HETATM    8  N3  UNL     1      -2.321  -1.576   0.287  1.00  0.00    -0.224 NA
HETATM    9  P1  UNL     1      -2.237  -3.369   0.172  1.00  0.00     0.102 P 
HETATM   10  N4  UNL     1      -0.493  -3.730  -0.062  1.00  0.00    -0.348 N 
HETATM   11  H15 UNL     1      -3.041  -3.800  -0.939  1.00  0.00     0.106 HD
HETATM   12  H16 UNL     1      -0.411  -4.743  -0.138  1.00  0.00     0.166 HD
ENDROOT
BRANCH   7  13
HETATM   13  N2  UNL     1      -1.423   0.531   0.329  1.00  0.00    -0.340 N 
HETATM   14  H10 UNL     1      -0.719   1.260   0.538  1.00  0.00     0.167 HD
BRANCH  13  15
HETATM   15  C11 UNL     1      -2.757   1.060   0.156  1.00  0.00     0.035 A 
HETATM   16  C12 UNL     1      -3.450   0.807   1.330  1.00  0.00     0.029 A 
HETATM   17  C13 UNL     1      -4.768   1.188   1.488  1.00  0.00     0.004 A 
HETATM   18  C14 UNL     1      -5.345   1.831   0.409  1.00  0.00     0.019 A 
HETATM   19  C15 UNL     1      -4.662   2.080  -0.746  1.00  0.00     0.013 A 
HETATM   20 BR1  UNL     1      -5.422   2.969  -2.271  1.00  0.00    -0.051 Br
HETATM   21  C16 UNL     1      -3.349   1.702  -0.909  1.00  0.00     0.048 A 
ENDBRANCH  13  15
ENDBRANCH   7  13
BRANCH   1  22
HETATM   22  N1  UNL     1       3.549   0.076  -0.296  1.00  0.00    -0.386 N 
HETATM   23  H6  UNL     1       4.532  -0.247  -0.413  1.00  0.00     0.160 HD
BRANCH  22  24
HETATM   24  C3  UNL     1       3.212   1.471  -0.177  1.00  0.00     0.146 C 
BRANCH  24  25
HETATM   25  C2  UNL     1       4.371   2.359  -0.173  1.00  0.00    -0.018 C 
HETATM   26  C1  UNL     1       5.611   1.898  -0.268  1.00  0.00     0.008 C 
ENDBRANCH  24  25
ENDBRANCH  22  24
ENDBRANCH   1  22
TORSDOF 5
