REMARK  4 active torsions:
REMARK  status: ('A' for Active; 'I' for Inactive)
REMARK    1  A    between atoms: C2_3  and  N1_4 
REMARK    2  A    between atoms: N1_4  and  C3_5 
REMARK    3  A    between atoms: C8_12  and  N4_13 
REMARK    4  A    between atoms: N4_13  and  C9_14 
ROOT
HETATM    1  C3  UNL     1      -2.497   0.221   0.337  1.00  0.00     0.033 A 
HETATM    2  C4  UNL     1      -3.165   0.842  -0.697  1.00  0.00     0.032 A 
HETATM    3  C5  UNL     1      -2.437   1.282  -1.782  1.00  0.00     0.035 A 
HETATM    4  C6  UNL     1      -1.075   1.092  -1.806  1.00  0.00     0.072 A 
HETATM    5  N2  UNL     1      -0.456   1.554  -2.903  1.00  0.00    -0.241 NA
HETATM    6  C7  UNL     1       0.874   1.400  -2.990  1.00  0.00     0.236 A 
HETATM    7  N3  UNL     1       1.539   0.802  -2.001  1.00  0.00    -0.224 NA
HETATM    8  C8  UNL     1       1.007   0.314  -0.878  1.00  0.00     0.142 A 
HETATM    9  C15 UNL     1      -0.340   0.483  -0.817  1.00  0.00     0.041 A 
HETATM   10  C16 UNL     1      -1.130   0.063   0.246  1.00  0.00     0.047 A 
ENDROOT
BRANCH   8  11
HETATM   11  N4  UNL     1       1.686  -0.320   0.177  1.00  0.00    -0.340 N 
HETATM   12  H5  UNL     1       1.198  -0.659   1.003  1.00  0.00     0.167 HD
BRANCH  11  13
HETATM   13  C9  UNL     1       3.073  -0.587   0.282  1.00  0.00     0.035 A 
HETATM   14  C10 UNL     1       3.974  -0.283  -0.714  1.00  0.00     0.029 A 
HETATM   15  C11 UNL     1       5.327  -0.533  -0.627  1.00  0.00     0.004 A 
HETATM   16  C12 UNL     1       5.857  -1.119   0.501  1.00  0.00     0.019 A 
HETATM   17  C13 UNL     1       5.001  -1.434   1.508  1.00  0.00     0.013 A 
HETATM   18 BR1  UNL     1       5.677  -2.244   3.087  1.00  0.00    -0.051 Br
HETATM   19  C14 UNL     1       3.676  -1.168   1.376  1.00  0.00     0.048 A 
ENDBRANCH  11  13
ENDBRANCH   8  11
BRANCH   1  20
HETATM   20  N1  UNL     1      -3.237  -0.237   1.462  1.00  0.00    -0.355 N 
HETATM   21  H1  UNL     1      -2.734  -0.712   2.254  1.00  0.00     0.166 HD
BRANCH  20  22
HETATM   22  C2  UNL     1      -4.645  -0.030   1.468  1.00  0.00     0.089 A 
HETATM   23  C1  UNL     1      -5.581   0.870   1.903  1.00  0.00     0.159 A 
HETATM   24  F1  UNL     1      -5.749   2.048   2.557  1.00  0.00    -0.205 F 
HETATM   25  C17 UNL     1      -6.079  -0.316   1.192  1.00  0.00     0.286 A 
HETATM   26  F2  UNL     1      -6.637  -1.352   1.915  1.00  0.00    -0.235 F 
ENDBRANCH  20  22
ENDBRANCH   1  20
TORSDOF 4
