REMARK  5 active torsions:
REMARK  status: ('A' for Active; 'I' for Inactive)
REMARK    1  A    between atoms: C3_3  and  C4_5 
REMARK    2  A    between atoms: C7_11  and  C8_12 
REMARK    3  A    between atoms: C9_13  and  N2_14 
REMARK    4  A    between atoms: C16_22  and  N3_23 
REMARK    5  A    between atoms: C17_24  and  N4_25 
ROOT
HETATM    1  C4  UNL     1       2.735  -1.163   0.151  1.00  0.00     0.237 C 
HETATM    2  O1  UNL     1       3.261  -1.529  -1.030  1.00  0.00    -0.364 OA
HETATM    3  C5  UNL     1       3.581  -0.687  -2.006  1.00  0.00     0.272 C 
HETATM    4  C6  UNL     1       2.708   0.427  -2.354  1.00  0.00     0.245 C 
HETATM    5  O2  UNL     1       3.181   1.267  -3.159  1.00  0.00    -0.271 OA
HETATM    6  N1  UNL     1       1.384   0.660  -1.881  1.00  0.00    -0.323 N 
HETATM    7  C7  UNL     1       0.691  -0.008  -0.831  1.00  0.00     0.064 C 
HETATM    8  C16 UNL     1       1.270  -0.803   0.058  1.00  0.00     0.098 C 
HETATM    9  H8  UNL     1       0.831   1.413  -2.350  1.00  0.00     0.169 HD
ENDROOT
BRANCH   7  10
HETATM   10  C8  UNL     1      -0.720   0.246  -0.802  1.00  0.00     0.049 C 
HETATM   11  C9  UNL     1      -1.730  -0.137  -0.044  1.00  0.00     0.093 C 
BRANCH  11  12
HETATM   12  N2  UNL     1      -3.141   0.161  -0.074  1.00  0.00    -0.356 N 
HETATM   13  C10 UNL     1      -4.019  -0.731  -0.807  1.00  0.00     0.155 A 
HETATM   14  C11 UNL     1      -5.413  -0.250  -0.719  1.00  0.00    -0.005 A 
HETATM   15  C12 UNL     1      -5.903   0.796  -0.109  1.00  0.00     0.019 A 
HETATM   16  C13 UNL     1      -4.952   1.631   0.599  1.00  0.00     0.033 A 
HETATM   17 BR1  UNL     1      -5.577   3.175   1.516  1.00  0.00    -0.049 Br
HETATM   18  C14 UNL     1      -3.664   1.313   0.601  1.00  0.00     0.025 A 
HETATM   19  C15 UNL     1      -2.759   2.219   1.349  1.00  0.00     0.070 C 
ENDBRANCH  11  12
ENDBRANCH   7  10
BRANCH   8  20
HETATM   20  N3  UNL     1       0.395  -1.353   1.001  1.00  0.00    -0.244 NA
HETATM   21  C17 UNL     1       0.578  -2.590   1.342  1.00  0.00     0.200 C 
BRANCH  21  22
HETATM   22  N4  UNL     1       1.175  -3.873   1.359  1.00  0.00    -0.394 N 
HETATM   23  H19 UNL     1       1.259  -4.151   2.376  1.00  0.00     0.156 HD
HETATM   24  H20 UNL     1       1.401  -4.266   0.399  1.00  0.00     0.156 HD
ENDBRANCH  21  22
ENDBRANCH   8  20
BRANCH   1  25
HETATM   25  C3  UNL     1       3.400  -0.093   0.901  1.00  0.00     0.124 C 
HETATM   26  C2  UNL     1       4.428   0.749   0.862  1.00  0.00     0.010 C 
HETATM   27  C1  UNL     1       4.535   1.644   2.047  1.00  0.00     0.039 C 
HETATM   28  F1  UNL     1       2.727   0.140   2.081  1.00  0.00    -0.208 F 
ENDBRANCH   1  25
TORSDOF 5
