REMARK  2 active torsions:
REMARK  status: ('A' for Active; 'I' for Inactive)
REMARK    1  A    between atoms: C2_4  and  N3_5 
REMARK    2  A    between atoms: N3_5  and  C3_6 
ROOT
HETATM    1  C1  UNL     1      -1.298   2.983   0.408  1.00  0.00     0.180 C 
HETATM    2  N1  UNL     1      -0.889   1.671  -0.051  1.00  0.00    -0.273 N 
HETATM    3  N2  UNL     1       0.297   0.966   0.009  1.00  0.00    -0.157 NA
HETATM    4  C2  UNL     1       0.374  -0.204  -0.520  1.00  0.00     0.141 C 
HETATM    5  C9  UNL     1      -0.926  -1.001  -0.688  1.00  0.00     0.056 C 
HETATM    6  C10 UNL     1      -0.599  -2.071  -1.699  1.00  0.00     0.032 C 
HETATM    7  C11 UNL     1      -1.304  -1.594   0.581  1.00  0.00    -0.000 C 
HETATM    8  C12 UNL     1      -2.070  -1.666   1.659  1.00  0.00     0.072 C 
HETATM    9  C13 UNL     1      -3.217  -0.739   1.885  1.00  0.00     0.244 C 
HETATM   10  O1  UNL     1      -4.152  -0.234   2.547  1.00  0.00    -0.268 OA
HETATM   11  N4  UNL     1      -3.739   0.192   0.958  1.00  0.00    -0.334 N 
HETATM   12  C14 UNL     1      -4.256   1.115   0.039  1.00  0.00     0.093 C 
HETATM   13  C15 UNL     1      -3.432   1.707  -0.854  1.00  0.00     0.048 C 
HETATM   14  C16 UNL     1      -2.065   1.200  -0.669  1.00  0.00     0.051 C 
HETATM   15  C17 UNL     1      -1.940  -0.043  -1.231  1.00  0.00     0.025 C 
HETATM   16  H14 UNL     1      -3.305  -0.309   0.199  1.00  0.00     0.168 HD
ENDROOT
BRANCH   4  17
HETATM   17  N3  UNL     1       1.619  -0.714  -0.918  1.00  0.00    -0.342 N 
HETATM   18  H4  UNL     1       1.664  -1.349  -1.754  1.00  0.00     0.167 HD
BRANCH  17  19
HETATM   19  C3  UNL     1       2.823  -0.425  -0.246  1.00  0.00     0.034 A 
HETATM   20  C4  UNL     1       3.008   0.312   0.900  1.00  0.00     0.029 A 
HETATM   21  C5  UNL     1       4.191   0.574   1.514  1.00  0.00     0.004 A 
HETATM   22  C6  UNL     1       5.353   0.065   0.959  1.00  0.00     0.019 A 
HETATM   23  C7  UNL     1       5.275  -0.681  -0.181  1.00  0.00     0.013 A 
HETATM   24 BR1  UNL     1       6.863  -1.389  -0.958  1.00  0.00    -0.051 Br
HETATM   25  C8  UNL     1       4.030  -0.899  -0.740  1.00  0.00     0.048 A 
ENDBRANCH  17  19
ENDBRANCH   4  17
TORSDOF 2
