REMARK  2 active torsions:
REMARK  status: ('A' for Active; 'I' for Inactive)
REMARK       I    between atoms: C2_2  and  N1_4 
REMARK    1  A    between atoms: N1_4  and  C3_5 
REMARK    2  A    between atoms: C8_12  and  N4_13 
ROOT
HETATM    1  C3  UNL     1       2.253   0.859   0.063  1.00  0.00     0.035 A 
HETATM    2  C4  UNL     1       2.594   2.172  -0.208  1.00  0.00     0.032 A 
HETATM    3  C5  UNL     1       1.626   3.111  -0.424  1.00  0.00     0.035 A 
HETATM    4  C6  UNL     1       0.301   2.791  -0.379  1.00  0.00     0.072 A 
HETATM    5  N2  UNL     1      -0.689   3.676  -0.583  1.00  0.00    -0.241 NA
HETATM    6  C7  UNL     1      -1.988   3.323  -0.530  1.00  0.00     0.236 A 
HETATM    7  N3  UNL     1      -2.311   2.044  -0.266  1.00  0.00    -0.224 NA
HETATM    8  C8  UNL     1      -1.361   1.096  -0.049  1.00  0.00     0.140 A 
HETATM    9  C14 UNL     1      -0.048   1.492  -0.110  1.00  0.00     0.041 A 
HETATM   10  C15 UNL     1       0.911   0.526   0.110  1.00  0.00     0.047 A 
ENDROOT
BRANCH   8  11
HETATM   11  N4  UNL     1      -1.824  -0.242   0.227  1.00  0.00    -0.361 N 
HETATM   12  C9  UNL     1      -1.661  -1.150   1.368  1.00  0.00     0.153 C 
HETATM   13  C10 UNL     1      -3.052  -1.596   1.750  1.00  0.00     0.007 C 
HETATM   14  C11 UNL     1      -3.765  -2.046   0.723  1.00  0.00    -0.012 C 
HETATM   15 BR1  UNL     1      -5.543  -2.618   1.203  1.00  0.00    -0.056 Br
HETATM   16  C12 UNL     1      -3.167  -2.073  -0.644  1.00  0.00     0.066 C 
HETATM   17  C13 UNL     1      -2.597  -0.697  -0.912  1.00  0.00     0.130 C 
ENDBRANCH   8  11
BRANCH   1  18
HETATM   18  N1  UNL     1       3.246  -0.161   0.296  1.00  0.00    -0.327 N 
HETATM   19  C2  UNL     1       3.834  -0.988  -0.724  1.00  0.00     0.218 C 
HETATM   20  C1  UNL     1       4.850  -1.984  -0.242  1.00  0.00     0.117 C 
HETATM   21  O1  UNL     1       3.452  -0.809  -1.923  1.00  0.00    -0.274 OA
HETATM   22  H4  UNL     1       3.459  -0.191   1.323  1.00  0.00     0.169 HD
ENDBRANCH   1  18
TORSDOF 2
