REMARK  5 active torsions:
REMARK  status: ('A' for Active; 'I' for Inactive)
REMARK    1  A    between atoms: C2_2  and  C3_3 
REMARK       I    between atoms: C3_3  and  N1_5 
REMARK    2  A    between atoms: N1_5  and  C4_6 
REMARK    3  A    between atoms: C8_10  and  C9_11 
REMARK    4  A    between atoms: C11_15  and  C12_16 
REMARK    5  A    between atoms: C12_16  and  C13_17 
ROOT
HETATM    1  C4  UNL     1       3.014   0.250   0.660  1.00  0.00     0.035 A 
HETATM    2  C5  UNL     1       3.363   0.378   1.987  1.00  0.00     0.029 A 
HETATM    3  C6  UNL     1       2.393   0.181   2.947  1.00  0.00     0.003 A 
HETATM    4  C7  UNL     1       1.120  -0.134   2.530  1.00  0.00     0.013 A 
HETATM    5  C8  UNL     1       0.709  -0.277   1.223  1.00  0.00    -0.009 A 
HETATM    6  C17 UNL     1       1.722  -0.068   0.312  1.00  0.00     0.043 A 
ENDROOT
BRANCH   5   7
HETATM    7  C9  UNL     1      -0.640  -0.609   0.797  1.00  0.00     0.049 C 
HETATM    8  N2  UNL     1      -0.744  -0.682  -0.485  1.00  0.00    -0.245 NA
HETATM    9  C10 UNL     1      -1.900  -0.982  -1.254  1.00  0.00     0.233 C 
HETATM   10  N3  UNL     1      -3.131  -0.733  -0.966  1.00  0.00    -0.242 NA
HETATM   11  C11 UNL     1      -3.624  -0.093   0.201  1.00  0.00     0.055 C 
HETATM   12  C15 UNL     1      -2.986  -0.151   1.382  1.00  0.00     0.011 C 
HETATM   13  C16 UNL     1      -1.716  -0.827   1.780  1.00  0.00     0.089 C 
BRANCH  11  14
HETATM   14  C12 UNL     1      -4.868   0.664   0.159  1.00  0.00     0.045 C 
BRANCH  14  15
HETATM   15  C13 UNL     1      -5.658   0.857  -0.879  1.00  0.00    -0.013 C 
HETATM   16  C14 UNL     1      -5.678   0.462  -2.306  1.00  0.00     0.056 C 
HETATM   17 BR1  UNL     1      -7.264   1.905  -0.696  1.00  0.00    -0.056 Br
ENDBRANCH  14  15
ENDBRANCH  11  14
ENDBRANCH   5   7
BRANCH   1  18
HETATM   18  N1  UNL     1       4.016   0.453  -0.324  1.00  0.00    -0.324 N 
HETATM   19  C3  UNL     1       4.944  -0.431  -0.962  1.00  0.00     0.244 C 
HETATM   20  O1  UNL     1       4.784  -1.614  -0.512  1.00  0.00    -0.268 OA
HETATM   21  H4  UNL     1       3.918   1.459  -0.489  1.00  0.00     0.169 HD
BRANCH  19  22
HETATM   22  C2  UNL     1       5.851   0.137  -1.951  1.00  0.00     0.064 C 
HETATM   23  C1  UNL     1       5.928   1.397  -2.344  1.00  0.00     0.017 C 
ENDBRANCH  19  22
ENDBRANCH   1  18
TORSDOF 5
