REMARK  2 active torsions:
REMARK  status: ('A' for Active; 'I' for Inactive)
REMARK    1  A    between atoms: C5_7  and  N2_8 
REMARK    2  A    between atoms: N2_8  and  C6_9 
ROOT
HETATM    1  O1  UNL     1       2.444  -0.155   0.956  1.00  0.00     0.000 OA
HETATM    2  C1  UNL     1       1.915  -0.641   1.979  1.00  0.00     0.202 A 
HETATM    3  C2  UNL     1       0.830  -1.566   2.292  1.00  0.00     0.045 C 
HETATM    4  C3  UNL     1      -0.176  -1.506   1.450  1.00  0.00     0.084 A 
HETATM    5  C4  UNL     1      -0.703  -0.374   1.180  1.00  0.00     0.116 A 
HETATM    6  N1  UNL     1       0.108  -0.812   0.143  1.00  0.00    -0.247 NA
HETATM    7  C5  UNL     1      -0.079  -0.581  -1.102  1.00  0.00     0.064 C 
HETATM    8  C12 UNL     1       1.055  -1.174  -1.928  1.00  0.00     0.097 C 
HETATM    9  C13 UNL     1       2.169  -0.225  -1.943  1.00  0.00    -0.020 C 
HETATM   10  C14 UNL     1       3.160   0.627  -2.080  1.00  0.00    -0.006 C 
HETATM   11  C15 UNL     1       3.741   1.036  -0.770  1.00  0.00     0.011 C 
HETATM   12  C16 UNL     1       3.592   0.839   0.530  1.00  0.00     0.287 A 
HETATM   13  N3  UNL     1       3.000   0.282   1.701  1.00  0.00     0.132 N 
HETATM   14  H14 UNL     1       3.359   0.535   2.695  1.00  0.00     0.324 HD
ENDROOT
BRANCH   7  15
HETATM   15  N2  UNL     1      -1.173   0.172  -1.591  1.00  0.00    -0.350 N 
HETATM   16  H3  UNL     1      -1.037   0.568  -2.575  1.00  0.00     0.167 HD
BRANCH  15  17
HETATM   17  C6  UNL     1      -2.265   0.279  -0.699  1.00  0.00     0.034 A 
HETATM   18  C7  UNL     1      -3.093  -0.838  -0.440  1.00  0.00     0.029 A 
HETATM   19  C8  UNL     1      -4.155  -0.794   0.398  1.00  0.00     0.004 A 
HETATM   20  C9  UNL     1      -4.492   0.353   1.055  1.00  0.00     0.019 A 
HETATM   21  C10 UNL     1      -3.739   1.481   0.861  1.00  0.00     0.013 A 
HETATM   22 BR1  UNL     1      -4.067   3.193   1.688  1.00  0.00    -0.051 Br
HETATM   23  C11 UNL     1      -2.670   1.399   0.002  1.00  0.00     0.048 A 
ENDBRANCH  15  17
ENDBRANCH   7  15
TORSDOF 2
