REMARK  2 active torsions:
REMARK  status: ('A' for Active; 'I' for Inactive)
REMARK    1  A    between atoms: N1_4  and  C3_5 
REMARK    2  A    between atoms: C3_5  and  C4_6 
ROOT
HETATM    1 BR1  UNL     1       1.312  -4.040  -0.463  1.00  0.00    -0.129 Br
HETATM    2  C1  UNL     1      -0.233  -2.914  -0.565  1.00  0.00     0.046 A 
HETATM    3  C2  UNL     1       0.898  -2.244  -0.703  1.00  0.00     0.215 A 
HETATM    4  N1  UNL     1       1.374  -0.861  -0.920  1.00  0.00    -0.384 N 
HETATM    5  C9  UNL     1       0.700   0.165  -1.761  1.00  0.00     0.130 C 
HETATM    6  C10 UNL     1       0.106   0.287  -0.626  1.00  0.00     0.002 C 
HETATM    7  C11 UNL     1      -0.376   0.224   0.700  1.00  0.00     0.026 C 
HETATM    8  C12 UNL     1      -1.343   0.946   1.141  1.00  0.00     0.042 C 
HETATM    9  C13 UNL     1      -2.168   1.976   0.404  1.00  0.00     0.137 C 
HETATM   10  C14 UNL     1      -3.455   1.144   0.293  1.00  0.00     0.110 C 
HETATM   11  N2  UNL     1      -4.034   1.124   1.447  1.00  0.00    -0.228 NA
HETATM   12  C15 UNL     1      -3.172   0.977   2.623  1.00  0.00     0.235 C 
HETATM   13  N3  UNL     1      -1.854   0.872   2.456  1.00  0.00    -0.246 NA
HETATM   14  N4  UNL     1      -4.113   0.383  -0.747  1.00  0.00    -0.354 N 
HETATM   15  C16 UNL     1      -4.486  -0.973  -0.572  1.00  0.00     0.089 C 
HETATM   16  C17 UNL     1      -3.863  -2.094  -0.474  1.00  0.00     0.017 C 
HETATM   17  C18 UNL     1      -2.976  -3.224  -0.389  1.00  0.00    -0.001 C 
HETATM   18  C19 UNL     1      -1.674  -3.122  -0.467  1.00  0.00    -0.008 C 
HETATM   19  H15 UNL     1      -4.046   1.245  -1.296  1.00  0.00     0.166 HD
ENDROOT
BRANCH   4  20
HETATM   20  C3  UNL     1       2.609  -0.874  -0.134  1.00  0.00     0.159 C 
BRANCH  20  21
HETATM   21  C4  UNL     1       3.362   0.382  -0.199  1.00  0.00    -0.019 A 
HETATM   22  C5  UNL     1       4.585   0.367  -0.713  1.00  0.00     0.143 A 
HETATM   23  O1  UNL     1       5.470   1.419  -0.873  1.00  0.00    -0.359 OA
HETATM   24  C6  UNL     1       5.137   2.718  -0.450  1.00  0.00     0.202 A 
HETATM   25  C7  UNL     1       3.774   2.713   0.124  1.00  0.00     0.000 A 
HETATM   26  C8  UNL     1       2.955   1.695   0.252  1.00  0.00     0.008 A 
ENDBRANCH  20  21
ENDBRANCH   4  20
TORSDOF 2
