REMARK  6 active torsions:
REMARK  status: ('A' for Active; 'I' for Inactive)
REMARK    1  A    between atoms: C1_2  and  C2_3 
REMARK       I    between atoms: C1_2  and  N1_11 
REMARK    2  A    between atoms: C2_3  and  O2_4 
REMARK    3  A    between atoms: O2_4  and  C3_5 
REMARK    4  A    between atoms: N1_11  and  C9_12 
REMARK    5  A    between atoms: C13_18  and  N4_19 
REMARK    6  A    between atoms: N4_19  and  C14_20 
ROOT
HETATM    1  C9  UNL     1      -0.229  -0.339   0.431  1.00  0.00     0.033 C 
HETATM    2  C10 UNL     1      -0.021  -0.870  -0.735  1.00  0.00     0.018 C 
HETATM    3  C11 UNL     1       0.275  -0.148  -1.774  1.00  0.00     0.132 C 
HETATM    4  N2  UNL     1       1.567  -0.388  -1.300  1.00  0.00    -0.253 NA
HETATM    5  C12 UNL     1       2.431  -1.246  -1.553  1.00  0.00     0.234 C 
HETATM    6  N3  UNL     1       3.519  -0.918  -0.715  1.00  0.00    -0.225 NA
HETATM    7  C13 UNL     1       3.410  -0.427   0.474  1.00  0.00     0.126 C 
HETATM    8  C20 UNL     1       2.285  -0.028   1.371  1.00  0.00     0.035 C 
HETATM    9  C21 UNL     1       1.177  -0.264   0.717  1.00  0.00     0.076 C 
ENDROOT
BRANCH   1  10
HETATM   10  N1  UNL     1      -1.555  -0.107   0.873  1.00  0.00    -0.327 N 
HETATM   11  C1  UNL     1      -2.548  -0.496  -0.046  1.00  0.00     0.246 C 
HETATM   12  O1  UNL     1      -2.302  -1.009  -1.166  1.00  0.00    -0.271 OA
HETATM   13  H8  UNL     1      -1.686   0.322   1.816  1.00  0.00     0.168 HD
BRANCH  11  14
HETATM   14  C2  UNL     1      -3.923  -0.211   0.505  1.00  0.00     0.278 C 
BRANCH  14  15
HETATM   15  O2  UNL     1      -4.885  -0.612  -0.440  1.00  0.00    -0.342 OA
BRANCH  15  16
HETATM   16  C3  UNL     1      -6.221  -0.433  -0.131  1.00  0.00     0.069 A 
HETATM   17  C4  UNL     1      -7.188  -0.811  -1.025  1.00  0.00     0.037 A 
HETATM   18  C5  UNL     1      -8.531  -0.636  -0.725  1.00  0.00     0.003 A 
HETATM   19  C6  UNL     1      -8.937  -0.077   0.482  1.00  0.00     0.000 A 
HETATM   20  C7  UNL     1      -7.965   0.316   1.409  1.00  0.00     0.003 A 
HETATM   21  C8  UNL     1      -6.646   0.121   1.064  1.00  0.00     0.037 A 
ENDBRANCH  15  16
ENDBRANCH  14  15
ENDBRANCH  11  14
ENDBRANCH   1  10
BRANCH   7  22
HETATM   22  N4  UNL     1       4.740  -0.248   0.965  1.00  0.00    -0.341 N 
HETATM   23  H11 UNL     1       4.811  -0.440   2.016  1.00  0.00     0.167 HD
BRANCH  22  24
HETATM   24  C14 UNL     1       5.963   0.144   0.302  1.00  0.00     0.034 A 
HETATM   25  C15 UNL     1       7.148   0.190   1.039  1.00  0.00     0.029 A 
HETATM   26  C16 UNL     1       8.287   0.575   0.379  1.00  0.00     0.004 A 
HETATM   27  C17 UNL     1       8.355   0.920  -0.954  1.00  0.00     0.019 A 
HETATM   28  C18 UNL     1       7.175   0.868  -1.666  1.00  0.00     0.013 A 
HETATM   29 BR1  UNL     1       7.169   1.328  -3.516  1.00  0.00    -0.051 Br
HETATM   30  C19 UNL     1       6.020   0.485  -1.025  1.00  0.00     0.048 A 
ENDBRANCH  22  24
ENDBRANCH   7  22
TORSDOF 6
