REMARK  0 active torsions:
REMARK  status: ('A' for Active; 'I' for Inactive)
ROOT
HETATM    1  C1  UNL     1       1.197   0.023  -0.623  1.00  0.00     0.028 C 
HETATM    2  C2  UNL     1       1.485   0.593   0.523  1.00  0.00     0.013 A 
HETATM    3  C3  UNL     1       0.893   1.614   1.116  1.00  0.00     0.080 A 
HETATM    4  N1  UNL     1       1.494   2.210   2.150  1.00  0.00    -0.240 NA
HETATM    5  C4  UNL     1       2.744   1.634   2.475  1.00  0.00     0.234 A 
HETATM    6  N2  UNL     1       3.409   0.542   1.872  1.00  0.00    -0.241 NA
HETATM    7  C5  UNL     1       2.666   0.027   0.833  1.00  0.00     0.070 A 
HETATM    8  C6  UNL     1       3.057  -1.290   0.724  1.00  0.00     0.034 C 
HETATM    9  C7  UNL     1       2.101  -2.301   0.244  1.00  0.00     0.019 C 
HETATM   10  C8  UNL     1       1.067  -3.052  -0.220  1.00  0.00     0.091 C 
HETATM   11  N3  UNL     1      -0.185  -2.544  -0.560  1.00  0.00    -0.335 N 
HETATM   12  C9  UNL     1      -1.447  -2.080  -0.973  1.00  0.00     0.245 C 
HETATM   13  O1  UNL     1      -1.278  -2.939  -1.863  1.00  0.00    -0.271 OA
HETATM   14  C10 UNL     1      -2.742  -1.481  -1.249  1.00  0.00     0.278 C 
HETATM   15  O2  UNL     1      -3.124  -0.450  -0.375  1.00  0.00    -0.342 OA
HETATM   16  C11 UNL     1      -2.509   0.750  -0.239  1.00  0.00     0.070 A 
HETATM   17  C12 UNL     1      -2.846   2.094  -0.527  1.00  0.00     0.037 A 
HETATM   18  C13 UNL     1      -1.986   3.141  -0.262  1.00  0.00     0.004 A 
HETATM   19  C14 UNL     1      -0.730   3.122   0.287  1.00  0.00     0.014 A 
HETATM   20  C15 UNL     1      -0.399   1.834   0.566  1.00  0.00    -0.004 A 
HETATM   21  C16 UNL     1      -1.257   0.806   0.303  1.00  0.00     0.050 A 
HETATM   22  H7  UNL     1      -0.332  -2.083   0.360  1.00  0.00     0.168 HD
ENDROOT
TORSDOF 0
