REMARK  0 active torsions:
REMARK  status: ('A' for Active; 'I' for Inactive)
ROOT
HETATM    1  O1  UNL     1      -1.692   2.911  -1.502  1.00  0.00    -0.271 OA
HETATM    2  C1  UNL     1      -1.719   1.886  -0.793  1.00  0.00     0.242 C 
HETATM    3  C2  UNL     1      -0.568   1.528  -0.024  1.00  0.00     0.163 C 
HETATM    4  C3  UNL     1      -1.014   0.126   0.456  1.00  0.00     0.050 C 
HETATM    5  C4  UNL     1      -2.264  -0.234   0.255  1.00  0.00     0.065 A 
HETATM    6  C5  UNL     1      -3.222  -1.305   0.459  1.00  0.00     0.032 A 
HETATM    7  C6  UNL     1      -4.424  -1.213  -0.060  1.00  0.00     0.004 A 
HETATM    8  C7  UNL     1      -4.938  -0.111  -0.858  1.00  0.00     0.018 A 
HETATM    9  C8  UNL     1      -4.071   0.870  -1.052  1.00  0.00     0.100 A 
HETATM   10  N1  UNL     1      -2.728   0.878  -0.535  1.00  0.00    -0.290 N 
HETATM   11  N2  UNL     1       0.010  -0.701   1.042  1.00  0.00    -0.387 N 
HETATM   12  C9  UNL     1       0.813  -1.518   1.861  1.00  0.00     0.146 C 
HETATM   13  C10 UNL     1       2.266  -1.660   1.489  1.00  0.00    -0.010 C 
HETATM   14  C11 UNL     1       3.256  -1.266   0.652  1.00  0.00    -0.009 C 
HETATM   15  C12 UNL     1       3.742  -0.431  -0.520  1.00  0.00     0.113 C 
HETATM   16 BR1  UNL     1       5.365   0.496  -0.098  1.00  0.00    -0.082 Br
HETATM   17  C13 UNL     1       2.633   0.606  -0.735  1.00  0.00    -0.040 A 
HETATM   18  C14 UNL     1       1.938   0.361  -1.871  1.00  0.00     0.009 A 
HETATM   19  C15 UNL     1       0.621   0.862  -1.858  1.00  0.00     0.009 A 
HETATM   20  C16 UNL     1       0.758   1.366  -0.602  1.00  0.00    -0.039 A 
HETATM   21  C17 UNL     1       1.561   1.551   0.476  1.00  0.00     0.009 A 
HETATM   22  C18 UNL     1       2.835   1.105   0.531  1.00  0.00     0.009 A 
HETATM   23  H6  UNL     1       0.628  -0.848   0.234  1.00  0.00     0.159 HD
ENDROOT
TORSDOF 0
