REMARK  7 active torsions:
REMARK  status: ('A' for Active; 'I' for Inactive)
REMARK    1  A    between atoms: C3_4  and  N1_5 
REMARK    2  A    between atoms: N1_5  and  C4_6 
REMARK    3  A    between atoms: C11_14  and  N2_15 
REMARK    4  A    between atoms: N2_15  and  C12_16 
REMARK    5  A    between atoms: C12_16  and  C13_17 
REMARK    6  A    between atoms: C13_17  and  O2_18 
REMARK    7  A    between atoms: O2_18  and  C14_19 
ROOT
HETATM    1  O1  UNL     1      -4.402  -3.991  -1.434  1.00  0.00    -0.271 OA
HETATM    2  C1  UNL     1      -3.316  -3.314  -1.443  1.00  0.00     0.249 C 
HETATM    3  C2  UNL     1      -2.926  -1.985  -1.177  1.00  0.00     0.162 C 
HETATM    4  C3  UNL     1      -2.947  -0.851  -0.378  1.00  0.00     0.020 C 
HETATM    5  C10 UNL     1      -1.797  -0.177  -0.144  1.00  0.00     0.056 C 
HETATM    6  C11 UNL     1      -0.529  -0.607  -0.731  1.00  0.00     0.045 C 
HETATM    7  C20 UNL     1      -0.143  -1.577  -1.555  1.00  0.00     0.118 C 
HETATM    8  N3  UNL     1      -0.654  -2.662  -2.285  1.00  0.00    -0.358 N 
HETATM    9  C21 UNL     1      -1.151  -3.964  -2.224  1.00  0.00     0.210 C 
HETATM   10  N4  UNL     1      -2.361  -4.371  -1.852  1.00  0.00    -0.209 NA
HETATM   11  H20 UNL     1      -0.812  -2.663  -3.351  1.00  0.00     0.166 HD
ENDROOT
BRANCH   6  12
HETATM   12  N2  UNL     1       0.763  -0.040  -0.508  1.00  0.00    -0.387 N 
HETATM   13  H9  UNL     1       1.223   0.813  -0.900  1.00  0.00     0.159 HD
BRANCH  12  14
HETATM   14  C12 UNL     1       1.419  -0.921   0.445  1.00  0.00     0.146 C 
BRANCH  14  15
HETATM   15  C13 UNL     1       2.885  -0.629   0.439  1.00  0.00     0.195 C 
BRANCH  15  16
HETATM   16  O2  UNL     1       3.222   0.673   0.797  1.00  0.00    -0.350 OA
BRANCH  16  17
HETATM   17  C14 UNL     1       4.585   1.064   0.808  1.00  0.00     0.068 A 
HETATM   18  C15 UNL     1       4.979   2.318   1.150  1.00  0.00     0.037 A 
HETATM   19  C16 UNL     1       6.339   2.596   1.121  1.00  0.00     0.003 A 
HETATM   20  C17 UNL     1       7.214   1.602   0.754  1.00  0.00     0.000 A 
HETATM   21  C18 UNL     1       6.883   0.320   0.401  1.00  0.00     0.003 A 
HETATM   22  C19 UNL     1       5.506   0.069   0.437  1.00  0.00     0.037 A 
ENDBRANCH  16  17
ENDBRANCH  15  16
ENDBRANCH  14  15
ENDBRANCH  12  14
ENDBRANCH   6  12
BRANCH   4  23
HETATM   23  N1  UNL     1      -4.161  -0.420   0.159  1.00  0.00    -0.359 N 
HETATM   24  H3  UNL     1      -5.004  -1.014   0.208  1.00  0.00     0.166 HD
BRANCH  23  25
HETATM   25  C4  UNL     1      -4.321   0.885   0.687  1.00  0.00     0.033 A 
HETATM   26  C5  UNL     1      -4.344   1.225   2.019  1.00  0.00     0.029 A 
HETATM   27  C6  UNL     1      -4.491   2.552   2.362  1.00  0.00     0.004 A 
HETATM   28  C7  UNL     1      -4.620   3.587   1.436  1.00  0.00     0.019 A 
HETATM   29  C8  UNL     1      -4.592   3.217   0.102  1.00  0.00     0.013 A 
HETATM   30 BR1  UNL     1      -4.756   4.587  -1.209  1.00  0.00    -0.051 Br
HETATM   31  C9  UNL     1      -4.446   1.899  -0.271  1.00  0.00     0.048 A 
ENDBRANCH  23  25
ENDBRANCH   4  23
TORSDOF 7
