REMARK  5 active torsions:
REMARK  status: ('A' for Active; 'I' for Inactive)
REMARK       I    between atoms: C1_2  and  N1_3 
REMARK    1  A    between atoms: C1_2  and  C15_21 
REMARK    2  A    between atoms: N1_3  and  C2_4 
REMARK    3  A    between atoms: C7_11  and  N4_12 
REMARK    4  A    between atoms: C16_23  and  C17_24 
REMARK    5  A    between atoms: C17_24  and  N5_25 
ROOT
HETATM    1  C2  UNL     1      -1.426  -2.234  -0.181  1.00  0.00     0.035 A 
HETATM    2  C3  UNL     1      -1.744  -3.562  -0.081  1.00  0.00     0.032 A 
HETATM    3  C4  UNL     1      -2.939  -4.008   0.417  1.00  0.00     0.035 A 
HETATM    4  C5  UNL     1      -3.891  -3.107   0.849  1.00  0.00     0.072 A 
HETATM    5  N2  UNL     1      -5.085  -3.524   1.339  1.00  0.00    -0.241 NA
HETATM    6  C6  UNL     1      -5.953  -2.548   1.729  1.00  0.00     0.236 A 
HETATM    7  N3  UNL     1      -5.681  -1.216   1.650  1.00  0.00    -0.223 NA
HETATM    8  C7  UNL     1      -4.471  -0.832   1.152  1.00  0.00     0.144 A 
HETATM    9  C13 UNL     1      -3.557  -1.773   0.743  1.00  0.00     0.041 A 
HETATM   10  C14 UNL     1      -2.356  -1.316   0.241  1.00  0.00     0.047 A 
ENDROOT
BRANCH   1  11
HETATM   11  N1  UNL     1      -0.240  -1.663  -0.674  1.00  0.00    -0.325 N 
HETATM   12  C1  UNL     1       0.901  -2.281  -1.176  1.00  0.00     0.254 C 
HETATM   13  O1  UNL     1       0.968  -3.545  -1.234  1.00  0.00    -0.270 OA
HETATM   14  H1  UNL     1       0.007  -0.663  -0.755  1.00  0.00     0.169 HD
BRANCH  12  15
HETATM   15  C15 UNL     1       2.228  -2.267  -1.742  1.00  0.00     0.244 A 
HETATM   16  O2  UNL     1       2.258  -1.550  -3.067  1.00  0.00    -0.364 OA
HETATM   17  C16 UNL     1       3.096  -1.191  -1.935  1.00  0.00     0.189 A 
BRANCH  17  18
HETATM   18  C17 UNL     1       2.920   0.232  -1.548  1.00  0.00     0.307 C 
BRANCH  18  19
HETATM   19  N5  UNL     1       3.724   0.651  -0.413  1.00  0.00     0.091 N 
HETATM   20  C18 UNL     1       3.445   2.037  -0.167  1.00  0.00     0.272 C 
HETATM   21  C19 UNL     1       4.345   2.642   0.878  1.00  0.00     0.030 C 
HETATM   22  C20 UNL     1       5.807   2.386   0.574  1.00  0.00     0.003 C 
HETATM   23  C21 UNL     1       5.998   0.895   0.466  1.00  0.00     0.030 C 
HETATM   24  C22 UNL     1       5.132   0.402  -0.644  1.00  0.00     0.272 C 
ENDBRANCH  18  19
ENDBRANCH  17  18
ENDBRANCH  12  15
ENDBRANCH   1  11
BRANCH   8  25
HETATM   25  N4  UNL     1      -4.316   0.581   1.162  1.00  0.00    -0.336 N 
HETATM   26  C8  UNL     1      -5.168   1.107   0.122  1.00  0.00     0.112 A 
HETATM   27  C9  UNL     1      -5.278   2.411  -0.188  1.00  0.00     0.026 A 
HETATM   28 BR1  UNL     1      -6.383   3.158  -1.548  1.00  0.00    -0.050 Br
HETATM   29  C10 UNL     1      -4.491   3.391   0.575  1.00  0.00     0.018 A 
HETATM   30  C11 UNL     1      -3.738   2.848   1.516  1.00  0.00    -0.005 A 
HETATM   31  C12 UNL     1      -3.512   1.456   1.973  1.00  0.00     0.157 A 
ENDBRANCH   8  25
TORSDOF 5
