REMARK  4 active torsions:
REMARK  status: ('A' for Active; 'I' for Inactive)
REMARK    1  A    between atoms: C1_2  and  O2_3 
REMARK       I    between atoms: C1_2  and  N1_11 
REMARK    2  A    between atoms: O2_3  and  C2_4 
REMARK    3  A    between atoms: C10_14  and  N2_15 
REMARK    4  A    between atoms: N2_15  and  C11_16 
ROOT
HETATM    1  O1  UNL     1       2.205  -0.697   0.669  1.00  0.00    -0.236 OA
HETATM    2  C1  UNL     1       2.422  -0.168  -0.476  1.00  0.00     0.392 C 
HETATM    3  N1  UNL     1       1.269   0.291  -1.150  1.00  0.00    -0.186 N 
HETATM    4  C8  UNL     1      -0.037   0.173  -0.606  1.00  0.00     0.142 A 
HETATM    5  C9  UNL     1      -1.112   0.607  -1.240  1.00  0.00     0.059 A 
HETATM    6  C10 UNL     1      -2.405   0.523  -0.770  1.00  0.00     0.143 A 
HETATM    7  N3  UNL     1      -3.352   1.030  -1.566  1.00  0.00    -0.223 NA
HETATM    8  C17 UNL     1      -3.150   1.600  -2.758  1.00  0.00     0.236 A 
HETATM    9  N4  UNL     1      -1.891   1.682  -3.217  1.00  0.00    -0.239 NA
HETATM   10  C18 UNL     1      -0.883   1.188  -2.459  1.00  0.00     0.106 A 
HETATM   11  C19 UNL     1       0.288   1.326  -3.007  1.00  0.00     0.140 A 
HETATM   12  N5  UNL     1       1.339   0.908  -2.421  1.00  0.00    -0.159 NA
ENDROOT
BRANCH   2  13
HETATM   13  O2  UNL     1       3.659  -0.009  -1.099  1.00  0.00    -0.260 OA
BRANCH  13  14
HETATM   14  C2  UNL     1       4.856  -0.417  -0.533  1.00  0.00     0.081 A 
HETATM   15  C3  UNL     1       5.593  -1.578  -0.475  1.00  0.00     0.040 A 
HETATM   16  C4  UNL     1       6.787  -1.650   0.199  1.00  0.00     0.045 A 
HETATM   17  C5  UNL     1       7.311  -0.549   0.859  1.00  0.00     0.116 A 
HETATM   18  F1  UNL     1       8.489  -0.736   1.487  1.00  0.00    -0.206 F 
HETATM   19  C6  UNL     1       6.604   0.623   0.823  1.00  0.00     0.045 A 
HETATM   20  C7  UNL     1       5.386   0.702   0.137  1.00  0.00     0.040 A 
ENDBRANCH  13  14
ENDBRANCH   2  13
BRANCH   6  21
HETATM   21  N2  UNL     1      -2.634  -0.090   0.486  1.00  0.00    -0.340 N 
HETATM   22  H6  UNL     1      -1.884  -0.502   1.036  1.00  0.00     0.167 HD
BRANCH  21  23
HETATM   23  C11 UNL     1      -3.846  -0.262   1.209  1.00  0.00     0.035 A 
HETATM   24  C12 UNL     1      -4.002  -1.038   2.360  1.00  0.00     0.029 A 
HETATM   25  C13 UNL     1      -5.209  -1.146   3.008  1.00  0.00     0.004 A 
HETATM   26  C14 UNL     1      -6.333  -0.499   2.564  1.00  0.00     0.019 A 
HETATM   27  C15 UNL     1      -6.213   0.278   1.426  1.00  0.00     0.013 A 
HETATM   28 BR1  UNL     1      -7.810   1.146   0.868  1.00  0.00    -0.051 Br
HETATM   29  C16 UNL     1      -4.999   0.368   0.800  1.00  0.00     0.048 A 
ENDBRANCH  21  23
ENDBRANCH   6  21
TORSDOF 4
