REMARK  8 active torsions:
REMARK  status: ('A' for Active; 'I' for Inactive)
REMARK    1  A    between atoms: C2_2  and  C3_3 
REMARK    2  A    between atoms: C4_4  and  C5_5 
REMARK    3  A    between atoms: C6_6  and  N1_7 
REMARK    4  A    between atoms: N1_7  and  C7_8 
REMARK    5  A    between atoms: C12_15  and  N4_16 
REMARK       I    between atoms: N4_16  and  C13_17 
REMARK    6  A    between atoms: C13_17  and  C14_19 
REMARK    7  A    between atoms: C14_19  and  O2_20 
REMARK    8  A    between atoms: O2_20  and  C15_21 
ROOT
HETATM    1  C7  UNL     1       2.334   1.134  -1.444  1.00  0.00     0.141 A 
HETATM    2  N2  UNL     1       3.252   1.320  -2.409  1.00  0.00    -0.224 NA
HETATM    3  C8  UNL     1       2.930   1.376  -3.713  1.00  0.00     0.236 A 
HETATM    4  N3  UNL     1       1.659   1.252  -4.160  1.00  0.00    -0.241 NA
HETATM    5  C9  UNL     1       0.692   1.064  -3.244  1.00  0.00     0.072 A 
HETATM    6  C10 UNL     1      -0.606   0.935  -3.687  1.00  0.00     0.035 A 
HETATM    7  C11 UNL     1      -1.595   0.740  -2.723  1.00  0.00     0.032 A 
HETATM    8  C12 UNL     1      -1.301   0.677  -1.384  1.00  0.00     0.035 A 
HETATM    9  C21 UNL     1       0.017   0.810  -0.949  1.00  0.00     0.047 A 
HETATM   10  C22 UNL     1       1.026   1.005  -1.887  1.00  0.00     0.041 A 
ENDROOT
BRANCH   8  11
HETATM   11  N4  UNL     1      -2.427   0.472  -0.541  1.00  0.00    -0.325 N 
HETATM   12  C13 UNL     1      -3.149   1.573  -0.030  1.00  0.00     0.246 C 
HETATM   13  O1  UNL     1      -2.736   2.738  -0.361  1.00  0.00    -0.271 OA
HETATM   14  H14 UNL     1      -2.829  -0.432  -0.211  1.00  0.00     0.169 HD
BRANCH  12  15
HETATM   15  C14 UNL     1      -4.333   1.694   0.845  1.00  0.00     0.278 C 
BRANCH  15  16
HETATM   16  O2  UNL     1      -4.878   0.485   1.267  1.00  0.00    -0.342 OA
BRANCH  16  17
HETATM   17  C15 UNL     1      -5.409  -0.495   0.452  1.00  0.00     0.069 A 
HETATM   18  C16 UNL     1      -5.848  -1.557   1.245  1.00  0.00     0.040 A 
HETATM   19  C17 UNL     1      -6.433  -2.690   0.682  1.00  0.00     0.045 A 
HETATM   20  C18 UNL     1      -6.586  -2.775  -0.676  1.00  0.00     0.116 A 
HETATM   21  F1  UNL     1      -7.130  -3.806  -1.330  1.00  0.00    -0.206 F 
HETATM   22  C19 UNL     1      -6.156  -1.733  -1.467  1.00  0.00     0.045 A 
HETATM   23  C20 UNL     1      -5.581  -0.614  -0.930  1.00  0.00     0.040 A 
ENDBRANCH  16  17
ENDBRANCH  15  16
ENDBRANCH  12  15
ENDBRANCH   8  11
BRANCH   1  24
HETATM   24  N1  UNL     1       2.607   1.064  -0.049  1.00  0.00    -0.350 N 
HETATM   25  H10 UNL     1       2.537   2.064   0.252  1.00  0.00     0.166 HD
BRANCH  24  26
HETATM   26  C6  UNL     1       2.884  -0.187   0.566  1.00  0.00     0.090 C 
HETATM   27  C5  UNL     1       3.963  -0.501   1.260  1.00  0.00     0.017 C 
BRANCH  27  28
HETATM   28  C4  UNL     1       5.018   0.479   1.458  1.00  0.00    -0.003 C 
HETATM   29  C3  UNL     1       6.120   0.224   2.142  1.00  0.00    -0.027 C 
BRANCH  29  30
HETATM   30  C2  UNL     1       6.503  -1.030   2.816  1.00  0.00     0.022 C 
HETATM   31  C1  UNL     1       6.710  -0.848   4.302  1.00  0.00     0.009 C 
ENDBRANCH  29  30
ENDBRANCH  27  28
ENDBRANCH  24  26
ENDBRANCH   1  24
TORSDOF 8
