REMARK  4 active torsions:
REMARK  status: ('A' for Active; 'I' for Inactive)
REMARK    1  A    between atoms: N1_5  and  C5_6 
REMARK    2  A    between atoms: C10_13  and  N4_14 
REMARK       I    between atoms: N4_14  and  C11_15 
REMARK    3  A    between atoms: C11_15  and  O2_17 
REMARK    4  A    between atoms: O2_17  and  C12_18 
ROOT
HETATM    1  C5  UNL     1      -2.971   1.587  -0.186  1.00  0.00     0.143 A 
HETATM    2  N2  UNL     1      -3.876   2.586  -0.109  1.00  0.00    -0.223 NA
HETATM    3  C6  UNL     1      -3.501   3.866   0.099  1.00  0.00     0.236 A 
HETATM    4  N3  UNL     1      -2.191   4.200   0.240  1.00  0.00    -0.241 NA
HETATM    5  C7  UNL     1      -1.265   3.228   0.169  1.00  0.00     0.072 A 
HETATM    6  C8  UNL     1       0.082   3.469   0.307  1.00  0.00     0.035 A 
HETATM    7  C9  UNL     1       0.972   2.416   0.229  1.00  0.00     0.032 A 
HETATM    8  C10 UNL     1       0.605   1.109   0.019  1.00  0.00     0.037 A 
HETATM    9  C18 UNL     1      -0.748   0.895  -0.116  1.00  0.00     0.047 A 
HETATM   10  C19 UNL     1      -1.647   1.921  -0.043  1.00  0.00     0.041 A 
ENDROOT
BRANCH   8  11
HETATM   11  N4  UNL     1       1.479   0.012  -0.066  1.00  0.00    -0.302 N 
HETATM   12  C11 UNL     1       2.883  -0.056   0.032  1.00  0.00     0.370 C 
HETATM   13  O1  UNL     1       3.505   1.005   0.227  1.00  0.00    -0.238 OA
HETATM   14  H10 UNL     1       1.089  -0.955  -0.230  1.00  0.00     0.171 HD
BRANCH  12  15
HETATM   15  O2  UNL     1       3.654  -1.190  -0.066  1.00  0.00    -0.261 OA
BRANCH  15  16
HETATM   16  C12 UNL     1       5.041  -1.080   0.056  1.00  0.00     0.081 A 
HETATM   17  C13 UNL     1       5.904  -0.863  -0.995  1.00  0.00     0.040 A 
HETATM   18  C14 UNL     1       7.262  -0.774  -0.735  1.00  0.00     0.045 A 
HETATM   19  C15 UNL     1       7.816  -0.890   0.524  1.00  0.00     0.116 A 
HETATM   20  F1  UNL     1       9.134  -0.803   0.771  1.00  0.00    -0.206 F 
HETATM   21  C16 UNL     1       6.921  -1.109   1.570  1.00  0.00     0.045 A 
HETATM   22  C17 UNL     1       5.568  -1.200   1.329  1.00  0.00     0.040 A 
ENDBRANCH  15  16
ENDBRANCH  12  15
ENDBRANCH   8  11
BRANCH   1  23
HETATM   23  N1  UNL     1      -3.538   0.309  -0.437  1.00  0.00    -0.338 N 
HETATM   24  C4  UNL     1      -3.478  -0.513  -1.627  1.00  0.00     0.158 A 
HETATM   25  C3  UNL     1      -4.205  -1.778  -1.373  1.00  0.00    -0.000 A 
HETATM   26  C2  UNL     1      -4.866  -2.237  -0.324  1.00  0.00    -0.063 A 
HETATM   27  C1  UNL     1      -5.548  -3.551  -0.242  1.00  0.00     0.048 C 
HETATM   28  C21 UNL     1      -4.861  -1.307   0.797  1.00  0.00     0.024 A 
HETATM   29  C20 UNL     1      -4.242  -0.115   0.750  1.00  0.00     0.093 A 
ENDBRANCH   1  23
TORSDOF 4
