REMARK  4 active torsions:
REMARK  status: ('A' for Active; 'I' for Inactive)
REMARK    1  A    between atoms: C2_2  and  C3_4 
REMARK    2  A    between atoms: C3_4  and  N1_6 
REMARK    3  A    between atoms: N1_6  and  C4_7 
REMARK    4  A    between atoms: C4_7  and  C5_8 
ROOT
HETATM    1  C5  UNL     1       1.441   0.325  -1.081  1.00  0.00     0.072 C 
HETATM    2  N2  UNL     1       1.666   0.226   0.198  1.00  0.00    -0.213 NA
HETATM    3  C6  UNL     1       0.600   0.000   1.118  1.00  0.00     0.263 C 
HETATM    4  N3  UNL     1       0.991  -0.391   2.276  1.00  0.00    -0.260 NA
HETATM    5  O1  UNL     1      -0.600  -0.124   1.746  1.00  0.00    -0.293 OA
HETATM    6  C7  UNL     1      -1.310   0.935   2.342  1.00  0.00     0.355 C 
HETATM    7  O2  UNL     1      -2.288   1.441   1.441  1.00  0.00    -0.325 OA
HETATM    8  C8  UNL     1      -3.283   0.680   0.920  1.00  0.00     0.079 A 
HETATM    9  C9  UNL     1      -4.386   0.503   1.725  1.00  0.00     0.037 A 
HETATM   10  C10 UNL     1      -5.497  -0.232   1.376  1.00  0.00     0.003 A 
HETATM   11  C11 UNL     1      -5.542  -0.847   0.148  1.00  0.00     0.001 A 
HETATM   12  C12 UNL     1      -4.437  -0.671  -0.662  1.00  0.00     0.012 A 
HETATM   13  C13 UNL     1      -3.299   0.072  -0.326  1.00  0.00     0.003 A 
HETATM   14  C14 UNL     1      -2.223   0.111  -1.360  1.00  0.00     0.311 C 
HETATM   15  N4  UNL     1      -0.933   0.327  -0.770  1.00  0.00     0.093 N 
HETATM   16  C15 UNL     1       0.114   0.227  -1.773  1.00  0.00     0.326 C 
HETATM   17  H7  UNL     1       2.026  -0.505   2.436  1.00  0.00     0.190 HD
HETATM   18  H16 UNL     1      -0.939   1.370  -0.461  1.00  0.00     0.316 HD
ENDROOT
BRANCH   1  19
HETATM   19  C4  UNL     1       2.518   0.556  -2.068  1.00  0.00     0.330 C 
BRANCH  19  20
HETATM   20  N1  UNL     1       3.784   0.555  -1.372  1.00  0.00     0.127 N 
HETATM   21  H4  UNL     1       4.488   1.023  -1.946  1.00  0.00     0.320 HD
BRANCH  20  22
HETATM   22  C3  UNL     1       4.177  -0.722  -0.868  1.00  0.00     0.443 C 
HETATM   23  F1  UNL     1       4.430  -1.651  -1.891  1.00  0.00    -0.210 F 
BRANCH  22  24
HETATM   24  C2  UNL     1       5.505  -0.529  -0.178  1.00  0.00     0.053 C 
HETATM   25  C1  UNL     1       5.629  -0.794   1.125  1.00  0.00     0.057 C 
HETATM   26 CL1  UNL     1       6.961   0.037  -0.967  1.00  0.00    -0.089 Cl
ENDBRANCH  22  24
ENDBRANCH  20  22
ENDBRANCH  19  20
ENDBRANCH   1  19
TORSDOF 4
