REMARK  4 active torsions:
REMARK  status: ('A' for Active; 'I' for Inactive)
REMARK    1  A    between atoms: C1_2  and  C2_3 
REMARK       I    between atoms: C1_2  and  N1_12 
REMARK    2  A    between atoms: C2_3  and  O2_4 
REMARK    3  A    between atoms: O2_4  and  C3_5 
REMARK    4  A    between atoms: N1_12  and  C9_13 
ROOT
HETATM    1  C9  UNL     1       0.312   0.295  -0.298  1.00  0.00     0.019 C 
HETATM    2  C10 UNL     1       0.943   0.141  -1.519  1.00  0.00     0.075 C 
HETATM    3  C11 UNL     1       2.432   0.393  -1.847  1.00  0.00     0.131 C 
HETATM    4  N2  UNL     1       2.742   1.542  -2.494  1.00  0.00    -0.224 NA
HETATM    5  C12 UNL     1       3.497   2.663  -1.869  1.00  0.00     0.235 C 
HETATM    6  N3  UNL     1       3.973   2.858  -0.570  1.00  0.00    -0.241 NA
HETATM    7  C13 UNL     1       3.701   1.632   0.288  1.00  0.00     0.067 C 
HETATM    8  C14 UNL     1       2.369   1.371   0.503  1.00  0.00     0.012 C 
HETATM    9  C15 UNL     1       1.093   0.829   0.913  1.00  0.00     0.086 C 
HETATM   10  C16 UNL     1       4.694   0.633   0.715  1.00  0.00     0.019 A 
HETATM   11  C17 UNL     1       5.602   0.540   1.683  1.00  0.00     0.017 A 
HETATM   12  C18 UNL     1       6.322  -0.617   1.684  1.00  0.00     0.020 A 
HETATM   13  C19 UNL     1       6.121  -1.604   0.754  1.00  0.00     0.013 A 
HETATM   14 BR1  UNL     1       7.226  -3.140   0.924  1.00  0.00    -0.051 Br
HETATM   15  C20 UNL     1       5.188  -1.521  -0.249  1.00  0.00     0.049 A 
HETATM   16  C21 UNL     1       4.430  -0.386  -0.308  1.00  0.00     0.047 A 
HETATM   17  N4  UNL     1       3.509  -0.588  -1.479  1.00  0.00    -0.340 N 
HETATM   18  H16 UNL     1       3.791  -1.471  -1.899  1.00  0.00     0.167 HD
ENDROOT
BRANCH   1  19
HETATM   19  N1  UNL     1      -1.064   0.047  -0.031  1.00  0.00    -0.329 N 
HETATM   20  C1  UNL     1      -1.867   1.101   0.436  1.00  0.00     0.246 C 
HETATM   21  O1  UNL     1      -1.645   2.311   0.697  1.00  0.00    -0.271 OA
HETATM   22  H7  UNL     1      -1.505  -0.889  -0.168  1.00  0.00     0.168 HD
BRANCH  20  23
HETATM   23  C2  UNL     1      -3.287   0.866   0.717  1.00  0.00     0.278 C 
BRANCH  23  24
HETATM   24  O2  UNL     1      -3.708  -0.463   0.473  1.00  0.00    -0.342 OA
BRANCH  24  25
HETATM   25  C3  UNL     1      -5.039  -0.860   0.689  1.00  0.00     0.069 A 
HETATM   26  C4  UNL     1      -5.999   0.023   1.150  1.00  0.00     0.040 A 
HETATM   27  C5  UNL     1      -7.301  -0.385   1.357  1.00  0.00     0.045 A 
HETATM   28  C6  UNL     1      -7.614  -1.713   1.087  1.00  0.00     0.116 A 
HETATM   29  F1  UNL     1      -8.919  -2.018   1.322  1.00  0.00    -0.206 F 
HETATM   30  C7  UNL     1      -6.641  -2.582   0.628  1.00  0.00     0.045 A 
HETATM   31  C8  UNL     1      -5.356  -2.176   0.424  1.00  0.00     0.040 A 
ENDBRANCH  24  25
ENDBRANCH  23  24
ENDBRANCH  20  23
ENDBRANCH   1  19
TORSDOF 4
