REMARK  1 active torsions:
REMARK  status: ('A' for Active; 'I' for Inactive)
REMARK    1  A    between atoms: N1_8  and  C7_9 
ROOT
HETATM    1  C7  UNL     1      -2.118   0.522  -0.834  1.00  0.00     0.163 C 
HETATM    2  N2  UNL     1      -2.783   1.258  -1.691  1.00  0.00    -0.224 NA
HETATM    3  C8  UNL     1      -2.253   2.080  -2.707  1.00  0.00     0.235 C 
HETATM    4  N3  UNL     1      -0.922   2.236  -2.885  1.00  0.00    -0.246 NA
HETATM    5  C9  UNL     1      -0.170   1.485  -1.879  1.00  0.00     0.074 C 
HETATM    6  C10 UNL     1       0.841   2.427  -1.793  1.00  0.00     0.075 C 
HETATM    7  C11 UNL     1       2.087   2.737  -1.108  1.00  0.00     0.002 C 
HETATM    8  C12 UNL     1       3.080   2.629  -0.287  1.00  0.00     0.087 C 
HETATM    9  N4  UNL     1       3.367   1.669   0.697  1.00  0.00    -0.347 N 
HETATM   10  C13 UNL     1       2.736   0.567   1.326  1.00  0.00     0.166 A 
HETATM   11  O1  UNL     1       1.601   0.361   0.892  1.00  0.00    -0.306 OA
HETATM   12  C14 UNL     1       2.096  -0.576   1.987  1.00  0.00     0.385 A 
HETATM   13  O2  UNL     1       0.815  -0.825   1.474  1.00  0.00    -0.322 OA
HETATM   14  C15 UNL     1       0.615  -1.251   0.143  1.00  0.00     0.082 A 
HETATM   15  C16 UNL     1       1.323  -2.464   0.206  1.00  0.00     0.037 A 
HETATM   16  C17 UNL     1       1.510  -3.392  -0.830  1.00  0.00     0.003 A 
HETATM   17  C18 UNL     1       0.941  -3.092  -2.047  1.00  0.00     0.001 A 
HETATM   18  C19 UNL     1       0.249  -1.864  -2.029  1.00  0.00     0.014 A 
HETATM   19  C20 UNL     1       0.003  -0.867  -1.047  1.00  0.00     0.028 A 
HETATM   20  C21 UNL     1      -0.808   0.232  -1.526  1.00  0.00     0.234 C 
HETATM   21  F1  UNL     1      -1.362  -0.204  -2.824  1.00  0.00    -0.222 F 
HETATM   22  H10 UNL     1       4.072   1.332   1.357  1.00  0.00     0.167 HD
ENDROOT
BRANCH   1  23
HETATM   23  N1  UNL     1      -2.169  -0.352   0.259  1.00  0.00    -0.309 N 
HETATM   24  C2  UNL     1      -2.148   0.385   1.499  1.00  0.00     0.031 A 
HETATM   25  C1  UNL     1      -2.066   1.866   1.639  1.00  0.00     0.070 C 
HETATM   26  C3  UNL     1      -2.205  -0.274   2.671  1.00  0.00     0.034 A 
HETATM   27 BR1  UNL     1      -2.183   0.619   4.352  1.00  0.00    -0.049 Br
HETATM   28  C4  UNL     1      -2.286  -1.745   2.557  1.00  0.00     0.034 A 
HETATM   29  C5  UNL     1      -2.306  -2.380   1.420  1.00  0.00    -0.007 A 
HETATM   30  C6  UNL     1      -2.249  -1.767   0.279  1.00  0.00     0.111 A 
ENDBRANCH   1  23
TORSDOF 1
