REMARK  1 active torsions:
REMARK  status: ('A' for Active; 'I' for Inactive)
REMARK    1  A    between atoms: C11_16  and  N5_17 
ROOT
HETATM    1  N1  UNL     1      -0.163   3.084  -0.395  1.00  0.00    -0.282 NA
HETATM    2  C1  UNL     1       0.013   2.152   0.445  1.00  0.00     0.155 C 
HETATM    3  N2  UNL     1       1.048   2.180   1.454  1.00  0.00    -0.204 NA
HETATM    4  C2  UNL     1       2.086   2.849   1.057  1.00  0.00     0.221 C 
HETATM    5  N3  UNL     1       2.296   2.796  -0.222  1.00  0.00    -0.150 NA
HETATM    6  N4  UNL     1       2.011   1.524  -0.793  1.00  0.00    -0.275 N 
HETATM    7  C3  UNL     1       1.884   0.166  -0.381  1.00  0.00     0.062 A 
HETATM    8  C4  UNL     1       3.141  -0.457  -0.376  1.00  0.00     0.051 A 
HETATM    9  C5  UNL     1       3.411  -1.785  -0.010  1.00  0.00     0.013 A 
HETATM   10 BR1  UNL     1       5.156  -2.518  -0.041  1.00  0.00    -0.051 Br
HETATM   11  C6  UNL     1       2.294  -2.496   0.371  1.00  0.00     0.020 A 
HETATM   12  C7  UNL     1       1.051  -1.904   0.372  1.00  0.00     0.016 A 
HETATM   13  C8  UNL     1       0.816  -0.601   0.008  1.00  0.00     0.003 A 
HETATM   14  C9  UNL     1      -0.579  -0.205   0.069  1.00  0.00    -0.007 A 
HETATM   15  C10 UNL     1      -1.600  -1.111  -0.080  1.00  0.00     0.042 A 
HETATM   16  C11 UNL     1      -2.935  -0.765  -0.033  1.00  0.00     0.026 A 
HETATM   17  C12 UNL     1      -3.304   0.545   0.172  1.00  0.00     0.030 A 
HETATM   18  C13 UNL     1      -2.267   1.474   0.324  1.00  0.00     0.018 A 
HETATM   19  C14 UNL     1      -0.945   1.086   0.271  1.00  0.00     0.022 A 
HETATM   20  H1  UNL     1      -0.844   3.188  -1.145  1.00  0.00     0.188 HD
HETATM   21  H2  UNL     1       1.827   1.264  -1.782  1.00  0.00     0.189 HD
ENDROOT
BRANCH  16  22
HETATM   22  N5  UNL     1      -3.997  -1.700  -0.187  1.00  0.00    -0.399 N 
HETATM   23  H7  UNL     1      -4.408  -2.303  -0.945  1.00  0.00     0.156 HD
HETATM   24  H8  UNL     1      -4.471  -1.773   0.734  1.00  0.00     0.156 HD
ENDBRANCH  16  22
TORSDOF 1
