REMARK  4 active torsions:
REMARK  status: ('A' for Active; 'I' for Inactive)
REMARK    1  A    between atoms: N1_2  and  C2_3 
REMARK    2  A    between atoms: C7_10  and  N4_11 
REMARK    3  A    between atoms: N4_11  and  C8_12 
REMARK    4  A    between atoms: C13_18  and  C14_19 
ROOT
HETATM    1  C2  UNL     1      -2.734   0.505   0.380  1.00  0.00     0.027 C 
HETATM    2  C3  UNL     1      -3.356  -0.521  -0.289  1.00  0.00     0.030 C 
HETATM    3  C4  UNL     1      -3.995  -1.567  -0.876  1.00  0.00     0.021 C 
HETATM    4  C5  UNL     1      -3.382  -2.795  -1.083  1.00  0.00     0.118 C 
HETATM    5  N2  UNL     1      -2.130  -3.104  -1.455  1.00  0.00    -0.254 NA
HETATM    6  C6  UNL     1      -1.348  -2.117  -1.937  1.00  0.00     0.234 C 
HETATM    7  N3  UNL     1      -0.569  -1.070  -2.307  1.00  0.00    -0.225 NA
HETATM    8  C7  UNL     1       0.272  -0.590  -1.382  1.00  0.00     0.129 C 
HETATM    9  C15 UNL     1      -0.461   0.111  -0.484  1.00  0.00     0.052 C 
HETATM   10  C16 UNL     1      -1.370   0.360   0.519  1.00  0.00     0.033 C 
ENDROOT
BRANCH   8  11
HETATM   11  N4  UNL     1       1.655  -0.772  -1.309  1.00  0.00    -0.340 N 
HETATM   12  H9  UNL     1       2.001  -1.411  -2.089  1.00  0.00     0.167 HD
BRANCH  11  13
HETATM   13  C8  UNL     1       2.746  -0.357  -0.504  1.00  0.00     0.048 A 
HETATM   14  C9  UNL     1       3.385  -1.386   0.155  1.00  0.00     0.049 A 
HETATM   15  C10 UNL     1       4.456  -1.057   0.957  1.00  0.00     0.013 A 
HETATM   16 BR1  UNL     1       5.369  -2.431   1.884  1.00  0.00    -0.051 Br
HETATM   17  C11 UNL     1       4.876   0.245   1.098  1.00  0.00     0.020 A 
HETATM   18  C12 UNL     1       4.266   1.301   0.457  1.00  0.00     0.018 A 
HETATM   19  C13 UNL     1       3.206   0.925  -0.330  1.00  0.00     0.028 A 
BRANCH  19  20
HETATM   20  C14 UNL     1       2.550   1.983  -1.047  1.00  0.00     0.272 C 
HETATM   21  O1  UNL     1       1.758   2.556  -1.806  1.00  0.00    -0.301 OA
ENDBRANCH  19  20
ENDBRANCH  11  13
ENDBRANCH   8  11
BRANCH   1  22
HETATM   22  N1  UNL     1      -3.450   1.625   0.880  1.00  0.00    -0.394 N 
HETATM   23  C1  UNL     1      -2.695   2.623   1.558  1.00  0.00     0.146 C 
HETATM   24  H4  UNL     1      -4.479   1.683   0.741  1.00  0.00     0.159 HD
ENDBRANCH   1  22
TORSDOF 4
