REMARK  4 active torsions:
REMARK  status: ('A' for Active; 'I' for Inactive)
REMARK    1  A    between atoms: C5_6  and  N1_7 
REMARK    2  A    between atoms: N1_7  and  C6_8 
REMARK    3  A    between atoms: C9_11  and  N2_12 
REMARK    4  A    between atoms: N2_12  and  C10_13 
ROOT
HETATM    1  C6  UNL     1      -0.986  -1.034  -0.152  1.00  0.00     0.129 C 
HETATM    2  C7  UNL     1      -0.051  -0.260  -0.780  1.00  0.00     0.052 C 
HETATM    3  C8  UNL     1       1.242  -0.275  -1.250  1.00  0.00     0.033 C 
HETATM    4  C9  UNL     1       2.400  -0.027  -0.548  1.00  0.00     0.030 C 
HETATM    5  C12 UNL     1       3.315  -0.934  -0.075  1.00  0.00     0.030 C 
HETATM    6  C13 UNL     1       3.033  -2.214   0.319  1.00  0.00     0.021 C 
HETATM    7  C14 UNL     1       1.904  -2.823   0.824  1.00  0.00     0.118 C 
HETATM    8  N3  UNL     1       0.886  -3.574   0.392  1.00  0.00    -0.254 NA
HETATM    9  C15 UNL     1      -0.404  -3.188   0.506  1.00  0.00     0.234 C 
HETATM   10  N4  UNL     1      -0.717  -1.903   0.851  1.00  0.00    -0.225 NA
ENDROOT
BRANCH   1  11
HETATM   11  N1  UNL     1      -2.274  -0.802  -0.703  1.00  0.00    -0.341 N 
HETATM   12  H4  UNL     1      -2.315  -1.616  -1.338  1.00  0.00     0.167 HD
BRANCH  11  13
HETATM   13  C5  UNL     1      -3.267   0.195  -0.513  1.00  0.00     0.034 A 
HETATM   14  C4  UNL     1      -2.992   1.281   0.279  1.00  0.00     0.029 A 
HETATM   15  C3  UNL     1      -4.021   2.197   0.396  1.00  0.00     0.004 A 
HETATM   16  C2  UNL     1      -5.222   2.019  -0.238  1.00  0.00     0.019 A 
HETATM   17  C1  UNL     1      -5.449   0.902  -1.028  1.00  0.00     0.013 A 
HETATM   18 BR1  UNL     1      -7.123   0.624  -1.931  1.00  0.00    -0.051 Br
HETATM   19  C16 UNL     1      -4.446  -0.053  -1.181  1.00  0.00     0.048 A 
ENDBRANCH  11  13
ENDBRANCH   1  11
BRANCH   4  20
HETATM   20  N2  UNL     1       2.637   1.339  -0.309  1.00  0.00    -0.362 N 
HETATM   21  H7  UNL     1       2.037   2.155  -0.616  1.00  0.00     0.162 HD
BRANCH  20  22
HETATM   22  C10 UNL     1       3.728   1.948   0.398  1.00  0.00     0.245 A 
HETATM   23  C11 UNL     1       5.112   1.700  -0.156  1.00  0.00     0.224 A 
HETATM   24  O1  UNL     1       4.464   2.980  -0.179  1.00  0.00    -0.360 OA
ENDBRANCH  20  22
ENDBRANCH   4  20
TORSDOF 4
