REMARK  4 active torsions:
REMARK  status: ('A' for Active; 'I' for Inactive)
REMARK    1  A    between atoms: C2_2  and  C3_3 
REMARK       I    between atoms: C3_3  and  N1_5 
REMARK    2  A    between atoms: N1_5  and  C4_6 
REMARK    3  A    between atoms: C9_13  and  N4_14 
REMARK    4  A    between atoms: N4_14  and  C10_15 
ROOT
HETATM    1  C4  UNL     1       2.403  -0.389   0.161  1.00  0.00     0.036 A 
HETATM    2  C5  UNL     1       2.779  -1.718  -0.060  1.00  0.00     0.032 A 
HETATM    3  C6  UNL     1       1.878  -2.733  -0.286  1.00  0.00     0.035 A 
HETATM    4  C7  UNL     1       0.520  -2.420  -0.295  1.00  0.00     0.072 A 
HETATM    5  N2  UNL     1      -0.361  -3.415  -0.517  1.00  0.00    -0.241 NA
HETATM    6  C8  UNL     1      -1.680  -3.134  -0.530  1.00  0.00     0.236 A 
HETATM    7  N3  UNL     1      -2.089  -1.852  -0.320  1.00  0.00    -0.224 NA
HETATM    8  C9  UNL     1      -1.191  -0.877  -0.101  1.00  0.00     0.141 A 
HETATM    9  C15 UNL     1       0.151  -1.096  -0.075  1.00  0.00     0.041 A 
HETATM   10  C16 UNL     1       1.045  -0.097   0.148  1.00  0.00     0.047 A 
ENDROOT
BRANCH   8  11
HETATM   11  N4  UNL     1      -1.749   0.412   0.104  1.00  0.00    -0.344 N 
HETATM   12  H8  UNL     1      -1.301   1.328   0.291  1.00  0.00     0.167 HD
BRANCH  11  13
HETATM   13  C10 UNL     1      -3.155   0.612   0.072  1.00  0.00     0.014 A 
HETATM   14  C11 UNL     1      -3.856   1.352  -0.760  1.00  0.00     0.025 A 
HETATM   15  C12 UNL     1      -5.286   1.349  -0.531  1.00  0.00    -0.002 A 
HETATM   16  C13 UNL     1      -5.453   0.551   0.512  1.00  0.00    -0.021 A 
HETATM   17  C14 UNL     1      -4.167   0.010   0.999  1.00  0.00     0.084 A 
ENDBRANCH  11  13
ENDBRANCH   8  11
BRANCH   1  18
HETATM   18  N1  UNL     1       3.378   0.624   0.391  1.00  0.00    -0.324 N 
HETATM   19  C3  UNL     1       3.895   1.324  -0.758  1.00  0.00     0.244 C 
HETATM   20  O1  UNL     1       3.323   0.845  -1.796  1.00  0.00    -0.268 OA
HETATM   21  H4  UNL     1       3.699   0.841   1.375  1.00  0.00     0.169 HD
BRANCH  19  22
HETATM   22  C2  UNL     1       4.894   2.371  -0.585  1.00  0.00     0.064 C 
HETATM   23  C1  UNL     1       5.432   2.802   0.543  1.00  0.00     0.017 C 
ENDBRANCH  19  22
ENDBRANCH   1  18
TORSDOF 4
