REMARK  0 active torsions:
REMARK  status: ('A' for Active; 'I' for Inactive)
ROOT
HETATM    1  F1  UNL     1       4.412  -2.708   1.093  1.00  0.00    -0.204 F 
HETATM    2  C1  UNL     1       3.274  -1.980   1.188  1.00  0.00     0.138 A 
HETATM    3  C2  UNL     1       3.057  -0.690   0.673  1.00  0.00     0.053 A 
HETATM    4  C3  UNL     1       1.933   0.162   0.705  1.00  0.00    -0.025 A 
HETATM    5  C4  UNL     1       0.853  -0.425   1.385  1.00  0.00     0.036 A 
HETATM    6  C5  UNL     1       1.023  -1.692   1.908  1.00  0.00     0.056 A 
HETATM    7  C6  UNL     1       2.162  -2.517   1.858  1.00  0.00     0.074 A 
HETATM    8 CL1  UNL     1       2.371  -4.121   2.525  1.00  0.00    -0.081 Cl
HETATM    9  N1  UNL     1      -0.539  -0.194   1.791  1.00  0.00    -0.382 N 
HETATM   10  C7  UNL     1      -1.298  -0.196   0.675  1.00  0.00     0.117 C 
HETATM   11  C8  UNL     1      -2.858  -0.358   0.678  1.00  0.00     0.086 C 
HETATM   12  C9  UNL     1      -2.948  -0.274  -0.914  1.00  0.00     0.033 C 
HETATM   13  C10 UNL     1      -3.144  -1.445  -1.520  1.00  0.00     0.160 C 
HETATM   14  O1  UNL     1      -1.877  -1.806  -1.078  1.00  0.00    -0.353 OA
HETATM   15  C11 UNL     1      -0.841  -0.981  -0.561  1.00  0.00     0.156 C 
HETATM   16  C12 UNL     1      -0.355  -0.070  -1.651  1.00  0.00     0.091 C 
HETATM   17  C13 UNL     1      -1.145   1.231  -1.581  1.00  0.00     0.011 C 
HETATM   18  C14 UNL     1      -0.922   2.525  -1.176  1.00  0.00     0.025 C 
HETATM   19  C15 UNL     1       0.301   3.042  -0.584  1.00  0.00    -0.002 C 
HETATM   20  C16 UNL     1       1.352   2.304  -0.288  1.00  0.00    -0.022 C 
HETATM   21  C17 UNL     1       2.420   1.368  -0.019  1.00  0.00     0.068 C 
HETATM   22  N2  UNL     1      -2.646   1.013  -1.694  1.00  0.00    -0.361 N 
HETATM   23  H3  UNL     1      -0.772  -0.066   2.789  1.00  0.00     0.160 HD
HETATM   24  H16 UNL     1      -3.293   1.696  -2.221  1.00  0.00     0.165 HD
ENDROOT
TORSDOF 0
