REMARK  6 active torsions:
REMARK  status: ('A' for Active; 'I' for Inactive)
REMARK    1  A    between atoms: C2_2  and  C3_3 
REMARK       I    between atoms: C3_3  and  N1_5 
REMARK    2  A    between atoms: N1_5  and  C4_6 
REMARK    3  A    between atoms: C9_13  and  N4_14 
REMARK    4  A    between atoms: N4_14  and  C10_15 
REMARK    5  A    between atoms: C11_16  and  C12_17 
REMARK    6  A    between atoms: C13_18  and  C14_19 
ROOT
HETATM    1  C4  UNL     1      -2.908  -0.042   0.006  1.00  0.00     0.036 A 
HETATM    2  C5  UNL     1      -3.454   1.004  -0.671  1.00  0.00     0.032 A 
HETATM    3  C6  UNL     1      -2.795   2.166  -1.009  1.00  0.00     0.035 A 
HETATM    4  C7  UNL     1      -1.474   2.299  -0.641  1.00  0.00     0.072 A 
HETATM    5  N2  UNL     1      -0.723   3.384  -0.912  1.00  0.00    -0.241 NA
HETATM    6  C8  UNL     1       0.572   3.460  -0.525  1.00  0.00     0.236 A 
HETATM    7  N3  UNL     1       1.155   2.430   0.156  1.00  0.00    -0.224 NA
HETATM    8  C9  UNL     1       0.426   1.348   0.433  1.00  0.00     0.141 A 
HETATM    9  C16 UNL     1      -0.893   1.258   0.045  1.00  0.00     0.041 A 
HETATM   10  C17 UNL     1      -1.589   0.116   0.361  1.00  0.00     0.047 A 
ENDROOT
BRANCH   8  11
HETATM   11  N4  UNL     1       1.108   0.324   1.144  1.00  0.00    -0.350 N 
HETATM   12  H8  UNL     1       0.863  -0.617   1.512  1.00  0.00     0.166 HD
BRANCH  11  13
HETATM   13  C10 UNL     1       2.465   0.494   1.508  1.00  0.00     0.090 C 
HETATM   14  C11 UNL     1       3.461   0.121   0.687  1.00  0.00     0.017 C 
BRANCH  14  15
HETATM   15  C12 UNL     1       4.858   0.295   1.060  1.00  0.00     0.002 C 
HETATM   16  C13 UNL     1       5.816  -0.082   0.231  1.00  0.00     0.015 C 
BRANCH  16  17
HETATM   17  C14 UNL     1       5.668  -0.680  -1.078  1.00  0.00    -0.012 A 
HETATM   18  C15 UNL     1       6.573  -1.087  -1.975  1.00  0.00     0.124 A 
HETATM   19 BR1  UNL     1       4.752  -1.366  -2.577  1.00  0.00    -0.128 Br
ENDBRANCH  16  17
ENDBRANCH  14  15
ENDBRANCH  11  13
ENDBRANCH   8  11
BRANCH   1  20
HETATM   20  N1  UNL     1      -3.535  -1.254   0.378  1.00  0.00    -0.324 N 
HETATM   21  C3  UNL     1      -4.865  -1.678   0.145  1.00  0.00     0.244 C 
HETATM   22  O1  UNL     1      -5.655  -0.925  -0.473  1.00  0.00    -0.268 OA
HETATM   23  H4  UNL     1      -3.014  -1.991   0.900  1.00  0.00     0.169 HD
BRANCH  21  24
HETATM   24  C2  UNL     1      -5.435  -2.948   0.563  1.00  0.00     0.064 C 
HETATM   25  C1  UNL     1      -6.680  -3.010   0.185  1.00  0.00     0.017 C 
ENDBRANCH  21  24
ENDBRANCH   1  20
TORSDOF 6
