REMARK  5 active torsions:
REMARK  status: ('A' for Active; 'I' for Inactive)
REMARK    1  A    between atoms: N1_6  and  C6_7 
REMARK    2  A    between atoms: C7_9  and  C8_10 
REMARK       I    between atoms: C8_10  and  N2_12 
REMARK    3  A    between atoms: N2_12  and  C9_13 
REMARK    4  A    between atoms: C14_20  and  N5_21 
REMARK    5  A    between atoms: N5_21  and  C15_22 
ROOT
HETATM    1  C9  UNL     1      -0.789  -1.584  -0.378  1.00  0.00     0.035 A 
HETATM    2  C10 UNL     1      -0.764  -2.987  -0.529  1.00  0.00     0.032 A 
HETATM    3  C11 UNL     1      -1.892  -3.754  -0.241  1.00  0.00     0.035 A 
HETATM    4  C12 UNL     1      -3.033  -3.074   0.201  1.00  0.00     0.072 A 
HETATM    5  N3  UNL     1      -4.161  -3.781   0.485  1.00  0.00    -0.241 NA
HETATM    6  C13 UNL     1      -5.273  -3.099   0.905  1.00  0.00     0.236 A 
HETATM    7  N4  UNL     1      -5.262  -1.777   1.035  1.00  0.00    -0.224 NA
HETATM    8  C14 UNL     1      -4.187  -0.989   0.777  1.00  0.00     0.142 A 
HETATM    9  C21 UNL     1      -3.062  -1.708   0.350  1.00  0.00     0.041 A 
HETATM   10  C22 UNL     1      -1.937  -0.974   0.058  1.00  0.00     0.047 A 
ENDROOT
BRANCH   1  11
HETATM   11  N2  UNL     1       0.504  -1.155  -0.759  1.00  0.00    -0.325 N 
HETATM   12  C8  UNL     1       1.518  -1.036   0.220  1.00  0.00     0.255 C 
HETATM   13  O2  UNL     1       1.651  -1.203   1.488  1.00  0.00    -0.270 OA
HETATM   14  H13 UNL     1       1.018  -0.858  -1.611  1.00  0.00     0.169 HD
BRANCH  12  15
HETATM   15  C7  UNL     1       2.963  -0.674   0.370  1.00  0.00     0.275 A 
HETATM   16  C6  UNL     1       3.787  -0.406  -0.810  1.00  0.00     0.398 A 
HETATM   17  O1  UNL     1       3.828  -1.654  -0.243  1.00  0.00    -0.335 OA
BRANCH  16  18
HETATM   18  N1  UNL     1       4.913   0.470  -0.699  1.00  0.00     0.124 N 
HETATM   19  C2  UNL     1       5.771   0.168   0.434  1.00  0.00     0.222 C 
HETATM   20  C1  UNL     1       6.786  -0.902   0.143  1.00  0.00     0.043 C 
HETATM   21  C3  UNL     1       6.510   1.500   0.625  1.00  0.00     0.037 C 
HETATM   22  C4  UNL     1       5.310   2.454   0.580  1.00  0.00     0.032 C 
HETATM   23  C5  UNL     1       4.484   1.828  -0.524  1.00  0.00     0.276 C 
ENDBRANCH  16  18
ENDBRANCH  12  15
ENDBRANCH   1  11
BRANCH   8  24
HETATM   24  N5  UNL     1      -4.128   0.438   0.877  1.00  0.00    -0.340 N 
HETATM   25  H17 UNL     1      -3.297   0.786   1.412  1.00  0.00     0.167 HD
BRANCH  24  26
HETATM   26  C15 UNL     1      -5.104   1.341   0.328  1.00  0.00     0.035 A 
HETATM   27  C16 UNL     1      -6.385   0.948   0.021  1.00  0.00     0.029 A 
HETATM   28  C17 UNL     1      -7.225   1.877  -0.546  1.00  0.00     0.004 A 
HETATM   29  C18 UNL     1      -6.903   3.177  -0.838  1.00  0.00     0.019 A 
HETATM   30  C19 UNL     1      -5.601   3.528  -0.510  1.00  0.00     0.013 A 
HETATM   31 BR1  UNL     1      -5.035   5.316  -0.891  1.00  0.00    -0.051 Br
HETATM   32  C20 UNL     1      -4.674   2.653   0.069  1.00  0.00     0.048 A 
ENDBRANCH  24  26
ENDBRANCH   8  24
TORSDOF 5
