REMARK  4 active torsions:
REMARK  status: ('A' for Active; 'I' for Inactive)
REMARK    1  A    between atoms: C2_2  and  N3_15 
REMARK    2  A    between atoms: C3_3  and  C4_4 
REMARK    3  A    between atoms: N1_7  and  C7_8 
REMARK       I    between atoms: N3_15  and  C13_16 
REMARK    4  A    between atoms: C13_16  and  C14_18 
ROOT
HETATM    1  C4  UNL     1      -0.159   0.385  -0.005  1.00  0.00     0.135 C 
HETATM    2  C5  UNL     1      -0.752  -0.997  -0.218  1.00  0.00     0.052 C 
HETATM    3  C6  UNL     1      -2.096  -0.985   0.490  1.00  0.00     0.132 C 
HETATM    4  N1  UNL     1      -2.935   0.096  -0.022  1.00  0.00    -0.342 N 
HETATM    5  C12 UNL     1      -2.280   1.213  -0.570  1.00  0.00     0.204 C 
HETATM    6  N2  UNL     1      -1.019   1.381  -0.582  1.00  0.00    -0.275 NA
ENDROOT
BRANCH   1   7
HETATM    7  C3  UNL     1       1.227   0.473  -0.494  1.00  0.00     0.025 C 
HETATM    8  C2  UNL     1       2.307   0.752   0.221  1.00  0.00     0.006 C 
HETATM    9  C1  UNL     1       2.077   1.002   1.670  1.00  0.00     0.068 C 
BRANCH   8  10
HETATM   10  N3  UNL     1       3.527   0.765  -0.544  1.00  0.00    -0.328 N 
HETATM   11  C13 UNL     1       4.499  -0.179  -0.104  1.00  0.00     0.245 C 
HETATM   12  O1  UNL     1       4.210  -0.906   0.873  1.00  0.00    -0.268 OA
HETATM   13  H14 UNL     1       3.729   1.386  -1.351  1.00  0.00     0.169 HD
BRANCH  11  14
HETATM   14  C14 UNL     1       5.796  -0.314  -0.754  1.00  0.00     0.081 C 
HETATM   15  C15 UNL     1       6.709  -1.190  -0.354  1.00  0.00     0.061 C 
HETATM   16 BR1  UNL     1       8.405  -1.370  -1.199  1.00  0.00    -0.063 Br
ENDBRANCH  11  14
ENDBRANCH   8  10
ENDBRANCH   1   7
BRANCH   4  17
HETATM   17  C7  UNL     1      -4.355   0.036   0.024  1.00  0.00     0.036 C 
HETATM   18  C8  UNL     1      -4.962   0.003  -1.170  1.00  0.00     0.030 C 
HETATM   19  C9  UNL     1      -6.408  -0.057  -0.878  1.00  0.00     0.014 C 
HETATM   20  C10 UNL     1      -6.531   0.066   0.432  1.00  0.00    -0.024 C 
HETATM   21  C11 UNL     1      -5.375   0.000   1.071  1.00  0.00     0.042 C 
ENDBRANCH   4  17
TORSDOF 4
