REMARK  6 active torsions:
REMARK  status: ('A' for Active; 'I' for Inactive)
REMARK       I    between atoms: C1_2  and  N1_3 
REMARK    1  A    between atoms: C1_2  and  C15_21 
REMARK    2  A    between atoms: N1_3  and  C2_4 
REMARK    3  A    between atoms: C4_6  and  N2_7 
REMARK    4  A    between atoms: N2_7  and  C5_8 
REMARK    5  A    between atoms: C16_23  and  C17_24 
REMARK    6  A    between atoms: C17_24  and  N5_25 
ROOT
HETATM    1  C2  UNL     1       2.662  -1.650  -0.710  1.00  0.00     0.032 A 
HETATM    2  C3  UNL     1       3.869  -1.503  -0.151  1.00  0.00     0.061 A 
HETATM    3  C4  UNL     1       4.231  -1.112   1.120  1.00  0.00     0.144 A 
HETATM    4  N3  UNL     1       5.531  -1.040   1.489  1.00  0.00    -0.223 NA
HETATM    5  C11 UNL     1       6.443  -1.364   0.568  1.00  0.00     0.236 A 
HETATM    6  N4  UNL     1       6.171  -1.761  -0.710  1.00  0.00    -0.241 NA
HETATM    7  C12 UNL     1       4.847  -1.828  -1.065  1.00  0.00     0.070 A 
HETATM    8  C13 UNL     1       4.319  -2.181  -2.225  1.00  0.00     0.012 A 
HETATM    9  C14 UNL     1       2.829  -2.099  -2.119  1.00  0.00     0.087 A 
ENDROOT
BRANCH   1  10
HETATM   10  N1  UNL     1       1.370  -1.427  -0.098  1.00  0.00    -0.327 N 
HETATM   11  C1  UNL     1       0.161  -1.632  -0.845  1.00  0.00     0.253 C 
HETATM   12  O1  UNL     1       0.277  -2.013  -2.035  1.00  0.00    -0.270 OA
HETATM   13  H1  UNL     1       1.288  -1.116   0.894  1.00  0.00     0.168 HD
BRANCH  11  14
HETATM   14  C15 UNL     1      -1.133  -1.373  -0.128  1.00  0.00     0.244 A 
HETATM   15  O2  UNL     1      -1.736  -2.749   0.072  1.00  0.00    -0.364 OA
HETATM   16  C16 UNL     1      -2.402  -1.736  -0.675  1.00  0.00     0.189 A 
BRANCH  16  17
HETATM   17  C17 UNL     1      -3.632  -1.261   0.085  1.00  0.00     0.307 C 
BRANCH  17  18
HETATM   18  N5  UNL     1      -4.306  -0.262  -0.679  1.00  0.00     0.091 N 
HETATM   19  C18 UNL     1      -5.466   0.269  -0.027  1.00  0.00     0.272 C 
HETATM   20  C19 UNL     1      -6.226   1.081  -1.066  1.00  0.00     0.030 C 
HETATM   21  C20 UNL     1      -5.357   2.235  -1.494  1.00  0.00     0.003 C 
HETATM   22  C21 UNL     1      -4.073   1.699  -2.089  1.00  0.00     0.030 C 
HETATM   23  C22 UNL     1      -3.388   0.741  -1.133  1.00  0.00     0.272 C 
ENDBRANCH  17  18
ENDBRANCH  16  17
ENDBRANCH  11  14
ENDBRANCH   1  10
BRANCH   3  24
HETATM   24  N2  UNL     1       3.299  -0.742   2.128  1.00  0.00    -0.340 N 
HETATM   25  H2  UNL     1       2.759  -1.377   2.779  1.00  0.00     0.167 HD
BRANCH  24  26
HETATM   26  C5  UNL     1       3.071   0.675   2.270  1.00  0.00     0.035 A 
HETATM   27  C6  UNL     1       3.770   1.563   1.472  1.00  0.00     0.029 A 
HETATM   28  C7  UNL     1       3.614   2.936   1.544  1.00  0.00     0.004 A 
HETATM   29  C8  UNL     1       2.699   3.417   2.476  1.00  0.00     0.019 A 
HETATM   30  C9  UNL     1       1.999   2.544   3.274  1.00  0.00     0.013 A 
HETATM   31 BR1  UNL     1       0.768   3.299   4.522  1.00  0.00    -0.051 Br
HETATM   32  C10 UNL     1       2.164   1.171   3.192  1.00  0.00     0.048 A 
ENDBRANCH  24  26
ENDBRANCH   3  24
TORSDOF 6
