REMARK  7 active torsions:
REMARK  status: ('A' for Active; 'I' for Inactive)
REMARK    1  A    between atoms: O1_2  and  C2_3 
REMARK    2  A    between atoms: C6_9  and  C7_10 
REMARK    3  A    between atoms: C15_20  and  O2_21 
REMARK    4  A    between atoms: O2_21  and  C16_22 
REMARK    5  A    between atoms: C16_22  and  C17_23 
REMARK    6  A    between atoms: C17_23  and  N3_24 
REMARK    7  A    between atoms: C21_29  and  N4_30 
ROOT
HETATM    1  C2  UNL     1       0.076  -2.434  -0.723  1.00  0.00     0.103 A 
HETATM    2  C3  UNL     1       1.189  -3.261  -0.799  1.00  0.00     0.072 A 
HETATM    3  C4  UNL     1       2.446  -2.724  -0.612  1.00  0.00     0.073 A 
HETATM    4  N1  UNL     1       3.567  -3.437  -0.656  1.00  0.00    -0.241 NA
HETATM    5  C5  UNL     1       4.774  -2.854  -0.455  1.00  0.00     0.234 A 
HETATM    6  N2  UNL     1       4.830  -1.536  -0.208  1.00  0.00    -0.240 NA
HETATM    7  C6  UNL     1       3.723  -0.745  -0.148  1.00  0.00     0.081 A 
HETATM    8  C13 UNL     1       2.518  -1.376  -0.356  1.00  0.00     0.025 A 
HETATM    9  C14 UNL     1       1.428  -0.555  -0.279  1.00  0.00     0.055 A 
HETATM   10  C15 UNL     1       0.172  -1.069  -0.462  1.00  0.00     0.103 A 
ENDROOT
BRANCH  10  11
HETATM   11  O2  UNL     1      -1.011  -0.316  -0.404  1.00  0.00    -0.347 OA
BRANCH  11  12
HETATM   12  C16 UNL     1      -0.884   1.052  -0.142  1.00  0.00     0.206 C 
BRANCH  12  13
HETATM   13  C17 UNL     1      -2.128   1.850  -0.080  1.00  0.00     0.302 C 
BRANCH  13  14
HETATM   14  N3  UNL     1      -3.108   1.558   0.893  1.00  0.00     0.128 N 
HETATM   15  C18 UNL     1      -4.241   2.508   0.798  1.00  0.00     0.301 C 
HETATM   16  C19 UNL     1      -5.164   2.134  -0.312  1.00  0.00     0.198 C 
HETATM   17  O3  UNL     1      -5.417   0.801  -0.479  1.00  0.00    -0.385 OA
HETATM   18  C20 UNL     1      -4.301  -0.034  -0.386  1.00  0.00     0.235 C 
HETATM   19  C21 UNL     1      -3.661   0.249   0.959  1.00  0.00     0.474 C 
BRANCH  19  20
HETATM   20  N4  UNL     1      -2.799  -0.799   1.332  1.00  0.00     0.114 N 
HETATM   21  H21 UNL     1      -2.927  -1.001   2.362  1.00  0.00     0.315 HD
HETATM   22  H22 UNL     1      -3.064  -1.692   0.848  1.00  0.00     0.315 HD
ENDBRANCH  19  20
ENDBRANCH  13  14
ENDBRANCH  12  13
ENDBRANCH  11  12
ENDBRANCH  10  11
BRANCH   1  23
HETATM   23  O1  UNL     1      -1.188  -2.970  -0.910  1.00  0.00    -0.353 OA
HETATM   24  C1  UNL     1      -1.373  -4.348  -1.179  1.00  0.00     0.210 C 
ENDBRANCH   1  23
BRANCH   7  25
HETATM   25  C7  UNL     1       4.023   0.647   0.135  1.00  0.00    -0.005 A 
HETATM   26  C8  UNL     1       4.865   0.860   1.234  1.00  0.00     0.017 A 
HETATM   27  C9  UNL     1       5.296   2.090   1.676  1.00  0.00     0.045 A 
HETATM   28  C10 UNL     1       4.870   3.204   0.986  1.00  0.00     0.138 A 
HETATM   29  F1  UNL     1       5.230   4.451   1.332  1.00  0.00    -0.204 F 
HETATM   30  C11 UNL     1       4.043   3.040  -0.100  1.00  0.00     0.073 A 
HETATM   31 CL1  UNL     1       3.464   4.426  -1.022  1.00  0.00    -0.081 Cl
HETATM   32  C12 UNL     1       3.635   1.797  -0.509  1.00  0.00     0.041 A 
ENDBRANCH   7  25
TORSDOF 7
