REMARK  5 active torsions:
REMARK  status: ('A' for Active; 'I' for Inactive)
REMARK    1  A    between atoms: C1_2  and  P1_3 
REMARK    2  A    between atoms: P1_3  and  C2_4 
REMARK    3  A    between atoms: C2_4  and  C3_5 
REMARK    4  A    between atoms: C3_5  and  C4_6 
REMARK    5  A    between atoms: C10_13  and  C11_14 
ROOT
HETATM    1  C4  UNL     1       2.625  -0.035   0.960  1.00  0.00    -0.052 A 
HETATM    2  C5  UNL     1       2.672   0.590   2.192  1.00  0.00     0.008 A 
HETATM    3  C6  UNL     1       1.518   1.128   2.713  1.00  0.00     0.019 A 
HETATM    4  C7  UNL     1       0.333   1.047   2.019  1.00  0.00     0.048 A 
HETATM    5  C8  UNL     1      -0.879   1.553   2.449  1.00  0.00     0.187 A 
HETATM    6  O2  UNL     1      -0.908   2.134   3.563  1.00  0.00    -0.287 OA
HETATM    7  C9  UNL     1      -1.979   1.404   1.662  1.00  0.00     0.093 A 
HETATM    8  C10 UNL     1      -1.976   0.771   0.437  1.00  0.00     0.090 A 
HETATM    9  O3  UNL     1      -0.813   0.301   0.053  1.00  0.00    -0.309 OA
HETATM   10  C17 UNL     1       0.291   0.421   0.786  1.00  0.00     0.090 A 
HETATM   11  C18 UNL     1       1.439  -0.125   0.248  1.00  0.00     0.045 A 
ENDROOT
BRANCH   8  12
HETATM   12  C11 UNL     1      -3.137   0.596  -0.427  1.00  0.00    -0.002 A 
HETATM   13  C12 UNL     1      -2.915  -0.068  -1.616  1.00  0.00     0.014 A 
HETATM   14  C13 UNL     1      -3.966  -0.281  -2.504  1.00  0.00     0.001 A 
HETATM   15  C14 UNL     1      -5.240   0.185  -2.177  1.00  0.00     0.000 A 
HETATM   16  C15 UNL     1      -5.437   0.848  -0.982  1.00  0.00     0.001 A 
HETATM   17  C16 UNL     1      -4.381   1.052  -0.107  1.00  0.00     0.014 A 
ENDBRANCH   8  12
BRANCH   1  18
HETATM   18  C3  UNL     1       3.870  -0.608   0.413  1.00  0.00     0.067 C 
BRANCH  18  19
HETATM   19  C2  UNL     1       4.091  -2.013   0.802  1.00  0.00     0.065 C 
BRANCH  19  20
HETATM   20  P1  UNL     1       4.829  -3.033  -0.311  1.00  0.00    -0.051 P 
BRANCH  20  21
HETATM   21  C1  UNL     1       5.317  -2.340  -1.942  1.00  0.00     0.260 C 
HETATM   22  O1  UNL     1       5.778  -3.454  -2.068  1.00  0.00    -0.302 OA
ENDBRANCH  20  21
ENDBRANCH  19  20
ENDBRANCH  18  19
ENDBRANCH   1  18
TORSDOF 5
