REMARK  2 active torsions:
REMARK  status: ('A' for Active; 'I' for Inactive)
REMARK    1  A    between atoms: N1_7  and  N2_8 
REMARK    2  A    between atoms: N2_8  and  C6_9 
ROOT
HETATM    1  C6  UNL     1      -1.017  -0.246   1.106  1.00  0.00     0.155 A 
HETATM    2  N3  UNL     1      -1.235   0.029   2.411  1.00  0.00    -0.222 NA
HETATM    3  C7  UNL     1      -2.420   0.459   2.879  1.00  0.00     0.236 A 
HETATM    4  N4  UNL     1      -3.493   0.649   2.057  1.00  0.00    -0.241 NA
HETATM    5  C8  UNL     1      -3.349   0.397   0.756  1.00  0.00     0.072 A 
HETATM    6  C9  UNL     1      -4.247   0.510  -0.268  1.00  0.00     0.034 A 
HETATM    7  C10 UNL     1      -4.213   0.286  -1.601  1.00  0.00     0.026 A 
HETATM    8  C11 UNL     1      -2.959  -0.165  -2.025  1.00  0.00     0.035 A 
HETATM    9 CL2  UNL     1      -2.717  -0.537  -3.712  1.00  0.00    -0.084 Cl
HETATM   10  C12 UNL     1      -1.912  -0.335  -1.111  1.00  0.00     0.041 A 
HETATM   11  C13 UNL     1      -2.116  -0.055   0.249  1.00  0.00     0.042 A 
ENDROOT
BRANCH   1  12
HETATM   12  N2  UNL     1       0.193  -0.677   0.524  1.00  0.00    -0.285 N 
HETATM   13  H6  UNL     1       0.120  -1.631   0.886  1.00  0.00     0.188 HD
BRANCH  12  14
HETATM   14  N1  UNL     1       1.221  -0.215  -0.237  1.00  0.00    -0.317 N 
HETATM   15  C5  UNL     1       1.424   1.169  -0.330  1.00  0.00     0.194 C 
HETATM   16  C4  UNL     1       2.620   1.545   0.500  1.00  0.00     0.031 C 
HETATM   17  C3  UNL     1       3.557   0.611   0.466  1.00  0.00     0.029 C 
HETATM   18 CL1  UNL     1       2.997   2.949   1.482  1.00  0.00    -0.087 Cl
HETATM   19  C2  UNL     1       3.638  -0.699  -0.225  1.00  0.00    -0.047 C 
HETATM   20  C1  UNL     1       4.727  -1.421  -0.541  1.00  0.00     0.020 C 
HETATM   21  C14 UNL     1       2.230  -1.125  -0.534  1.00  0.00     0.180 C 
ENDBRANCH  12  14
ENDBRANCH   1  12
TORSDOF 2
