REMARK  4 active torsions:
REMARK  status: ('A' for Active; 'I' for Inactive)
REMARK    1  A    between atoms: O1_2  and  C2_3 
REMARK    2  A    between atoms: C5_7  and  C6_8 
REMARK    3  A    between atoms: C14_18  and  O4_19 
REMARK    4  A    between atoms: C15_20  and  C16_21 
ROOT
HETATM    1  C2  UNL     1      -2.418   0.575  -0.015  1.00  0.00     0.087 C 
HETATM    2  C3  UNL     1      -1.279   1.224   0.440  1.00  0.00     0.062 C 
HETATM    3  C4  UNL     1      -0.374   0.637   1.314  1.00  0.00     0.145 C 
HETATM    4  O2  UNL     1       0.682  -0.141   1.425  1.00  0.00    -0.322 OA
HETATM    5  C5  UNL     1       1.307  -0.624   0.373  1.00  0.00     0.090 C 
HETATM    6  C12 UNL     1       0.787  -1.481  -0.590  1.00  0.00     0.114 C 
HETATM    7  C13 UNL     1      -0.253  -1.351  -1.475  1.00  0.00     0.271 C 
HETATM    8  O3  UNL     1       0.411  -0.593  -2.249  1.00  0.00    -0.266 OA
HETATM    9  N1  UNL     1      -1.364  -2.016  -1.139  1.00  0.00    -0.185 NA
HETATM   10  C14 UNL     1      -2.606  -1.596  -1.459  1.00  0.00     0.182 C 
HETATM   11  C15 UNL     1      -2.766  -0.703  -0.417  1.00  0.00     0.088 C 
ENDROOT
BRANCH   5  12
HETATM   12  C6  UNL     1       2.701  -0.217   0.195  1.00  0.00    -0.002 A 
HETATM   13  C7  UNL     1       3.288   0.640   1.122  1.00  0.00     0.014 A 
HETATM   14  C8  UNL     1       4.615   1.022   0.943  1.00  0.00     0.001 A 
HETATM   15  C9  UNL     1       5.358   0.568  -0.132  1.00  0.00     0.000 A 
HETATM   16  C10 UNL     1       4.792  -0.280  -1.057  1.00  0.00     0.001 A 
HETATM   17  C11 UNL     1       3.485  -0.636  -0.853  1.00  0.00     0.014 A 
ENDBRANCH   5  12
BRANCH   1  18
HETATM   18  O1  UNL     1      -3.643   1.209  -0.182  1.00  0.00    -0.355 OA
HETATM   19  C1  UNL     1      -3.696   2.583   0.139  1.00  0.00     0.210 C 
ENDBRANCH   1  18
BRANCH  10  20
HETATM   20  O4  UNL     1      -3.625  -1.770  -2.391  1.00  0.00    -0.344 OA
HETATM   21  H12 UNL     1      -4.109  -2.665  -2.517  1.00  0.00     0.219 HD
ENDBRANCH  10  20
BRANCH  11  22
HETATM   22  C16 UNL     1      -3.598  -1.549   0.453  1.00  0.00     0.277 C 
HETATM   23  O5  UNL     1      -3.862  -2.402   1.362  1.00  0.00    -0.301 OA
ENDBRANCH  11  22
TORSDOF 4
