REMARK  3 active torsions:
REMARK  status: ('A' for Active; 'I' for Inactive)
REMARK    1  A    between atoms: N1_1  and  C1_2 
REMARK    2  A    between atoms: N2_3  and  C2_4 
REMARK    3  A    between atoms: C3_5  and  C4_6 
ROOT
HETATM    1  C2  UNL     1      -0.095   1.055   0.228  1.00  0.00     0.179 C 
HETATM    2  C3  UNL     1      -0.655  -0.108  -0.174  1.00  0.00     0.033 C 
HETATM    3  C10 UNL     1       0.203  -1.232  -0.707  1.00  0.00     0.315 C 
HETATM    4  N3  UNL     1       1.034  -1.674   0.357  1.00  0.00     0.102 N 
HETATM    5  C11 UNL     1       2.306  -1.042   0.475  1.00  0.00     0.300 C 
HETATM    6  C12 UNL     1       3.345  -1.526  -0.465  1.00  0.00     0.011 C 
HETATM    7  C13 UNL     1       4.533  -0.955  -0.286  1.00  0.00    -0.024 C 
HETATM    8  C14 UNL     1       4.654   0.065   0.802  1.00  0.00     0.056 C 
HETATM    9  C15 UNL     1       3.489   0.993   0.588  1.00  0.00     0.012 C 
HETATM   10  C16 UNL     1       2.287   0.423   0.422  1.00  0.00     0.088 C 
HETATM   11  O1  UNL     1       1.271   1.389   0.231  1.00  0.00    -0.293 OA
HETATM   12  H9  UNL     1       1.150  -2.690   0.285  1.00  0.00     0.317 HD
ENDROOT
BRANCH   2  13
HETATM   13  C4  UNL     1      -2.081  -0.399  -0.152  1.00  0.00    -0.022 A 
HETATM   14  C5  UNL     1      -2.273  -1.646   0.465  1.00  0.00     0.015 A 
HETATM   15  C6  UNL     1      -3.541  -2.186   0.609  1.00  0.00     0.045 A 
HETATM   16  C7  UNL     1      -4.651  -1.504   0.146  1.00  0.00     0.138 A 
HETATM   17  F1  UNL     1      -5.906  -1.973   0.253  1.00  0.00    -0.204 F 
HETATM   18  C8  UNL     1      -4.464  -0.288  -0.455  1.00  0.00     0.073 A 
HETATM   19 CL1  UNL     1      -5.765   0.697  -1.094  1.00  0.00    -0.081 Cl
HETATM   20  C9  UNL     1      -3.206   0.248  -0.598  1.00  0.00     0.039 A 
ENDBRANCH   2  13
BRANCH   1  21
HETATM   21  N2  UNL     1      -0.878   2.136   0.723  1.00  0.00    -0.220 NA
HETATM   22  C1  UNL     1      -1.163   3.082  -0.106  1.00  0.00     0.203 C 
BRANCH  22  23
HETATM   23  N1  UNL     1      -1.926   4.162   0.339  1.00  0.00    -0.394 N 
HETATM   24  H1  UNL     1      -2.736   4.768   0.584  1.00  0.00     0.156 HD
HETATM   25  H2  UNL     1      -1.147   4.815   0.627  1.00  0.00     0.156 HD
ENDBRANCH  22  23
ENDBRANCH   1  21
TORSDOF 3
