REMARK  2 active torsions:
REMARK  status: ('A' for Active; 'I' for Inactive)
REMARK    1  A    between atoms: C9_10  and  O2_11 
REMARK    2  A    between atoms: C11_13  and  C12_14 
ROOT
HETATM    1  C12 UNL     1       4.472   0.960  -0.006  1.00  0.00     0.134 C 
HETATM    2  C13 UNL     1       5.504  -0.037  -0.414  1.00  0.00     0.237 C 
HETATM    3  O3  UNL     1       6.244  -0.938  -0.768  1.00  0.00    -0.306 OA
ENDROOT
BRANCH   1   4
HETATM    4  C11 UNL     1       3.105   0.378  -0.077  1.00  0.00     0.056 A 
HETATM    5  C10 UNL     1       2.937  -0.873  -0.466  1.00  0.00     0.070 A 
HETATM    6  C9  UNL     1       1.546  -1.314  -0.490  1.00  0.00     0.080 A 
HETATM    7  C8  UNL     1       0.477  -0.596  -0.169  1.00  0.00     0.054 A 
HETATM    8  C7  UNL     1      -0.706  -1.426  -0.333  1.00  0.00     0.161 C 
HETATM    9  C14 UNL     1       0.685   0.813   0.252  1.00  0.00     0.193 A 
HETATM   10  C6  UNL     1      -1.632  -2.276   0.504  1.00  0.00     0.087 C 
HETATM   11  O1  UNL     1      -0.974  -1.368  -1.565  1.00  0.00    -0.292 OA
HETATM   12  C5  UNL     1      -2.806  -1.469   0.985  1.00  0.00     0.035 C 
HETATM   13  C4  UNL     1      -3.519  -0.935  -0.179  1.00  0.00    -0.024 C 
HETATM   14  C3  UNL     1      -3.636   0.357  -0.389  1.00  0.00     0.029 C 
HETATM   15  C2  UNL     1      -3.171   1.528   0.342  1.00  0.00     0.052 C 
HETATM   16  C1  UNL     1      -3.321   2.824   0.088  1.00  0.00     0.071 C 
HETATM   17  O5  UNL     1      -2.484   2.057   1.431  1.00  0.00    -0.327 OA
HETATM   18  C16 UNL     1      -1.161   1.608   1.639  1.00  0.00     0.141 C 
HETATM   19  C15 UNL     1       0.070   1.161   1.540  1.00  0.00     0.035 C 
HETATM   20  O4  UNL     1       2.032   1.172   0.269  1.00  0.00    -0.341 OA
BRANCH   6  21
HETATM   21  O2  UNL     1       1.147  -2.596  -0.868  1.00  0.00    -0.360 OA
HETATM   22  H9  UNL     1       1.420  -3.022  -1.734  1.00  0.00     0.217 HD
ENDBRANCH   6  21
ENDBRANCH   1   4
TORSDOF 2
