REMARK  5 active torsions:
REMARK  status: ('A' for Active; 'I' for Inactive)
REMARK    1  A    between atoms: C6_7  and  C7_8 
REMARK    2  A    between atoms: C7_8  and  C8_9 
REMARK    3  A    between atoms: C8_9  and  N1_10 
REMARK    4  A    between atoms: C13_16  and  N2_17 
REMARK    5  A    between atoms: N2_17  and  C14_18 
ROOT
HETATM    1  C1  UNL     1       0.643  -0.513  -2.457  1.00  0.00     0.050 C 
HETATM    2  C2  UNL     1       0.103  -0.839  -1.072  1.00  0.00     0.095 C 
HETATM    3  C3  UNL     1      -1.392  -0.690  -1.027  1.00  0.00     0.081 C 
HETATM    4  C4  UNL     1      -1.885  -1.074   0.318  1.00  0.00    -0.012 C 
HETATM    5  C5  UNL     1      -1.108  -0.687   1.350  1.00  0.00     0.142 C 
HETATM    6  O1  UNL     1       0.254  -0.438   1.242  1.00  0.00    -0.354 OA
HETATM    7  C6  UNL     1       0.712   0.019  -0.013  1.00  0.00     0.164 C 
HETATM    8  C13 UNL     1      -3.162  -1.808   0.522  1.00  0.00     0.235 C 
HETATM    9  N3  UNL     1      -3.140  -3.193   0.517  1.00  0.00    -0.269 NA
HETATM   10  C20 UNL     1      -2.321  -4.135   0.650  1.00  0.00     0.273 C 
HETATM   11  N4  UNL     1      -1.152  -3.355   0.853  1.00  0.00    -0.247 NA
HETATM   12  C21 UNL     1      -0.605  -2.949  -0.273  1.00  0.00     0.249 C 
HETATM   13  O3  UNL     1       0.413  -2.239  -0.893  1.00  0.00    -0.331 OA
ENDROOT
BRANCH   8  14
HETATM   14  N2  UNL     1      -4.184  -1.235  -0.361  1.00  0.00    -0.364 N 
HETATM   15  H21 UNL     1      -4.557  -1.910  -1.058  1.00  0.00     0.162 HD
BRANCH  14  16
HETATM   16  C14 UNL     1      -4.682   0.090  -0.349  1.00  0.00     0.031 A 
HETATM   17  C15 UNL     1      -4.271   1.066   0.531  1.00  0.00     0.032 A 
HETATM   18  C16 UNL     1      -4.750   2.339   0.538  1.00  0.00     0.046 A 
HETATM   19  C17 UNL     1      -5.717   2.724  -0.383  1.00  0.00     0.138 A 
HETATM   20  F1  UNL     1      -6.265   3.953  -0.473  1.00  0.00    -0.204 F 
HETATM   21  C18 UNL     1      -6.135   1.753  -1.268  1.00  0.00     0.074 A 
HETATM   22 CL1  UNL     1      -7.353   2.110  -2.481  1.00  0.00    -0.081 Cl
HETATM   23  C19 UNL     1      -5.629   0.470  -1.249  1.00  0.00     0.056 A 
ENDBRANCH  14  16
ENDBRANCH   8  14
BRANCH   7  24
HETATM   24  C7  UNL     1       2.234   0.037  -0.101  1.00  0.00     0.055 C 
BRANCH  24  25
HETATM   25  C8  UNL     1       2.756   0.900   0.975  1.00  0.00     0.119 C 
BRANCH  25  26
HETATM   26  N1  UNL     1       4.126   1.068   1.093  1.00  0.00    -0.408 N 
HETATM   27  C9  UNL     1       4.985   0.034   1.479  1.00  0.00     0.143 C 
HETATM   28  C10 UNL     1       6.083  -0.101   0.432  1.00  0.00     0.187 C 
HETATM   29  O2  UNL     1       5.814   0.637  -0.714  1.00  0.00    -0.388 OA
HETATM   30  C11 UNL     1       5.658   1.990  -0.492  1.00  0.00     0.187 C 
HETATM   31  C12 UNL     1       4.754   2.259   0.685  1.00  0.00     0.143 C 
ENDBRANCH  25  26
ENDBRANCH  24  25
ENDBRANCH   7  24
TORSDOF 5
