REMARK  0 active torsions:
REMARK  status: ('A' for Active; 'I' for Inactive)
ROOT
HETATM    1  C1  UNL     1       3.095   1.490  -0.773  1.00  0.00     0.150 C 
HETATM    2  N1  UNL     1       2.343   1.059   0.388  1.00  0.00    -0.381 N 
HETATM    3  C2  UNL     1       1.706   2.071   1.189  1.00  0.00     0.149 C 
HETATM    4  C3  UNL     1       0.596   2.770   0.501  1.00  0.00     0.187 C 
HETATM    5  O1  UNL     1      -0.412   1.880   0.167  1.00  0.00    -0.389 OA
HETATM    6  C4  UNL     1      -1.463   2.549  -0.452  1.00  0.00     0.177 C 
HETATM    7  C5  UNL     1      -2.639   1.776  -0.831  1.00  0.00     0.056 C 
HETATM    8  C6  UNL     1      -3.207   0.823   0.266  1.00  0.00    -0.021 C 
HETATM    9  C7  UNL     1      -2.944   0.783   1.546  1.00  0.00     0.148 C 
HETATM   10  O2  UNL     1      -1.864  -0.051   1.152  1.00  0.00    -0.324 OA
HETATM   11  C8  UNL     1      -1.712  -0.335  -0.196  1.00  0.00     0.084 C 
HETATM   12  C9  UNL     1      -0.909  -1.352  -0.291  1.00  0.00     0.060 C 
HETATM   13  C10 UNL     1      -1.559  -2.667  -0.404  1.00  0.00     0.210 C 
HETATM   14  N2  UNL     1      -2.924  -2.781  -0.053  1.00  0.00    -0.272 NA
HETATM   15  C11 UNL     1      -4.015  -2.223  -0.496  1.00  0.00     0.246 C 
HETATM   16  O3  UNL     1      -4.382  -0.952  -0.999  1.00  0.00    -0.335 OA
HETATM   17  C12 UNL     1      -3.866   0.290  -1.021  1.00  0.00     0.172 C 
HETATM   18  C13 UNL     1      -2.361   0.382  -1.410  1.00  0.00     0.089 C 
HETATM   19  N3  UNL     1       0.473  -1.538  -0.329  1.00  0.00    -0.354 N 
HETATM   20  C14 UNL     1       1.789  -1.483   0.172  1.00  0.00     0.061 A 
HETATM   21  C15 UNL     1       2.301  -2.739   0.371  1.00  0.00     0.058 A 
HETATM   22  C16 UNL     1       3.568  -2.992   0.848  1.00  0.00     0.074 A 
HETATM   23 CL1  UNL     1       4.224  -4.572   1.104  1.00  0.00    -0.081 Cl
HETATM   24  C17 UNL     1       4.311  -1.870   1.119  1.00  0.00     0.140 A 
HETATM   25  F1  UNL     1       5.562  -2.072   1.591  1.00  0.00    -0.204 F 
HETATM   26  C18 UNL     1       3.796  -0.582   0.918  1.00  0.00     0.075 A 
HETATM   27  C19 UNL     1       2.499  -0.350   0.433  1.00  0.00     0.060 A 
HETATM   28  H17 UNL     1       0.464  -1.962  -1.304  1.00  0.00     0.166 HD
ENDROOT
TORSDOF 0
