REMARK  7 active torsions:
REMARK  status: ('A' for Active; 'I' for Inactive)
REMARK    1  A    between atoms: O1_2  and  S1_3 
REMARK    2  A    between atoms: S1_3  and  C2_4 
REMARK    3  A    between atoms: C2_4  and  C14_20 
REMARK    4  A    between atoms: C3_5  and  C4_6 
REMARK    5  A    between atoms: C4_6  and  C5_7 
REMARK    6  A    between atoms: C5_7  and  C6_8 
REMARK    7  A    between atoms: C7_9  and  C8_10 
ROOT
HETATM    1  C2  UNL     1       0.073   0.250  -0.258  1.00  0.00     0.057 C 
HETATM    2  C3  UNL     1       0.895  -0.780  -0.340  1.00  0.00    -0.003 C 
ENDROOT
BRANCH   1   3
HETATM    3  S1  UNL     1       0.855   1.805  -0.663  1.00  0.00     0.030 SA
BRANCH   3   4
HETATM    4  O1  UNL     1      -0.333   3.039  -0.532  1.00  0.00    -0.320 OA
HETATM    5  C1  UNL     1       0.227   4.306  -0.596  1.00  0.00     0.220 C 
ENDBRANCH   3   4
ENDBRANCH   1   3
BRANCH   1   6
HETATM    6  C14 UNL     1      -1.326   0.277   0.103  1.00  0.00     0.085 C 
HETATM    7  C15 UNL     1      -2.000  -0.815   0.417  1.00  0.00     0.049 C 
HETATM    8  C16 UNL     1      -3.353  -1.280   0.828  1.00  0.00     0.272 C 
HETATM    9  C17 UNL     1      -4.057  -2.027  -0.278  1.00  0.00     0.207 C 
HETATM   10  N3  UNL     1      -4.153  -0.326   1.498  1.00  0.00     0.101 N 
HETATM   11  O2  UNL     1      -5.434  -1.968   0.026  1.00  0.00    -0.387 OA
HETATM   12  C18 UNL     1      -5.590  -2.234   1.384  1.00  0.00     0.198 C 
HETATM   13  C19 UNL     1      -5.147  -1.094   2.270  1.00  0.00     0.299 C 
HETATM   14  C20 UNL     1      -4.873   0.641   0.778  1.00  0.00     0.275 C 
HETATM   15  C21 UNL     1      -4.182   1.343  -0.332  1.00  0.00     0.057 C 
HETATM   16  C22 UNL     1      -3.088   2.207   0.273  1.00  0.00     0.177 C 
HETATM   17  O3  UNL     1      -1.849   1.559   0.076  1.00  0.00    -0.350 OA
ENDBRANCH   1   6
BRANCH   2  18
HETATM   18  C4  UNL     1       2.292  -1.003  -0.677  1.00  0.00     0.033 C 
BRANCH  18  19
HETATM   19  C5  UNL     1       3.095   0.207  -1.052  1.00  0.00     0.045 C 
BRANCH  19  20
HETATM   20  C6  UNL     1       4.506  -0.248  -1.353  1.00  0.00    -0.019 A 
HETATM   21  C7  UNL     1       5.415  -0.488  -0.346  1.00  0.00     0.020 A 
HETATM   22  C10 UNL     1       6.634  -0.930  -0.756  1.00  0.00     0.019 A 
HETATM   23  C11 UNL     1       7.055  -1.159  -2.044  1.00  0.00     0.045 A 
HETATM   24  C12 UNL     1       6.110  -0.904  -3.034  1.00  0.00     0.138 A 
HETATM   25  F1  UNL     1       6.518  -1.128  -4.313  1.00  0.00    -0.204 F 
HETATM   26  C13 UNL     1       4.830  -0.448  -2.698  1.00  0.00     0.079 A 
HETATM   27 CL1  UNL     1       3.752  -0.172  -4.022  1.00  0.00    -0.080 Cl
BRANCH  21  28
HETATM   28  C8  UNL     1       5.094  -0.254   1.047  1.00  0.00     0.162 A 
HETATM   29  N1  UNL     1       4.152   0.154   1.822  1.00  0.00    -0.222 NA
HETATM   30  C9  UNL     1       4.914  -0.024   2.986  1.00  0.00     0.237 A 
HETATM   31  N2  UNL     1       5.864  -0.432   2.231  1.00  0.00    -0.222 NA
ENDBRANCH  21  28
ENDBRANCH  19  20
ENDBRANCH  18  19
ENDBRANCH   2  18
TORSDOF 7
