REMARK  8 active torsions:
REMARK  status: ('A' for Active; 'I' for Inactive)
REMARK    1  A    between atoms: C2_2  and  O1_3 
REMARK    2  A    between atoms: O1_3  and  C3_4 
REMARK    3  A    between atoms: C3_4  and  C4_5 
REMARK    4  A    between atoms: C4_5  and  C5_6 
REMARK    5  A    between atoms: C5_6  and  C6_7 
REMARK    6  A    between atoms: C6_7  and  O2_8 
REMARK    7  A    between atoms: O2_8  and  C7_9 
REMARK    8  A    between atoms: C14_18  and  O3_19 
ROOT
HETATM    1  C7  UNL     1      -1.565  -0.714  -0.131  1.00  0.00     0.103 A 
HETATM    2  C8  UNL     1      -1.570   0.640  -0.367  1.00  0.00     0.055 A 
HETATM    3  C9  UNL     1      -2.659   1.466  -0.239  1.00  0.00     0.013 A 
HETATM    4  C10 UNL     1      -2.448   2.799  -0.525  1.00  0.00     0.132 A 
HETATM    5  N1  UNL     1      -3.520   3.634  -0.403  1.00  0.00    -0.253 NA
HETATM    6  C11 UNL     1      -4.711   3.115  -0.016  1.00  0.00     0.233 A 
HETATM    7  N2  UNL     1      -4.880   1.789   0.258  1.00  0.00    -0.241 NA
HETATM    8  C12 UNL     1      -3.857   0.919   0.154  1.00  0.00     0.072 A 
HETATM    9  C13 UNL     1      -3.943  -0.430   0.411  1.00  0.00     0.072 A 
HETATM   10  C14 UNL     1      -2.804  -1.232   0.268  1.00  0.00     0.103 A 
ENDROOT
BRANCH   1  11
HETATM   11  O2  UNL     1      -0.653  -1.716  -0.180  1.00  0.00    -0.348 OA
BRANCH  11  12
HETATM   12  C6  UNL     1       0.692  -1.715  -0.490  1.00  0.00     0.176 C 
BRANCH  12  13
HETATM   13  C5  UNL     1       1.486  -0.903   0.466  1.00  0.00     0.029 C 
BRANCH  13  14
HETATM   14  C4  UNL     1       2.952  -0.956   0.058  1.00  0.00     0.028 C 
BRANCH  14  15
HETATM   15  C3  UNL     1       3.702  -0.117   1.061  1.00  0.00     0.167 C 
BRANCH  15  16
HETATM   16  O1  UNL     1       5.051  -0.079   0.823  1.00  0.00    -0.391 OA
BRANCH  16  17
HETATM   17  C2  UNL     1       5.297   0.461  -0.422  1.00  0.00     0.163 C 
HETATM   18  C1  UNL     1       4.720   1.861  -0.477  1.00  0.00     0.033 C 
ENDBRANCH  16  17
ENDBRANCH  15  16
ENDBRANCH  14  15
ENDBRANCH  13  14
ENDBRANCH  12  13
ENDBRANCH  11  12
ENDBRANCH   1  11
BRANCH  10  19
HETATM   19  O3  UNL     1      -3.061  -2.577   0.566  1.00  0.00    -0.353 OA
HETATM   20  C15 UNL     1      -4.308  -3.048   0.959  1.00  0.00     0.210 C 
ENDBRANCH  10  19
TORSDOF 8
