REMARK  12 active torsions:
REMARK  status: ('A' for Active; 'I' for Inactive)
REMARK    1  A    between atoms: C3_3  and  C4_5 
REMARK    2  A    between atoms: C5_7  and  C6_8 
REMARK    3  A    between atoms: C6_8  and  N1_9 
REMARK    4  A    between atoms: N1_9  and  C7_10 
REMARK    5  A    between atoms: C9_14  and  O1_15 
REMARK    6  A    between atoms: C10_16  and  C11_17 
REMARK    7  A    between atoms: C12_18  and  C13_19 
REMARK    8  A    between atoms: C12_18  and  C20_28 
REMARK    9  A    between atoms: C13_19  and  C14_20 
REMARK   10  A    between atoms: C14_20  and  C15_21 
REMARK   11  A    between atoms: C15_21  and  N4_22 
REMARK   12  A    between atoms: C20_28  and  O3_29 
ROOT
HETATM    1  C7  UNL     1      -2.360  -1.051   0.848  1.00  0.00     0.139 A 
HETATM    2  N2  UNL     1      -2.987  -1.944   1.631  1.00  0.00    -0.224 NA
HETATM    3  C8  UNL     1      -2.342  -2.775   2.463  1.00  0.00     0.238 A 
HETATM    4  N3  UNL     1      -0.982  -2.705   2.510  1.00  0.00    -0.217 NA
HETATM    5  C9  UNL     1      -0.312  -1.809   1.728  1.00  0.00     0.177 A 
HETATM    6  C10 UNL     1      -0.991  -0.933   0.852  1.00  0.00     0.063 A 
ENDROOT
BRANCH   6   7
HETATM    7  C11 UNL     1      -0.042  -0.143   0.117  1.00  0.00     0.025 C 
HETATM    8  C12 UNL     1       0.839   0.870   0.453  1.00  0.00    -0.055 C 
BRANCH   8   9
HETATM    9  C13 UNL     1       1.444   1.120  -0.867  1.00  0.00     0.038 C 
BRANCH   9  10
HETATM   10  C14 UNL     1       2.275   2.315  -1.061  1.00  0.00     0.034 C 
BRANCH  10  11
HETATM   11  C15 UNL     1       3.499   2.543  -0.291  1.00  0.00     0.273 C 
BRANCH  11  12
HETATM   12  N4  UNL     1       4.604   1.634  -0.402  1.00  0.00     0.092 N 
HETATM   13  C16 UNL     1       4.341   0.374   0.175  1.00  0.00     0.298 C 
HETATM   14  C17 UNL     1       5.552  -0.378   0.710  1.00  0.00     0.198 C 
HETATM   15  O2  UNL     1       6.426   0.414   1.429  1.00  0.00    -0.388 OA
HETATM   16  C18 UNL     1       6.882   1.369   0.481  1.00  0.00     0.198 C 
HETATM   17  C19 UNL     1       5.709   2.288   0.285  1.00  0.00     0.298 C 
ENDBRANCH  11  12
ENDBRANCH  10  11
ENDBRANCH   9  10
ENDBRANCH   8   9
BRANCH   8  18
HETATM   18  C20 UNL     1       0.625   1.092   1.903  1.00  0.00     0.201 C 
BRANCH  18  19
HETATM   19  O3  UNL     1       0.212   2.333   2.287  1.00  0.00    -0.392 OA
HETATM   20  C21 UNL     1       0.997   3.403   2.161  1.00  0.00     0.201 C 
ENDBRANCH  18  19
ENDBRANCH   8  18
ENDBRANCH   6   7
BRANCH   1  21
HETATM   21  N1  UNL     1      -2.970  -0.133  -0.051  1.00  0.00    -0.370 N 
HETATM   22  H8  UNL     1      -2.516   0.551  -0.653  1.00  0.00     0.161 HD
BRANCH  21  23
HETATM   23  C6  UNL     1      -4.411  -0.277  -0.025  1.00  0.00     0.150 C 
BRANCH  23  24
HETATM   24  C5  UNL     1      -4.811  -1.631  -0.459  1.00  0.00     0.019 C 
HETATM   25  C4  UNL     1      -5.497  -2.357  -1.309  1.00  0.00     0.070 C 
HETATM   26 CL1  UNL     1      -6.067  -0.920  -2.163  1.00  0.00    -0.081 Cl
BRANCH  25  27
HETATM   27  C3  UNL     1      -6.131  -3.394  -2.072  1.00  0.00     0.133 C 
HETATM   28  C2  UNL     1      -6.936  -3.461  -3.107  1.00  0.00     0.013 C 
HETATM   29  C1  UNL     1      -7.562  -2.466  -3.998  1.00  0.00     0.039 C 
HETATM   30  F1  UNL     1      -5.510  -4.225  -1.204  1.00  0.00    -0.205 F 
ENDBRANCH  25  27
ENDBRANCH  23  24
ENDBRANCH  21  23
ENDBRANCH   1  21
BRANCH   5  31
HETATM   31  O1  UNL     1       1.056  -1.996   2.013  1.00  0.00    -0.344 OA
HETATM   32  H10 UNL     1       1.651  -2.461   1.325  1.00  0.00     0.219 HD
ENDBRANCH   5  31
TORSDOF 12
