REMARK  3 active torsions:
REMARK  status: ('A' for Active; 'I' for Inactive)
REMARK    1  A    between atoms: C4_5  and  N1_6 
REMARK    2  A    between atoms: N1_6  and  C5_7 
REMARK    3  A    between atoms: C5_7  and  C6_8 
ROOT
HETATM    1  C6  UNL     1       0.325   0.101   0.378  1.00  0.00     0.045 C 
HETATM    2  C7  UNL     1       0.812  -0.465   1.470  1.00  0.00     0.168 C 
HETATM    3  O1  UNL     1       2.067  -0.918   1.791  1.00  0.00    -0.320 OA
HETATM    4  C8  UNL     1       3.263  -0.616   1.141  1.00  0.00     0.083 A 
HETATM    5  C9  UNL     1       4.340  -0.773   2.016  1.00  0.00     0.038 A 
HETATM    6  C10 UNL     1       5.615  -0.519   1.554  1.00  0.00     0.003 A 
HETATM    7  C11 UNL     1       5.766  -0.119   0.242  1.00  0.00     0.001 A 
HETATM    8  C12 UNL     1       4.678   0.024  -0.588  1.00  0.00     0.011 A 
HETATM    9  C13 UNL     1       3.374  -0.219  -0.172  1.00  0.00    -0.007 A 
HETATM   10  C14 UNL     1       2.393   0.004  -1.238  1.00  0.00     0.161 C 
HETATM   11  N2  UNL     1       1.074   0.374  -0.775  1.00  0.00    -0.386 N 
HETATM   12  H13 UNL     1       0.551   0.995  -1.462  1.00  0.00     0.159 HD
ENDROOT
BRANCH   1  13
HETATM   13  C5  UNL     1      -1.110   0.448   0.434  1.00  0.00     0.178 C 
BRANCH  13  14
HETATM   14  N1  UNL     1      -1.875  -0.233  -0.598  1.00  0.00    -0.384 N 
HETATM   15  H3  UNL     1      -1.546  -0.901  -1.333  1.00  0.00     0.160 HD
BRANCH  14  16
HETATM   16  C4  UNL     1      -3.268   0.062  -0.594  1.00  0.00     0.030 A 
HETATM   17  C3  UNL     1      -3.836   0.926   0.319  1.00  0.00     0.032 A 
HETATM   18  C2  UNL     1      -5.174   1.255   0.379  1.00  0.00     0.046 A 
HETATM   19  C1  UNL     1      -6.025   0.671  -0.556  1.00  0.00     0.138 A 
HETATM   20  F1  UNL     1      -7.353   0.960  -0.544  1.00  0.00    -0.204 F 
HETATM   21  C16 UNL     1      -5.506  -0.195  -1.486  1.00  0.00     0.074 A 
HETATM   22  C15 UNL     1      -4.160  -0.500  -1.513  1.00  0.00     0.056 A 
HETATM   23 CL1  UNL     1      -6.610  -0.901  -2.637  1.00  0.00    -0.081 Cl
ENDBRANCH  14  16
ENDBRANCH  13  14
ENDBRANCH   1  13
TORSDOF 3
