REMARK  3 active torsions:
REMARK  status: ('A' for Active; 'I' for Inactive)
REMARK    1  A    between atoms: C6_9  and  N3_10 
REMARK    2  A    between atoms: N3_10  and  C7_11 
REMARK    3  A    between atoms: C22_30  and  O3_31 
ROOT
HETATM    1  C1  UNL     1      -3.110  -2.811  -2.079  1.00  0.00     0.000 C 
HETATM    2  O1  UNL     1      -2.456  -2.098  -1.096  1.00  0.00     0.000 OA
HETATM    3  C2  UNL     1      -2.982  -1.469   0.015  1.00  0.00    -0.035 A 
HETATM    4  C3  UNL     1      -1.722  -1.738   0.100  1.00  0.00     0.084 A 
HETATM    5  C4  UNL     1      -0.366  -2.002   0.249  1.00  0.00     0.056 A 
HETATM    6  N1  UNL     1       0.026  -3.258   0.462  1.00  0.00    -0.245 NA
HETATM    7  C5  UNL     1       1.288  -3.629   0.578  1.00  0.00     0.235 A 
HETATM    8  N2  UNL     1       2.213  -2.694   0.476  1.00  0.00    -0.224 NA
HETATM    9  C6  UNL     1       1.940  -1.412   0.264  1.00  0.00     0.138 A 
HETATM   10  C13 UNL     1       0.607  -1.029   0.143  1.00  0.00     0.021 A 
HETATM   11  C14 UNL     1       0.078   0.272  -0.073  1.00  0.00     0.128 C 
HETATM   12  C15 UNL     1      -0.043   1.585  -0.207  1.00  0.00     0.042 C 
HETATM   13  C16 UNL     1       0.704   2.911  -0.168  1.00  0.00     0.193 C 
HETATM   14  O2  UNL     1      -0.052   3.759   0.635  1.00  0.00    -0.387 OA
HETATM   15  C17 UNL     1      -0.966   4.468  -0.164  1.00  0.00     0.187 C 
HETATM   16  C18 UNL     1      -1.700   3.398  -0.960  1.00  0.00     0.143 C 
HETATM   17  N4  UNL     1      -1.395   2.097  -0.513  1.00  0.00    -0.403 N 
HETATM   18  C19 UNL     1      -2.499   1.179  -0.351  1.00  0.00     0.117 C 
HETATM   19  C20 UNL     1      -3.865   1.558  -0.071  1.00  0.00     0.022 C 
HETATM   20  C21 UNL     1      -4.710   0.302  -0.162  1.00  0.00     0.038 C 
HETATM   21  C22 UNL     1      -4.204  -0.909   0.582  1.00  0.00     0.148 C 
ENDROOT
BRANCH   9  22
HETATM   22  N3  UNL     1       2.940  -0.417   0.136  1.00  0.00    -0.340 N 
HETATM   23  H6  UNL     1       2.811   0.608   0.038  1.00  0.00     0.167 HD
BRANCH  22  24
HETATM   24  C7  UNL     1       4.344  -0.588   0.107  1.00  0.00     0.035 A 
HETATM   25  C8  UNL     1       5.324   0.334   0.402  1.00  0.00     0.032 A 
HETATM   26  C9  UNL     1       6.679   0.157   0.343  1.00  0.00     0.046 A 
HETATM   27  C10 UNL     1       7.092  -1.104  -0.064  1.00  0.00     0.138 A 
HETATM   28  F1  UNL     1       8.441  -1.275  -0.126  1.00  0.00    -0.204 F 
HETATM   29  C11 UNL     1       6.172  -2.074  -0.374  1.00  0.00     0.074 A 
HETATM   30 CL1  UNL     1       6.900  -3.600  -0.867  1.00  0.00    -0.081 Cl
HETATM   31  C12 UNL     1       4.816  -1.843  -0.297  1.00  0.00     0.056 A 
ENDBRANCH  22  24
ENDBRANCH   9  22
BRANCH  21  32
HETATM   32  O3  UNL     1      -4.122  -0.724   1.938  1.00  0.00    -0.391 OA
HETATM   33  H24 UNL     1      -3.469  -1.272   2.396  1.00  0.00     0.210 HD
ENDBRANCH  21  32
TORSDOF 3
