REMARK  1 active torsions:
REMARK  status: ('A' for Active; 'I' for Inactive)
REMARK    1  A    between atoms: C12_17  and  C13_18 
ROOT
HETATM    1  O1  UNL     1       4.936  -1.935  -1.282  1.00  0.00    -0.263 OA
HETATM    2  C1  UNL     1       3.922  -1.591  -0.631  1.00  0.00     0.282 C 
HETATM    3  C2  UNL     1       2.617  -2.049  -0.138  1.00  0.00     0.278 C 
HETATM    4  O2  UNL     1       2.135  -3.301  -0.383  1.00  0.00    -0.379 OA
HETATM    5  C3  UNL     1       0.901  -3.299   0.323  1.00  0.00     0.208 C 
HETATM    6  C4  UNL     1      -0.018  -2.140  -0.070  1.00  0.00     0.222 C 
HETATM    7  O3  UNL     1       0.126  -1.080   0.762  1.00  0.00    -0.346 OA
HETATM    8  C5  UNL     1      -0.392   0.140   0.516  1.00  0.00     0.267 C 
HETATM    9  C6  UNL     1       0.159   0.879  -0.683  1.00  0.00     0.061 C 
HETATM   10  C7  UNL     1       1.558   1.350  -0.560  1.00  0.00     0.005 C 
HETATM   11  C8  UNL     1       1.958   2.513   0.249  1.00  0.00     0.000 C 
HETATM   12  C9  UNL     1       3.406   2.834   0.118  1.00  0.00     0.002 C 
HETATM   13  C10 UNL     1       4.509   1.969   0.465  1.00  0.00     0.027 C 
HETATM   14  C11 UNL     1       4.918   0.735  -0.270  1.00  0.00     0.178 C 
HETATM   15  O4  UNL     1       4.048  -0.294  -0.205  1.00  0.00    -0.320 OA
HETATM   16  O5  UNL     1      -1.783   0.278   0.503  1.00  0.00    -0.320 OA
HETATM   17  C12 UNL     1      -2.798  -0.684   0.423  1.00  0.00     0.086 C 
HETATM   18  C19 UNL     1      -2.626  -1.988   0.562  1.00  0.00     0.090 C 
HETATM   19  C20 UNL     1      -1.403  -2.705   0.223  1.00  0.00     0.182 C 
HETATM   20  O6  UNL     1      -1.572  -3.952   0.182  1.00  0.00    -0.290 OA
ENDROOT
BRANCH  17  21
HETATM   21  C13 UNL     1      -4.122  -0.139   0.163  1.00  0.00    -0.003 A 
HETATM   22  C14 UNL     1      -4.306   1.229   0.025  1.00  0.00     0.014 A 
HETATM   23  C15 UNL     1      -5.539   1.791  -0.223  1.00  0.00     0.001 A 
HETATM   24  C16 UNL     1      -6.662   1.010  -0.349  1.00  0.00     0.000 A 
HETATM   25  C17 UNL     1      -6.514  -0.347  -0.219  1.00  0.00     0.001 A 
HETATM   26  C18 UNL     1      -5.275  -0.878   0.028  1.00  0.00     0.014 A 
ENDBRANCH  17  21
TORSDOF 1
