REMARK  1 active torsions:
REMARK  status: ('A' for Active; 'I' for Inactive)
REMARK    1  A    between atoms: C3_4  and  C4_5 
ROOT
HETATM    1  B1  UNL     1       7.615   1.774   0.866  1.00  0.00     0.195 B 
HETATM    2  C1  UNL     1       5.807   0.447   0.677  1.00  0.00    -0.236 C 
HETATM    3  C2  UNL     1       4.648  -0.373   0.559  1.00  0.00     0.036 C 
HETATM    4  C3  UNL     1       3.654   0.490   0.628  1.00  0.00     0.043 C 
ENDROOT
BRANCH   4   5
HETATM    5  C4  UNL     1       2.319  -0.148   0.526  1.00  0.00     0.074 C 
HETATM    6  C5  UNL     1       2.248  -1.475   0.381  1.00  0.00     0.091 C 
HETATM    7  C6  UNL     1       0.984  -2.190   0.271  1.00  0.00     0.179 C 
HETATM    8  O1  UNL     1       0.792  -3.406   0.135  1.00  0.00    -0.288 OA
HETATM    9  C7  UNL     1      -0.124  -1.250   0.344  1.00  0.00     0.003 C 
HETATM   10  C8  UNL     1      -1.380  -1.773   0.498  1.00  0.00     0.016 C 
HETATM   11  C14 UNL     1      -0.085   0.213   0.262  1.00  0.00     0.186 C 
HETATM   12  C9  UNL     1      -2.875  -1.573   0.644  1.00  0.00     0.053 C 
HETATM   13  C10 UNL     1      -3.480  -0.335   0.665  1.00  0.00    -0.024 C 
HETATM   14  O2  UNL     1      -3.949   1.024   0.669  1.00  0.00     0.000 OA
HETATM   15  C11 UNL     1      -4.278   1.506  -0.710  1.00  0.00     0.121 C 
HETATM   16  C12 UNL     1      -2.958   1.497  -1.467  1.00  0.00     0.259 C 
HETATM   17  O3  UNL     1      -2.571   1.842  -2.620  1.00  0.00    -0.265 OA
HETATM   18  O4  UNL     1      -1.811   1.085  -1.057  1.00  0.00    -0.319 OA
HETATM   19  C13 UNL     1      -0.504   0.797  -1.084  1.00  0.00     0.215 C 
HETATM   20  O5  UNL     1       1.205   0.662   0.586  1.00  0.00    -0.339 OA
ENDBRANCH   4   5
TORSDOF 1
