REMARK  5 active torsions:
REMARK  status: ('A' for Active; 'I' for Inactive)
REMARK    1  A    between atoms: C6_8  and  O3_9 
REMARK    2  A    between atoms: O3_9  and  C7_10 
REMARK    3  A    between atoms: C7_10  and  C9_13 
REMARK    4  A    between atoms: C8_11  and  O4_12 
REMARK    5  A    between atoms: C16_20  and  O5_21 
ROOT
HETATM    1  O1  UNL     1      -1.142  -0.734   2.869  1.00  0.00    -0.290 OA
HETATM    2  C1  UNL     1      -2.111  -1.049   2.076  1.00  0.00     0.188 C 
HETATM    3  C2  UNL     1      -3.338  -1.828   1.518  1.00  0.00     0.252 C 
HETATM    4  O2  UNL     1      -3.033  -1.877   0.103  1.00  0.00    -0.371 OA
HETATM    5  C3  UNL     1      -3.303  -0.661  -0.516  1.00  0.00     0.182 C 
HETATM    6  C4  UNL     1      -2.366  -0.154  -1.568  1.00  0.00     0.069 C 
HETATM    7  C5  UNL     1      -1.267   0.768  -1.000  1.00  0.00     0.014 C 
HETATM    8  C6  UNL     1      -0.836   0.117   0.108  1.00  0.00     0.089 C 
HETATM    9  C15 UNL     1      -2.110  -0.071   0.924  1.00  0.00     0.077 C 
HETATM   10  C16 UNL     1      -3.327   0.406   0.519  1.00  0.00     0.089 C 
ENDROOT
BRANCH   8  11
HETATM   11  O3  UNL     1       0.377  -0.354   0.612  1.00  0.00    -0.307 OA
BRANCH  11  12
HETATM   12  C7  UNL     1       1.461   0.500   0.443  1.00  0.00     0.107 C 
HETATM   13  C8  UNL     1       1.262   1.693   0.970  1.00  0.00     0.169 C 
BRANCH  13  14
HETATM   14  O4  UNL     1       0.059   1.941   1.597  1.00  0.00    -0.370 OA
HETATM   15  H8  UNL     1      -0.007   2.010   2.612  1.00  0.00     0.216 HD
ENDBRANCH  13  14
BRANCH  12  16
HETATM   16  C9  UNL     1       2.679   0.108  -0.244  1.00  0.00    -0.000 A 
HETATM   17  C10 UNL     1       3.690   1.027  -0.356  1.00  0.00     0.014 A 
HETATM   18  C11 UNL     1       4.868   0.710  -0.997  1.00  0.00     0.001 A 
HETATM   19  C12 UNL     1       4.970  -0.578  -1.516  1.00  0.00     0.000 A 
HETATM   20  C13 UNL     1       3.940  -1.513  -1.401  1.00  0.00     0.001 A 
HETATM   21  C14 UNL     1       2.761  -1.165  -0.748  1.00  0.00     0.014 A 
ENDBRANCH  12  16
ENDBRANCH  11  12
ENDBRANCH   8  11
BRANCH  10  22
HETATM   22  O5  UNL     1      -4.408   1.266   0.589  1.00  0.00    -0.361 OA
HETATM   23  H14 UNL     1      -4.389   2.234   0.850  1.00  0.00     0.217 HD
ENDBRANCH  10  22
TORSDOF 5
