REMARK  8 active torsions:
REMARK  status: ('A' for Active; 'I' for Inactive)
REMARK    1  A    between atoms: B1_2  and  C2_3 
REMARK    2  A    between atoms: C2_3  and  C3_4 
REMARK    3  A    between atoms: C3_4  and  C4_5 
REMARK    4  A    between atoms: C4_5  and  C5_6 
REMARK    5  A    between atoms: C5_6  and  C6_8 
REMARK    6  A    between atoms: C6_8  and  C7_9 
REMARK    7  A    between atoms: C13_16  and  O3_17 
REMARK    8  A    between atoms: C24_28  and  O4_29 
ROOT
HETATM    1  C7  UNL     1       0.531   0.231   0.268  1.00  0.00    -0.035 C 
HETATM    2  C8  UNL     1      -0.231  -0.827   0.662  1.00  0.00     0.055 C 
HETATM    3  C9  UNL     1      -1.108  -1.575  -0.288  1.00  0.00    -0.013 C 
HETATM    4  C10 UNL     1      -1.557  -1.727  -1.552  1.00  0.00    -0.026 C 
HETATM    5  C11 UNL     1      -1.321  -1.092  -2.871  1.00  0.00     0.212 C 
HETATM    6  O2  UNL     1      -1.974   0.217  -2.720  1.00  0.00    -0.344 OA
HETATM    7  C12 UNL     1      -2.435   0.609  -1.434  1.00  0.00     0.109 C 
HETATM    8  C13 UNL     1      -1.971   1.657  -0.698  1.00  0.00     0.080 C 
HETATM    9  C15 UNL     1      -0.928   2.456  -1.296  1.00  0.00     0.067 C 
HETATM   10  C16 UNL     1       0.453   2.498  -0.762  1.00  0.00     0.007 C 
HETATM   11  C17 UNL     1       1.140   1.130  -0.813  1.00  0.00     0.006 C 
HETATM   12  C18 UNL     1      -3.538  -0.146  -0.745  1.00  0.00     0.009 A 
HETATM   13  C19 UNL     1      -4.334   0.895  -0.230  1.00  0.00     0.015 A 
HETATM   14  C20 UNL     1      -5.443   0.412   0.494  1.00  0.00     0.001 A 
HETATM   15  C21 UNL     1      -5.663  -0.939   0.640  1.00  0.00     0.001 A 
HETATM   16  C22 UNL     1      -4.856  -1.914   0.114  1.00  0.00     0.011 A 
HETATM   17  C23 UNL     1      -3.755  -1.533  -0.603  1.00  0.00    -0.012 A 
HETATM   18  C24 UNL     1      -2.786  -2.572  -1.233  1.00  0.00     0.183 C 
ENDROOT
BRANCH   1  19
HETATM   19  C6  UNL     1       1.204   0.637   1.568  1.00  0.00     0.084 C 
BRANCH  19  20
HETATM   20  C5  UNL     1       2.694   0.502   1.454  1.00  0.00     0.127 C 
HETATM   21  O1  UNL     1       3.169   1.269   2.322  1.00  0.00    -0.298 OA
BRANCH  20  22
HETATM   22  C4  UNL     1       3.872  -0.089   0.826  1.00  0.00     0.081 C 
BRANCH  22  23
HETATM   23  C3  UNL     1       3.655  -1.168  -0.179  1.00  0.00     0.018 C 
BRANCH  23  24
HETATM   24  C2  UNL     1       5.022  -1.619  -0.662  1.00  0.00    -0.113 C 
BRANCH  24  25
HETATM   25  B1  UNL     1       6.732  -1.500  -0.115  1.00  0.00     0.159 B 
HETATM   26  C1  UNL     1       8.180  -1.110   0.836  1.00  0.00    -0.059 C 
ENDBRANCH  24  25
ENDBRANCH  23  24
ENDBRANCH  22  23
ENDBRANCH  20  22
ENDBRANCH  19  20
ENDBRANCH   1  19
BRANCH  18  27
HETATM   27  O4  UNL     1      -2.469  -3.520  -0.293  1.00  0.00    -0.386 OA
HETATM   28  H29 UNL     1      -3.014  -3.454   0.523  1.00  0.00     0.210 HD
ENDBRANCH  18  27
BRANCH   8  29
HETATM   29  O3  UNL     1      -2.551   1.855   0.540  1.00  0.00    -0.357 OA
HETATM   30  C14 UNL     1      -2.209   2.836   1.460  1.00  0.00     0.209 C 
ENDBRANCH   8  29
TORSDOF 8
