REMARK  7 active torsions:
REMARK  status: ('A' for Active; 'I' for Inactive)
REMARK    1  A    between atoms: C1_2  and  O2_3 
REMARK    2  A    between atoms: O2_3  and  C2_4 
REMARK    3  A    between atoms: C2_4  and  C3_6 
REMARK    4  A    between atoms: C3_6  and  O4_7 
REMARK    5  A    between atoms: O4_7  and  C4_8 
REMARK    6  A    between atoms: C6_10  and  O5_11 
REMARK    7  A    between atoms: C10_16  and  C11_17 
ROOT
HETATM    1  C4  UNL     1       2.251  -0.242   0.030  1.00  0.00     0.074 A 
HETATM    2  C5  UNL     1       2.240  -1.611  -0.173  1.00  0.00     0.074 A 
HETATM    3  C6  UNL     1       1.028  -2.242  -0.330  1.00  0.00     0.077 A 
HETATM    4  C7  UNL     1      -0.155  -1.554  -0.290  1.00  0.00     0.013 A 
HETATM    5  C8  UNL     1      -0.175  -0.194  -0.089  1.00  0.00     0.088 A 
HETATM    6  C9  UNL     1       1.040   0.450   0.069  1.00  0.00     0.074 A 
HETATM    7  O6  UNL     1      -1.387   0.478  -0.053  1.00  0.00    -0.310 OA
HETATM    8  C10 UNL     1      -2.588  -0.199  -0.216  1.00  0.00     0.083 A 
HETATM    9  C17 UNL     1      -2.548  -1.506  -0.407  1.00  0.00     0.016 A 
HETATM   10  C18 UNL     1      -1.360  -2.391  -0.476  1.00  0.00     0.074 A 
ENDROOT
BRANCH   1  11
HETATM   11  O4  UNL     1       3.385   0.538   0.205  1.00  0.00    -0.341 OA
BRANCH  11  12
HETATM   12  C3  UNL     1       4.650  -0.102   0.176  1.00  0.00     0.287 C 
BRANCH  12  13
HETATM   13  C2  UNL     1       5.681   0.960   0.387  1.00  0.00     0.290 C 
HETATM   14  O3  UNL     1       5.056   2.041   0.515  1.00  0.00    -0.262 OA
BRANCH  13  15
HETATM   15  O2  UNL     1       7.039   0.786   0.432  1.00  0.00    -0.251 OA
BRANCH  15  16
HETATM   16  C1  UNL     1       7.835   1.919   0.641  1.00  0.00     0.406 C 
HETATM   17  O1  UNL     1       7.243   3.041   0.777  1.00  0.00    -0.276 OA
ENDBRANCH  15  16
ENDBRANCH  13  15
ENDBRANCH  12  13
ENDBRANCH  11  12
ENDBRANCH   1  11
BRANCH   3  18
HETATM   18  O5  UNL     1       1.105  -3.631  -0.531  1.00  0.00    -0.360 OA
HETATM   19  H5  UNL     1       0.566  -4.292   0.013  1.00  0.00     0.217 HD
ENDBRANCH   3  18
BRANCH   8  20
HETATM   20  C11 UNL     1      -3.835   0.537  -0.172  1.00  0.00    -0.003 A 
HETATM   21  C12 UNL     1      -3.824   1.913   0.032  1.00  0.00     0.014 A 
HETATM   22  C13 UNL     1      -4.950   2.704   0.090  1.00  0.00     0.001 A 
HETATM   23  C14 UNL     1      -6.188   2.116  -0.061  1.00  0.00     0.000 A 
HETATM   24  C15 UNL     1      -6.227   0.753  -0.265  1.00  0.00     0.001 A 
HETATM   25  C16 UNL     1      -5.075  -0.000  -0.316  1.00  0.00     0.014 A 
ENDBRANCH   8  20
TORSDOF 7
