REMARK  10 active torsions:
REMARK  status: ('A' for Active; 'I' for Inactive)
REMARK    1  A    between atoms: C7_8  and  C8_9 
REMARK    2  A    between atoms: C8_9  and  O3_11 
REMARK    3  A    between atoms: O3_11  and  C9_12 
REMARK    4  A    between atoms: C9_12  and  C10_13 
REMARK    5  A    between atoms: C10_13  and  C11_14 
REMARK    6  A    between atoms: C11_14  and  C12_15 
REMARK    7  A    between atoms: C12_15  and  C13_16 
REMARK    8  A    between atoms: C13_16  and  C14_17 
REMARK    9  A    between atoms: C16_19  and  C17_20 
REMARK   10  A    between atoms: C22_25  and  O4_26 
ROOT
HETATM    1  C1  UNL     1      -5.893   2.622  -1.523  1.00  0.00     0.051 C 
HETATM    2  C2  UNL     1      -4.853   1.875  -1.841  1.00  0.00     0.066 A 
HETATM    3  C3  UNL     1      -4.285   2.036  -3.175  1.00  0.00     0.037 A 
HETATM    4  C4  UNL     1      -3.246   1.258  -3.428  1.00  0.00     0.019 A 
HETATM    5  C5  UNL     1      -2.708   0.323  -2.470  1.00  0.00     0.020 A 
HETATM    6  C6  UNL     1      -1.677  -0.437  -2.713  1.00  0.00     0.150 A 
HETATM    7  O1  UNL     1      -1.077  -1.358  -1.890  1.00  0.00    -0.342 OA
HETATM    8  C7  UNL     1      -1.582  -1.588  -0.600  1.00  0.00     0.264 A 
HETATM    9  C16 UNL     1      -2.719  -0.719  -0.339  1.00  0.00     0.029 A 
HETATM   10  C23 UNL     1      -3.283   0.169  -1.140  1.00  0.00     0.098 A 
HETATM   11  O5  UNL     1      -4.378   0.992  -0.880  1.00  0.00    -0.310 OA
ENDROOT
BRANCH   8  12
HETATM   12  C8  UNL     1      -0.532  -1.536   0.444  1.00  0.00     0.293 C 
HETATM   13  O2  UNL     1      -0.230  -1.616   1.664  1.00  0.00    -0.262 OA
BRANCH  12  14
HETATM   14  O3  UNL     1       0.812  -1.302   0.154  1.00  0.00    -0.319 OA
BRANCH  14  15
HETATM   15  C9  UNL     1       1.799  -1.256   1.167  1.00  0.00     0.178 C 
BRANCH  15  16
HETATM   16  C10 UNL     1       3.179  -0.994   0.550  1.00  0.00     0.027 C 
BRANCH  16  17
HETATM   17  C11 UNL     1       3.112   0.332  -0.171  1.00  0.00     0.002 C 
BRANCH  17  18
HETATM   18  C12 UNL     1       4.394   0.733  -0.833  1.00  0.00     0.000 C 
BRANCH  18  19
HETATM   19  C13 UNL     1       5.474   0.849   0.211  1.00  0.00    -0.000 C 
BRANCH  19  20
HETATM   20  C14 UNL     1       6.759   1.259  -0.479  1.00  0.00    -0.005 C 
HETATM   21  C15 UNL     1       7.867   1.384   0.561  1.00  0.00     0.005 C 
ENDBRANCH  19  20
ENDBRANCH  18  19
ENDBRANCH  17  18
ENDBRANCH  16  17
ENDBRANCH  15  16
ENDBRANCH  14  15
ENDBRANCH  12  14
ENDBRANCH   8  12
BRANCH   9  22
HETATM   22  C17 UNL     1      -3.328  -0.797   0.982  1.00  0.00     0.009 A 
HETATM   23  C18 UNL     1      -3.687   0.399   1.617  1.00  0.00     0.015 A 
HETATM   24  C19 UNL     1      -4.278   0.422   2.868  1.00  0.00     0.001 A 
HETATM   25  C20 UNL     1      -4.541  -0.738   3.545  1.00  0.00     0.003 A 
HETATM   26  C21 UNL     1      -4.204  -1.921   2.954  1.00  0.00     0.037 A 
HETATM   27  C22 UNL     1      -3.620  -1.923   1.718  1.00  0.00     0.076 A 
BRANCH  27  28
HETATM   28  O4  UNL     1      -3.303  -3.140   1.172  1.00  0.00    -0.360 OA
HETATM   29  H26 UNL     1      -2.432  -3.569   1.518  1.00  0.00     0.217 HD
ENDBRANCH  27  28
ENDBRANCH   9  22
TORSDOF 10
