REMARK  3 active torsions:
REMARK  status: ('A' for Active; 'I' for Inactive)
REMARK    1  A    between atoms: C5_6  and  O2_7 
REMARK    2  A    between atoms: C7_9  and  C8_10 
REMARK    3  A    between atoms: C22_25  and  O4_26 
ROOT
HETATM    1  O1  UNL     1       1.678  -2.022   3.308  1.00  0.00    -0.292 OA
HETATM    2  C1  UNL     1       1.257  -1.798   2.128  1.00  0.00     0.167 C 
HETATM    3  C2  UNL     1      -0.132  -1.667   1.613  1.00  0.00     0.148 C 
HETATM    4  C3  UNL     1      -0.088  -2.143   0.188  1.00  0.00     0.056 C 
HETATM    5  C4  UNL     1       0.927  -2.809  -0.337  1.00  0.00     0.070 C 
HETATM    6  C5  UNL     1       2.312  -2.521   0.008  1.00  0.00     0.080 C 
HETATM    7  C6  UNL     1       1.852  -1.577   0.814  1.00  0.00     0.055 C 
HETATM    8  C7  UNL     1       2.074  -0.307   0.088  1.00  0.00     0.200 C 
HETATM    9  O3  UNL     1       1.489   0.812   0.792  1.00  0.00    -0.348 OA
HETATM   10  C14 UNL     1       1.494   2.040   0.136  1.00  0.00     0.132 C 
HETATM   11  C15 UNL     1       0.391   2.489  -0.412  1.00  0.00    -0.003 C 
HETATM   12  C16 UNL     1      -1.026   1.993  -0.540  1.00  0.00     0.029 C 
HETATM   13  C17 UNL     1      -1.972   3.020  -0.035  1.00  0.00     0.004 C 
HETATM   14  C18 UNL     1      -3.414   2.760  -0.105  1.00  0.00     0.000 C 
HETATM   15  C19 UNL     1      -4.078   1.774   0.737  1.00  0.00     0.000 C 
HETATM   16  C20 UNL     1      -3.722   0.343   0.697  1.00  0.00     0.002 C 
HETATM   17  C21 UNL     1      -3.822  -0.215  -0.692  1.00  0.00     0.034 C 
HETATM   18  C22 UNL     1      -3.669  -1.727  -0.702  1.00  0.00     0.142 C 
HETATM   19  C23 UNL     1      -2.519  -2.194   0.108  1.00  0.00     0.207 C 
HETATM   20  O5  UNL     1      -1.303  -1.747  -0.437  1.00  0.00    -0.352 OA
ENDROOT
BRANCH   8  21
HETATM   21  C8  UNL     1       3.524   0.017  -0.036  1.00  0.00    -0.024 A 
HETATM   22  C9  UNL     1       4.226   0.511   1.044  1.00  0.00     0.010 A 
HETATM   23  C10 UNL     1       5.573   0.779   0.815  1.00  0.00     0.001 A 
HETATM   24  C11 UNL     1       6.185   0.571  -0.402  1.00  0.00     0.000 A 
HETATM   25  C12 UNL     1       5.464   0.077  -1.468  1.00  0.00     0.001 A 
HETATM   26  C13 UNL     1       4.128  -0.194  -1.258  1.00  0.00     0.010 A 
ENDBRANCH   8  21
BRANCH   6  27
HETATM   27  O2  UNL     1       3.328  -3.259  -0.579  1.00  0.00    -0.360 OA
HETATM   28  H4  UNL     1       3.513  -3.039  -1.557  1.00  0.00     0.217 HD
ENDBRANCH   6  27
BRANCH  18  29
HETATM   29  O4  UNL     1      -3.630  -2.187  -2.007  1.00  0.00    -0.393 OA
HETATM   30  H26 UNL     1      -2.654  -2.235  -2.245  1.00  0.00     0.210 HD
ENDBRANCH  18  29
TORSDOF 3
