REMARK  7 active torsions:
REMARK  status: ('A' for Active; 'I' for Inactive)
REMARK    1  A    between atoms: C2_2  and  C3_4 
REMARK    2  A    between atoms: C4_5  and  O2_6 
REMARK    3  A    between atoms: C6_8  and  O3_9 
REMARK    4  A    between atoms: O3_9  and  C7_10 
REMARK    5  A    between atoms: C7_10  and  C8_11 
REMARK    6  A    between atoms: C8_11  and  C9_12 
REMARK    7  A    between atoms: C11_15  and  C12_16 
ROOT
HETATM    1  C3  UNL     1      -1.292   2.514  -0.591  1.00  0.00     0.044 C 
HETATM    2  C4  UNL     1       0.041   2.584  -0.422  1.00  0.00     0.080 C 
HETATM    3  C5  UNL     1       1.175   1.669  -0.502  1.00  0.00     0.074 C 
HETATM    4  C6  UNL     1       1.282   0.354  -0.359  1.00  0.00     0.074 C 
HETATM    5  C10 UNL     1       0.272  -0.690  -0.059  1.00  0.00     0.074 C 
HETATM    6  C11 UNL     1      -1.035  -0.815   0.038  1.00  0.00     0.082 C 
HETATM    7  O5  UNL     1      -1.961   0.216  -0.161  1.00  0.00    -0.345 OA
HETATM    8  C18 UNL     1      -2.104   1.351  -0.959  1.00  0.00     0.221 C 
ENDROOT
BRANCH   6   9
HETATM    9  C12 UNL     1      -1.638  -2.086   0.371  1.00  0.00    -0.003 A 
HETATM   10  C13 UNL     1      -1.029  -3.287   0.613  1.00  0.00     0.014 A 
HETATM   11  C14 UNL     1      -1.683  -4.454   0.931  1.00  0.00     0.001 A 
HETATM   12  C15 UNL     1      -3.058  -4.468   1.024  1.00  0.00     0.000 A 
HETATM   13  C16 UNL     1      -3.704  -3.275   0.786  1.00  0.00     0.001 A 
HETATM   14  C17 UNL     1      -2.998  -2.149   0.475  1.00  0.00     0.014 A 
ENDBRANCH   6   9
BRANCH   4  15
HETATM   15  O3  UNL     1       2.539  -0.168  -0.508  1.00  0.00    -0.351 OA
BRANCH  15  16
HETATM   16  C7  UNL     1       3.702   0.140   0.149  1.00  0.00     0.182 C 
BRANCH  16  17
HETATM   17  C8  UNL     1       4.818  -0.741  -0.406  1.00  0.00     0.096 C 
BRANCH  17  18
HETATM   18  C9  UNL     1       4.516  -2.180  -0.207  1.00  0.00     0.233 C 
HETATM   19  O4  UNL     1       4.586  -2.831   0.822  1.00  0.00    -0.307 OA
ENDBRANCH  17  18
ENDBRANCH  16  17
ENDBRANCH  15  16
ENDBRANCH   4  15
BRANCH   1  20
HETATM   20  C2  UNL     1      -2.029   3.755  -0.390  1.00  0.00     0.156 C 
HETATM   21  C1  UNL     1      -1.604   5.102  -0.032  1.00  0.00     0.096 C 
HETATM   22  O1  UNL     1      -3.267   3.625  -0.561  1.00  0.00    -0.293 OA
ENDBRANCH   1  20
BRANCH   2  23
HETATM   23  O2  UNL     1       0.488   3.867  -0.077  1.00  0.00    -0.360 OA
HETATM   24  H4  UNL     1       1.390   4.153  -0.372  1.00  0.00     0.217 HD
ENDBRANCH   2  23
TORSDOF 7
