REMARK  2 active torsions:
REMARK  status: ('A' for Active; 'I' for Inactive)
REMARK    1  A    between atoms: C3_3  and  C4_4 
REMARK    2  A    between atoms: C13_17  and  N2_18 
ROOT
HETATM    1  C4  UNL     1       1.784  -1.065   0.417  1.00  0.00     0.035 C 
HETATM    2  C5  UNL     1       0.620  -0.500   0.281  1.00  0.00     0.079 C 
HETATM    3  O1  UNL     1       0.677   0.836  -0.138  1.00  0.00    -0.309 OA
HETATM    4  C6  UNL     1      -0.344   1.802  -0.084  1.00  0.00     0.127 A 
HETATM    5  C7  UNL     1      -1.696   1.453  -0.175  1.00  0.00     0.065 A 
HETATM    6  C8  UNL     1      -2.655   2.448  -0.115  1.00  0.00     0.035 A 
HETATM    7  C9  UNL     1      -2.267   3.768   0.034  1.00  0.00     0.046 A 
HETATM    8  C10 UNL     1      -0.924   4.095   0.123  1.00  0.00     0.141 A 
HETATM    9  F1  UNL     1      -0.451   5.377   0.271  1.00  0.00    -0.204 F 
HETATM   10  C11 UNL     1       0.052   3.120   0.065  1.00  0.00     0.108 A 
HETATM   11 CL1  UNL     1       1.762   3.432   0.168  1.00  0.00    -0.078 Cl
HETATM   12  N1  UNL     1      -2.316   0.171  -0.330  1.00  0.00    -0.375 N 
HETATM   13  C12 UNL     1      -1.571  -1.044  -0.592  1.00  0.00     0.162 C 
HETATM   14  C13 UNL     1      -2.432  -2.253  -0.430  1.00  0.00     0.043 C 
HETATM   15  C14 UNL     1      -1.751  -3.197   0.216  1.00  0.00     0.110 C 
HETATM   16  N3  UNL     1      -0.435  -2.685   0.513  1.00  0.00    -0.384 N 
HETATM   17  C15 UNL     1      -0.601  -1.256   0.558  1.00  0.00     0.167 C 
HETATM   18  H9  UNL     1      -3.364   0.209  -0.233  1.00  0.00     0.160 HD
HETATM   19  H14 UNL     1       0.305  -3.442   0.622  1.00  0.00     0.159 HD
ENDROOT
BRANCH   1  20
HETATM   20  C3  UNL     1       3.013  -0.351   0.151  1.00  0.00    -0.002 C 
HETATM   21  C2  UNL     1       4.192  -0.934   0.293  1.00  0.00    -0.031 C 
HETATM   22  C1  UNL     1       5.447  -0.170   0.011  1.00  0.00     0.036 C 
ENDBRANCH   1  20
BRANCH  14  23
HETATM   23  N2  UNL     1      -3.787  -2.384  -0.898  1.00  0.00    -0.400 N 
HETATM   24  H11 UNL     1      -4.398  -2.432  -0.033  1.00  0.00     0.156 HD
HETATM   25  H12 UNL     1      -4.149  -2.428  -1.868  1.00  0.00     0.156 HD
ENDBRANCH  14  23
TORSDOF 2
