REMARK  4 active torsions:
REMARK  status: ('A' for Active; 'I' for Inactive)
REMARK    1  A    between atoms: O1_1  and  B1_2 
REMARK    2  A    between atoms: B1_2  and  C1_3 
REMARK    3  A    between atoms: C7_10  and  N2_11 
REMARK    4  A    between atoms: N2_11  and  C8_12 
ROOT
HETATM    1  C1  UNL     1       5.275   0.317   0.337  1.00  0.00    -0.087 A 
HETATM    2  C2  UNL     1       4.218   1.129   0.219  1.00  0.00     0.008 A 
HETATM    3  C3  UNL     1       2.891   0.592   0.016  1.00  0.00     0.005 A 
HETATM    4  C4  UNL     1       2.034   1.622  -0.060  1.00  0.00     0.101 C 
HETATM    5  N1  UNL     1       0.603   1.716  -0.250  1.00  0.00    -0.374 N 
HETATM    6  C5  UNL     1      -0.470   0.752  -0.123  1.00  0.00     0.102 C 
HETATM    7  C6  UNL     1      -0.627  -0.539  -0.396  1.00  0.00     0.047 A 
HETATM    8  C7  UNL     1      -1.997  -0.783   0.024  1.00  0.00     0.141 A 
HETATM    9  N3  UNL     1      -2.484  -1.985  -0.185  1.00  0.00    -0.224 NA
HETATM   10  C14 UNL     1      -1.619  -2.948  -0.800  1.00  0.00     0.232 A 
HETATM   11  N4  UNL     1      -0.405  -2.792  -1.178  1.00  0.00    -0.252 NA
HETATM   12  C15 UNL     1       0.268  -1.531  -1.007  1.00  0.00     0.246 A 
HETATM   13  N5  UNL     1       1.523  -1.719  -0.269  1.00  0.00    -0.363 N 
HETATM   14  C16 UNL     1       2.654  -0.857  -0.068  1.00  0.00     0.038 A 
HETATM   15  C17 UNL     1       3.757  -1.612   0.060  1.00  0.00     0.007 A 
HETATM   16  C18 UNL     1       5.148  -1.152   0.271  1.00  0.00     0.054 A 
HETATM   17  H5  UNL     1       0.309   2.690  -0.533  1.00  0.00     0.164 HD
HETATM   18  H14 UNL     1       1.748  -2.622   0.251  1.00  0.00     0.162 HD
ENDROOT
BRANCH   8  19
HETATM   19  N2  UNL     1      -2.841   0.159   0.666  1.00  0.00    -0.340 N 
HETATM   20  H7  UNL     1      -2.392   0.691   1.443  1.00  0.00     0.167 HD
BRANCH  19  21
HETATM   21  C8  UNL     1      -4.193   0.334   0.268  1.00  0.00     0.035 A 
HETATM   22  C9  UNL     1      -4.848  -0.308  -0.752  1.00  0.00     0.029 A 
HETATM   23  C10 UNL     1      -6.145  -0.111  -1.092  1.00  0.00     0.004 A 
HETATM   24  C11 UNL     1      -6.910   0.781  -0.402  1.00  0.00     0.024 A 
HETATM   25  C12 UNL     1      -6.297   1.469   0.652  1.00  0.00     0.036 A 
HETATM   26 CL1  UNL     1      -7.295   2.605   1.521  1.00  0.00    -0.084 Cl
HETATM   27  C13 UNL     1      -4.958   1.245   0.980  1.00  0.00     0.053 A 
ENDBRANCH  19  21
ENDBRANCH   8  19
BRANCH   1  28
HETATM   28  B1  UNL     1       6.657   0.962   0.552  1.00  0.00     0.339 B 
HETATM   29  H2  UNL     1       7.629   0.283   0.552  1.00  0.00     0.013 HD
BRANCH  28  30
HETATM   30  O1  UNL     1       6.880   2.364   0.179  1.00  0.00    -0.462 OA
HETATM   31  H1  UNL     1       6.331   2.992   0.693  1.00  0.00     0.182 HD
ENDBRANCH  28  30
ENDBRANCH   1  28
TORSDOF 4
