REMARK  8 active torsions:
REMARK  status: ('A' for Active; 'I' for Inactive)
REMARK    1  A    between atoms: C2_2  and  C3_3 
REMARK    2  A    between atoms: C3_3  and  O1_4 
REMARK    3  A    between atoms: O1_4  and  C4_5 
REMARK    4  A    between atoms: C4_5  and  C5_7 
REMARK    5  A    between atoms: C5_7  and  O3_8 
REMARK    6  A    between atoms: O3_8  and  C6_9 
REMARK    7  A    between atoms: C8_11  and  O4_12 
REMARK    8  A    between atoms: C12_17  and  C13_18 
ROOT
HETATM    1  C6  UNL     1       0.643   0.392  -1.010  1.00  0.00     0.074 A 
HETATM    2  C7  UNL     1       0.970  -0.931  -0.843  1.00  0.00     0.074 A 
HETATM    3  C8  UNL     1       0.001  -1.837  -0.469  1.00  0.00     0.085 A 
HETATM    4  C9  UNL     1      -1.289  -1.391  -0.267  1.00  0.00     0.081 A 
HETATM    5  C10 UNL     1      -2.302  -2.247   0.107  1.00  0.00     0.190 A 
HETATM    6  O5  UNL     1      -2.039  -3.464   0.269  1.00  0.00    -0.287 OA
HETATM    7  C11 UNL     1      -3.577  -1.755   0.297  1.00  0.00     0.094 A 
HETATM    8  C12 UNL     1      -3.888  -0.424   0.125  1.00  0.00     0.090 A 
HETATM    9  O6  UNL     1      -2.891   0.350  -0.231  1.00  0.00    -0.309 OA
HETATM   10  C19 UNL     1      -1.659  -0.071  -0.424  1.00  0.00     0.095 A 
HETATM   11  C20 UNL     1      -0.662   0.832  -0.804  1.00  0.00     0.075 A 
ENDROOT
BRANCH   1  12
HETATM   12  O3  UNL     1       1.483   1.424  -1.378  1.00  0.00    -0.341 OA
BRANCH  12  13
HETATM   13  C5  UNL     1       2.870   1.218  -1.644  1.00  0.00     0.286 C 
BRANCH  13  14
HETATM   14  C4  UNL     1       3.581   0.682  -0.482  1.00  0.00     0.283 C 
HETATM   15  O2  UNL     1       4.732   0.583  -0.908  1.00  0.00    -0.263 OA
BRANCH  14  16
HETATM   16  O1  UNL     1       4.248   0.191   0.570  1.00  0.00    -0.320 OA
BRANCH  16  17
HETATM   17  C3  UNL     1       5.567  -0.147   0.778  1.00  0.00     0.178 C 
BRANCH  17  18
HETATM   18  C2  UNL     1       6.588   0.935   0.681  1.00  0.00     0.022 C 
HETATM   19  C1  UNL     1       7.940   0.255   0.973  1.00  0.00     0.007 C 
ENDBRANCH  17  18
ENDBRANCH  16  17
ENDBRANCH  14  16
ENDBRANCH  13  14
ENDBRANCH  12  13
ENDBRANCH   1  12
BRANCH   3  20
HETATM   20  O4  UNL     1       0.332  -3.174  -0.300  1.00  0.00    -0.360 OA
HETATM   21  H11 UNL     1       0.421  -3.734  -1.150  1.00  0.00     0.217 HD
ENDBRANCH   3  20
BRANCH   8  22
HETATM   22  C13 UNL     1      -5.207   0.171   0.306  1.00  0.00    -0.002 A 
HETATM   23  C14 UNL     1      -5.330   1.519   0.090  1.00  0.00     0.014 A 
HETATM   24  C15 UNL     1      -6.563   2.111   0.253  1.00  0.00     0.001 A 
HETATM   25  C16 UNL     1      -7.660   1.364   0.627  1.00  0.00     0.000 A 
HETATM   26  C17 UNL     1      -7.577   0.001   0.854  1.00  0.00     0.001 A 
HETATM   27  C18 UNL     1      -6.313  -0.563   0.680  1.00  0.00     0.014 A 
ENDBRANCH   8  22
TORSDOF 8
