REMARK  9 active torsions:
REMARK  status: ('A' for Active; 'I' for Inactive)
REMARK    1  A    between atoms: C2_2  and  C3_3 
REMARK    2  A    between atoms: C3_3  and  C4_4 
REMARK    3  A    between atoms: C4_4  and  C5_5 
REMARK    4  A    between atoms: C7_7  and  O1_8 
REMARK    5  A    between atoms: C11_13  and  C12_14 
REMARK    6  A    between atoms: C17_19  and  O3_20 
REMARK    7  A    between atoms: O3_20  and  C18_21 
REMARK    8  A    between atoms: C18_21  and  C19_22 
REMARK       I    between atoms: C19_22  and  N1_24 
REMARK    9  A    between atoms: N1_24  and  C20_25 
ROOT
HETATM    1  C5  UNL     1      -2.595   1.827  -0.228  1.00  0.00    -0.057 C 
HETATM    2  C6  UNL     1      -3.756   1.297  -0.173  1.00  0.00     0.019 C 
HETATM    3  C7  UNL     1      -4.595   0.147  -0.211  1.00  0.00     0.119 A 
HETATM    4  C8  UNL     1      -4.624  -1.183  -0.334  1.00  0.00     0.073 A 
HETATM    5  C9  UNL     1      -3.136  -1.292  -0.456  1.00  0.00    -0.040 A 
HETATM    6  O2  UNL     1      -4.159  -0.635  -0.267  1.00  0.00     0.000 OA
HETATM    7  C10 UNL     1      -1.779  -1.801  -0.657  1.00  0.00     0.045 C 
HETATM    8  C11 UNL     1      -0.608  -1.190  -0.560  1.00  0.00     0.082 C 
HETATM    9  O5  UNL     1      -0.832   0.179  -0.171  1.00  0.00    -0.346 OA
HETATM   10  C22 UNL     1      -1.885   0.796  -0.909  1.00  0.00     0.209 C 
ENDROOT
BRANCH   8  11
HETATM   11  C12 UNL     1       0.359  -2.027  -0.853  1.00  0.00     0.031 A 
HETATM   12  C13 UNL     1       0.288  -2.030  -2.267  1.00  0.00     0.017 A 
HETATM   13  C14 UNL     1       1.134  -2.854  -3.100  1.00  0.00     0.001 A 
HETATM   14  C15 UNL     1       2.069  -3.689  -2.465  1.00  0.00     0.003 A 
HETATM   15  C16 UNL     1       2.192  -3.737  -1.098  1.00  0.00     0.038 A 
HETATM   16  C17 UNL     1       1.354  -2.921  -0.315  1.00  0.00     0.082 A 
BRANCH  16  17
HETATM   17  O3  UNL     1       1.244  -2.752   1.108  1.00  0.00    -0.341 OA
BRANCH  17  18
HETATM   18  C18 UNL     1       2.219  -3.581   1.810  1.00  0.00     0.278 C 
BRANCH  18  19
HETATM   19  C19 UNL     1       3.563  -3.119   1.583  1.00  0.00     0.241 C 
HETATM   20  O4  UNL     1       3.130  -2.131   0.865  1.00  0.00    -0.271 OA
HETATM   21  N1  UNL     1       4.959  -3.026   1.615  1.00  0.00    -0.360 N 
HETATM   22  H20 UNL     1       5.087  -3.917   2.234  1.00  0.00     0.162 HD
BRANCH  21  23
HETATM   23  C20 UNL     1       5.763  -2.000   0.972  1.00  0.00     0.118 C 
HETATM   24  C21 UNL     1       5.492  -0.611   1.461  1.00  0.00     0.026 C 
ENDBRANCH  21  23
ENDBRANCH  18  19
ENDBRANCH  17  18
ENDBRANCH  16  17
ENDBRANCH   8  11
BRANCH   1  25
HETATM   25  C4  UNL     1      -1.644   2.933  -0.192  1.00  0.00     0.036 C 
BRANCH  25  26
HETATM   26  C3  UNL     1      -2.376   4.266   0.006  1.00  0.00     0.004 C 
BRANCH  26  27
HETATM   27  C2  UNL     1      -1.300   5.373  -0.036  1.00  0.00    -0.004 C 
HETATM   28  C1  UNL     1      -1.998   6.686   0.165  1.00  0.00     0.005 C 
ENDBRANCH  26  27
ENDBRANCH  25  26
ENDBRANCH   1  25
BRANCH   3  29
HETATM   29  O1  UNL     1      -5.900   0.528  -0.077  1.00  0.00    -0.382 OA
HETATM   30  H11 UNL     1      -6.245   1.402   0.202  1.00  0.00     0.211 HD
ENDBRANCH   3  29
TORSDOF 9
