REMARK  2 active torsions:
REMARK  status: ('A' for Active; 'I' for Inactive)
REMARK    1  A    between atoms: C9_11  and  O2_12 
REMARK    2  A    between atoms: C12_16  and  C13_17 
ROOT
HETATM    1  C1  UNL     1      -1.732  -3.221  -1.361  1.00  0.00     0.046 C 
HETATM    2  S1  UNL     1      -1.793  -2.598   0.095  1.00  0.00    -0.204 SA
HETATM    3  C2  UNL     1      -0.353  -3.121   0.702  1.00  0.00     0.169 C 
HETATM    4  O1  UNL     1       0.783  -2.358   0.393  1.00  0.00    -0.319 OA
HETATM    5  C3  UNL     1       0.926  -1.001   0.589  1.00  0.00     0.082 C 
HETATM    6  C4  UNL     1      -0.278  -0.860   1.096  1.00  0.00     0.023 C 
HETATM    7  C5  UNL     1      -1.464  -0.854   0.091  1.00  0.00     0.067 C 
HETATM    8  C6  UNL     1      -2.457   0.095   0.468  1.00  0.00     0.023 C 
HETATM    9  C7  UNL     1      -3.502  -0.200   1.502  1.00  0.00     0.015 C 
HETATM   10  C8  UNL     1      -2.826   1.122  -0.540  1.00  0.00     0.015 C 
HETATM   11  C9  UNL     1      -2.083   2.175  -0.916  1.00  0.00     0.064 C 
HETATM   12  C10 UNL     1      -0.762   2.647  -0.565  1.00  0.00     0.060 C 
HETATM   13  C11 UNL     1       0.285   2.324   0.178  1.00  0.00     0.138 C 
HETATM   14  O3  UNL     1       0.756   1.325   1.077  1.00  0.00    -0.348 OA
HETATM   15  C12 UNL     1       1.606   0.303   0.559  1.00  0.00     0.220 C 
HETATM   16  H3  UNL     1      -2.818  -2.954   0.864  1.00  0.00     0.091 HD
ENDROOT
BRANCH  15  17
HETATM   17  C13 UNL     1       2.208   0.635  -0.768  1.00  0.00     0.226 C 
HETATM   18  O4  UNL     1       2.992   1.784  -0.720  1.00  0.00    -0.375 OA
HETATM   19  C14 UNL     1       4.080   1.472   0.100  1.00  0.00     0.176 C 
HETATM   20  C15 UNL     1       4.373  -0.012  -0.120  1.00  0.00     0.107 C 
HETATM   21  C16 UNL     1       3.250  -0.392  -1.050  1.00  0.00     0.160 C 
HETATM   22  O5  UNL     1       3.344  -1.366  -1.808  1.00  0.00    -0.295 OA
ENDBRANCH  15  17
BRANCH  11  23
HETATM   23  O2  UNL     1      -2.796   2.924  -1.875  1.00  0.00    -0.361 OA
HETATM   24  H12 UNL     1      -2.636   2.796  -2.865  1.00  0.00     0.217 HD
ENDBRANCH  11  23
TORSDOF 2
