REMARK  8 active torsions:
REMARK  status: ('A' for Active; 'I' for Inactive)
REMARK    1  A    between atoms: C2_2  and  C3_3 
REMARK    2  A    between atoms: C2_2  and  S1_22 
REMARK    3  A    between atoms: C4_4  and  N1_5 
REMARK    4  A    between atoms: C4_4  and  C5_6 
REMARK    5  A    between atoms: C5_6  and  O1_7 
REMARK    6  A    between atoms: O1_7  and  C6_8 
REMARK    7  A    between atoms: C8_10  and  N2_11 
REMARK    8  A    between atoms: N2_11  and  C9_12 
ROOT
HETATM    1  C6  UNL     1      -0.442  -0.468  -1.630  1.00  0.00     0.169 A 
HETATM    2  C7  UNL     1      -1.785  -0.297  -1.362  1.00  0.00     0.108 A 
HETATM    3  C8  UNL     1      -2.821  -0.563  -2.217  1.00  0.00     0.133 A 
HETATM    4  N3  UNL     1      -2.429  -1.028  -3.407  1.00  0.00    -0.224 NA
HETATM    5  C15 UNL     1      -1.147  -1.224  -3.749  1.00  0.00     0.238 A 
HETATM    6  N4  UNL     1      -0.143  -0.946  -2.866  1.00  0.00    -0.218 NA
ENDROOT
BRANCH   1   7
HETATM    7  O1  UNL     1       0.533  -0.167  -0.689  1.00  0.00    -0.329 OA
BRANCH   7   8
HETATM    8  C5  UNL     1       1.874  -0.375  -1.058  1.00  0.00     0.227 C 
BRANCH   8   9
HETATM    9  C4  UNL     1       2.854  -0.031  -0.015  1.00  0.00     0.009 C 
HETATM   10  C3  UNL     1       3.710  -0.887   0.510  1.00  0.00     0.043 C 
BRANCH  10  11
HETATM   11  C2  UNL     1       4.720  -0.677   1.533  1.00  0.00     0.051 C 
HETATM   12  C1  UNL     1       5.469  -1.737   1.890  1.00  0.00     0.036 C 
BRANCH  11  13
HETATM   13  S1  UNL     1       5.092   0.807   2.370  1.00  0.00     0.171 S 
HETATM   14  C16 UNL     1       6.344   1.732   1.486  1.00  0.00     0.167 C 
HETATM   15  O2  UNL     1       5.711   0.450   3.712  1.00  0.00    -0.223 OA
HETATM   16  O3  UNL     1       3.889   1.645   2.622  1.00  0.00    -0.223 OA
ENDBRANCH  11  13
ENDBRANCH  10  11
BRANCH   9  17
HETATM   17  N1  UNL     1       2.541   1.364   0.152  1.00  0.00    -0.304 NA
HETATM   18  H4  UNL     1       1.789   1.490   0.878  1.00  0.00     0.124 HD
HETATM   19  H5  UNL     1       1.784   1.554   0.876  1.00  0.00     0.124 HD
ENDBRANCH   9  17
ENDBRANCH   8   9
ENDBRANCH   7   8
ENDBRANCH   1   7
BRANCH   3  20
HETATM   20  N2  UNL     1      -4.186  -0.416  -1.976  1.00  0.00    -0.341 N 
HETATM   21  H9  UNL     1      -4.847  -0.578  -2.796  1.00  0.00     0.167 HD
BRANCH  20  22
HETATM   22  C9  UNL     1      -4.967  -0.090  -0.858  1.00  0.00     0.034 A 
HETATM   23  C10 UNL     1      -6.183   0.597  -0.933  1.00  0.00     0.029 A 
HETATM   24  C11 UNL     1      -6.960   0.904   0.157  1.00  0.00     0.004 A 
HETATM   25  C12 UNL     1      -6.565   0.537   1.407  1.00  0.00     0.019 A 
HETATM   26  C13 UNL     1      -5.375  -0.145   1.553  1.00  0.00     0.013 A 
HETATM   27 BR1  UNL     1      -4.878  -0.631   3.326  1.00  0.00    -0.051 Br
HETATM   28  C14 UNL     1      -4.638  -0.426   0.433  1.00  0.00     0.048 A 
ENDBRANCH  20  22
ENDBRANCH   3  20
TORSDOF 8
