REMARK  9 active torsions:
REMARK  status: ('A' for Active; 'I' for Inactive)
REMARK    1  A    between atoms: C1_2  and  O2_3 
REMARK    2  A    between atoms: O2_3  and  C2_4 
REMARK    3  A    between atoms: C2_4  and  O3_5 
REMARK    4  A    between atoms: C2_4  and  C3_6 
REMARK    5  A    between atoms: C3_6  and  O4_7 
REMARK    6  A    between atoms: O4_7  and  C4_8 
REMARK    7  A    between atoms: C10_15  and  C11_16 
REMARK    8  A    between atoms: C11_16  and  C12_17 
REMARK    9  A    between atoms: C16_21  and  S1_22 
ROOT
HETATM    1  C4  UNL     1      -1.943  -0.443  -0.336  1.00  0.00     0.071 A 
HETATM    2  C5  UNL     1      -1.872  -0.792  -1.660  1.00  0.00     0.038 A 
HETATM    3  C6  UNL     1      -0.780  -0.705  -2.490  1.00  0.00     0.021 A 
HETATM    4  C7  UNL     1       0.362  -0.210  -1.903  1.00  0.00     0.048 A 
HETATM    5  C8  UNL     1       1.459  -0.128  -2.756  1.00  0.00     0.187 A 
HETATM    6  O5  UNL     1       1.404  -0.476  -3.950  1.00  0.00    -0.287 OA
HETATM    7  C9  UNL     1       2.645   0.358  -2.253  1.00  0.00     0.088 A 
HETATM    8  C10 UNL     1       2.634   0.725  -0.923  1.00  0.00     0.059 A 
HETATM    9  O6  UNL     1       1.573   0.625  -0.172  1.00  0.00    -0.314 OA
HETATM   10  C17 UNL     1       0.423   0.176  -0.582  1.00  0.00     0.092 A 
HETATM   11  C18 UNL     1      -0.735   0.055   0.190  1.00  0.00     0.075 A 
ENDROOT
BRANCH   1  12
HETATM   12  O4  UNL     1      -2.845  -0.430   0.642  1.00  0.00    -0.346 OA
BRANCH  12  13
HETATM   13  C3  UNL     1      -4.143  -0.725   0.873  1.00  0.00     0.236 C 
BRANCH  13  14
HETATM   14  C2  UNL     1      -5.205   0.042   0.124  1.00  0.00     0.289 C 
BRANCH  14  15
HETATM   15  O2  UNL     1      -6.450  -0.479   0.591  1.00  0.00    -0.295 OA
BRANCH  15  16
HETATM   16  C1  UNL     1      -7.312   0.329   1.282  1.00  0.00     0.400 C 
HETATM   17  O1  UNL     1      -7.481   1.506   1.738  1.00  0.00    -0.276 OA
ENDBRANCH  15  16
ENDBRANCH  14  15
BRANCH  14  18
HETATM   18  O3  UNL     1      -5.054  -0.113  -1.223  1.00  0.00    -0.369 OA
HETATM   19  H3  UNL     1      -5.199   0.702  -1.763  1.00  0.00     0.212 HD
ENDBRANCH  14  18
ENDBRANCH  13  14
ENDBRANCH  12  13
ENDBRANCH   1  12
BRANCH   8  20
HETATM   20  C11 UNL     1       3.918   1.260  -0.342  1.00  0.00     0.087 C 
BRANCH  20  21
HETATM   21  C12 UNL     1       4.660   0.131   0.159  1.00  0.00     0.032 A 
HETATM   22  C13 UNL     1       4.924   0.406   1.691  1.00  0.00     0.071 A 
HETATM   23  C14 UNL     1       5.688  -0.346   3.026  1.00  0.00     0.076 A 
HETATM   24  S1  UNL     1       5.347  -0.607   1.237  1.00  0.00    -0.203 SA
HETATM   25  C15 UNL     1       6.463  -1.766   3.063  1.00  0.00     0.048 A 
HETATM   26  C16 UNL     1       5.936  -1.225   2.189  1.00  0.00    -0.040 A 
ENDBRANCH  20  21
ENDBRANCH   8  20
TORSDOF 9
