REMARK  11 active torsions:
REMARK  status: ('A' for Active; 'I' for Inactive)
REMARK    1  A    between atoms: C2_2  and  C3_3 
REMARK    2  A    between atoms: C3_3  and  C4_4 
REMARK    3  A    between atoms: C4_4  and  C5_5 
REMARK    4  A    between atoms: C5_5  and  C6_6 
REMARK    5  A    between atoms: C6_6  and  C7_7 
REMARK    6  A    between atoms: C7_7  and  O1_8 
REMARK    7  A    between atoms: O1_8  and  C8_9 
REMARK    8  A    between atoms: C8_9  and  C9_10 
REMARK    9  A    between atoms: C9_10  and  O2_11 
REMARK   10  A    between atoms: O2_11  and  C10_12 
REMARK   11  A    between atoms: C16_20  and  C17_21 
ROOT
HETATM    1  C10 UNL     1      -0.979  -0.136   2.048  1.00  0.00     0.069 C 
HETATM    2  C11 UNL     1      -0.987   0.765   3.052  1.00  0.00     0.036 C 
HETATM    3  C12 UNL     1      -2.154   1.686   3.316  1.00  0.00     0.199 C 
HETATM    4  O3  UNL     1      -3.251   0.899   3.504  1.00  0.00    -0.368 OA
HETATM    5  C13 UNL     1      -4.005   0.556   2.431  1.00  0.00     0.252 C 
HETATM    6  C14 UNL     1      -4.908   1.651   1.927  1.00  0.00     0.187 C 
HETATM    7  O4  UNL     1      -5.101   2.844   2.301  1.00  0.00    -0.290 OA
HETATM    8  C15 UNL     1      -5.720   1.226   0.764  1.00  0.00     0.091 C 
HETATM    9  C16 UNL     1      -5.344   0.243  -0.036  1.00  0.00     0.089 C 
HETATM   10  O5  UNL     1      -4.127  -0.419   0.230  1.00  0.00    -0.311 OA
HETATM   11  C23 UNL     1      -3.315  -0.076   1.297  1.00  0.00     0.093 C 
HETATM   12  C24 UNL     1      -2.036  -0.409   1.046  1.00  0.00     0.072 C 
ENDROOT
BRANCH   1  13
HETATM   13  O2  UNL     1       0.138  -0.940   1.883  1.00  0.00    -0.349 OA
BRANCH  13  14
HETATM   14  C9  UNL     1       1.463  -0.447   1.880  1.00  0.00     0.201 C 
BRANCH  14  15
HETATM   15  C8  UNL     1       2.483  -1.551   1.720  1.00  0.00     0.194 C 
BRANCH  15  16
HETATM   16  O1  UNL     1       2.407  -2.276   0.614  1.00  0.00    -0.389 OA
BRANCH  16  17
HETATM   17  C7  UNL     1       2.465  -1.864  -0.642  1.00  0.00     0.167 C 
BRANCH  17  18
HETATM   18  C6  UNL     1       3.650  -1.165  -1.199  1.00  0.00     0.026 C 
BRANCH  18  19
HETATM   19  C5  UNL     1       4.049   0.128  -0.616  1.00  0.00     0.002 C 
BRANCH  19  20
HETATM   20  C4  UNL     1       5.256   0.714  -1.335  1.00  0.00     0.000 C 
BRANCH  20  21
HETATM   21  C3  UNL     1       6.468  -0.165  -1.265  1.00  0.00    -0.000 C 
BRANCH  21  22
HETATM   22  C2  UNL     1       7.640   0.495  -1.990  1.00  0.00    -0.005 C 
HETATM   23  C1  UNL     1       7.920   1.815  -1.310  1.00  0.00     0.005 C 
ENDBRANCH  21  22
ENDBRANCH  20  21
ENDBRANCH  19  20
ENDBRANCH  18  19
ENDBRANCH  17  18
ENDBRANCH  16  17
ENDBRANCH  15  16
ENDBRANCH  14  15
ENDBRANCH  13  14
ENDBRANCH   1  13
BRANCH   9  24
HETATM   24  C17 UNL     1      -6.092  -0.228  -1.195  1.00  0.00    -0.002 A 
HETATM   25  C18 UNL     1      -5.650  -1.259  -1.996  1.00  0.00     0.014 A 
HETATM   26  C19 UNL     1      -6.309  -1.746  -3.100  1.00  0.00     0.001 A 
HETATM   27  C20 UNL     1      -7.522  -1.163  -3.453  1.00  0.00     0.000 A 
HETATM   28  C21 UNL     1      -8.006  -0.128  -2.684  1.00  0.00     0.001 A 
HETATM   29  C22 UNL     1      -7.297   0.314  -1.587  1.00  0.00     0.014 A 
ENDBRANCH   9  24
TORSDOF 11
