REMARK  4 active torsions:
REMARK  status: ('A' for Active; 'I' for Inactive)
REMARK    1  A    between atoms: S1_2  and  N1_5 
REMARK    2  A    between atoms: N1_5  and  C2_6 
REMARK    3  A    between atoms: C10_15  and  N3_16 
REMARK    4  A    between atoms: N3_16  and  C11_17 
ROOT
HETATM    1  C2  UNL     1      -3.904   1.045   0.417  1.00  0.00     0.043 A 
HETATM    2  C3  UNL     1      -3.979   1.273  -0.940  1.00  0.00     0.033 A 
HETATM    3  C4  UNL     1      -2.906   0.987  -1.775  1.00  0.00     0.040 A 
HETATM    4  C5  UNL     1      -1.765   0.473  -1.228  1.00  0.00     0.086 A 
HETATM    5  C6  UNL     1      -1.616   0.220   0.110  1.00  0.00    -0.004 A 
HETATM    6  C7  UNL     1      -2.719   0.521   0.917  1.00  0.00     0.041 A 
HETATM    7  C8  UNL     1      -0.585  -0.306   1.023  1.00  0.00     0.161 C 
HETATM    8  N2  UNL     1       0.676  -0.596   0.411  1.00  0.00    -0.379 N 
HETATM    9  C9  UNL     1       1.246  -0.202  -0.830  1.00  0.00     0.129 A 
HETATM   10  C10 UNL     1       2.619  -0.248  -0.718  1.00  0.00     0.160 A 
HETATM   11  N4  UNL     1       3.355   0.086  -1.791  1.00  0.00    -0.222 NA
HETATM   12  C16 UNL     1       2.717   0.446  -2.914  1.00  0.00     0.238 A 
HETATM   13  N5  UNL     1       1.378   0.491  -3.021  1.00  0.00    -0.215 NA
HETATM   14  C17 UNL     1       0.588   0.168  -1.983  1.00  0.00     0.202 A 
HETATM   15  O3  UNL     1      -0.790   0.240  -2.175  1.00  0.00    -0.289 OA
HETATM   16  H10 UNL     1       1.285  -1.215   0.993  1.00  0.00     0.160 HD
ENDROOT
BRANCH  10  17
HETATM   17  N3  UNL     1       3.346  -0.613   0.444  1.00  0.00    -0.339 N 
HETATM   18  H11 UNL     1       3.192  -0.903   1.429  1.00  0.00     0.167 HD
BRANCH  17  19
HETATM   19  C11 UNL     1       4.785  -0.653   0.467  1.00  0.00     0.031 A 
HETATM   20  C12 UNL     1       5.569  -1.722   0.248  1.00  0.00     0.008 A 
HETATM   21  C13 UNL     1       7.042  -1.417   0.347  1.00  0.00     0.075 A 
HETATM   22  C14 UNL     1       6.977   0.033   0.666  1.00  0.00    -0.006 A 
HETATM   23 BR1  UNL     1       8.558   1.078   0.930  1.00  0.00    -0.055 Br
HETATM   24  C15 UNL     1       5.712   0.467   0.734  1.00  0.00     0.044 A 
ENDBRANCH  17  19
ENDBRANCH  10  17
BRANCH   1  25
HETATM   25  N1  UNL     1      -4.990   1.334   1.265  1.00  0.00    -0.285 N 
HETATM   26  H4  UNL     1      -4.733   1.832   2.151  1.00  0.00     0.178 HD
BRANCH  25  27
HETATM   27  S1  UNL     1      -6.575   0.863   0.793  1.00  0.00     0.227 S 
HETATM   28  C1  UNL     1      -6.667  -0.898   0.624  1.00  0.00     0.186 C 
HETATM   29  O1  UNL     1      -6.990   1.483  -0.495  1.00  0.00    -0.206 OA
HETATM   30  O2  UNL     1      -7.599   1.285   1.823  1.00  0.00    -0.206 OA
ENDBRANCH  25  27
ENDBRANCH   1  25
TORSDOF 4
