REMARK  10 active torsions:
REMARK  status: ('A' for Active; 'I' for Inactive)
REMARK    1  A    between atoms: C2_2  and  C3_3 
REMARK    2  A    between atoms: C3_3  and  C4_4 
REMARK    3  A    between atoms: C4_4  and  C5_5 
REMARK    4  A    between atoms: C5_5  and  C6_6 
REMARK    5  A    between atoms: C6_6  and  N1_7 
REMARK       I    between atoms: N1_7  and  C7_8 
REMARK    6  A    between atoms: C7_8  and  C8_10 
REMARK    7  A    between atoms: C8_10  and  O2_11 
REMARK    8  A    between atoms: O2_11  and  C9_12 
REMARK    9  A    between atoms: C12_15  and  C13_16 
REMARK   10  A    between atoms: C15_19  and  O4_20 
ROOT
HETATM    1  C13 UNL     1      -6.870   0.159   0.200  1.00  0.00     0.110 C 
HETATM    2  C14 UNL     1      -7.208  -1.012   1.058  1.00  0.00     0.235 C 
HETATM    3  O3  UNL     1      -7.374  -2.000   1.760  1.00  0.00    -0.307 OA
ENDROOT
BRANCH   1   4
HETATM    4  C12 UNL     1      -5.415   0.233  -0.110  1.00  0.00    -0.018 A 
HETATM    5  C11 UNL     1      -4.645   1.157   0.560  1.00  0.00     0.013 A 
HETATM    6  C10 UNL     1      -3.296   1.211   0.262  1.00  0.00     0.037 A 
HETATM    7  C9  UNL     1      -2.717   0.369  -0.679  1.00  0.00     0.072 A 
HETATM    8  C16 UNL     1      -3.465  -0.564  -1.363  1.00  0.00     0.073 A 
HETATM    9  C15 UNL     1      -4.809  -0.588  -1.038  1.00  0.00     0.075 A 
BRANCH   7  10
HETATM   10  O2  UNL     1      -1.351   0.511  -0.899  1.00  0.00    -0.342 OA
BRANCH  10  11
HETATM   11  C8  UNL     1      -0.572   1.466  -0.201  1.00  0.00     0.278 C 
BRANCH  11  12
HETATM   12  C7  UNL     1       0.828   1.369  -0.652  1.00  0.00     0.241 C 
HETATM   13  N1  UNL     1       1.464   0.532  -1.604  1.00  0.00    -0.359 N 
HETATM   14  H14 UNL     1       0.758  -0.129  -2.046  1.00  0.00     0.162 HD
HETATM   15  O1  UNL     1       1.514   2.221  -0.027  1.00  0.00    -0.271 OA
BRANCH  13  16
HETATM   16  C6  UNL     1       2.865   0.731  -1.776  1.00  0.00     0.122 C 
BRANCH  16  17
HETATM   17  C5  UNL     1       3.716   0.524  -0.569  1.00  0.00     0.020 C 
BRANCH  17  18
HETATM   18  C4  UNL     1       3.579  -0.881  -0.050  1.00  0.00     0.002 C 
BRANCH  18  19
HETATM   19  C3  UNL     1       4.435  -1.102   1.175  1.00  0.00    -0.000 C 
BRANCH  19  20
HETATM   20  C2  UNL     1       5.910  -0.874   0.892  1.00  0.00    -0.005 C 
HETATM   21  C1  UNL     1       6.663  -1.125   2.186  1.00  0.00     0.005 C 
ENDBRANCH  19  20
ENDBRANCH  18  19
ENDBRANCH  17  18
ENDBRANCH  16  17
ENDBRANCH  13  16
ENDBRANCH  11  12
ENDBRANCH  10  11
ENDBRANCH   7  10
BRANCH   9  22
HETATM   22  O4  UNL     1      -5.657  -1.503  -1.679  1.00  0.00    -0.360 OA
HETATM   23  H22 UNL     1      -5.675  -1.385  -2.700  1.00  0.00     0.217 HD
ENDBRANCH   9  22
ENDBRANCH   1   4
TORSDOF 10
