REMARK  5 active torsions:
REMARK  status: ('A' for Active; 'I' for Inactive)
REMARK    1  A    between atoms: C2_2  and  O1_3 
REMARK    2  A    between atoms: O1_3  and  C3_4 
REMARK    3  A    between atoms: C5_6  and  O2_7 
REMARK    4  A    between atoms: C6_8  and  C7_9 
REMARK    5  A    between atoms: C17_20  and  O4_21 
ROOT
HETATM    1  C3  UNL     1       2.010   1.034   1.501  1.00  0.00     0.082 A 
HETATM    2  C4  UNL     1       1.352   0.157   0.617  1.00  0.00     0.073 A 
HETATM    3  C5  UNL     1       0.060   0.540   0.803  1.00  0.00     0.009 A 
HETATM    4  O2  UNL     1      -0.660  -0.278  -0.066  1.00  0.00     0.000 OA
HETATM    5  C6  UNL     1      -1.955  -0.053  -0.032  1.00  0.00     0.027 A 
HETATM    6  C13 UNL     1      -1.283   0.785   0.873  1.00  0.00     0.040 A 
HETATM    7  C14 UNL     1      -2.437   1.358   1.236  1.00  0.00     0.153 A 
HETATM    8  O3  UNL     1      -2.970   2.303   2.011  1.00  0.00    -0.223 OA
HETATM    9  C15 UNL     1      -1.157   1.202   1.259  1.00  0.00     0.036 A 
HETATM   10  C16 UNL     1       0.093   1.075   1.303  1.00  0.00     0.042 A 
HETATM   11  C17 UNL     1       1.037   1.806   2.086  1.00  0.00     0.084 A 
ENDROOT
BRANCH   5  12
HETATM   12  C7  UNL     1      -2.305  -1.063  -1.068  1.00  0.00    -0.046 A 
HETATM   13  C8  UNL     1      -1.483  -1.915  -1.724  1.00  0.00     0.008 A 
HETATM   14  C9  UNL     1      -2.008  -2.763  -2.675  1.00  0.00     0.001 A 
HETATM   15  C10 UNL     1      -3.357  -2.596  -2.811  1.00  0.00     0.000 A 
HETATM   16  C11 UNL     1      -4.261  -1.772  -2.200  1.00  0.00     0.001 A 
HETATM   17  C12 UNL     1      -3.671  -0.968  -1.276  1.00  0.00     0.008 A 
ENDBRANCH   5  12
BRANCH  11  18
HETATM   18  O4  UNL     1       0.800   2.806   2.970  1.00  0.00    -0.362 OA
HETATM   19  H12 UNL     1       0.923   2.761   3.975  1.00  0.00     0.217 HD
ENDBRANCH  11  18
BRANCH   1  20
HETATM   20  O1  UNL     1       3.221   1.424   1.990  1.00  0.00    -0.353 OA
BRANCH  20  21
HETATM   21  C2  UNL     1       4.324   0.712   1.456  1.00  0.00     0.171 C 
HETATM   22  C1  UNL     1       4.400   0.964  -0.048  1.00  0.00     0.034 C 
ENDBRANCH  20  21
ENDBRANCH   1  20
TORSDOF 5
