REMARK  7 active torsions:
REMARK  status: ('A' for Active; 'I' for Inactive)
REMARK    1  A    between atoms: C2_2  and  C3_3 
REMARK    2  A    between atoms: C3_3  and  C4_4 
REMARK    3  A    between atoms: C4_4  and  C5_5 
REMARK    4  A    between atoms: C5_5  and  N1_6 
REMARK       I    between atoms: N1_6  and  C6_7 
REMARK    5  A    between atoms: C6_7  and  C7_9 
REMARK    6  A    between atoms: C7_9  and  O2_10 
REMARK    7  A    between atoms: O2_10  and  C8_11 
ROOT
HETATM    1  C8  UNL     1       0.748  -1.833   0.404  1.00  0.00     0.069 A 
HETATM    2  C9  UNL     1       1.219  -3.112   0.633  1.00  0.00     0.037 A 
HETATM    3  C10 UNL     1       2.583  -3.369   0.701  1.00  0.00     0.018 A 
HETATM    4  C11 UNL     1       3.459  -2.304   0.534  1.00  0.00     0.009 A 
HETATM    5  C12 UNL     1       2.991  -1.025   0.305  1.00  0.00    -0.080 A 
HETATM    6  C13 UNL     1       1.633  -0.787   0.240  1.00  0.00     0.033 A 
HETATM    7  B1  UNL     1       3.978   0.185   0.114  1.00  0.00     0.233 B 
HETATM    8  C14 UNL     1       5.509  -0.093   0.190  1.00  0.00    -0.083 A 
HETATM    9  C15 UNL     1       6.450   0.978   0.022  1.00  0.00    -0.041 A 
HETATM   10  C16 UNL     1       7.811   0.824   0.072  1.00  0.00     0.011 A 
HETATM   11  C17 UNL     1       8.737   1.846  -0.088  1.00  0.00     0.001 A 
HETATM   12  C18 UNL     1       8.255   3.131  -0.317  1.00  0.00     0.000 A 
HETATM   13  C19 UNL     1       6.880   3.328  -0.374  1.00  0.00     0.001 A 
HETATM   14  C20 UNL     1       6.011   2.263  -0.207  1.00  0.00     0.011 A 
HETATM   15  C21 UNL     1       5.842  -1.353   0.413  1.00  0.00     0.051 A 
HETATM   16  C22 UNL     1       4.912  -2.464   0.587  1.00  0.00     0.181 A 
HETATM   17  O3  UNL     1       5.318  -3.640   0.797  1.00  0.00    -0.288 OA
HETATM   18  H18 UNL     1       3.538   1.130  -0.445  1.00  0.00    -0.015 HD
ENDROOT
BRANCH   1  19
HETATM   19  O2  UNL     1      -0.638  -1.761   0.367  1.00  0.00    -0.342 OA
BRANCH  19  20
HETATM   20  C7  UNL     1      -1.387  -0.605   0.155  1.00  0.00     0.278 C 
BRANCH  20  21
HETATM   21  C6  UNL     1      -2.836  -1.015   0.199  1.00  0.00     0.241 C 
HETATM   22  N1  UNL     1      -3.850  -0.017   0.009  1.00  0.00    -0.359 N 
HETATM   23  H12 UNL     1      -3.625   1.001  -0.162  1.00  0.00     0.162 HD
HETATM   24  O1  UNL     1      -3.412  -2.139   0.383  1.00  0.00    -0.271 OA
BRANCH  22  25
HETATM   25  C5  UNL     1      -5.176  -0.612   0.088  1.00  0.00     0.122 C 
BRANCH  25  26
HETATM   26  C4  UNL     1      -6.205   0.465  -0.116  1.00  0.00     0.020 C 
BRANCH  26  27
HETATM   27  C3  UNL     1      -7.619  -0.108  -0.043  1.00  0.00     0.001 C 
BRANCH  27  28
HETATM   28  C2  UNL     1      -8.658   1.000  -0.252  1.00  0.00    -0.004 C 
HETATM   29  C1  UNL     1      -8.487   1.650  -1.586  1.00  0.00     0.005 C 
ENDBRANCH  27  28
ENDBRANCH  26  27
ENDBRANCH  25  26
ENDBRANCH  22  25
ENDBRANCH  20  21
ENDBRANCH  19  20
ENDBRANCH   1  19
TORSDOF 7
