REMARK  7 active torsions:
REMARK  status: ('A' for Active; 'I' for Inactive)
REMARK    1  A    between atoms: C1_2  and  N1_3 
REMARK    2  A    between atoms: N1_3  and  C2_4 
REMARK    3  A    between atoms: C2_4  and  C3_5 
REMARK    4  A    between atoms: C3_5  and  O2_6 
REMARK    5  A    between atoms: O2_6  and  C4_7 
REMARK    6  A    between atoms: C6_9  and  O3_10 
REMARK    7  A    between atoms: C10_15  and  C11_16 
ROOT
HETATM    1  C4  UNL     1       1.832  -0.009  -0.611  1.00  0.00     0.074 A 
HETATM    2  C5  UNL     1       1.742  -0.336  -1.939  1.00  0.00     0.074 A 
HETATM    3  C6  UNL     1       0.533  -0.546  -2.549  1.00  0.00     0.085 A 
HETATM    4  C7  UNL     1      -0.609  -0.421  -1.791  1.00  0.00     0.081 A 
HETATM    5  C8  UNL     1      -1.873  -0.606  -2.287  1.00  0.00     0.190 A 
HETATM    6  O4  UNL     1      -2.033  -0.907  -3.496  1.00  0.00    -0.287 OA
HETATM    7  C9  UNL     1      -2.953  -0.457  -1.442  1.00  0.00     0.094 A 
HETATM    8  C10 UNL     1      -2.860  -0.129  -0.108  1.00  0.00     0.090 A 
HETATM    9  O5  UNL     1      -1.635   0.038   0.320  1.00  0.00    -0.309 OA
HETATM   10  C17 UNL     1      -0.582  -0.093  -0.445  1.00  0.00     0.095 A 
HETATM   11  C18 UNL     1       0.673   0.113   0.137  1.00  0.00     0.075 A 
ENDROOT
BRANCH   1  12
HETATM   12  O2  UNL     1       3.042   0.211   0.042  1.00  0.00    -0.349 OA
BRANCH  12  13
HETATM   13  C3  UNL     1       4.220   0.089  -0.714  1.00  0.00     0.195 C 
BRANCH  13  14
HETATM   14  C2  UNL     1       5.473   0.344   0.074  1.00  0.00     0.148 C 
BRANCH  14  15
HETATM   15  N1  UNL     1       5.617  -0.575   1.180  1.00  0.00    -0.366 N 
HETATM   16  H2  UNL     1       4.981  -1.358   1.479  1.00  0.00     0.161 HD
BRANCH  15  17
HETATM   17  C1  UNL     1       6.778  -0.410   1.987  1.00  0.00     0.348 C 
HETATM   18  O1  UNL     1       7.594   0.496   1.708  1.00  0.00    -0.284 OA
ENDBRANCH  15  17
ENDBRANCH  14  15
ENDBRANCH  13  14
ENDBRANCH  12  13
ENDBRANCH   1  12
BRANCH   3  19
HETATM   19  O3  UNL     1       0.394  -0.879  -3.893  1.00  0.00    -0.360 OA
HETATM   20  H8  UNL     1       0.167  -0.201  -4.609  1.00  0.00     0.217 HD
ENDBRANCH   3  19
BRANCH   8  21
HETATM   21  C11 UNL     1      -4.012   0.025   0.771  1.00  0.00    -0.002 A 
HETATM   22  C12 UNL     1      -5.325  -0.136   0.386  1.00  0.00     0.014 A 
HETATM   23  C13 UNL     1      -6.345   0.033   1.300  1.00  0.00     0.001 A 
HETATM   24  C14 UNL     1      -6.081   0.365   2.613  1.00  0.00     0.000 A 
HETATM   25  C15 UNL     1      -4.776   0.532   3.026  1.00  0.00     0.001 A 
HETATM   26  C16 UNL     1      -3.791   0.354   2.082  1.00  0.00     0.014 A 
ENDBRANCH   8  21
TORSDOF 7
