REMARK  8 active torsions:
REMARK  status: ('A' for Active; 'I' for Inactive)
REMARK    1  A    between atoms: C2_2  and  C3_3 
REMARK    2  A    between atoms: C3_3  and  C4_4 
REMARK    3  A    between atoms: C4_4  and  C5_5 
REMARK    4  A    between atoms: C5_5  and  C6_6 
REMARK    5  A    between atoms: C6_6  and  N1_7 
REMARK       I    between atoms: N1_7  and  C7_8 
REMARK    6  A    between atoms: C7_8  and  C8_10 
REMARK    7  A    between atoms: C8_10  and  C9_11 
REMARK    8  A    between atoms: C11_13  and  O2_14 
ROOT
HETATM    1  C9  UNL     1       0.148   2.020  -0.811  1.00  0.00     0.014 A 
HETATM    2  C10 UNL     1       1.111   2.679  -0.264  1.00  0.00     0.046 A 
HETATM    3  C11 UNL     1       0.015   3.430   0.267  1.00  0.00     0.093 A 
HETATM    4  C12 UNL     1      -1.065   4.092   0.731  1.00  0.00     0.066 A 
HETATM    5  C13 UNL     1      -2.474   3.733   0.390  1.00  0.00     0.168 A 
HETATM    6  O3  UNL     1      -3.275   4.499   1.011  1.00  0.00    -0.289 OA
HETATM    7  C14 UNL     1      -3.401   2.840  -0.370  1.00  0.00     0.041 A 
HETATM    8  C15 UNL     1      -3.590   1.828  -1.171  1.00  0.00     0.020 A 
HETATM    9  C16 UNL     1      -2.256   1.303  -1.485  1.00  0.00     0.004 A 
HETATM   10  C17 UNL     1      -0.985   1.352  -1.375  1.00  0.00     0.016 A 
HETATM   11  C18 UNL     1      -3.407   0.697  -2.065  1.00  0.00     0.018 A 
HETATM   12  C19 UNL     1      -3.766   0.788  -3.477  1.00  0.00    -0.011 A 
HETATM   13  C20 UNL     1      -4.323  -0.351  -3.808  1.00  0.00    -0.003 A 
HETATM   14  C21 UNL     1      -4.371  -1.256  -2.656  1.00  0.00    -0.003 A 
HETATM   15  C22 UNL     1      -3.836  -0.664  -1.600  1.00  0.00    -0.011 A 
ENDROOT
BRANCH   1  16
HETATM   16  C8  UNL     1       0.934   0.965  -1.569  1.00  0.00     0.101 C 
BRANCH  16  17
HETATM   17  C7  UNL     1       0.606  -0.358  -0.934  1.00  0.00     0.152 C 
HETATM   18  N1  UNL     1       0.457  -1.753  -0.750  1.00  0.00    -0.372 N 
HETATM   19  H14 UNL     1       0.840  -1.914  -1.729  1.00  0.00     0.161 HD
HETATM   20  O1  UNL     1       0.294   0.527  -0.011  1.00  0.00    -0.177 OA
BRANCH  18  21
HETATM   21  C6  UNL     1      -0.079  -2.146   0.537  1.00  0.00     0.121 C 
BRANCH  21  22
HETATM   22  C5  UNL     1       0.780  -1.704   1.656  1.00  0.00     0.020 C 
BRANCH  22  23
HETATM   23  C4  UNL     1       2.174  -2.297   1.490  1.00  0.00     0.002 C 
BRANCH  23  24
HETATM   24  C3  UNL     1       3.046  -1.800   2.630  1.00  0.00    -0.000 C 
BRANCH  24  25
HETATM   25  C2  UNL     1       4.440  -2.320   2.558  1.00  0.00    -0.005 C 
HETATM   26  C1  UNL     1       4.585  -3.804   2.639  1.00  0.00     0.005 C 
ENDBRANCH  24  25
ENDBRANCH  23  24
ENDBRANCH  22  23
ENDBRANCH  21  22
ENDBRANCH  18  21
ENDBRANCH  16  17
ENDBRANCH   1  16
BRANCH   3  27
HETATM   27  O2  UNL     1       0.961   4.257   0.940  1.00  0.00    -0.384 OA
HETATM   28  H18 UNL     1       1.169   5.129   0.449  1.00  0.00     0.211 HD
ENDBRANCH   3  27
TORSDOF 8
