REMARK  6 active torsions:
REMARK  status: ('A' for Active; 'I' for Inactive)
REMARK    1  A    between atoms: C2_2  and  C3_3 
REMARK    2  A    between atoms: C4_4  and  C5_5 
REMARK    3  A    between atoms: C5_5  and  C6_6 
REMARK    4  A    between atoms: C6_6  and  N1_7 
REMARK       I    between atoms: N1_7  and  C7_8 
REMARK    5  A    between atoms: C7_8  and  C8_10 
REMARK    6  A    between atoms: C8_10  and  C9_11 
ROOT
HETATM    1  C9  UNL     1      -1.475  -0.375   1.119  1.00  0.00    -0.047 C 
HETATM    2  C10 UNL     1      -1.549  -1.693   1.381  1.00  0.00     0.006 C 
HETATM    3  C11 UNL     1      -2.670  -2.629   1.627  1.00  0.00     0.004 C 
HETATM    4  C12 UNL     1      -3.967  -2.432   1.561  1.00  0.00     0.055 C 
HETATM    5  C13 UNL     1      -5.384  -2.283   1.509  1.00  0.00     0.172 C 
HETATM    6  O2  UNL     1      -6.340  -2.949   1.853  1.00  0.00    -0.289 OA
HETATM    7  C14 UNL     1      -6.107  -1.151   0.911  1.00  0.00     0.055 C 
HETATM    8  C15 UNL     1      -5.520  -0.222   0.243  1.00  0.00     0.018 C 
HETATM    9  C16 UNL     1      -4.963   0.908  -0.545  1.00  0.00    -0.003 A 
HETATM   10  C17 UNL     1      -5.916   1.165  -1.535  1.00  0.00     0.014 A 
HETATM   11  C18 UNL     1      -5.832   2.150  -2.515  1.00  0.00     0.001 A 
HETATM   12  C19 UNL     1      -4.669   2.851  -2.384  1.00  0.00     0.003 A 
HETATM   13  C20 UNL     1      -3.708   2.641  -1.439  1.00  0.00     0.037 A 
HETATM   14  C21 UNL     1      -3.811   1.685  -0.503  1.00  0.00     0.079 A 
HETATM   15  O3  UNL     1      -3.199   1.183   0.485  1.00  0.00    -0.346 OA
HETATM   16  C22 UNL     1      -2.612   0.529   1.430  1.00  0.00     0.210 C 
ENDROOT
BRANCH   1  17
HETATM   17  C8  UNL     1      -0.254   0.384   0.861  1.00  0.00     0.139 C 
BRANCH  17  18
HETATM   18  C7  UNL     1       0.967  -0.451   0.865  1.00  0.00     0.221 C 
HETATM   19  N1  UNL     1       2.156   0.374   0.764  1.00  0.00    -0.361 N 
HETATM   20  H14 UNL     1       2.058   1.436   0.712  1.00  0.00     0.162 HD
HETATM   21  O1  UNL     1       1.393  -1.628   0.922  1.00  0.00    -0.273 OA
BRANCH  19  22
HETATM   22  C6  UNL     1       3.582  -0.085   0.717  1.00  0.00     0.122 C 
BRANCH  22  23
HETATM   23  C5  UNL     1       3.854  -0.896  -0.487  1.00  0.00     0.020 C 
BRANCH  23  24
HETATM   24  C4  UNL     1       5.180  -1.447  -0.688  1.00  0.00     0.002 C 
HETATM   25  C3  UNL     1       6.440  -0.797  -0.936  1.00  0.00    -0.000 C 
BRANCH  25  26
HETATM   26  C2  UNL     1       7.144   0.166  -0.101  1.00  0.00    -0.005 C 
HETATM   27  C1  UNL     1       6.555   1.517   0.123  1.00  0.00     0.005 C 
ENDBRANCH  25  26
ENDBRANCH  23  24
ENDBRANCH  22  23
ENDBRANCH  19  22
ENDBRANCH  17  18
ENDBRANCH   1  17
TORSDOF 6
