REMARK  11 active torsions:
REMARK  status: ('A' for Active; 'I' for Inactive)
REMARK    1  A    between atoms: C2_2  and  C3_3 
REMARK    2  A    between atoms: C3_3  and  C4_4 
REMARK    3  A    between atoms: C4_4  and  C5_5 
REMARK    4  A    between atoms: C5_5  and  N1_6 
REMARK       I    between atoms: N1_6  and  C6_7 
REMARK    5  A    between atoms: C6_7  and  C7_9 
REMARK    6  A    between atoms: C7_9  and  O2_10 
REMARK    7  A    between atoms: O2_10  and  C8_11 
REMARK    8  A    between atoms: C9_12  and  C10_13 
REMARK    9  A    between atoms: C10_13  and  C11_14 
REMARK   10  A    between atoms: C11_14  and  O3_15 
REMARK   11  A    between atoms: C15_20  and  O5_21 
ROOT
HETATM    1  C8  UNL     1      -1.609   0.475  -0.381  1.00  0.00     0.074 C 
HETATM    2  C9  UNL     1      -2.587  -0.270   0.180  1.00  0.00    -0.038 C 
HETATM    3  C12 UNL     1      -3.786   0.600   0.141  1.00  0.00     0.115 C 
HETATM    4  C13 UNL     1      -4.086   1.184   1.429  1.00  0.00     0.135 C 
HETATM    5  O4  UNL     1      -3.757   0.527   2.407  1.00  0.00    -0.298 OA
HETATM    6  C14 UNL     1      -4.750   2.508   1.352  1.00  0.00     0.139 C 
HETATM    7  C15 UNL     1      -4.598   3.136  -0.035  1.00  0.00     0.269 C 
HETATM    8  O6  UNL     1      -3.352   3.066  -0.493  1.00  0.00    -0.332 OA
HETATM    9  C16 UNL     1      -2.175   2.999  -0.926  1.00  0.00     0.141 C 
HETATM   10  C17 UNL     1      -1.498   1.849  -0.837  1.00  0.00     0.061 C 
ENDROOT
BRANCH   1  11
HETATM   11  O2  UNL     1      -0.403  -0.231  -0.552  1.00  0.00    -0.342 OA
BRANCH  11  12
HETATM   12  C7  UNL     1      -0.148  -0.912  -1.764  1.00  0.00     0.278 C 
BRANCH  12  13
HETATM   13  C6  UNL     1       1.312  -1.289  -1.720  1.00  0.00     0.241 C 
HETATM   14  N1  UNL     1       2.150  -0.949  -0.594  1.00  0.00    -0.359 N 
HETATM   15  H12 UNL     1       1.729  -0.423   0.225  1.00  0.00     0.162 HD
HETATM   16  O1  UNL     1       1.991  -1.911  -2.582  1.00  0.00    -0.271 OA
BRANCH  14  17
HETATM   17  C5  UNL     1       3.506  -1.411  -0.783  1.00  0.00     0.122 C 
BRANCH  17  18
HETATM   18  C4  UNL     1       4.349  -1.026   0.414  1.00  0.00     0.020 C 
BRANCH  18  19
HETATM   19  C3  UNL     1       5.765  -1.515   0.209  1.00  0.00     0.001 C 
BRANCH  19  20
HETATM   20  C2  UNL     1       6.563  -1.091   1.442  1.00  0.00    -0.004 C 
HETATM   21  C1  UNL     1       6.516   0.414   1.548  1.00  0.00     0.005 C 
ENDBRANCH  19  20
ENDBRANCH  18  19
ENDBRANCH  17  18
ENDBRANCH  14  17
ENDBRANCH  12  13
ENDBRANCH  11  12
ENDBRANCH   1  11
BRANCH   2  22
HETATM   22  C10 UNL     1      -2.323  -1.665   0.561  1.00  0.00     0.063 C 
BRANCH  22  23
HETATM   23  C11 UNL     1      -3.184  -2.657  -0.189  1.00  0.00     0.168 C 
BRANCH  23  24
HETATM   24  O3  UNL     1      -4.522  -2.439   0.059  1.00  0.00    -0.401 OA
HETATM   25  H19 UNL     1      -5.084  -2.865  -0.660  1.00  0.00     0.209 HD
ENDBRANCH  23  24
ENDBRANCH  22  23
ENDBRANCH   2  22
BRANCH   7  26
HETATM   26  O5  UNL     1      -5.115   4.427  -0.016  1.00  0.00    -0.370 OA
HETATM   27  H25 UNL     1      -4.580   5.063  -0.562  1.00  0.00     0.212 HD
ENDBRANCH   7  26
TORSDOF 11
