REMARK  11 active torsions:
REMARK  status: ('A' for Active; 'I' for Inactive)
REMARK    1  A    between atoms: C2_2  and  C3_3 
REMARK    2  A    between atoms: C3_3  and  C4_4 
REMARK    3  A    between atoms: C4_4  and  C5_5 
REMARK    4  A    between atoms: C5_5  and  C6_6 
REMARK    5  A    between atoms: C6_6  and  C7_7 
REMARK    6  A    between atoms: C7_7  and  N1_8 
REMARK       I    between atoms: N1_8  and  C8_9 
REMARK    7  A    between atoms: C8_9  and  C9_11 
REMARK    8  A    between atoms: C9_11  and  C10_12 
REMARK    9  A    between atoms: C10_12  and  O2_13 
REMARK   10  A    between atoms: O2_13  and  C11_14 
REMARK   11  A    between atoms: C20_25  and  O5_26 
ROOT
HETATM    1  C11 UNL     1      -2.842   1.104  -0.369  1.00  0.00     0.081 A 
HETATM    2  C12 UNL     1      -2.962  -0.366  -0.463  1.00  0.00     0.050 A 
HETATM    3  C13 UNL     1      -4.304  -0.344  -0.605  1.00  0.00    -0.017 A 
HETATM    4  C14 UNL     1      -5.609  -0.035  -0.723  1.00  0.00     0.059 A 
HETATM    5  C15 UNL     1      -6.801  -0.623  -0.865  1.00  0.00     0.187 A 
HETATM    6  O3  UNL     1      -6.701  -1.877  -0.925  1.00  0.00    -0.287 OA
HETATM    7  C16 UNL     1      -7.937   0.148  -0.928  1.00  0.00     0.080 A 
HETATM    8  C17 UNL     1      -7.715   1.490  -0.834  1.00  0.00     0.146 A 
HETATM    9  O4  UNL     1      -6.516   1.963  -0.696  1.00  0.00    -0.321 OA
HETATM   10  C18 UNL     1      -5.446   1.314  -0.631  1.00  0.00     0.101 A 
HETATM   11  C19 UNL     1      -4.135   1.446  -0.491  1.00  0.00     0.039 A 
HETATM   12  C20 UNL     1      -4.114   2.682  -1.415  1.00  0.00     0.162 C 
HETATM   13  C21 UNL     1      -4.367   1.961  -2.810  1.00  0.00     0.035 C 
HETATM   14  C22 UNL     1      -4.465   0.585  -2.692  1.00  0.00     0.023 C 
HETATM   15  C23 UNL     1      -4.607  -0.879  -2.857  1.00  0.00    -0.020 C 
HETATM   16  C24 UNL     1      -4.507  -1.515  -1.597  1.00  0.00     0.009 C 
ENDROOT
BRANCH   1  17
HETATM   17  O2  UNL     1      -1.727   1.841  -0.209  1.00  0.00    -0.350 OA
BRANCH  17  18
HETATM   18  C10 UNL     1      -0.432   1.429  -0.089  1.00  0.00     0.185 C 
BRANCH  18  19
HETATM   19  C9  UNL     1      -0.116   0.564   1.082  1.00  0.00     0.129 C 
BRANCH  19  20
HETATM   20  C8  UNL     1       1.315   0.165   1.116  1.00  0.00     0.219 C 
HETATM   21  N1  UNL     1       2.022  -0.607   2.062  1.00  0.00    -0.361 N 
HETATM   22  H16 UNL     1       1.398  -0.929   2.848  1.00  0.00     0.162 HD
HETATM   23  O1  UNL     1       1.768   0.706   0.051  1.00  0.00    -0.274 OA
BRANCH  21  24
HETATM   24  C7  UNL     1       3.438  -0.739   1.665  1.00  0.00     0.122 C 
BRANCH  24  25
HETATM   25  C6  UNL     1       4.194  -1.546   2.644  1.00  0.00     0.020 C 
BRANCH  25  26
HETATM   26  C5  UNL     1       5.604  -1.792   2.332  1.00  0.00     0.002 C 
BRANCH  26  27
HETATM   27  C4  UNL     1       6.606  -0.730   2.212  1.00  0.00     0.000 C 
BRANCH  27  28
HETATM   28  C3  UNL     1       6.506   0.318   1.182  1.00  0.00    -0.000 C 
BRANCH  28  29
HETATM   29  C2  UNL     1       6.472  -0.297  -0.224  1.00  0.00    -0.005 C 
HETATM   30  C1  UNL     1       7.751  -1.081  -0.437  1.00  0.00     0.005 C 
ENDBRANCH  28  29
ENDBRANCH  27  28
ENDBRANCH  26  27
ENDBRANCH  25  26
ENDBRANCH  24  25
ENDBRANCH  21  24
ENDBRANCH  19  20
ENDBRANCH  18  19
ENDBRANCH  17  18
ENDBRANCH   1  17
BRANCH  12  31
HETATM   31  O5  UNL     1      -5.191   3.465  -1.213  1.00  0.00    -0.390 OA
HETATM   32  H25 UNL     1      -5.066   4.272  -0.686  1.00  0.00     0.210 HD
ENDBRANCH  12  31
TORSDOF 11
