REMARK  6 active torsions:
REMARK  status: ('A' for Active; 'I' for Inactive)
REMARK    1  A    between atoms: C3_3  and  C4_4 
REMARK    2  A    between atoms: C12_12  and  O1_13 
REMARK    3  A    between atoms: O1_13  and  C13_14 
REMARK    4  A    between atoms: C13_14  and  C14_15 
REMARK    5  A    between atoms: C14_15  and  C15_16 
REMARK    6  A    between atoms: C17_19  and  O3_20 
ROOT
HETATM    1  C4  UNL     1       2.993   1.317   0.150  1.00  0.00     0.037 C 
HETATM    2  C5  UNL     1       2.077   0.639  -0.459  1.00  0.00     0.075 C 
HETATM    3  C6  UNL     1       2.423  -0.710  -1.063  1.00  0.00     0.034 C 
HETATM    4  C7  UNL     1       1.603  -1.790  -1.333  1.00  0.00    -0.016 C 
HETATM    5  C8  UNL     1       0.198  -1.779  -1.124  1.00  0.00     0.047 C 
HETATM    6  C9  UNL     1      -0.285  -0.535  -1.959  1.00  0.00     0.076 C 
HETATM    7  C10 UNL     1      -0.394   0.398  -0.732  1.00  0.00     0.057 C 
HETATM    8  C11 UNL     1      -1.456   0.403   0.070  1.00  0.00     0.069 C 
HETATM    9  C12 UNL     1      -2.310  -0.816   0.233  1.00  0.00     0.069 C 
HETATM   10  C16 UNL     1      -2.045  -2.017  -0.344  1.00  0.00     0.042 C 
HETATM   11  C17 UNL     1      -0.875  -2.657  -1.092  1.00  0.00     0.151 C 
HETATM   12  O4  UNL     1       0.737   1.240  -0.521  1.00  0.00    -0.315 OA
ENDROOT
BRANCH   9  13
HETATM   13  O1  UNL     1      -3.325  -0.410   1.046  1.00  0.00    -0.351 OA
BRANCH  13  14
HETATM   14  C13 UNL     1      -4.169   0.642   0.549  1.00  0.00     0.182 C 
BRANCH  14  15
HETATM   15  C14 UNL     1      -5.283   0.932   1.525  1.00  0.00     0.096 C 
BRANCH  15  16
HETATM   16  C15 UNL     1      -6.117   2.031   0.948  1.00  0.00     0.233 C 
HETATM   17  O2  UNL     1      -5.635   3.156   1.023  1.00  0.00    -0.307 OA
ENDBRANCH  15  16
ENDBRANCH  14  15
ENDBRANCH  13  14
ENDBRANCH   9  13
BRANCH  11  18
HETATM   18  O3  UNL     1      -0.655  -3.913  -0.516  1.00  0.00    -0.391 OA
HETATM   19  H20 UNL     1      -0.531  -3.775   0.470  1.00  0.00     0.210 HD
ENDBRANCH  11  18
BRANCH   1  20
HETATM   20  C3  UNL     1       4.350   0.881   0.305  1.00  0.00    -0.002 C 
HETATM   21  C2  UNL     1       5.228   1.653   0.953  1.00  0.00    -0.031 C 
HETATM   22  C1  UNL     1       6.641   1.370   1.204  1.00  0.00     0.036 C 
ENDBRANCH   1  20
TORSDOF 6
