REMARK  10 active torsions:
REMARK  status: ('A' for Active; 'I' for Inactive)
REMARK    1  A    between atoms: C2_2  and  C3_3 
REMARK    2  A    between atoms: C3_3  and  C4_4 
REMARK    3  A    between atoms: C4_4  and  C5_5 
REMARK    4  A    between atoms: C5_5  and  C6_6 
REMARK    5  A    between atoms: C6_6  and  C7_7 
REMARK    6  A    between atoms: C7_7  and  C8_8 
REMARK    7  A    between atoms: C8_8  and  N1_9 
REMARK       I    between atoms: N1_9  and  C9_10 
REMARK    8  A    between atoms: C9_10  and  C10_12 
REMARK    9  A    between atoms: C10_12  and  C11_13 
REMARK   10  A    between atoms: C23_26  and  O3_27 
ROOT
HETATM    1  C11 UNL     1      -2.624  -0.228  -0.624  1.00  0.00    -0.052 C 
HETATM    2  C12 UNL     1      -3.764  -0.833  -0.298  1.00  0.00     0.001 C 
HETATM    3  C13 UNL     1      -4.801  -0.160   0.388  1.00  0.00     0.069 C 
HETATM    4  C14 UNL     1      -4.203   0.231   1.693  1.00  0.00     0.031 C 
HETATM    5  C15 UNL     1      -6.004  -0.794   1.012  1.00  0.00     0.164 C 
HETATM    6  O2  UNL     1      -6.729  -1.680   1.385  1.00  0.00    -0.292 OA
HETATM    7  C16 UNL     1      -6.662   0.544   1.372  1.00  0.00     0.060 C 
HETATM    8  C17 UNL     1      -6.143   1.552   0.604  1.00  0.00    -0.028 C 
HETATM    9  C18 UNL     1      -5.710   2.858   0.031  1.00  0.00    -0.011 C 
HETATM   10  C19 UNL     1      -4.386   2.957   0.239  1.00  0.00     0.020 C 
HETATM   11  C20 UNL     1      -3.025   3.420   0.260  1.00  0.00     0.036 C 
HETATM   12  C21 UNL     1      -2.068   2.375  -0.280  1.00  0.00    -0.025 C 
HETATM   13  C22 UNL     1      -1.976   1.085  -0.584  1.00  0.00     0.003 C 
HETATM   14  C23 UNL     1      -5.596   0.642  -0.491  1.00  0.00     0.170 C 
ENDROOT
BRANCH   1  15
HETATM   15  C10 UNL     1      -1.682  -1.184  -1.343  1.00  0.00     0.141 C 
BRANCH  15  16
HETATM   16  C9  UNL     1      -0.391  -1.246  -0.546  1.00  0.00     0.221 C 
HETATM   17  N1  UNL     1       0.734  -1.974  -0.976  1.00  0.00    -0.361 N 
HETATM   18  H18 UNL     1       0.606  -2.477  -1.876  1.00  0.00     0.162 HD
HETATM   19  O1  UNL     1      -0.282  -0.625   0.565  1.00  0.00    -0.273 OA
BRANCH  17  20
HETATM   20  C8  UNL     1       1.808  -1.809   0.021  1.00  0.00     0.122 C 
BRANCH  20  21
HETATM   21  C7  UNL     1       3.073  -2.504  -0.361  1.00  0.00     0.020 C 
BRANCH  21  22
HETATM   22  C6  UNL     1       4.179  -2.307   0.655  1.00  0.00     0.002 C 
BRANCH  22  23
HETATM   23  C5  UNL     1       4.506  -0.850   0.860  1.00  0.00     0.000 C 
BRANCH  23  24
HETATM   24  C4  UNL     1       4.927  -0.173  -0.413  1.00  0.00     0.000 C 
BRANCH  24  25
HETATM   25  C3  UNL     1       6.144  -0.747  -1.056  1.00  0.00    -0.000 C 
BRANCH  25  26
HETATM   26  C2  UNL     1       7.389  -0.677  -0.223  1.00  0.00    -0.005 C 
HETATM   27  C1  UNL     1       7.744   0.766   0.110  1.00  0.00     0.005 C 
ENDBRANCH  25  26
ENDBRANCH  24  25
ENDBRANCH  23  24
ENDBRANCH  22  23
ENDBRANCH  21  22
ENDBRANCH  20  21
ENDBRANCH  17  20
ENDBRANCH  15  16
ENDBRANCH   1  15
BRANCH  14  28
HETATM   28  O3  UNL     1      -5.138   1.226  -1.603  1.00  0.00    -0.389 OA
HETATM   29  H33 UNL     1      -5.628   2.032  -1.815  1.00  0.00     0.210 HD
ENDBRANCH  14  28
TORSDOF 10
