REMARK  1 active torsions:
REMARK  status: ('A' for Active; 'I' for Inactive)
REMARK    1  A    between atoms: C12_16  and  C13_17 
ROOT
HETATM    1  O1  UNL     1      -2.959   1.159  -0.450  1.00  0.00    -0.239 OA
HETATM    2  C1  UNL     1      -2.673   0.535  -1.486  1.00  0.00     0.360 C 
HETATM    3  N1  UNL     1      -3.983   0.060  -1.510  1.00  0.00    -0.337 N 
HETATM    4  C2  UNL     1      -5.230   0.116  -0.833  1.00  0.00     0.126 C 
HETATM    5  C3  UNL     1      -5.282  -0.308   0.585  1.00  0.00     0.032 C 
HETATM    6  C4  UNL     1      -4.884  -1.699   0.921  1.00  0.00     0.096 C 
HETATM    7  C5  UNL     1      -3.531  -2.065   0.775  1.00  0.00    -0.102 C 
HETATM    8  C6  UNL     1      -2.425  -2.365   0.676  1.00  0.00    -0.076 C 
HETATM    9  C7  UNL     1      -1.113  -2.720   0.582  1.00  0.00     0.101 C 
HETATM   10  C8  UNL     1      -0.200  -1.795   0.428  1.00  0.00     0.079 C 
HETATM   11  C9  UNL     1      -0.522  -0.348   0.344  1.00  0.00     0.072 C 
HETATM   12  C10 UNL     1       0.088   0.453  -0.568  1.00  0.00     0.080 C 
HETATM   13  C11 UNL     1      -0.373   1.067  -1.864  1.00  0.00     0.245 C 
HETATM   14  O2  UNL     1      -1.549   0.391  -2.259  1.00  0.00    -0.298 OA
HETATM   15  O3  UNL     1       1.434   0.861  -0.369  1.00  0.00    -0.312 OA
HETATM   16  C12 UNL     1       2.633   0.185  -0.048  1.00  0.00     0.084 C 
HETATM   17  C19 UNL     1       2.908  -1.123   0.123  1.00  0.00     0.037 C 
HETATM   18  C20 UNL     1       2.314  -2.338   0.672  1.00  0.00     0.206 C 
HETATM   19  O4  UNL     1       0.958  -2.554   0.388  1.00  0.00    -0.347 OA
HETATM   20  H1  UNL     1      -3.957  -0.546  -2.354  1.00  0.00     0.164 HD
ENDROOT
BRANCH  16  21
HETATM   21  C13 UNL     1       3.749   1.105   0.121  1.00  0.00    -0.003 A 
HETATM   22  C14 UNL     1       5.027   0.770   0.471  1.00  0.00     0.014 A 
HETATM   23  C15 UNL     1       6.099   1.618   0.627  1.00  0.00     0.001 A 
HETATM   24  C16 UNL     1       5.857   2.979   0.403  1.00  0.00     0.000 A 
HETATM   25  C17 UNL     1       4.581   3.358   0.048  1.00  0.00     0.001 A 
HETATM   26  C18 UNL     1       3.518   2.460  -0.100  1.00  0.00     0.014 A 
ENDBRANCH  16  21
TORSDOF 1
