REMARK  2 active torsions:
REMARK  status: ('A' for Active; 'I' for Inactive)
REMARK    1  A    between atoms: S1_2  and  N1_5 
REMARK    2  A    between atoms: N1_5  and  C2_6 
ROOT
HETATM    1  C2  UNL     1       3.506  -1.363  -0.072  1.00  0.00     0.043 A 
HETATM    2  C3  UNL     1       3.153  -1.119  -1.375  1.00  0.00     0.033 A 
HETATM    3  C4  UNL     1       1.844  -0.785  -1.694  1.00  0.00     0.040 A 
HETATM    4  C5  UNL     1       0.870  -0.694  -0.697  1.00  0.00     0.086 A 
HETATM    5  C6  UNL     1       1.236  -0.945   0.644  1.00  0.00     0.006 A 
HETATM    6  C7  UNL     1       2.542  -1.271   0.906  1.00  0.00     0.041 A 
HETATM    7  C8  UNL     1       0.077  -0.783   1.580  1.00  0.00     0.311 C 
HETATM    8  N2  UNL     1      -1.136  -0.885   0.813  1.00  0.00     0.093 N 
HETATM    9  C9  UNL     1      -2.235  -0.332   1.514  1.00  0.00     0.328 C 
HETATM   10  C10 UNL     1      -3.447  -0.241   0.627  1.00  0.00     0.055 A 
HETATM   11  C11 UNL     1      -4.553  -0.806   1.020  1.00  0.00     0.017 A 
HETATM   12 BR1  UNL     1      -4.504  -1.696   2.697  1.00  0.00    -0.053 Br
HETATM   13  C12 UNL     1      -5.840  -0.828   0.301  1.00  0.00     0.077 A 
HETATM   14  C13 UNL     1      -5.718  -0.106  -0.958  1.00  0.00    -0.004 A 
HETATM   15  C14 UNL     1      -4.594   0.449  -1.322  1.00  0.00     0.090 A 
HETATM   16  N3  UNL     1      -3.341   0.453  -0.593  1.00  0.00    -0.327 N 
HETATM   17  C15 UNL     1      -2.348   1.179  -1.345  1.00  0.00     0.291 A 
HETATM   18  N4  UNL     1      -2.449   2.594  -0.975  1.00  0.00    -0.248 NA
HETATM   19  C16 UNL     1      -1.316   3.012  -0.533  1.00  0.00     0.232 A 
HETATM   20  N5  UNL     1      -0.369   1.924  -0.569  1.00  0.00    -0.218 NA
HETATM   21  C17 UNL     1      -0.944   0.879  -1.028  1.00  0.00     0.192 A 
HETATM   22  O3  UNL     1      -0.355  -0.358  -1.209  1.00  0.00    -0.291 OA
HETATM   23  H10 UNL     1      -1.284  -1.805   0.390  1.00  0.00     0.316 HD
ENDROOT
BRANCH   1  24
HETATM   24  N1  UNL     1       4.820  -1.711   0.332  1.00  0.00    -0.285 N 
HETATM   25  H4  UNL     1       4.875  -2.518   1.024  1.00  0.00     0.178 HD
BRANCH  24  26
HETATM   26  S1  UNL     1       6.268  -0.966  -0.185  1.00  0.00     0.227 S 
HETATM   27  C1  UNL     1       6.259   0.753   0.295  1.00  0.00     0.186 C 
HETATM   28  O1  UNL     1       7.455  -1.613   0.469  1.00  0.00    -0.206 OA
HETATM   29  O2  UNL     1       6.410  -1.035  -1.699  1.00  0.00    -0.206 OA
ENDBRANCH  24  26
ENDBRANCH   1  24
TORSDOF 2
