REMARK  1 active torsions:
REMARK  status: ('A' for Active; 'I' for Inactive)
REMARK    1  A    between atoms: C10_13  and  C11_14 
ROOT
HETATM    1  O1  UNL     1      -3.503  -0.044   2.978  1.00  0.00    -0.296 OA
HETATM    2  C1  UNL     1      -3.038   0.038   1.856  1.00  0.00     0.150 C 
HETATM    3  C2  UNL     1      -3.019   0.922   0.652  1.00  0.00     0.081 C 
HETATM    4  C3  UNL     1      -1.754   1.674   0.504  1.00  0.00     0.010 C 
HETATM    5  C4  UNL     1      -1.408   1.969  -0.980  1.00  0.00     0.040 C 
HETATM    6  C5  UNL     1      -0.990   0.688  -1.549  1.00  0.00     0.194 C 
HETATM    7  O2  UNL     1      -2.061  -0.261  -1.377  1.00  0.00    -0.374 OA
HETATM    8  C6  UNL     1      -1.865  -1.149  -2.500  1.00  0.00     0.198 C 
HETATM    9  C7  UNL     1      -0.908  -2.195  -1.913  1.00  0.00     0.033 C 
HETATM   10  C8  UNL     1      -0.833  -1.916  -0.575  1.00  0.00     0.068 C 
HETATM   11  C9  UNL     1      -0.040  -2.489   0.629  1.00  0.00     0.233 C 
HETATM   12  O3  UNL     1       0.629  -1.298   1.060  1.00  0.00    -0.367 OA
HETATM   13  C10 UNL     1       1.283  -0.710   0.013  1.00  0.00     0.227 C 
HETATM   14  C17 UNL     1       0.254   0.118  -0.850  1.00  0.00     0.188 C 
HETATM   15  O4  UNL     1       1.016   0.942  -1.373  1.00  0.00    -0.292 OA
HETATM   16  O5  UNL     1      -1.509  -0.989   0.242  1.00  0.00    -0.346 OA
HETATM   17  C18 UNL     1      -2.151  -1.111   1.428  1.00  0.00     0.253 C 
ENDROOT
BRANCH  13  18
HETATM   18  C11 UNL     1       2.411   0.058   0.330  1.00  0.00    -0.022 A 
HETATM   19  C12 UNL     1       2.372   0.940   1.369  1.00  0.00     0.010 A 
HETATM   20  C13 UNL     1       3.477   1.718   1.710  1.00  0.00     0.001 A 
HETATM   21  C14 UNL     1       4.638   1.573   0.957  1.00  0.00     0.000 A 
HETATM   22  C15 UNL     1       4.711   0.686  -0.105  1.00  0.00     0.001 A 
HETATM   23  C16 UNL     1       3.586  -0.069  -0.411  1.00  0.00     0.010 A 
ENDBRANCH  13  18
TORSDOF 1
