REMARK  0 active torsions:
REMARK  status: ('A' for Active; 'I' for Inactive)
ROOT
HETATM    1  C1  UNL     1      -0.015  -3.503  -1.072  1.00  0.00     0.020 C 
HETATM    2  C2  UNL     1       0.208  -2.344  -0.503  1.00  0.00    -0.054 C 
HETATM    3  C3  UNL     1       1.509  -1.719  -0.288  1.00  0.00     0.039 C 
HETATM    4  C4  UNL     1       2.696  -2.662  -0.343  1.00  0.00     0.005 C 
HETATM    5  C5  UNL     1       3.922  -1.882   0.164  1.00  0.00     0.000 C 
HETATM    6  C6  UNL     1       4.403  -0.880  -0.867  1.00  0.00     0.002 C 
HETATM    7  C7  UNL     1       5.340   0.117  -0.263  1.00  0.00     0.019 C 
HETATM    8  C8  UNL     1       4.610   1.208   0.522  1.00  0.00     0.113 C 
HETATM    9  N1  UNL     1       3.961   2.157  -0.225  1.00  0.00    -0.419 N 
HETATM   10  C9  UNL     1       2.828   2.206  -0.968  1.00  0.00     0.140 C 
HETATM   11  C10 UNL     1       1.462   2.318  -0.382  1.00  0.00     0.188 C 
HETATM   12  O1  UNL     1       0.820   1.617   0.391  1.00  0.00    -0.377 OA
HETATM   13  C11 UNL     1       0.160   0.896   1.185  1.00  0.00     0.169 C 
HETATM   14  C12 UNL     1      -1.040   1.835   1.641  1.00  0.00     0.033 C 
HETATM   15  C13 UNL     1      -1.851   2.318   0.704  1.00  0.00     0.133 C 
HETATM   16  O2  UNL     1      -2.951   3.068   0.288  1.00  0.00    -0.359 OA
HETATM   17  C14 UNL     1      -3.780   2.684  -0.812  1.00  0.00     0.213 C 
HETATM   18  C15 UNL     1      -4.570   1.460  -0.552  1.00  0.00    -0.034 A 
HETATM   19  C16 UNL     1      -5.890   1.165  -0.827  1.00  0.00     0.009 A 
HETATM   20  C17 UNL     1      -6.461  -0.066  -0.507  1.00  0.00     0.001 A 
HETATM   21  C18 UNL     1      -5.731  -1.084   0.116  1.00  0.00     0.007 A 
HETATM   22  C19 UNL     1      -4.391  -0.937   0.457  1.00  0.00    -0.050 A 
HETATM   23  C20 UNL     1      -4.113   0.327   0.035  1.00  0.00     0.017 A 
HETATM   24  C21 UNL     1      -3.341  -1.694   1.138  1.00  0.00     0.122 C 
HETATM   25  C22 UNL     1      -2.190  -2.175   0.344  1.00  0.00     0.164 C 
HETATM   26  O3  UNL     1      -2.314  -3.232  -0.307  1.00  0.00    -0.292 OA
HETATM   27  C23 UNL     1      -0.824  -1.556   0.196  1.00  0.00     0.015 C 
HETATM   28  C24 UNL     1      -0.530  -0.360   0.733  1.00  0.00     0.024 C 
HETATM   29  H15 UNL     1       4.344   3.152  -0.097  1.00  0.00     0.153 HD
ENDROOT
TORSDOF 0
