REMARK  12 active torsions:
REMARK  status: ('A' for Active; 'I' for Inactive)
REMARK    1  A    between atoms: C2_2  and  C3_3 
REMARK    2  A    between atoms: C3_3  and  C4_4 
REMARK    3  A    between atoms: C4_4  and  C5_5 
REMARK    4  A    between atoms: C5_5  and  C6_6 
REMARK    5  A    between atoms: C6_6  and  C7_7 
REMARK    6  A    between atoms: C7_7  and  C8_8 
REMARK    7  A    between atoms: C8_8  and  C9_9 
REMARK    8  A    between atoms: C9_9  and  N1_10 
REMARK       I    between atoms: N1_10  and  C10_11 
REMARK    9  A    between atoms: C10_11  and  C11_13 
REMARK   10  A    between atoms: C11_13  and  O2_14 
REMARK   11  A    between atoms: O2_14  and  C12_15 
REMARK   12  A    between atoms: C14_17  and  O3_18 
ROOT
HETATM    1  C11 UNL     1       1.990  -0.585  -0.975  1.00  0.00     0.278 C 
ENDROOT
BRANCH   1   2
HETATM    2  C10 UNL     1       0.873  -1.554  -0.894  1.00  0.00     0.241 C 
HETATM    3  N1  UNL     1      -0.290  -1.304  -1.669  1.00  0.00    -0.359 N 
HETATM    4  H20 UNL     1      -0.317  -0.433  -2.278  1.00  0.00     0.162 HD
HETATM    5  O1  UNL     1       0.977  -2.562  -0.153  1.00  0.00    -0.271 OA
BRANCH   3   6
HETATM    6  C9  UNL     1      -1.461  -2.169  -1.685  1.00  0.00     0.122 C 
BRANCH   6   7
HETATM    7  C8  UNL     1      -2.002  -2.228  -0.277  1.00  0.00     0.020 C 
BRANCH   7   8
HETATM    8  C7  UNL     1      -2.359  -0.843   0.180  1.00  0.00     0.002 C 
BRANCH   8   9
HETATM    9  C6  UNL     1      -3.412  -0.262  -0.729  1.00  0.00     0.000 C 
BRANCH   9  10
HETATM   10  C5  UNL     1      -3.814   1.135  -0.287  1.00  0.00     0.000 C 
BRANCH  10  11
HETATM   11  C4  UNL     1      -4.377   1.152   1.109  1.00  0.00     0.000 C 
BRANCH  11  12
HETATM   12  C3  UNL     1      -5.614   0.284   1.231  1.00  0.00    -0.000 C 
BRANCH  12  13
HETATM   13  C2  UNL     1      -6.648   0.838   0.259  1.00  0.00    -0.005 C 
HETATM   14  C1  UNL     1      -7.906  -0.023   0.364  1.00  0.00     0.005 C 
ENDBRANCH  12  13
ENDBRANCH  11  12
ENDBRANCH  10  11
ENDBRANCH   9  10
ENDBRANCH   8   9
ENDBRANCH   7   8
ENDBRANCH   6   7
ENDBRANCH   3   6
ENDBRANCH   1   2
BRANCH   1  15
HETATM   15  O2  UNL     1       3.023  -1.024  -0.140  1.00  0.00    -0.342 OA
BRANCH  15  16
HETATM   16  C12 UNL     1       4.224  -0.337   0.015  1.00  0.00     0.074 A 
HETATM   17  C13 UNL     1       4.390   0.833  -0.697  1.00  0.00     0.074 A 
HETATM   18  C14 UNL     1       5.565   1.548  -0.575  1.00  0.00     0.085 A 
HETATM   19  C15 UNL     1       6.546   1.067   0.263  1.00  0.00     0.081 A 
HETATM   20  C16 UNL     1       7.684   1.822   0.339  1.00  0.00     0.189 A 
HETATM   21  C19 UNL     1       6.337  -0.110   0.958  1.00  0.00     0.094 A 
HETATM   22  O4  UNL     1       7.852   2.878  -0.295  1.00  0.00    -0.287 OA
HETATM   23  C17 UNL     1       8.698   1.369   1.173  1.00  0.00     0.080 A 
HETATM   24  C18 UNL     1       8.417   0.189   1.833  1.00  0.00     0.146 A 
HETATM   25  O5  UNL     1       7.317  -0.527   1.750  1.00  0.00    -0.322 OA
HETATM   26  C20 UNL     1       5.176  -0.860   0.866  1.00  0.00     0.075 A 
BRANCH  18  27
HETATM   27  O3  UNL     1       5.681   2.716  -1.311  1.00  0.00    -0.360 OA
HETATM   28  H24 UNL     1       5.647   2.634  -2.329  1.00  0.00     0.217 HD
ENDBRANCH  18  27
ENDBRANCH  15  16
ENDBRANCH   1  15
TORSDOF 12
