REMARK  4 active torsions:
REMARK  status: ('A' for Active; 'I' for Inactive)
REMARK    1  A    between atoms: C1_2  and  C2_3 
REMARK    2  A    between atoms: C2_3  and  C3_4 
REMARK    3  A    between atoms: C5_6  and  O2_7 
REMARK    4  A    between atoms: C9_12  and  C10_13 
ROOT
HETATM    1  C3  UNL     1       3.158  -0.294   0.545  1.00  0.00    -0.046 A 
HETATM    2  C4  UNL     1       3.320  -1.345  -0.335  1.00  0.00     0.045 A 
HETATM    3  C5  UNL     1       2.239  -1.872  -0.992  1.00  0.00     0.083 A 
HETATM    4  C6  UNL     1       0.993  -1.351  -0.772  1.00  0.00     0.081 A 
HETATM    5  C7  UNL     1      -0.161  -1.810  -1.382  1.00  0.00     0.190 A 
HETATM    6  O3  UNL     1      -0.079  -2.765  -2.194  1.00  0.00    -0.287 OA
HETATM    7  C8  UNL     1      -1.353  -1.186  -1.064  1.00  0.00     0.094 A 
HETATM    8  C9  UNL     1      -1.487  -0.147  -0.189  1.00  0.00     0.090 A 
HETATM    9  O4  UNL     1      -0.372   0.263   0.372  1.00  0.00    -0.309 OA
HETATM   10  C16 UNL     1       0.781  -0.300   0.099  1.00  0.00     0.093 A 
HETATM   11  C17 UNL     1       1.901   0.219   0.755  1.00  0.00     0.045 A 
ENDROOT
BRANCH   8  12
HETATM   12  C10 UNL     1      -2.767   0.483   0.119  1.00  0.00    -0.002 A 
HETATM   13  C11 UNL     1      -3.984   0.118  -0.422  1.00  0.00     0.014 A 
HETATM   14  C12 UNL     1      -5.160   0.758  -0.087  1.00  0.00     0.001 A 
HETATM   15  C13 UNL     1      -5.164   1.810   0.824  1.00  0.00     0.000 A 
HETATM   16  C14 UNL     1      -3.952   2.181   1.369  1.00  0.00     0.001 A 
HETATM   17  C15 UNL     1      -2.789   1.528   1.020  1.00  0.00     0.014 A 
ENDBRANCH   8  12
BRANCH   3  18
HETATM   18  O2  UNL     1       2.328  -2.925  -1.887  1.00  0.00    -0.360 OA
HETATM   19  H5  UNL     1       2.398  -2.797  -2.891  1.00  0.00     0.217 HD
ENDBRANCH   3  18
BRANCH   1  20
HETATM   20  C2  UNL     1       4.360   0.239   1.228  1.00  0.00     0.107 C 
BRANCH  20  21
HETATM   21  C1  UNL     1       4.993   1.336   0.437  1.00  0.00     0.235 C 
HETATM   22  O1  UNL     1       4.074   1.083  -0.304  1.00  0.00    -0.307 OA
ENDBRANCH  20  21
ENDBRANCH   1  20
TORSDOF 4
