REMARK  5 active torsions:
REMARK  status: ('A' for Active; 'I' for Inactive)
REMARK    1  A    between atoms: C7_10  and  N3_11 
REMARK    2  A    between atoms: N3_11  and  C8_12 
REMARK    3  A    between atoms: C11_15  and  O2_16 
REMARK    4  A    between atoms: O2_16  and  C12_17 
REMARK    5  A    between atoms: C12_17  and  C13_18 
ROOT
HETATM    1  O1  UNL     1      -4.892  -1.673   3.459  1.00  0.00    -0.269 OA
HETATM    2  C1  UNL     1      -3.839  -1.611   2.736  1.00  0.00     0.241 C 
HETATM    3  C2  UNL     1      -2.437  -1.870   2.283  1.00  0.00     0.075 C 
HETATM    4  C3  UNL     1      -2.052  -1.288   1.194  1.00  0.00     0.023 C 
HETATM    5  C4  UNL     1      -2.143  -0.470   0.043  1.00  0.00     0.040 A 
HETATM    6  C5  UNL     1      -3.239   0.017  -0.608  1.00  0.00     0.064 A 
HETATM    7  C6  UNL     1      -3.068   0.784  -1.745  1.00  0.00     0.171 A 
HETATM    8  N1  UNL     1      -1.809   1.035  -2.182  1.00  0.00    -0.158 NA
HETATM    9  N2  UNL     1      -0.745   0.581  -1.571  1.00  0.00    -0.131 NA
HETATM   10  C7  UNL     1      -0.911  -0.162  -0.474  1.00  0.00     0.163 A 
HETATM   11  N5  UNL     1      -4.657   0.011  -0.467  1.00  0.00    -0.368 N 
HETATM   12  C20 UNL     1      -5.237  -0.902  -1.421  1.00  0.00     0.150 C 
HETATM   13  C21 UNL     1      -6.551  -0.463  -2.006  1.00  0.00     0.187 C 
HETATM   14  O3  UNL     1      -7.449  -0.182  -0.972  1.00  0.00    -0.387 OA
HETATM   15  C22 UNL     1      -6.919   0.960  -0.365  1.00  0.00     0.194 C 
HETATM   16  C23 UNL     1      -5.657   0.711   0.358  1.00  0.00     0.126 C 
HETATM   17  C24 UNL     1      -5.985  -0.013   1.635  1.00  0.00     0.150 C 
HETATM   18  N6  UNL     1      -4.894  -0.799   2.155  1.00  0.00    -0.356 N 
HETATM   19  H23 UNL     1      -4.208  -0.560   1.417  1.00  0.00     0.162 HD
ENDROOT
BRANCH  10  20
HETATM   20  N3  UNL     1       0.331  -0.587   0.060  1.00  0.00    -0.339 N 
HETATM   21  H4  UNL     1       0.457  -1.234   0.864  1.00  0.00     0.167 HD
BRANCH  20  22
HETATM   22  C8  UNL     1       1.629  -0.192  -0.406  1.00  0.00     0.035 A 
HETATM   23  C9  UNL     1       2.686  -1.110  -0.373  1.00  0.00     0.032 A 
HETATM   24  C10 UNL     1       3.921  -0.696  -0.806  1.00  0.00     0.041 A 
HETATM   25  C11 UNL     1       4.193   0.542  -1.264  1.00  0.00     0.091 A 
HETATM   26  C18 UNL     1       3.121   1.447  -1.289  1.00  0.00     0.069 A 
HETATM   27 CL1  UNL     1       3.272   3.123  -1.858  1.00  0.00    -0.081 Cl
HETATM   28  C19 UNL     1       1.824   1.118  -0.868  1.00  0.00     0.056 A 
BRANCH  25  29
HETATM   29  O2  UNL     1       5.288   1.100  -1.707  1.00  0.00    -0.344 OA
BRANCH  29  30
HETATM   30  C12 UNL     1       6.586   1.014  -1.989  1.00  0.00     0.235 C 
BRANCH  30  31
HETATM   31  C13 UNL     1       7.467   0.726  -0.826  1.00  0.00     0.058 A 
HETATM   32  C14 UNL     1       7.536  -0.407  -0.057  1.00  0.00     0.029 A 
HETATM   33  C15 UNL     1       8.388  -0.617   0.988  1.00  0.00     0.003 A 
HETATM   34  C16 UNL     1       9.279   0.371   1.340  1.00  0.00     0.019 A 
HETATM   35  C17 UNL     1       9.219   1.503   0.579  1.00  0.00     0.117 A 
HETATM   36  N4  UNL     1       8.377   1.666  -0.425  1.00  0.00    -0.263 NA
ENDBRANCH  30  31
ENDBRANCH  29  30
ENDBRANCH  25  29
ENDBRANCH  20  22
ENDBRANCH  10  20
TORSDOF 5
