REMARK  10 active torsions:
REMARK  status: ('A' for Active; 'I' for Inactive)
REMARK    1  A    between atoms: C2_2  and  O1_3 
REMARK    2  A    between atoms: O1_3  and  C3_4 
REMARK    3  A    between atoms: C3_4  and  C4_5 
REMARK    4  A    between atoms: C4_5  and  O2_6 
REMARK    5  A    between atoms: O2_6  and  C5_7 
REMARK    6  A    between atoms: C10_12  and  O3_13 
REMARK    7  A    between atoms: O3_13  and  C11_14 
REMARK    8  A    between atoms: C11_14  and  C12_15 
REMARK    9  A    between atoms: C12_15  and  O4_16 
REMARK   10  A    between atoms: N3_21  and  C15_22 
ROOT
HETATM    1  C5  UNL     1      -0.877  -0.256  -0.221  1.00  0.00     0.104 A 
HETATM    2  C6  UNL     1       0.482  -0.467  -0.114  1.00  0.00     0.073 A 
HETATM    3  C7  UNL     1       0.946  -1.762  -0.164  1.00  0.00     0.088 A 
HETATM    4  C8  UNL     1       0.109  -2.844  -0.317  1.00  0.00     0.089 A 
HETATM    5  C9  UNL     1      -1.234  -2.568  -0.418  1.00  0.00     0.073 A 
HETATM    6  C10 UNL     1      -1.793  -1.312  -0.379  1.00  0.00     0.104 A 
HETATM    7  N1  UNL     1       0.595  -4.176  -0.381  1.00  0.00    -0.240 NA
HETATM    8  C14 UNL     1       1.881  -4.389  -0.292  1.00  0.00     0.224 A 
HETATM    9  N2  UNL     1       2.777  -3.279  -0.131  1.00  0.00    -0.287 N 
HETATM   10  N3  UNL     1       2.350  -1.935  -0.060  1.00  0.00    -0.253 N 
HETATM   11  H20 UNL     1       3.789  -3.540  -0.068  1.00  0.00     0.188 HD
ENDROOT
BRANCH  10  12
HETATM   12  C15 UNL     1       3.365  -0.960   0.095  1.00  0.00     0.057 A 
HETATM   13  C16 UNL     1       4.415  -1.144  -0.813  1.00  0.00     0.031 A 
HETATM   14  C17 UNL     1       5.537  -0.327  -0.844  1.00  0.00     0.003 A 
HETATM   15  C18 UNL     1       5.652   0.716   0.041  1.00  0.00     0.007 A 
HETATM   16  C19 UNL     1       4.620   0.896   0.934  1.00  0.00    -0.060 A 
HETATM   17  C20 UNL     1       4.669   2.002   1.925  1.00  0.00     0.048 C 
HETATM   18  C21 UNL     1       3.508   0.092   0.971  1.00  0.00     0.038 A 
ENDBRANCH  10  12
BRANCH   1  19
HETATM   19  O2  UNL     1      -1.344   1.071  -0.168  1.00  0.00    -0.346 OA
BRANCH  19  20
HETATM   20  C4  UNL     1      -0.381   2.090  -0.009  1.00  0.00     0.201 C 
BRANCH  20  21
HETATM   21  C3  UNL     1      -0.983   3.462   0.035  1.00  0.00     0.194 C 
BRANCH  21  22
HETATM   22  O1  UNL     1      -1.863   3.540   1.102  1.00  0.00    -0.389 OA
BRANCH  22  23
HETATM   23  C2  UNL     1      -2.455   4.822   1.179  1.00  0.00     0.163 C 
HETATM   24  C1  UNL     1      -1.281   5.777   1.361  1.00  0.00     0.033 C 
ENDBRANCH  22  23
ENDBRANCH  21  22
ENDBRANCH  20  21
ENDBRANCH  19  20
ENDBRANCH   1  19
BRANCH   6  25
HETATM   25  O3  UNL     1      -3.091  -0.911  -0.469  1.00  0.00    -0.346 OA
BRANCH  25  26
HETATM   26  C11 UNL     1      -4.246  -1.650  -0.648  1.00  0.00     0.201 C 
BRANCH  26  27
HETATM   27  C12 UNL     1      -4.346  -2.419  -1.935  1.00  0.00     0.193 C 
BRANCH  27  28
HETATM   28  O4  UNL     1      -5.552  -3.103  -1.977  1.00  0.00    -0.394 OA
HETATM   29  C13 UNL     1      -5.752  -4.016  -0.977  1.00  0.00     0.201 C 
ENDBRANCH  27  28
ENDBRANCH  26  27
ENDBRANCH  25  26
ENDBRANCH   6  25
TORSDOF 10
