REMARK  2 active torsions:
REMARK  status: ('A' for Active; 'I' for Inactive)
REMARK    1  A    between atoms: C6_8  and  C7_9 
REMARK    2  A    between atoms: C17_20  and  O4_21 
ROOT
HETATM    1  O1  UNL     1       1.042   2.516  -0.444  1.00  0.00    -0.274 OA
HETATM    2  C1  UNL     1       1.278   2.249   0.776  1.00  0.00     0.217 C 
HETATM    3  C2  UNL     1      -0.183   1.876   0.820  1.00  0.00     0.106 C 
HETATM    4  C3  UNL     1      -0.727   1.750  -0.583  1.00  0.00     0.039 C 
HETATM    5  C4  UNL     1      -2.092   1.213  -0.523  1.00  0.00     0.012 C 
HETATM    6  C5  UNL     1      -2.757   0.054  -0.398  1.00  0.00     0.086 A 
HETATM    7  O2  UNL     1      -4.020   0.328  -0.412  1.00  0.00    -0.309 OA
HETATM    8  C6  UNL     1      -5.059  -0.416  -0.326  1.00  0.00     0.090 A 
HETATM    9  C13 UNL     1      -4.799  -1.744  -0.197  1.00  0.00     0.093 A 
HETATM   10  C14 UNL     1      -3.452  -2.128  -0.170  1.00  0.00     0.187 A 
HETATM   11  O3  UNL     1      -3.479  -3.420  -0.040  1.00  0.00    -0.287 OA
HETATM   12  C15 UNL     1      -2.341  -1.240  -0.271  1.00  0.00     0.046 A 
HETATM   13  C16 UNL     1      -1.341  -2.127  -0.158  1.00  0.00     0.023 C 
HETATM   14  C17 UNL     1       0.107  -1.872  -0.122  1.00  0.00     0.142 C 
HETATM   15  C18 UNL     1       0.867  -3.149   0.210  1.00  0.00     0.036 C 
HETATM   16  C19 UNL     1       2.329  -2.966   0.386  1.00  0.00     0.003 C 
HETATM   17  C20 UNL     1       3.145  -2.594  -0.797  1.00  0.00     0.000 C 
HETATM   18  C21 UNL     1       4.569  -2.241  -0.284  1.00  0.00     0.000 C 
HETATM   19  C22 UNL     1       4.462  -0.899   0.339  1.00  0.00     0.000 C 
HETATM   20  C23 UNL     1       5.691  -0.366   1.025  1.00  0.00     0.000 C 
HETATM   21  C24 UNL     1       5.305   1.119   1.329  1.00  0.00     0.000 C 
HETATM   22  C25 UNL     1       5.453   1.872   0.065  1.00  0.00     0.002 C 
HETATM   23  C26 UNL     1       4.761   3.200  -0.070  1.00  0.00     0.020 C 
HETATM   24  C27 UNL     1       3.275   3.033  -0.263  1.00  0.00     0.122 C 
HETATM   25  N1  UNL     1       2.652   2.546   0.935  1.00  0.00    -0.361 N 
HETATM   26  H35 UNL     1       2.309   2.202   1.849  1.00  0.00     0.162 HD
ENDROOT
BRANCH   8  27
HETATM   27  C7  UNL     1      -6.418   0.109  -0.358  1.00  0.00    -0.002 A 
HETATM   28  C8  UNL     1      -7.544  -0.691  -0.278  1.00  0.00     0.014 A 
HETATM   29  C9  UNL     1      -8.834  -0.182  -0.285  1.00  0.00     0.001 A 
HETATM   30  C10 UNL     1      -9.002   1.203  -0.377  1.00  0.00     0.000 A 
HETATM   31  C11 UNL     1      -7.907   2.000  -0.457  1.00  0.00     0.001 A 
HETATM   32  C12 UNL     1      -6.637   1.451  -0.447  1.00  0.00     0.014 A 
ENDBRANCH   8  27
BRANCH  14  33
HETATM   33  O4  UNL     1       0.502  -1.475  -1.381  1.00  0.00    -0.392 OA
HETATM   34  H14 UNL     1      -0.175  -1.730  -2.045  1.00  0.00     0.210 HD
ENDBRANCH  14  33
TORSDOF 2
