REMARK  3 active torsions:
REMARK  status: ('A' for Active; 'I' for Inactive)
REMARK    1  A    between atoms: S1_2  and  N1_5 
REMARK    2  A    between atoms: N1_5  and  C2_6 
REMARK    3  A    between atoms: C8_15  and  C9_16 
ROOT
HETATM    1  C2  UNL     1       2.908   1.223   0.318  1.00  0.00     0.022 A 
HETATM    2  C3  UNL     1       2.855   2.505   0.539  1.00  0.00     0.028 A 
HETATM    3  C4  UNL     1       1.624   3.214   0.218  1.00  0.00     0.037 A 
HETATM    4  C5  UNL     1       0.631   2.487  -0.287  1.00  0.00     0.078 A 
HETATM    5  O3  UNL     1      -0.545   3.161  -0.593  1.00  0.00    -0.292 OA
HETATM    6  C6  UNL     1      -1.742   2.452  -0.584  1.00  0.00     0.200 A 
HETATM    7  N2  UNL     1      -2.901   3.102  -0.882  1.00  0.00    -0.215 NA
HETATM    8  C7  UNL     1      -4.093   2.442  -0.883  1.00  0.00     0.236 A 
HETATM    9  N3  UNL     1      -4.162   1.112  -0.587  1.00  0.00    -0.239 NA
HETATM   10  C8  UNL     1      -3.028   0.414  -0.282  1.00  0.00     0.099 A 
HETATM   11  C15 UNL     1      -1.804   1.087  -0.280  1.00  0.00     0.112 A 
HETATM   12  N4  UNL     1      -0.565   0.422   0.033  1.00  0.00    -0.373 N 
HETATM   13  C16 UNL     1       0.604   1.031  -0.574  1.00  0.00     0.145 A 
HETATM   14  C17 UNL     1       1.877   0.334  -0.223  1.00  0.00     0.089 A 
HETATM   15  H12 UNL     1      -0.689  -0.420   0.668  1.00  0.00     0.160 HD
ENDROOT
BRANCH  10  16
HETATM   16  C9  UNL     1      -3.084  -1.007   0.037  1.00  0.00    -0.004 A 
HETATM   17  C10 UNL     1      -2.321  -2.062  -0.394  1.00  0.00     0.014 A 
HETATM   18  C11 UNL     1      -2.580  -3.330   0.074  1.00  0.00     0.002 A 
HETATM   19  C12 UNL     1      -3.589  -3.594   0.971  1.00  0.00     0.019 A 
HETATM   20  C13 UNL     1      -4.365  -2.544   1.414  1.00  0.00     0.011 A 
HETATM   21 BR1  UNL     1      -5.751  -2.952   2.654  1.00  0.00    -0.051 Br
HETATM   22  C14 UNL     1      -4.114  -1.264   0.950  1.00  0.00     0.033 A 
ENDBRANCH  10  16
BRANCH   1  23
HETATM   23  N1  UNL     1       4.158   0.646   0.670  1.00  0.00    -0.289 N 
HETATM   24  H4  UNL     1       4.528   0.833   1.650  1.00  0.00     0.178 HD
BRANCH  23  25
HETATM   25  S1  UNL     1       5.114  -0.338  -0.383  1.00  0.00     0.226 S 
HETATM   26  C1  UNL     1       4.259  -1.798  -0.854  1.00  0.00     0.186 C 
HETATM   27  O1  UNL     1       6.402  -0.701   0.255  1.00  0.00    -0.206 OA
HETATM   28  O2  UNL     1       5.446   0.425  -1.657  1.00  0.00    -0.206 OA
ENDBRANCH  23  25
ENDBRANCH   1  23
TORSDOF 3
