REMARK  5 active torsions:
REMARK  status: ('A' for Active; 'I' for Inactive)
REMARK    1  A    between atoms: C5_7  and  C6_8 
REMARK    2  A    between atoms: C9_11  and  O1_12 
REMARK    3  A    between atoms: O1_12  and  C10_13 
REMARK    4  A    between atoms: C10_13  and  C11_14 
REMARK    5  A    between atoms: C15_18  and  C16_19 
ROOT
HETATM    1  C6  UNL     1      -0.872  -1.280   0.464  1.00  0.00    -0.023 A 
HETATM    2  C7  UNL     1      -0.122  -1.928  -0.484  1.00  0.00     0.013 A 
HETATM    3  C8  UNL     1       1.196  -1.559  -0.508  1.00  0.00     0.039 A 
HETATM    4  C9  UNL     1       1.735  -0.624   0.336  1.00  0.00     0.090 A 
HETATM    5  C18 UNL     1       0.977   0.023   1.292  1.00  0.00     0.068 A 
HETATM    6 CL1  UNL     1       1.487   1.185   2.438  1.00  0.00    -0.081 Cl
HETATM    7  C19 UNL     1      -0.336  -0.285   1.379  1.00  0.00     0.036 A 
ENDROOT
BRANCH   1   8
HETATM    8  C5  UNL     1      -2.419  -1.519   0.389  1.00  0.00     0.124 A 
HETATM    9  N2  UNL     1      -2.561  -2.804   0.833  1.00  0.00    -0.180 NA
HETATM   10  N1  UNL     1      -3.716  -3.360   0.855  1.00  0.00    -0.188 NA
HETATM   11  C4  UNL     1      -4.798  -2.553   0.370  1.00  0.00     0.173 A 
HETATM   12  C3  UNL     1      -4.013  -1.530   0.113  1.00  0.00     0.059 A 
HETATM   13  C2  UNL     1      -5.390  -1.052  -0.095  1.00  0.00     0.061 A 
HETATM   14  C20 UNL     1      -3.357  -0.527  -0.159  1.00  0.00     0.027 A 
HETATM   15  C21 UNL     1      -2.435   0.332  -0.433  1.00  0.00     0.030 C 
HETATM   16  C22 UNL     1      -2.580   1.833  -0.722  1.00  0.00     0.184 C 
HETATM   17  O2  UNL     1      -3.899   2.031  -0.613  1.00  0.00    -0.320 OA
HETATM   18  C23 UNL     1      -5.044   2.643  -0.647  1.00  0.00     0.276 C 
HETATM   19  O3  UNL     1      -4.943   3.800  -1.061  1.00  0.00    -0.263 OA
HETATM   20  C24 UNL     1      -6.175   1.769  -0.132  1.00  0.00     0.226 C 
HETATM   21  N3  UNL     1      -5.778   0.355  -0.065  1.00  0.00    -0.401 N 
HETATM   22  H21 UNL     1      -5.744   0.233   1.046  1.00  0.00     0.154 HD
HETATM   23  C1  UNL     1      -6.901  -1.316  -0.123  1.00  0.00     0.041 C 
ENDBRANCH   1   8
BRANCH   4  24
HETATM   24  O1  UNL     1       3.056  -0.211   0.347  1.00  0.00    -0.345 OA
BRANCH  24  25
HETATM   25  C10 UNL     1       3.895  -0.768  -0.643  1.00  0.00     0.214 C 
BRANCH  25  26
HETATM   26  C11 UNL     1       5.268  -0.073  -0.493  1.00  0.00    -0.034 A 
HETATM   27  C12 UNL     1       5.040   1.182  -1.198  1.00  0.00     0.009 A 
HETATM   28  C13 UNL     1       5.993   2.167  -1.293  1.00  0.00     0.001 A 
HETATM   29  C14 UNL     1       7.235   1.870  -0.633  1.00  0.00     0.009 A 
HETATM   30  C15 UNL     1       7.426   0.703   0.012  1.00  0.00    -0.029 A 
HETATM   31  C17 UNL     1       6.480  -0.235   0.071  1.00  0.00     0.019 A 
BRANCH  30  32
HETATM   32  C16 UNL     1       8.616   0.289   0.804  1.00  0.00     0.261 C 
HETATM   33  F1  UNL     1       8.390   0.244   2.139  1.00  0.00    -0.251 F 
ENDBRANCH  30  32
ENDBRANCH  25  26
ENDBRANCH  24  25
ENDBRANCH   4  24
TORSDOF 5
