REMARK  8 active torsions:
REMARK  status: ('A' for Active; 'I' for Inactive)
REMARK    1  A    between atoms: C2_2  and  O1_3 
REMARK    2  A    between atoms: O1_3  and  C3_4 
REMARK    3  A    between atoms: C3_4  and  C4_6 
REMARK    4  A    between atoms: C6_8  and  N1_9 
REMARK    5  A    between atoms: N1_9  and  C7_10 
REMARK    6  A    between atoms: C10_13  and  O3_14 
REMARK    7  A    between atoms: O3_14  and  C11_15 
REMARK    8  A    between atoms: C11_15  and  C12_16 
ROOT
HETATM    1  N1  UNL     1      -1.440  -0.562   0.493  1.00  0.00    -0.339 N 
HETATM    2  H6  UNL     1      -1.978   0.222   0.915  1.00  0.00     0.167 HD
ENDROOT
BRANCH   1   3
HETATM    3  C6  UNL     1      -2.171  -1.649   0.005  1.00  0.00     0.161 C 
HETATM    4  C5  UNL     1      -3.459  -1.397  -0.619  1.00  0.00     0.045 A 
HETATM    5  C4  UNL     1      -4.387  -0.486  -0.668  1.00  0.00     0.117 A 
HETATM    6  C22 UNL     1      -4.174  -2.267  -1.543  1.00  0.00     0.126 A 
HETATM    7  N4  UNL     1      -5.173  -1.285  -1.528  1.00  0.00    -0.375 N 
HETATM    8  H20 UNL     1      -6.083  -1.275  -2.006  1.00  0.00     0.160 HD
HETATM    9  C21 UNL     1      -4.415  -3.639  -1.030  1.00  0.00     0.078 C 
HETATM   10  C20 UNL     1      -3.190  -4.375  -0.651  1.00  0.00     0.116 C 
HETATM   11  N3  UNL     1      -2.025  -4.086  -0.159  1.00  0.00    -0.165 NA
HETATM   12  N2  UNL     1      -1.611  -2.796   0.175  1.00  0.00    -0.132 NA
BRANCH   5  13
HETATM   13  C3  UNL     1      -4.678   0.817  -0.130  1.00  0.00     0.310 C 
HETATM   14  O2  UNL     1      -4.206   1.676   0.619  1.00  0.00    -0.258 OA
BRANCH  13  15
HETATM   15  O1  UNL     1      -5.798   1.579  -0.377  1.00  0.00    -0.317 OA
BRANCH  15  16
HETATM   16  C2  UNL     1      -6.012   2.867   0.199  1.00  0.00     0.175 C 
HETATM   17  C1  UNL     1      -7.348   3.347  -0.333  1.00  0.00     0.034 C 
ENDBRANCH  15  16
ENDBRANCH  13  15
ENDBRANCH   5  13
ENDBRANCH   1   3
BRANCH   1  18
HETATM   18  C7  UNL     1      -0.023  -0.460   0.445  1.00  0.00     0.035 A 
HETATM   19  C8  UNL     1       0.599   0.632   1.034  1.00  0.00     0.032 A 
HETATM   20  C9  UNL     1       1.957   0.867   1.056  1.00  0.00     0.041 A 
HETATM   21  C10 UNL     1       2.776  -0.058   0.443  1.00  0.00     0.091 A 
HETATM   22  C18 UNL     1       2.221  -1.165  -0.160  1.00  0.00     0.069 A 
HETATM   23 CL1  UNL     1       3.255  -2.343  -0.940  1.00  0.00    -0.081 Cl
HETATM   24  C19 UNL     1       0.857  -1.335  -0.144  1.00  0.00     0.056 A 
BRANCH  21  25
HETATM   25  O3  UNL     1       4.146   0.079   0.406  1.00  0.00    -0.345 OA
BRANCH  25  26
HETATM   26  C11 UNL     1       4.842   1.186   0.999  1.00  0.00     0.214 C 
BRANCH  26  27
HETATM   27  C12 UNL     1       6.313   1.039   0.780  1.00  0.00    -0.031 A 
HETATM   28  C13 UNL     1       7.203   0.391   1.613  1.00  0.00     0.009 A 
HETATM   29  C14 UNL     1       8.550   0.334   1.279  1.00  0.00     0.004 A 
HETATM   30  C15 UNL     1       9.059   0.904   0.130  1.00  0.00     0.042 A 
HETATM   31  C16 UNL     1       8.178   1.562  -0.725  1.00  0.00     0.117 A 
HETATM   32  F1  UNL     1       8.635   2.133  -1.859  1.00  0.00    -0.206 F 
HETATM   33  C17 UNL     1       6.849   1.601  -0.366  1.00  0.00     0.051 A 
ENDBRANCH  26  27
ENDBRANCH  25  26
ENDBRANCH  21  25
ENDBRANCH   1  18
TORSDOF 8
