REMARK  5 active torsions:
REMARK  status: ('A' for Active; 'I' for Inactive)
REMARK    1  A    between atoms: C3_3  and  C4_5 
REMARK    2  A    between atoms: C4_5  and  C5_6 
REMARK    3  A    between atoms: C15_21  and  O2_22 
REMARK    4  A    between atoms: O2_22  and  C16_23 
REMARK    5  A    between atoms: C16_23  and  C17_24 
ROOT
HETATM    1  C4  UNL     1      -0.717   0.195   0.102  1.00  0.00     0.084 C 
HETATM    2  N1  UNL     1      -1.310  -0.452   1.238  1.00  0.00    -0.376 N 
HETATM    3  C7  UNL     1      -2.140  -0.725   2.358  1.00  0.00     0.003 C 
HETATM    4  C8  UNL     1      -1.796  -0.080   3.651  1.00  0.00     0.068 C 
HETATM    5  C9  UNL     1      -3.186  -1.526   2.323  1.00  0.00     0.045 C 
HETATM    6  C10 UNL     1      -3.858  -2.345   1.352  1.00  0.00     0.143 C 
HETATM    7  N2  UNL     1      -3.101  -2.127   0.333  1.00  0.00    -0.162 NA
HETATM    8  N3  UNL     1      -3.338  -2.719  -0.916  1.00  0.00    -0.146 NA
HETATM    9  C11 UNL     1      -2.428  -2.519  -1.804  1.00  0.00     0.232 C 
HETATM   10  N4  UNL     1      -1.189  -1.881  -2.018  1.00  0.00    -0.349 N 
HETATM   11  C12 UNL     1       0.088  -1.558  -1.498  1.00  0.00     0.044 A 
HETATM   12  C13 UNL     1       1.085  -2.321  -2.088  1.00  0.00     0.057 A 
HETATM   13  C14 UNL     1       2.435  -2.169  -1.732  1.00  0.00     0.069 A 
HETATM   14 CL1  UNL     1       3.657  -3.158  -2.504  1.00  0.00    -0.081 Cl
HETATM   15  C15 UNL     1       2.688  -1.217  -0.768  1.00  0.00     0.091 A 
HETATM   16  C21 UNL     1       1.695  -0.462  -0.185  1.00  0.00     0.050 A 
HETATM   17  C22 UNL     1       0.373  -0.614  -0.535  1.00  0.00     0.004 A 
HETATM   18  H9  UNL     1      -0.831  -1.387   1.440  1.00  0.00     0.161 HD
HETATM   19  H16 UNL     1      -1.154  -1.434  -2.988  1.00  0.00     0.167 HD
ENDROOT
BRANCH  15  20
HETATM   20  O2  UNL     1       4.035  -1.123  -0.477  1.00  0.00    -0.345 OA
BRANCH  20  21
HETATM   21  C16 UNL     1       4.597  -0.242   0.449  1.00  0.00     0.214 C 
BRANCH  21  22
HETATM   22  C17 UNL     1       4.341   1.177   0.080  1.00  0.00    -0.028 A 
HETATM   23  C18 UNL     1       3.792   2.033  -0.777  1.00  0.00     0.051 A 
HETATM   24  C19 UNL     1       4.266   3.144   0.019  1.00  0.00     0.117 A 
HETATM   25  F1  UNL     1       4.065   4.473  -0.260  1.00  0.00    -0.206 F 
HETATM   26  C20 UNL     1       4.817   2.320   0.882  1.00  0.00     0.051 A 
ENDBRANCH  21  22
ENDBRANCH  20  21
ENDBRANCH  15  20
BRANCH   1  27
HETATM   27  C3  UNL     1      -1.626   0.568  -0.978  1.00  0.00    -0.037 A 
HETATM   28  C2  UNL     1      -2.700   0.832  -1.882  1.00  0.00     0.026 A 
HETATM   29  C1  UNL     1      -2.327   1.413  -3.003  1.00  0.00     0.010 A 
HETATM   30  O1  UNL     1      -1.204   1.134  -2.042  1.00  0.00     0.000 OA
ENDBRANCH   1  27
BRANCH   1  31
HETATM   31  C5  UNL     1      -0.142   1.520   0.632  1.00  0.00     0.037 C 
HETATM   32  C6  UNL     1      -1.275   2.419   1.117  1.00  0.00     0.008 C 
ENDBRANCH   1  31
TORSDOF 5
