REMARK  5 active torsions:
REMARK  status: ('A' for Active; 'I' for Inactive)
REMARK    1  A    between atoms: C2_2  and  O1_3 
REMARK    2  A    between atoms: C2_2  and  C15_19 
REMARK    3  A    between atoms: O1_3  and  C3_4 
REMARK    4  A    between atoms: C8_10  and  C9_11 
REMARK    5  A    between atoms: C10_12  and  C11_13 
REMARK       I    between atoms: C11_13  and  N2_14 
ROOT
HETATM    1  C3  UNL     1      -1.123  -0.156  -1.331  1.00  0.00     0.070 A 
HETATM    2  C4  UNL     1      -0.975  -1.270  -2.169  1.00  0.00     0.039 A 
HETATM    3  C5  UNL     1       0.166  -2.066  -2.100  1.00  0.00     0.035 A 
HETATM    4  C6  UNL     1       1.170  -1.794  -1.224  1.00  0.00     0.067 A 
HETATM    5  N1  UNL     1       2.310  -2.505  -1.083  1.00  0.00    -0.260 NA
HETATM    6  C7  UNL     1       3.220  -2.120  -0.172  1.00  0.00     0.128 A 
HETATM    7  C8  UNL     1       3.124  -1.042   0.669  1.00  0.00    -0.018 A 
HETATM    8  C12 UNL     1       1.970  -0.299   0.547  1.00  0.00     0.026 A 
HETATM    9  C13 UNL     1       1.018  -0.690  -0.397  1.00  0.00    -0.004 A 
HETATM   10  C14 UNL     1      -0.098   0.109  -0.448  1.00  0.00     0.050 A 
ENDROOT
BRANCH   1  11
HETATM   11  O1  UNL     1      -2.331   0.459  -1.596  1.00  0.00    -0.344 OA
BRANCH  11  12
HETATM   12  C2  UNL     1      -2.799   1.608  -0.937  1.00  0.00     0.148 C 
HETATM   13  C1  UNL     1      -2.983   2.679  -1.934  1.00  0.00     0.042 C 
BRANCH  12  14
HETATM   14  C15 UNL     1      -4.115   1.290  -0.095  1.00  0.00     0.093 A 
HETATM   15  C16 UNL     1      -4.145   1.557   1.530  1.00  0.00     0.128 A 
HETATM   16 CL1  UNL     1      -2.559   2.150   1.753  1.00  0.00    -0.103 Cl
HETATM   17  S1  UNL     1      -5.244   1.032   0.672  1.00  0.00    -0.155 SA
HETATM   18  C17 UNL     1      -6.117   0.609  -0.047  1.00  0.00     0.025 A 
HETATM   19  C19 UNL     1      -5.387   0.682  -1.098  1.00  0.00     0.139 A 
HETATM   20  C18 UNL     1      -6.901   0.224  -0.724  1.00  0.00     0.210 A 
HETATM   21  F1  UNL     1      -6.946  -0.008  -2.001  1.00  0.00    -0.230 F 
HETATM   22 CL2  UNL     1      -4.619   0.636  -2.865  1.00  0.00    -0.100 Cl
ENDBRANCH  12  14
ENDBRANCH  11  12
ENDBRANCH   1  11
BRANCH   7  23
HETATM   23  C9  UNL     1       4.155  -0.685   1.635  1.00  0.00     0.018 C 
HETATM   24  C10 UNL     1       5.271  -1.369   1.783  1.00  0.00     0.068 C 
BRANCH  24  25
HETATM   25  C11 UNL     1       6.259  -0.929   2.792  1.00  0.00     0.218 C 
HETATM   26  N2  UNL     1       5.843   0.240   3.504  1.00  0.00    -0.269 NA
HETATM   27  H10 UNL     1       5.878   0.056   4.541  1.00  0.00     0.127 HD
HETATM   28  H11 UNL     1       5.894   0.011   4.510  1.00  0.00     0.127 HD
HETATM   29  O2  UNL     1       7.337  -1.551   2.967  1.00  0.00    -0.275 OA
ENDBRANCH  24  25
ENDBRANCH   7  23
TORSDOF 5
