REMARK  5 active torsions:
REMARK  status: ('A' for Active; 'I' for Inactive)
REMARK    1  A    between atoms: C2_2  and  N1_3 
REMARK    2  A    between atoms: C11_13  and  O1_14 
REMARK    3  A    between atoms: O1_14  and  C12_15 
REMARK    4  A    between atoms: C12_15  and  C13_16 
REMARK    5  A    between atoms: C21_26  and  O2_29 
ROOT
HETATM    1  N1  UNL     1      -4.902   0.287  -0.717  1.00  0.00    -0.408 N 
HETATM    2  C3  UNL     1      -3.842   0.931  -1.406  1.00  0.00     0.145 C 
HETATM    3  C4  UNL     1      -2.534   0.607  -0.794  1.00  0.00    -0.001 C 
HETATM    4  C5  UNL     1      -1.539   0.159  -0.089  1.00  0.00    -0.056 C 
HETATM    5  C6  UNL     1      -1.831  -0.770   0.950  1.00  0.00     0.048 C 
HETATM    6  C7  UNL     1      -0.121   0.258   0.063  1.00  0.00    -0.032 C 
HETATM    7  C8  UNL     1       0.332   1.086   0.980  1.00  0.00    -0.005 C 
HETATM    8  C9  UNL     1       1.653   1.541   1.498  1.00  0.00     0.078 C 
HETATM    9  C10 UNL     1       2.722   1.382   0.416  1.00  0.00     0.144 C 
HETATM   10 CL1  UNL     1       4.202   2.173   0.969  1.00  0.00    -0.117 Cl
HETATM   11  C11 UNL     1       2.948  -0.012   0.087  1.00  0.00     0.062 C 
HETATM   12  C19 UNL     1       2.023  -0.854  -0.402  1.00  0.00     0.012 C 
HETATM   13  C20 UNL     1       0.586  -0.669  -0.750  1.00  0.00     0.070 C 
HETATM   14  N2  UNL     1      -0.118   1.853   2.087  1.00  0.00    -0.279 NA
HETATM   15  C21 UNL     1      -1.451   2.236   2.115  1.00  0.00     0.069 A 
HETATM   16  C22 UNL     1      -2.669   2.579   2.164  1.00  0.00    -0.016 A 
HETATM   17  C23 UNL     1      -4.110   2.960   2.230  1.00  0.00     0.116 A 
HETATM   18  O2  UNL     1      -3.030   2.598   2.016  1.00  0.00     0.000 OA
HETATM   19  N3  UNL     1      -5.007   2.699   1.210  1.00  0.00    -0.403 N 
HETATM   20  C24 UNL     1      -5.912   2.405   0.113  1.00  0.00     0.134 C 
HETATM   21  C25 UNL     1      -6.020   0.963  -0.311  1.00  0.00     0.136 C 
HETATM   22  H24 UNL     1      -0.745   2.418   2.618  1.00  0.00     0.162 HD
HETATM   23  H25 UNL     1      -4.412   2.269   0.491  1.00  0.00     0.154 HD
ENDROOT
BRANCH  11  24
HETATM   24  O1  UNL     1       4.260  -0.509   0.296  1.00  0.00    -0.350 OA
BRANCH  24  25
HETATM   25  C12 UNL     1       4.852  -1.099  -0.854  1.00  0.00     0.214 C 
BRANCH  25  26
HETATM   26  C13 UNL     1       6.292  -1.277  -0.678  1.00  0.00    -0.031 A 
HETATM   27  C14 UNL     1       6.884  -2.436  -0.125  1.00  0.00     0.009 A 
HETATM   28  C15 UNL     1       8.211  -2.654   0.005  1.00  0.00     0.004 A 
HETATM   29  C16 UNL     1       9.098  -1.663  -0.442  1.00  0.00     0.042 A 
HETATM   30  C17 UNL     1       8.512  -0.546  -0.974  1.00  0.00     0.117 A 
HETATM   31  F1  UNL     1       9.384   0.408  -1.410  1.00  0.00    -0.206 F 
HETATM   32  C18 UNL     1       7.150  -0.271  -1.127  1.00  0.00     0.051 A 
ENDBRANCH  25  26
ENDBRANCH  24  25
ENDBRANCH  11  24
BRANCH   1  33
HETATM   33  C2  UNL     1      -4.965  -1.100  -0.975  1.00  0.00     0.112 C 
HETATM   34  C1  UNL     1      -6.038  -1.834  -0.182  1.00  0.00     0.026 C 
ENDBRANCH   1  33
TORSDOF 5
