REMARK  5 active torsions:
REMARK  status: ('A' for Active; 'I' for Inactive)
REMARK    1  A    between atoms: C5_6  and  C6_7 
REMARK    2  A    between atoms: C6_7  and  O1_8 
REMARK    3  A    between atoms: O1_8  and  C7_9 
REMARK    4  A    between atoms: C10_12  and  N1_13 
REMARK    5  A    between atoms: N1_13  and  C11_14 
ROOT
HETATM    1  C7  UNL     1      -0.467  -0.559   0.427  1.00  0.00     0.091 A 
HETATM    2  C8  UNL     1       0.503   0.240  -0.131  1.00  0.00     0.041 A 
HETATM    3  C9  UNL     1       1.854  -0.010   0.134  1.00  0.00     0.032 A 
HETATM    4  C10 UNL     1       2.279  -1.034   0.936  1.00  0.00     0.035 A 
HETATM    5  C15 UNL     1       1.277  -1.830   1.491  1.00  0.00     0.056 A 
HETATM    6  C16 UNL     1      -0.085  -1.627   1.267  1.00  0.00     0.069 A 
HETATM    7 CL1  UNL     1      -1.181  -2.728   2.069  1.00  0.00    -0.081 Cl
ENDROOT
BRANCH   1   8
HETATM    8  O1  UNL     1      -1.850  -0.425   0.247  1.00  0.00    -0.345 OA
BRANCH   8   9
HETATM    9  C6  UNL     1      -2.356   0.613  -0.584  1.00  0.00     0.214 C 
BRANCH   9  10
HETATM   10  C5  UNL     1      -3.835   0.503  -0.568  1.00  0.00    -0.031 A 
HETATM   11  C4  UNL     1      -4.632  -0.173  -1.463  1.00  0.00     0.009 A 
HETATM   12  C3  UNL     1      -6.006  -0.285  -1.430  1.00  0.00     0.004 A 
HETATM   13  C2  UNL     1      -6.535   0.399  -0.327  1.00  0.00     0.042 A 
HETATM   14  C1  UNL     1      -5.849   1.105   0.626  1.00  0.00     0.117 A 
HETATM   15  F1  UNL     1      -6.419   1.733   1.670  1.00  0.00    -0.206 F 
HETATM   16  C17 UNL     1      -4.483   1.131   0.464  1.00  0.00     0.051 A 
ENDBRANCH   9  10
ENDBRANCH   8   9
ENDBRANCH   1   8
BRANCH   4  17
HETATM   17  N1  UNL     1       3.643  -1.312   1.235  1.00  0.00    -0.340 N 
HETATM   18  H8  UNL     1       3.878  -2.122   1.836  1.00  0.00     0.167 HD
BRANCH  17  19
HETATM   19  C11 UNL     1       4.635  -0.428   0.664  1.00  0.00     0.150 A 
HETATM   20  C12 UNL     1       5.519  -0.695  -0.415  1.00  0.00     0.054 A 
HETATM   21  C13 UNL     1       6.202   0.462  -0.544  1.00  0.00     0.025 A 
HETATM   22  C14 UNL     1       6.312   1.701  -0.017  1.00  0.00     0.141 A 
HETATM   23  N2  UNL     1       5.409   1.727   0.958  1.00  0.00    -0.161 NA
HETATM   24  N3  UNL     1       4.583   0.793   1.352  1.00  0.00    -0.132 NA
ENDBRANCH  17  19
ENDBRANCH   4  17
TORSDOF 5
