REMARK  3 active torsions:
REMARK  status: ('A' for Active; 'I' for Inactive)
REMARK    1  A    between atoms: C10_12  and  C11_13 
REMARK       I    between atoms: C11_13  and  N3_15 
REMARK    2  A    between atoms: C12_16  and  N4_17 
REMARK    3  A    between atoms: C16_23  and  C17_24 
ROOT
HETATM    1  C1  UNL     1       2.488   2.459   0.591  1.00  0.00     0.049 C 
HETATM    2  C2  UNL     1       1.924   1.254  -0.025  1.00  0.00    -0.051 C 
HETATM    3  C3  UNL     1       0.682   1.696  -0.252  1.00  0.00     0.018 C 
HETATM    4  C4  UNL     1      -0.591   1.167  -0.840  1.00  0.00    -0.011 C 
HETATM    5  C5  UNL     1      -0.808   1.647  -2.136  1.00  0.00     0.150 C 
HETATM    6  N1  UNL     1      -1.165   0.785  -3.271  1.00  0.00    -0.160 NA
HETATM    7  N2  UNL     1      -1.064  -0.539  -3.161  1.00  0.00    -0.132 NA
HETATM    8  C6  UNL     1      -0.800  -1.226  -1.913  1.00  0.00     0.155 C 
HETATM    9  C7  UNL     1      -1.870  -0.940  -1.093  1.00  0.00     0.025 C 
HETATM   10  C8  UNL     1      -3.230  -1.326  -0.832  1.00  0.00    -0.017 C 
HETATM   11  C9  UNL     1      -3.602  -2.626  -1.446  1.00  0.00     0.051 C 
HETATM   12  C10 UNL     1      -3.772  -0.347  -0.086  1.00  0.00     0.106 C 
HETATM   13  N5  UNL     1      -2.813   0.681   0.140  1.00  0.00    -0.372 N 
HETATM   14  C13 UNL     1      -1.492   0.195  -0.136  1.00  0.00     0.154 C 
HETATM   15  N6  UNL     1       0.361  -1.973  -1.566  1.00  0.00    -0.369 N 
HETATM   16  C14 UNL     1       1.743  -2.335  -1.468  1.00  0.00     0.149 C 
HETATM   17  C15 UNL     1       2.583  -1.248  -0.793  1.00  0.00     0.005 C 
HETATM   18  C16 UNL     1       2.552   0.037  -0.301  1.00  0.00    -0.022 C 
HETATM   19  H12 UNL     1      -3.111   1.630   0.469  1.00  0.00     0.161 HD
HETATM   20  H14 UNL     1      -0.442  -2.594  -1.339  1.00  0.00     0.161 HD
ENDROOT
BRANCH  12  21
HETATM   21  C11 UNL     1      -5.179  -0.522   0.327  1.00  0.00     0.294 C 
HETATM   22  O1  UNL     1      -5.929  -1.467   0.096  1.00  0.00    -0.264 OA
HETATM   23  N3  UNL     1      -5.602   0.607   1.058  1.00  0.00    -0.209 NA
HETATM   24  C12 UNL     1      -6.455   0.624   2.008  1.00  0.00     0.177 C 
BRANCH  24  25
HETATM   25  N4  UNL     1      -6.220   2.050   2.084  1.00  0.00    -0.297 NA
HETATM   26  H10 UNL     1      -6.183   3.012   2.526  1.00  0.00     0.124 HD
HETATM   27  H11 UNL     1      -6.147   3.033   2.440  1.00  0.00     0.124 HD
ENDBRANCH  24  25
ENDBRANCH  12  21
BRANCH  18  28
HETATM   28  C17 UNL     1       3.906   0.024   0.352  1.00  0.00    -0.023 A 
HETATM   29  C18 UNL     1       5.113  -0.532  -0.004  1.00  0.00     0.012 A 
HETATM   30  C19 UNL     1       6.292  -0.686   0.693  1.00  0.00     0.004 A 
HETATM   31  C20 UNL     1       6.235  -0.194   1.947  1.00  0.00     0.042 A 
HETATM   32  C21 UNL     1       5.155   0.404   2.504  1.00  0.00     0.117 A 
HETATM   33  F1  UNL     1       5.245   0.855   3.773  1.00  0.00    -0.206 F 
HETATM   34  C22 UNL     1       4.057   0.480   1.689  1.00  0.00     0.054 A 
ENDBRANCH  18  28
TORSDOF 3
