REMARK  4 active torsions:
REMARK  status: ('A' for Active; 'I' for Inactive)
REMARK       I    between atoms: N1_1  and  C1_2 
REMARK    1  A    between atoms: C1_2  and  C2_4 
REMARK    2  A    between atoms: C3_5  and  C4_6 
REMARK    3  A    between atoms: C11_13  and  C12_15 
REMARK    4  A    between atoms: C13_16  and  C14_17 
ROOT
HETATM    1  C4  UNL     1      -1.608   0.187   0.396  1.00  0.00    -0.023 C 
HETATM    2  C5  UNL     1      -1.097  -0.728   1.215  1.00  0.00    -0.013 C 
HETATM    3  C6  UNL     1      -0.255  -1.901   1.052  1.00  0.00     0.043 C 
HETATM    4  C7  UNL     1       0.100  -2.359  -0.291  1.00  0.00     0.006 C 
HETATM    5  C8  UNL     1       0.531  -3.835  -0.247  1.00  0.00     0.020 C 
HETATM    6  C9  UNL     1       1.705  -3.491  -1.140  1.00  0.00     0.038 C 
HETATM    7  C10 UNL     1       1.524  -2.062  -0.693  1.00  0.00    -0.048 C 
HETATM    8  C11 UNL     1       2.510  -1.152  -0.780  1.00  0.00     0.037 C 
HETATM    9 CL1  UNL     1       4.163  -1.342  -1.393  1.00  0.00    -0.084 Cl
HETATM   10  C16 UNL     1      -0.887  -2.201  -1.392  1.00  0.00     0.162 C 
HETATM   11  N2  UNL     1      -1.060  -0.827  -1.821  1.00  0.00    -0.300 NA
HETATM   12  C17 UNL     1      -1.364   0.157  -1.042  1.00  0.00     0.121 C 
ENDROOT
BRANCH   8  13
HETATM   13  C12 UNL     1       2.248   0.207  -0.320  1.00  0.00     0.027 C 
HETATM   14  C13 UNL     1       3.063   1.248  -0.315  1.00  0.00     0.041 C 
BRANCH  14  15
HETATM   15  C14 UNL     1       2.796   2.602   0.145  1.00  0.00     0.114 C 
HETATM   16  F1  UNL     1       1.584   2.935   0.651  1.00  0.00    -0.209 F 
HETATM   17  C15 UNL     1       3.726   3.517   0.077  1.00  0.00     0.301 C 
HETATM   18 CL2  UNL     1       5.323   3.189  -0.559  1.00  0.00    -0.248 Cl
ENDBRANCH  14  15
ENDBRANCH   8  13
BRANCH   1  19
HETATM   19  C3  UNL     1      -2.433   1.251   0.943  1.00  0.00     0.018 C 
HETATM   20  C2  UNL     1      -3.014   2.231   0.277  1.00  0.00     0.074 C 
BRANCH  20  21
HETATM   21  C1  UNL     1      -3.824   3.237   0.994  1.00  0.00     0.238 C 
HETATM   22  N1  UNL     1      -4.445   4.288   0.269  1.00  0.00    -0.367 N 
HETATM   23  H1  UNL     1      -5.413   3.959   0.064  1.00  0.00     0.159 HD
HETATM   24  H2  UNL     1      -3.996   5.195   0.008  1.00  0.00     0.159 HD
HETATM   25  O1  UNL     1      -3.943   3.130   2.247  1.00  0.00    -0.269 OA
ENDBRANCH  20  21
ENDBRANCH   1  19
TORSDOF 4
