REMARK  3 active torsions:
REMARK  status: ('A' for Active; 'I' for Inactive)
REMARK    1  A    between atoms: C5_7  and  C6_8 
REMARK    2  A    between atoms: C6_8  and  O1_9 
REMARK    3  A    between atoms: O1_9  and  C7_10 
ROOT
HETATM    1  O1  UNL     1      -0.641  -0.166  -0.466  1.00  0.00    -0.347 OA
ENDROOT
BRANCH   1   2
HETATM    2  C6  UNL     1      -1.513  -0.036   0.632  1.00  0.00     0.218 C 
BRANCH   2   3
HETATM    3  C5  UNL     1      -2.941  -0.096   0.267  1.00  0.00     0.012 A 
HETATM    4  C4  UNL     1      -3.686  -1.206  -0.049  1.00  0.00     0.044 A 
HETATM    5  C3  UNL     1      -5.031  -1.126  -0.381  1.00  0.00     0.027 A 
HETATM    6 CL1  UNL     1      -2.840  -2.731  -0.007  1.00  0.00    -0.084 Cl
HETATM    7  C2  UNL     1      -5.638   0.112  -0.393  1.00  0.00     0.046 A 
HETATM    8  C1  UNL     1      -4.945   1.260  -0.086  1.00  0.00     0.138 A 
HETATM    9  F1  UNL     1      -5.541   2.468  -0.101  1.00  0.00    -0.204 F 
HETATM   10  C16 UNL     1      -3.601   1.140   0.242  1.00  0.00     0.082 A 
HETATM   11 CL2  UNL     1      -2.746   2.642   0.632  1.00  0.00    -0.080 Cl
ENDBRANCH   2   3
ENDBRANCH   1   2
BRANCH   1  12
HETATM   12  C7  UNL     1       0.716  -0.099  -0.180  1.00  0.00     0.070 A 
HETATM   13  C8  UNL     1       1.146   0.083   1.115  1.00  0.00     0.039 A 
HETATM   14  C9  UNL     1       2.476   0.170   1.527  1.00  0.00     0.035 A 
HETATM   15  C10 UNL     1       3.442   0.062   0.537  1.00  0.00     0.067 A 
HETATM   16  N1  UNL     1       4.748   0.146   0.904  1.00  0.00    -0.260 NA
HETATM   17  C14 UNL     1       3.042  -0.120  -0.767  1.00  0.00    -0.005 A 
HETATM   18  C11 UNL     1       5.735   0.053  -0.021  1.00  0.00     0.117 A 
HETATM   19  C12 UNL     1       5.370  -0.132  -1.353  1.00  0.00     0.020 A 
HETATM   20  C13 UNL     1       4.046  -0.218  -1.732  1.00  0.00     0.015 A 
HETATM   21  C15 UNL     1       1.711  -0.202  -1.143  1.00  0.00     0.050 A 
ENDBRANCH   1  12
TORSDOF 3
