REMARK  4 active torsions:
REMARK  status: ('A' for Active; 'I' for Inactive)
REMARK    1  A    between atoms: C2_2  and  O1_3 
REMARK    2  A    between atoms: C2_2  and  C11_14 
REMARK    3  A    between atoms: O1_3  and  C3_4 
REMARK    4  A    between atoms: C4_5  and  C5_6 
ROOT
HETATM    1  O1  UNL     1       1.015   2.031  -0.508  1.00  0.00    -0.353 OA
ENDROOT
BRANCH   1   2
HETATM    2  C2  UNL     1       1.698   1.645   0.645  1.00  0.00     0.161 C 
HETATM    3  C1  UNL     1       2.488   2.863   1.140  1.00  0.00     0.045 C 
BRANCH   2   4
HETATM    4  C11 UNL     1       2.582   0.473   0.486  1.00  0.00     0.031 A 
HETATM    5  C12 UNL     1       3.248   0.190  -0.710  1.00  0.00     0.127 A 
HETATM    6  F1  UNL     1       3.087   1.013  -1.776  1.00  0.00    -0.205 F 
HETATM    7  C13 UNL     1       4.074  -0.907  -0.853  1.00  0.00     0.043 A 
HETATM    8  C14 UNL     1       4.269  -1.779   0.213  1.00  0.00     0.005 A 
HETATM    9  C15 UNL     1       3.611  -1.498   1.393  1.00  0.00     0.024 A 
HETATM   10  C16 UNL     1       2.784  -0.406   1.549  1.00  0.00     0.045 A 
HETATM   11 CL2  UNL     1       1.961  -0.081   3.075  1.00  0.00    -0.084 Cl
ENDBRANCH   2   4
ENDBRANCH   1   2
BRANCH   1  12
HETATM   12  C3  UNL     1       0.190   1.194  -1.245  1.00  0.00     0.135 C 
HETATM   13  C4  UNL     1      -0.939   0.719  -0.729  1.00  0.00     0.026 C 
BRANCH  13  14
HETATM   14  C5  UNL     1      -1.828  -0.170  -1.494  1.00  0.00     0.031 C 
HETATM   15  C6  UNL     1      -2.961  -0.670  -1.028  1.00  0.00     0.056 A 
HETATM   16  N1  UNL     1      -3.757  -1.523  -1.846  1.00  0.00    -0.264 NA
HETATM   17  C10 UNL     1      -3.356  -0.304   0.361  1.00  0.00     0.157 A 
HETATM   18  C7  UNL     1      -4.867  -2.022  -1.411  1.00  0.00     0.116 A 
HETATM   19  C8  UNL     1      -5.374  -1.749  -0.072  1.00  0.00     0.017 A 
HETATM   20  C9  UNL     1      -4.661  -0.966   0.701  1.00  0.00     0.001 A 
HETATM   21 CL1  UNL     1      -3.712   1.456   0.301  1.00  0.00    -0.114 Cl
ENDBRANCH  13  14
ENDBRANCH   1  12
TORSDOF 4
