REMARK  5 active torsions:
REMARK  status: ('A' for Active; 'I' for Inactive)
REMARK    1  A    between atoms: C2_2  and  O1_3 
REMARK    2  A    between atoms: C2_2  and  C13_16 
REMARK    3  A    between atoms: O1_3  and  C3_4 
REMARK    4  A    between atoms: C8_10  and  C9_11 
REMARK    5  A    between atoms: C14_18  and  C15_19 
ROOT
HETATM    1  C3  UNL     1      -0.130  -0.617   0.082  1.00  0.00     0.082 A 
HETATM    2  C4  UNL     1      -0.088  -1.607   1.006  1.00  0.00     0.040 A 
HETATM    3  C5  UNL     1      -1.262  -1.691   1.718  1.00  0.00     0.035 A 
HETATM    4  C6  UNL     1      -2.117  -0.716   1.246  1.00  0.00     0.069 A 
HETATM    5  N1  UNL     1      -3.387  -0.438   1.664  1.00  0.00    -0.259 NA
HETATM    6  C7  UNL     1      -4.425   0.003   0.893  1.00  0.00     0.131 C 
HETATM    7  C8  UNL     1      -4.286   1.003  -0.053  1.00  0.00     0.019 C 
HETATM    8  C10 UNL     1      -3.187   1.388  -0.793  1.00  0.00     0.017 C 
HETATM    9  C11 UNL     1      -1.843   1.054  -0.593  1.00  0.00     0.017 C 
HETATM   10  C12 UNL     1      -1.378  -0.016   0.179  1.00  0.00     0.026 A 
ENDROOT
BRANCH   1  11
HETATM   11  O1  UNL     1       0.779  -0.148  -0.855  1.00  0.00    -0.340 OA
BRANCH  11  12
HETATM   12  C2  UNL     1       2.037  -0.752  -0.955  1.00  0.00     0.169 C 
HETATM   13  C1  UNL     1       2.264  -1.344  -2.330  1.00  0.00     0.046 C 
BRANCH  12  14
HETATM   14  C13 UNL     1       3.145   0.202  -0.603  1.00  0.00     0.039 C 
HETATM   15 CL1  UNL     1       3.448   1.624  -1.609  1.00  0.00    -0.086 Cl
HETATM   16  C14 UNL     1       3.972   0.095   0.439  1.00  0.00     0.026 C 
BRANCH  16  17
HETATM   17  C15 UNL     1       5.117   0.925   0.951  1.00  0.00     0.251 C 
HETATM   18  F1  UNL     1       6.248   0.105   0.947  1.00  0.00    -0.251 F 
ENDBRANCH  16  17
ENDBRANCH  12  14
ENDBRANCH  11  12
ENDBRANCH   1  11
BRANCH   7  19
HETATM   19  C9  UNL     1      -5.478   1.798  -0.336  1.00  0.00     0.271 C 
HETATM   20  O2  UNL     1      -5.654   2.754  -1.130  1.00  0.00    -0.301 OA
ENDBRANCH   7  19
TORSDOF 5
