REMARK  3 active torsions:
REMARK  status: ('A' for Active; 'I' for Inactive)
REMARK    1  A    between atoms: C2_2  and  C3_3 
REMARK    2  A    between atoms: C2_2  and  C11_13 
REMARK    3  A    between atoms: C10_11  and  O1_12 
ROOT
HETATM    1  C3  UNL     1       0.691   0.432  -1.159  1.00  0.00    -0.028 C 
HETATM    2  C4  UNL     1       1.428   0.108  -2.239  1.00  0.00     0.009 C 
HETATM    3  C5  UNL     1       2.732  -0.420  -1.833  1.00  0.00     0.031 C 
HETATM    4  C6  UNL     1       2.788  -0.409  -0.516  1.00  0.00     0.076 C 
HETATM    5  N1  UNL     1       3.827  -0.846   0.360  1.00  0.00    -0.262 NA
HETATM    6  C7  UNL     1       3.489  -0.923   1.633  1.00  0.00     0.117 C 
HETATM    7  C8  UNL     1       2.137  -0.514   2.070  1.00  0.00     0.019 C 
HETATM    8  C9  UNL     1       1.163   0.020   1.307  1.00  0.00     0.023 C 
HETATM    9  C10 UNL     1       1.582   0.230  -0.044  1.00  0.00     0.144 C 
ENDROOT
BRANCH   1  10
HETATM   10  C2  UNL     1      -0.670   0.986  -0.940  1.00  0.00     0.051 C 
HETATM   11  C1  UNL     1      -1.314   1.270  -2.289  1.00  0.00     0.020 C 
BRANCH  10  12
HETATM   12  C11 UNL     1      -1.525   0.177  -0.067  1.00  0.00    -0.004 A 
HETATM   13  C12 UNL     1      -2.437   0.779   0.808  1.00  0.00     0.042 A 
HETATM   14 CL1  UNL     1      -2.560   2.532   0.864  1.00  0.00    -0.084 Cl
HETATM   15  C13 UNL     1      -3.274   0.086   1.658  1.00  0.00     0.027 A 
HETATM   16  C14 UNL     1      -3.215  -1.287   1.651  1.00  0.00     0.046 A 
HETATM   17  C15 UNL     1      -2.341  -1.953   0.815  1.00  0.00     0.138 A 
HETATM   18  F1  UNL     1      -2.287  -3.309   0.812  1.00  0.00    -0.204 F 
HETATM   19  C16 UNL     1      -1.524  -1.222  -0.016  1.00  0.00     0.081 A 
HETATM   20 CL2  UNL     1      -0.403  -2.042  -1.089  1.00  0.00    -0.080 Cl
ENDBRANCH  10  12
ENDBRANCH   1  10
BRANCH   9  21
HETATM   21  O1  UNL     1       2.182   1.658   0.111  1.00  0.00    -0.375 OA
HETATM   22  H10 UNL     1       1.364   2.138   0.393  1.00  0.00     0.211 HD
ENDBRANCH   9  21
TORSDOF 3
