REMARK  6 active torsions:
REMARK  status: ('A' for Active; 'I' for Inactive)
REMARK    1  A    between atoms: C6_7  and  C7_8 
REMARK    2  A    between atoms: C7_8  and  C8_9 
REMARK    3  A    between atoms: C8_9  and  C9_10 
REMARK    4  A    between atoms: C9_10  and  O1_11 
REMARK    5  A    between atoms: O1_11  and  C10_12 
REMARK    6  A    between atoms: C10_12  and  C12_14 
ROOT
HETATM    1  O1  UNL     1       1.165  -1.113   1.294  1.00  0.00    -0.353 OA
ENDROOT
BRANCH   1   2
HETATM    2  C9  UNL     1       0.268  -0.309   0.631  1.00  0.00     0.135 C 
BRANCH   2   3
HETATM    3  C8  UNL     1      -1.052  -0.449   0.471  1.00  0.00     0.026 C 
BRANCH   3   4
HETATM    4  C7  UNL     1      -1.812   0.527  -0.272  1.00  0.00     0.034 C 
BRANCH   4   5
HETATM    5  C6  UNL     1      -3.099   0.552  -0.528  1.00  0.00     0.062 A 
HETATM    6  C2  UNL     1      -4.047  -0.363  -0.142  1.00  0.00    -0.029 A 
HETATM    7  C1  UNL     1      -3.655  -1.394   0.568  1.00  0.00     0.045 C 
HETATM    8  C3  UNL     1      -5.391  -0.315  -0.422  1.00  0.00     0.011 A 
HETATM    9  C4  UNL     1      -5.838   0.756  -1.166  1.00  0.00     0.020 A 
HETATM   10  C5  UNL     1      -4.892   1.674  -1.555  1.00  0.00     0.117 A 
HETATM   11  N1  UNL     1      -3.596   1.571  -1.249  1.00  0.00    -0.261 NA
ENDBRANCH   4   5
ENDBRANCH   3   4
ENDBRANCH   2   3
ENDBRANCH   1   2
BRANCH   1  12
HETATM   12  C10 UNL     1       2.417  -1.391   0.742  1.00  0.00     0.160 C 
HETATM   13  C11 UNL     1       3.239  -2.330   1.550  1.00  0.00     0.045 C 
BRANCH  12  14
HETATM   14  C12 UNL     1       3.106  -0.122   0.414  1.00  0.00     0.014 A 
HETATM   15  C13 UNL     1       3.858   0.122  -0.716  1.00  0.00     0.044 A 
HETATM   16 CL1  UNL     1       4.010  -1.182  -1.869  1.00  0.00    -0.084 Cl
HETATM   17  C14 UNL     1       4.477   1.329  -0.960  1.00  0.00     0.024 A 
HETATM   18  C15 UNL     1       4.320   2.324  -0.011  1.00  0.00     0.003 A 
HETATM   19  C16 UNL     1       3.568   2.127   1.151  1.00  0.00     0.024 A 
HETATM   20  C17 UNL     1       2.962   0.899   1.358  1.00  0.00     0.044 A 
HETATM   21 CL2  UNL     1       2.052   0.798   2.862  1.00  0.00    -0.084 Cl
ENDBRANCH  12  14
ENDBRANCH   1  12
TORSDOF 6
