REMARK  5 active torsions:
REMARK  status: ('A' for Active; 'I' for Inactive)
REMARK    1  A    between atoms: C2_2  and  O1_3 
REMARK    2  A    between atoms: C2_2  and  C16_20 
REMARK    3  A    between atoms: O1_3  and  C3_4 
REMARK    4  A    between atoms: C4_5  and  C5_6 
REMARK    5  A    between atoms: C7_8  and  C8_9 
REMARK       I    between atoms: C8_9  and  N1_10 
ROOT
HETATM    1  C3  UNL     1       0.296  -1.115  -0.236  1.00  0.00     0.090 A 
HETATM    2  C4  UNL     1       1.326  -0.156  -0.232  1.00  0.00    -0.001 A 
HETATM    3  C9  UNL     1       2.552  -0.416  -0.782  1.00  0.00     0.127 A 
HETATM    4  N2  UNL     1       2.835  -1.611  -1.357  1.00  0.00    -0.260 NA
HETATM    5  C10 UNL     1       1.893  -2.575  -1.394  1.00  0.00     0.069 A 
HETATM    6  C11 UNL     1       2.184  -3.804  -1.977  1.00  0.00     0.032 A 
HETATM    7  C12 UNL     1       1.266  -4.804  -2.027  1.00  0.00     0.002 A 
HETATM    8  C13 UNL     1       0.015  -4.553  -1.471  1.00  0.00     0.001 A 
HETATM    9  C14 UNL     1      -0.227  -3.328  -0.908  1.00  0.00     0.017 A 
HETATM   10  C15 UNL     1       0.673  -2.290  -0.837  1.00  0.00     0.027 A 
ENDROOT
BRANCH   1  11
HETATM   11  O1  UNL     1      -0.950  -0.865   0.317  1.00  0.00    -0.340 OA
BRANCH  11  12
HETATM   12  C2  UNL     1      -1.930  -0.297  -0.485  1.00  0.00     0.161 C 
HETATM   13  C1  UNL     1      -3.152  -1.204  -0.695  1.00  0.00     0.045 C 
BRANCH  12  14
HETATM   14  C16 UNL     1      -2.412   1.027   0.003  1.00  0.00     0.017 A 
HETATM   15  C17 UNL     1      -2.725   2.033  -0.905  1.00  0.00     0.044 A 
HETATM   16 CL1  UNL     1      -2.542   1.715  -2.629  1.00  0.00    -0.084 Cl
HETATM   17  C18 UNL     1      -3.175   3.265  -0.420  1.00  0.00     0.028 A 
HETATM   18  C19 UNL     1      -3.304   3.471   0.945  1.00  0.00     0.046 A 
HETATM   19  C20 UNL     1      -2.987   2.458   1.828  1.00  0.00     0.138 A 
HETATM   20  F1  UNL     1      -3.160   2.795   3.143  1.00  0.00    -0.204 F 
HETATM   21  C21 UNL     1      -2.542   1.238   1.372  1.00  0.00     0.083 A 
HETATM   22 CL2  UNL     1      -2.166   0.016   2.555  1.00  0.00    -0.080 Cl
ENDBRANCH  12  14
ENDBRANCH  11  12
ENDBRANCH   1  11
BRANCH   2  23
HETATM   23  C5  UNL     1       1.140   1.166   0.342  1.00  0.00     0.036 A 
HETATM   24  C6  UNL     1       1.114   1.215   1.878  1.00  0.00     0.024 A 
HETATM   25  C7  UNL     1       2.143   1.951   1.048  1.00  0.00     0.081 A 
BRANCH  25  26
HETATM   26  C8  UNL     1       3.537   1.587   1.322  1.00  0.00     0.199 C 
HETATM   27  N1  UNL     1       4.544   2.595   1.559  1.00  0.00    -0.272 NA
HETATM   28  H9  UNL     1       4.978   3.292   2.227  1.00  0.00     0.127 HD
HETATM   29  H10 UNL     1       4.972   3.290   2.233  1.00  0.00     0.127 HD
HETATM   30  O2  UNL     1       4.567   0.864   1.510  1.00  0.00    -0.280 OA
ENDBRANCH  25  26
ENDBRANCH   2  23
TORSDOF 5
