REMARK  6 active torsions:
REMARK  status: ('A' for Active; 'I' for Inactive)
REMARK    1  A    between atoms: C2_2  and  C3_3 
REMARK    2  A    between atoms: C7_8  and  C8_9 
REMARK    3  A    between atoms: C9_10  and  O1_11 
REMARK    4  A    between atoms: O1_11  and  C10_12 
REMARK    5  A    between atoms: C10_12  and  C12_14 
REMARK    6  A    between atoms: C12_14  and  C13_16 
ROOT
HETATM    1  O1  UNL     1       0.724   0.321  -1.521  1.00  0.00    -0.355 OA
ENDROOT
BRANCH   1   2
HETATM    2  C9  UNL     1       0.486   1.055  -0.379  1.00  0.00     0.150 C 
HETATM    3  C8  UNL     1      -0.338   0.719   0.616  1.00  0.00     0.030 C 
BRANCH   3   4
HETATM    4  C7  UNL     1      -1.236  -0.069   1.212  1.00  0.00     0.079 A 
HETATM    5  C3  UNL     1      -2.562   0.136   0.926  1.00  0.00    -0.011 A 
HETATM    6  C4  UNL     1      -3.443  -0.730   1.585  1.00  0.00     0.015 A 
HETATM    7  C5  UNL     1      -2.915  -1.693   2.446  1.00  0.00     0.020 A 
HETATM    8  C6  UNL     1      -1.566  -1.861   2.702  1.00  0.00     0.117 A 
HETATM    9  N1  UNL     1      -0.752  -1.006   2.047  1.00  0.00    -0.259 NA
BRANCH   5  10
HETATM   10  C2  UNL     1      -3.001   1.069   0.098  1.00  0.00    -0.017 C 
HETATM   11  C1  UNL     1      -4.466   1.178  -0.118  1.00  0.00     0.037 C 
ENDBRANCH   5  10
ENDBRANCH   3   4
ENDBRANCH   1   2
BRANCH   1  12
HETATM   12  C10 UNL     1       1.808  -0.476  -1.836  1.00  0.00     0.145 C 
HETATM   13  C11 UNL     1       1.633  -1.097  -3.222  1.00  0.00     0.042 C 
BRANCH  12  14
HETATM   14  C12 UNL     1       3.036   0.398  -1.929  1.00  0.00     0.135 C 
HETATM   15 CL1  UNL     1       4.423  -0.639  -2.335  1.00  0.00    -0.118 Cl
BRANCH  14  16
HETATM   16  C13 UNL     1       3.317   1.144  -0.679  1.00  0.00     0.012 C 
HETATM   17  C14 UNL     1       3.373   0.724   0.549  1.00  0.00     0.027 A 
HETATM   18  C15 UNL     1       3.506   0.578   1.990  1.00  0.00     0.150 A 
HETATM   19  C16 UNL     1       3.218  -0.529   1.308  1.00  0.00     0.086 A 
HETATM   20  F1  UNL     1       3.780   1.386   3.064  1.00  0.00    -0.203 F 
HETATM   21 CL2  UNL     1       2.935  -2.219   1.664  1.00  0.00    -0.080 Cl
ENDBRANCH  14  16
ENDBRANCH  12  14
ENDBRANCH   1  12
TORSDOF 6
