REMARK  6 active torsions:
REMARK  status: ('A' for Active; 'I' for Inactive)
REMARK    1  A    between atoms: C2_2  and  O2_15 
REMARK    2  A    between atoms: C3_3  and  C4_4 
REMARK    3  A    between atoms: C4_4  and  C5_5 
REMARK    4  A    between atoms: C10_11  and  C11_12 
REMARK       I    between atoms: C11_12  and  N2_13 
REMARK    5  A    between atoms: O2_15  and  C12_16 
REMARK    6  A    between atoms: C12_16  and  C14_18 
ROOT
HETATM    1  C1  UNL     1      -0.244  -0.117   3.324  1.00  0.00     0.076 C 
HETATM    2  C2  UNL     1      -0.805   0.415   2.068  1.00  0.00     0.039 C 
HETATM    3  C3  UNL     1      -0.173   0.633   0.933  1.00  0.00     0.007 C 
ENDROOT
BRANCH   2   4
HETATM    4  O2  UNL     1      -2.144   0.656   2.283  1.00  0.00    -0.346 OA
BRANCH   4   5
HETATM    5  C12 UNL     1      -2.986   1.302   1.385  1.00  0.00     0.161 C 
HETATM    6  C13 UNL     1      -4.362   1.568   1.966  1.00  0.00     0.045 C 
BRANCH   5   7
HETATM    7  C14 UNL     1      -3.157   0.468   0.147  1.00  0.00     0.017 A 
HETATM    8  C15 UNL     1      -3.342   1.093  -1.091  1.00  0.00     0.044 A 
HETATM    9 CL1  UNL     1      -3.361   2.860  -1.124  1.00  0.00    -0.084 Cl
HETATM   10  C16 UNL     1      -3.511   0.417  -2.286  1.00  0.00     0.028 A 
HETATM   11  C17 UNL     1      -3.486  -0.958  -2.196  1.00  0.00     0.046 A 
HETATM   12  C18 UNL     1      -3.310  -1.645  -1.020  1.00  0.00     0.138 A 
HETATM   13  F1  UNL     1      -3.298  -2.981  -1.016  1.00  0.00    -0.204 F 
HETATM   14  C19 UNL     1      -3.148  -0.907   0.133  1.00  0.00     0.083 A 
HETATM   15 CL2  UNL     1      -2.925  -1.759   1.637  1.00  0.00    -0.080 Cl
ENDBRANCH   5   7
ENDBRANCH   4   5
ENDBRANCH   2   4
BRANCH   3  16
HETATM   16  C4  UNL     1       1.264   0.385   0.671  1.00  0.00     0.063 C 
BRANCH  16  17
HETATM   17  C5  UNL     1       1.440  -0.617  -0.461  1.00  0.00     0.065 A 
HETATM   18  C6  UNL     1       0.789  -1.970  -0.137  1.00  0.00     0.042 C 
HETATM   19  N1  UNL     1       0.941  -0.194  -1.716  1.00  0.00    -0.293 NA
HETATM   20  C7  UNL     1       2.054  -0.242  -2.300  1.00  0.00     0.097 A 
HETATM   21  C8  UNL     1       2.726  -0.678  -1.116  1.00  0.00     0.034 A 
HETATM   22  C9  UNL     1       3.767  -1.675  -0.995  1.00  0.00     0.034 A 
HETATM   23  C10 UNL     1       4.012  -0.195  -0.621  1.00  0.00     0.095 A 
BRANCH  23  24
HETATM   24  C11 UNL     1       4.823   0.596  -1.584  1.00  0.00     0.220 C 
HETATM   25  N2  UNL     1       5.758   1.619  -1.191  1.00  0.00    -0.370 N 
HETATM   26  H14 UNL     1       5.653   2.664  -1.058  1.00  0.00     0.159 HD
HETATM   27  H15 UNL     1       6.778   1.632  -0.930  1.00  0.00     0.159 HD
HETATM   28  O1  UNL     1       5.112   0.815  -2.801  1.00  0.00    -0.273 OA
ENDBRANCH  23  24
ENDBRANCH  16  17
ENDBRANCH   3  16
TORSDOF 6
