REMARK  0 active torsions:
REMARK  status: ('A' for Active; 'I' for Inactive)
ROOT
HETATM    1  F1  UNL     1       3.976  -0.639  -0.949  1.00  0.00    -0.374 F 
HETATM    2  C1  UNL     1       3.312  -1.516  -1.679  1.00  0.00     0.145 A 
HETATM    3  C2  UNL     1       2.804  -0.534  -0.880  1.00  0.00     0.232 A 
HETATM    4  S1  UNL     1       3.094   0.824   0.224  1.00  0.00    -0.106 SA
HETATM    5  C3  UNL     1       2.130   2.304  -0.116  1.00  0.00     0.251 C 
HETATM    6  O1  UNL     1       0.753   1.982   0.074  1.00  0.00    -0.352 OA
HETATM    7  C4  UNL     1       0.174   1.908   1.316  1.00  0.00     0.149 C 
HETATM    8  C5  UNL     1      -0.868   1.140   1.707  1.00  0.00     0.014 A 
HETATM    9  C6  UNL     1      -1.049   1.442   3.041  1.00  0.00     0.017 A 
HETATM   10  C7  UNL     1      -1.988   0.915   3.909  1.00  0.00     0.020 A 
HETATM   11  C8  UNL     1      -2.818  -0.009   3.345  1.00  0.00     0.117 A 
HETATM   12  N1  UNL     1      -2.659  -0.310   2.065  1.00  0.00    -0.261 NA
HETATM   13  C9  UNL     1      -1.744   0.212   1.244  1.00  0.00     0.065 A 
HETATM   14  C10 UNL     1      -1.986  -0.357   0.049  1.00  0.00     0.010 C 
HETATM   15  C11 UNL     1      -1.396  -0.216  -1.286  1.00  0.00     0.058 C 
HETATM   16  C12 UNL     1      -1.532  -1.362  -2.198  1.00  0.00    -0.003 C 
HETATM   17  C13 UNL     1      -0.520  -2.114  -2.653  1.00  0.00     0.011 A 
HETATM   18 CL1  UNL     1      -0.153  -3.477  -3.684  1.00  0.00    -0.176 Cl
HETATM   19  C14 UNL     1       0.934  -2.404  -2.695  1.00  0.00     0.122 A 
HETATM   20  C15 UNL     1       2.108  -2.060  -2.271  1.00  0.00     0.061 C 
ENDROOT
TORSDOF 0
