REMARK  9 active torsions:
REMARK  status: ('A' for Active; 'I' for Inactive)
REMARK    1  A    between atoms: O1_2  and  C2_3 
REMARK    2  A    between atoms: C2_3  and  C3_4 
REMARK    3  A    between atoms: C3_4  and  O2_5 
REMARK    4  A    between atoms: O2_5  and  C4_6 
REMARK    5  A    between atoms: C8_12  and  N3_13 
REMARK    6  A    between atoms: C17_22  and  O3_23 
REMARK    7  A    between atoms: O3_23  and  C18_24 
REMARK    8  A    between atoms: C18_24  and  C19_25 
REMARK    9  A    between atoms: C19_25  and  O4_26 
ROOT
HETATM    1  C4  UNL     1      -2.090  -0.780  -0.257  1.00  0.00     0.104 A 
HETATM    2  C5  UNL     1      -1.525  -2.054  -0.161  1.00  0.00     0.072 A 
HETATM    3  C6  UNL     1      -0.198  -2.312   0.110  1.00  0.00     0.075 A 
HETATM    4  N1  UNL     1       0.333  -3.531   0.208  1.00  0.00    -0.241 NA
HETATM    5  C7  UNL     1       1.642  -3.656   0.487  1.00  0.00     0.236 A 
HETATM    6  N2  UNL     1       2.452  -2.589   0.673  1.00  0.00    -0.223 NA
HETATM    7  C8  UNL     1       1.957  -1.330   0.583  1.00  0.00     0.144 A 
HETATM    8  C15 UNL     1       0.616  -1.217   0.299  1.00  0.00     0.042 A 
HETATM    9  C16 UNL     1       0.105   0.055   0.215  1.00  0.00     0.057 A 
HETATM   10  C17 UNL     1      -1.223   0.330  -0.057  1.00  0.00     0.103 A 
ENDROOT
BRANCH   7  11
HETATM   11  N3  UNL     1       2.914  -0.298   0.758  1.00  0.00    -0.332 N 
HETATM   12  C9  UNL     1       3.476   0.517  -0.316  1.00  0.00     0.158 A 
HETATM   13  C10 UNL     1       4.418   1.514   0.194  1.00  0.00    -0.007 A 
HETATM   14  C11 UNL     1       4.788   1.728   1.439  1.00  0.00    -0.001 A 
HETATM   15  C12 UNL     1       4.164   0.846   2.415  1.00  0.00     0.024 A 
HETATM   16  C13 UNL     1       3.276  -0.123   2.130  1.00  0.00     0.009 A 
HETATM   17  C14 UNL     1       2.738  -0.931   3.244  1.00  0.00     0.068 C 
ENDBRANCH   7  11
BRANCH  10  18
HETATM   18  O3  UNL     1      -1.865   1.525  -0.174  1.00  0.00    -0.346 OA
BRANCH  18  19
HETATM   19  C18 UNL     1      -1.299   2.762  -0.071  1.00  0.00     0.201 C 
BRANCH  19  20
HETATM   20  C19 UNL     1      -0.283   3.183  -1.069  1.00  0.00     0.193 C 
BRANCH  20  21
HETATM   21  O4  UNL     1       0.112   4.491  -0.700  1.00  0.00    -0.394 OA
HETATM   22  C20 UNL     1       1.060   5.010  -1.549  1.00  0.00     0.201 C 
ENDBRANCH  20  21
ENDBRANCH  19  20
ENDBRANCH  18  19
ENDBRANCH  10  18
BRANCH   1  23
HETATM   23  O2  UNL     1      -3.341  -0.562  -0.514  1.00  0.00    -0.346 OA
BRANCH  23  24
HETATM   24  C3  UNL     1      -4.585  -0.948  -0.780  1.00  0.00     0.201 C 
BRANCH  24  25
HETATM   25  C2  UNL     1      -4.851  -1.772  -2.019  1.00  0.00     0.193 C 
BRANCH  25  26
HETATM   26  O1  UNL     1      -4.218  -2.975  -2.065  1.00  0.00    -0.394 OA
HETATM   27  C1  UNL     1      -4.619  -3.860  -1.067  1.00  0.00     0.201 C 
ENDBRANCH  25  26
ENDBRANCH  24  25
ENDBRANCH  23  24
ENDBRANCH   1  23
TORSDOF 9
