REMARK  8 active torsions:
REMARK  status: ('A' for Active; 'I' for Inactive)
REMARK    1  A    between atoms: C3_3  and  C4_4 
REMARK    2  A    between atoms: C5_5  and  N1_6 
REMARK    3  A    between atoms: N1_6  and  C6_7 
REMARK    4  A    between atoms: C9_12  and  C11_14 
REMARK    5  A    between atoms: C10_13  and  C11_14 
REMARK    6  A    between atoms: C13_16  and  C14_17 
REMARK    7  A    between atoms: C14_17  and  C15_18 
REMARK    8  A    between atoms: C15_18  and  O1_19 
ROOT
HETATM    1  C1  UNL     1      -6.324   1.423   0.463  1.00  0.00     0.018 C 
HETATM    2  C2  UNL     1      -5.764   0.963  -0.509  1.00  0.00    -0.077 C 
HETATM    3  C3  UNL     1      -5.126   0.413  -1.658  1.00  0.00     0.028 C 
HETATM    4  C17 UNL     1      -5.580   0.522  -2.894  1.00  0.00     0.114 C 
HETATM    5  C18 UNL     1      -4.931  -0.039  -4.037  1.00  0.00     0.089 C 
HETATM    6  N4  UNL     1      -4.383  -0.488  -4.974  1.00  0.00    -0.192 NA
ENDROOT
BRANCH   3   7
HETATM    7  C4  UNL     1      -3.855  -0.281  -1.453  1.00  0.00     0.038 C 
HETATM    8  C5  UNL     1      -3.345  -0.431  -0.250  1.00  0.00     0.091 C 
BRANCH   8   9
HETATM    9  N1  UNL     1      -2.112  -1.076   0.171  1.00  0.00    -0.352 N 
HETATM   10  H4  UNL     1      -1.501  -1.899   0.253  1.00  0.00     0.166 HD
BRANCH   9  11
HETATM   11  C6  UNL     1      -1.449   0.005   0.749  1.00  0.00     0.141 A 
HETATM   12  N2  UNL     1      -1.891   1.042   1.501  1.00  0.00    -0.246 NA
HETATM   13  C7  UNL     1      -0.711   1.887   1.936  1.00  0.00     0.392 A 
HETATM   14  N3  UNL     1       0.401   1.079   1.366  1.00  0.00     0.002 N 
HETATM   15  C8  UNL     1       1.495   0.355   0.817  1.00  0.00     0.208 A 
HETATM   16  C11 UNL     1       1.397   0.628   1.006  1.00  0.00     0.204 A 
HETATM   17  C10 UNL     1       0.042   0.146   0.756  1.00  0.00     0.237 A 
HETATM   18  C9  UNL     1       0.924  -0.799   0.065  1.00  0.00     0.121 A 
HETATM   19  C13 UNL     1       2.876   0.435   0.798  1.00  0.00    -0.039 A 
HETATM   20  C12 UNL     1       2.420   1.477   1.530  1.00  0.00     0.021 A 
BRANCH  19  21
HETATM   21  C14 UNL     1       4.160  -0.121   0.367  1.00  0.00     0.063 C 
BRANCH  21  22
HETATM   22  C15 UNL     1       4.579  -1.319   1.191  1.00  0.00     0.171 C 
BRANCH  22  23
HETATM   23  O1  UNL     1       5.746  -1.761   0.689  1.00  0.00    -0.396 OA
HETATM   24  C16 UNL     1       5.791  -2.169  -0.615  1.00  0.00     0.201 C 
ENDBRANCH  22  23
ENDBRANCH  21  22
ENDBRANCH  19  21
ENDBRANCH   9  11
ENDBRANCH   8   9
ENDBRANCH   3   7
TORSDOF 8
