REMARK  8 active torsions:
REMARK  status: ('A' for Active; 'I' for Inactive)
REMARK    1  A    between atoms: C2_2  and  C3_3 
REMARK    2  A    between atoms: C3_3  and  C4_4 
REMARK    3  A    between atoms: C4_4  and  N1_5 
REMARK    4  A    between atoms: N1_5  and  C5_6 
REMARK    5  A    between atoms: N1_5  and  C11_14 
REMARK    6  A    between atoms: C5_6  and  N2_8 
REMARK    7  A    between atoms: N2_8  and  C6_9 
REMARK    8  A    between atoms: C16_20  and  O1_21 
ROOT
HETATM    1  N1  UNL     1      -0.224  -0.041  -0.264  1.00  0.00    -0.322 N 
ENDROOT
BRANCH   1   2
HETATM    2  C4  UNL     1      -0.610  -1.274   0.394  1.00  0.00     0.131 C 
BRANCH   2   3
HETATM    3  C3  UNL     1      -2.054  -1.302   0.811  1.00  0.00     0.020 C 
BRANCH   3   4
HETATM    4  C2  UNL     1      -3.017  -1.150  -0.332  1.00  0.00    -0.003 C 
HETATM    5  C1  UNL     1      -4.459  -1.193   0.196  1.00  0.00     0.005 C 
ENDBRANCH   3   4
ENDBRANCH   2   3
ENDBRANCH   1   2
BRANCH   1   6
HETATM    6  C5  UNL     1       1.179  -0.156  -0.588  1.00  0.00     0.175 C 
HETATM    7  S1  UNL     1       2.045   1.007  -1.346  1.00  0.00    -0.041 SA
BRANCH   6   8
HETATM    8  N2  UNL     1       2.086  -1.226  -0.347  1.00  0.00    -0.356 N 
HETATM    9  H10 UNL     1       1.558  -1.984   0.140  1.00  0.00     0.162 HD
BRANCH   8  10
HETATM   10  C6  UNL     1       3.489  -1.461  -0.619  1.00  0.00     0.130 A 
HETATM   11  C7  UNL     1       3.900  -2.797  -0.125  1.00  0.00     0.002 A 
HETATM   12  C8  UNL     1       4.811  -2.686   0.830  1.00  0.00    -0.002 A 
HETATM   13  C9  UNL     1       5.086  -1.266   1.053  1.00  0.00    -0.002 A 
HETATM   14  C10 UNL     1       4.328  -0.558   0.223  1.00  0.00     0.002 A 
ENDBRANCH   8  10
ENDBRANCH   6   8
ENDBRANCH   1   6
BRANCH   1  15
HETATM   15  C11 UNL     1      -0.792   1.193  -0.665  1.00  0.00     0.072 A 
HETATM   16  C12 UNL     1      -0.711   1.342  -2.055  1.00  0.00     0.033 A 
HETATM   17  C13 UNL     1      -1.203   2.470  -2.694  1.00  0.00     0.004 A 
HETATM   18  C14 UNL     1      -1.773   3.430  -1.886  1.00  0.00     0.027 A 
HETATM   19  C15 UNL     1      -1.874   3.325  -0.516  1.00  0.00     0.069 A 
HETATM   20 CL1  UNL     1      -2.598   4.543   0.511  1.00  0.00    -0.081 Cl
HETATM   21  C16 UNL     1      -1.375   2.191   0.087  1.00  0.00     0.116 A 
BRANCH  21  22
HETATM   22  O1  UNL     1      -1.397   1.936   1.429  1.00  0.00    -0.352 OA
HETATM   23  C17 UNL     1      -0.337   2.331   2.287  1.00  0.00     0.210 C 
ENDBRANCH  21  22
ENDBRANCH   1  15
TORSDOF 8
