REMARK  10 active torsions:
REMARK  status: ('A' for Active; 'I' for Inactive)
REMARK    1  A    between atoms: C2_2  and  C3_3 
REMARK    2  A    between atoms: C3_3  and  C4_4 
REMARK    3  A    between atoms: C4_4  and  N1_5 
REMARK    4  A    between atoms: N1_5  and  C5_6 
REMARK    5  A    between atoms: N1_5  and  C9_12 
REMARK    6  A    between atoms: C5_6  and  C6_7 
REMARK    7  A    between atoms: C6_7  and  C7_8 
REMARK    8  A    between atoms: C7_8  and  O1_9 
REMARK    9  A    between atoms: C9_12  and  N2_14 
REMARK   10  A    between atoms: N2_14  and  C10_15 
ROOT
HETATM    1  N1  UNL     1      -0.701  -0.056   0.339  1.00  0.00    -0.358 N 
ENDROOT
BRANCH   1   2
HETATM    2  C4  UNL     1      -1.626  -0.946  -0.278  1.00  0.00     0.125 C 
BRANCH   2   3
HETATM    3  C3  UNL     1      -2.321  -1.905   0.651  1.00  0.00     0.019 C 
BRANCH   3   4
HETATM    4  C2  UNL     1      -3.250  -2.740  -0.243  1.00  0.00    -0.003 C 
HETATM    5  C1  UNL     1      -4.021  -3.755   0.539  1.00  0.00     0.005 C 
ENDBRANCH   3   4
ENDBRANCH   2   3
ENDBRANCH   1   2
BRANCH   1   6
HETATM    6  C5  UNL     1      -1.436   0.859   1.161  1.00  0.00     0.132 C 
BRANCH   6   7
HETATM    7  C6  UNL     1      -2.308   1.823   0.412  1.00  0.00     0.085 C 
BRANCH   7   8
HETATM    8  C7  UNL     1      -1.555   2.688  -0.523  1.00  0.00     0.055 C 
HETATM    9  C8  UNL     1      -0.333   2.895  -0.929  1.00  0.00     0.249 C 
HETATM   10 CL1  UNL     1       0.600   3.895  -2.020  1.00  0.00    -0.228 Cl
BRANCH   8  11
HETATM   11  O1  UNL     1      -2.373   3.582  -1.211  1.00  0.00    -0.364 OA
HETATM   12  H14 UNL     1      -2.728   4.415  -0.756  1.00  0.00     0.217 HD
ENDBRANCH   8  11
ENDBRANCH   7   8
ENDBRANCH   6   7
ENDBRANCH   1   6
BRANCH   1  13
HETATM   13  C9  UNL     1       0.712  -0.119   0.132  1.00  0.00     0.174 C 
HETATM   14  S1  UNL     1       1.250  -1.288  -0.876  1.00  0.00    -0.041 SA
BRANCH  13  15
HETATM   15  N2  UNL     1       1.740   0.711   0.691  1.00  0.00    -0.333 N 
HETATM   16  H16 UNL     1       1.697   1.520   1.352  1.00  0.00     0.168 HD
BRANCH  15  17
HETATM   17  C10 UNL     1       3.130   0.569   0.422  1.00  0.00     0.034 A 
HETATM   18  C11 UNL     1       3.853   1.181  -0.582  1.00  0.00     0.029 A 
HETATM   19  C12 UNL     1       5.196   0.966  -0.748  1.00  0.00     0.002 A 
HETATM   20  C13 UNL     1       5.800   0.092   0.155  1.00  0.00     0.000 A 
HETATM   21  C14 UNL     1       5.130  -0.536   1.161  1.00  0.00     0.002 A 
HETATM   22  C15 UNL     1       3.780  -0.300   1.303  1.00  0.00     0.029 A 
ENDBRANCH  15  17
ENDBRANCH  13  15
ENDBRANCH   1  13
TORSDOF 10
