REMARK  3 active torsions:
REMARK  status: ('A' for Active; 'I' for Inactive)
REMARK    1  A    between atoms: O1_2  and  C2_3 
REMARK    2  A    between atoms: C6_8  and  N2_9 
REMARK    3  A    between atoms: N2_9  and  C7_10 
ROOT
HETATM    1  C2  UNL     1      -3.187   1.202   1.317  1.00  0.00     0.080 C 
HETATM    2  C3  UNL     1      -2.369   1.214   2.369  1.00  0.00     0.027 C 
HETATM    3  C4  UNL     1      -1.158   0.772   2.057  1.00  0.00     0.103 C 
HETATM    4  N1  UNL     1      -0.698   0.043   0.936  1.00  0.00    -0.358 N 
HETATM    5  C5  UNL     1      -0.248  -1.215   0.450  1.00  0.00     0.132 A 
HETATM    6  C6  UNL     1       1.125  -1.243   0.345  1.00  0.00     0.160 A 
HETATM    7  N3  UNL     1       1.889  -2.295  -0.073  1.00  0.00    -0.222 NA
HETATM    8  C13 UNL     1       1.165  -3.377  -0.400  1.00  0.00     0.238 A 
HETATM    9  N4  UNL     1      -0.177  -3.397  -0.316  1.00  0.00    -0.216 NA
HETATM   10  C14 UNL     1      -0.935  -2.349   0.101  1.00  0.00     0.197 A 
HETATM   11  O2  UNL     1      -2.235  -2.905  -0.013  1.00  0.00    -0.329 OA
HETATM   12  C15 UNL     1      -3.186  -2.297  -0.873  1.00  0.00     0.205 C 
HETATM   13  C16 UNL     1      -3.495  -0.895  -0.405  1.00  0.00     0.002 C 
HETATM   14  C17 UNL     1      -3.312   0.081   0.449  1.00  0.00     0.035 C 
HETATM   15  H5  UNL     1      -0.662   0.759   0.182  1.00  0.00     0.165 HD
ENDROOT
BRANCH   6  16
HETATM   16  N2  UNL     1       1.821  -0.053   0.689  1.00  0.00    -0.339 N 
HETATM   17  H6  UNL     1       1.504   0.494   1.519  1.00  0.00     0.167 HD
BRANCH  16  18
HETATM   18  C7  UNL     1       2.943   0.482   0.020  1.00  0.00     0.035 A 
HETATM   19  C8  UNL     1       3.559   1.662   0.431  1.00  0.00     0.029 A 
HETATM   20  C9  UNL     1       4.641   2.184  -0.245  1.00  0.00     0.004 A 
HETATM   21  C10 UNL     1       5.178   1.579  -1.359  1.00  0.00     0.019 A 
HETATM   22  C11 UNL     1       4.586   0.394  -1.798  1.00  0.00     0.013 A 
HETATM   23 BR1  UNL     1       5.319  -0.446  -3.332  1.00  0.00    -0.051 Br
HETATM   24  C12 UNL     1       3.501  -0.088  -1.083  1.00  0.00     0.048 A 
ENDBRANCH  16  18
ENDBRANCH   6  16
BRANCH   1  25
HETATM   25  O1  UNL     1      -4.028   2.135   0.829  1.00  0.00    -0.355 OA
HETATM   26  C1  UNL     1      -4.035   2.593  -0.478  1.00  0.00     0.210 C 
ENDBRANCH   1  25
TORSDOF 3
