REMARK  8 active torsions:
REMARK  status: ('A' for Active; 'I' for Inactive)
REMARK    1  A    between atoms: C2_2  and  C3_3 
REMARK    2  A    between atoms: C3_3  and  N1_4 
REMARK    3  A    between atoms: N1_4  and  C4_5 
REMARK    4  A    between atoms: N1_4  and  N2_14 
REMARK    5  A    between atoms: C4_5  and  C5_6 
REMARK    6  A    between atoms: C10_12  and  O1_13 
REMARK    7  A    between atoms: N2_14  and  C11_15 
REMARK    8  A    between atoms: C16_20  and  S1_21 
ROOT
HETATM    1  N1  UNL     1      -0.759   1.228  -0.050  1.00  0.00    -0.323 N 
ENDROOT
BRANCH   1   2
HETATM    2  C3  UNL     1      -0.383   2.575  -0.208  1.00  0.00     0.142 C 
BRANCH   2   3
HETATM    3  C2  UNL     1      -1.267   3.531   0.522  1.00  0.00     0.017 C 
HETATM    4  C1  UNL     1      -0.750   4.930   0.268  1.00  0.00     0.007 C 
ENDBRANCH   2   3
ENDBRANCH   1   2
BRANCH   1   5
HETATM    5  C4  UNL     1      -1.960   0.779  -0.617  1.00  0.00     0.183 C 
BRANCH   5   6
HETATM    6  C5  UNL     1      -2.280  -0.657  -0.410  1.00  0.00    -0.004 A 
HETATM    7  C6  UNL     1      -3.240  -1.061   0.525  1.00  0.00     0.012 A 
HETATM    8  C7  UNL     1      -3.601  -2.367   0.785  1.00  0.00     0.002 A 
HETATM    9  C8  UNL     1      -2.951  -3.363   0.051  1.00  0.00     0.026 A 
HETATM   10  C9  UNL     1      -1.996  -3.024  -0.885  1.00  0.00     0.067 A 
HETATM   11 CL1  UNL     1      -1.208  -4.295  -1.781  1.00  0.00    -0.081 Cl
HETATM   12  C10 UNL     1      -1.685  -1.697  -1.093  1.00  0.00     0.095 A 
BRANCH  12  13
HETATM   13  O1  UNL     1      -0.726  -1.398  -2.036  1.00  0.00    -0.358 OA
HETATM   14  H13 UNL     1      -0.198  -2.079  -2.552  1.00  0.00     0.217 HD
ENDBRANCH  12  13
ENDBRANCH   5   6
ENDBRANCH   1   5
BRANCH   1  15
HETATM   15  N2  UNL     1       0.164   0.333   0.377  1.00  0.00    -0.301 N 
HETATM   16  H14 UNL     1      -0.224  -0.178   1.201  1.00  0.00     0.187 HD
BRANCH  15  17
HETATM   17  C11 UNL     1       1.465   0.030  -0.106  1.00  0.00     0.064 A 
HETATM   18  C12 UNL     1       2.009   0.683  -1.190  1.00  0.00     0.032 A 
HETATM   19  C13 UNL     1       3.261   0.400  -1.664  1.00  0.00     0.002 A 
HETATM   20  C14 UNL     1       4.015  -0.579  -1.035  1.00  0.00     0.002 A 
HETATM   21  C15 UNL     1       3.482  -1.241   0.052  1.00  0.00     0.021 A 
HETATM   22  C16 UNL     1       2.211  -0.944   0.523  1.00  0.00     0.028 A 
BRANCH  22  23
HETATM   23  S1  UNL     1       1.577  -1.846   1.947  1.00  0.00    -0.132 SA
HETATM   24  C17 UNL     1       2.836  -3.015   2.476  1.00  0.00     0.095 C 
ENDBRANCH  22  23
ENDBRANCH  15  17
ENDBRANCH   1  15
TORSDOF 8
