REMARK  0 active torsions:
REMARK  status: ('A' for Active; 'I' for Inactive)
ROOT
HETATM    1  O1  UNL     1      -3.279  -2.069  -1.104  1.00  0.00     0.000 OA
HETATM    2  C1  UNL     1      -2.307  -1.064  -1.263  1.00  0.00    -0.046 A 
HETATM    3  C2  UNL     1      -1.831  -2.097  -0.689  1.00  0.00     0.107 A 
HETATM    4 CL1  UNL     1      -2.438  -3.639  -0.199  1.00  0.00    -0.107 Cl
HETATM    5  C3  UNL     1      -0.607  -2.564  -0.160  1.00  0.00     0.006 C 
HETATM    6  C4  UNL     1       0.467  -3.061   0.342  1.00  0.00    -0.002 C 
HETATM    7  C5  UNL     1       1.838  -3.159   0.751  1.00  0.00    -0.002 C 
HETATM    8  C6  UNL     1       2.862  -2.358   0.676  1.00  0.00     0.003 C 
HETATM    9  C7  UNL     1       3.399  -1.047   0.248  1.00  0.00     0.299 C 
HETATM   10  N1  UNL     1       3.914  -0.313   1.397  1.00  0.00     0.103 N 
HETATM   11  C8  UNL     1       4.494   0.934   1.005  1.00  0.00     0.392 C 
HETATM   12  N2  UNL     1       3.567   1.772   0.276  1.00  0.00    -0.377 N 
HETATM   13  C9  UNL     1       2.365   2.067   0.980  1.00  0.00     0.066 C 
HETATM   14  C10 UNL     1       1.083   2.236   1.214  1.00  0.00     0.058 C 
HETATM   15  C11 UNL     1      -0.271   2.178   0.612  1.00  0.00    -0.020 C 
HETATM   16  C12 UNL     1      -1.319   2.026  -0.236  1.00  0.00    -0.030 C 
HETATM   17  C13 UNL     1      -2.650   2.290   0.311  1.00  0.00     0.027 C 
HETATM   18  C14 UNL     1      -3.581   1.149   0.232  1.00  0.00     0.004 C 
HETATM   19  C15 UNL     1      -3.931   0.743  -1.147  1.00  0.00     0.005 C 
HETATM   20  C16 UNL     1      -2.787   0.152  -1.916  1.00  0.00     0.037 C 
HETATM   21  H1  UNL     1      -4.224  -2.004  -1.456  1.00  0.00     0.000 HD
HETATM   22  H8  UNL     1       4.700  -0.916   1.781  1.00  0.00     0.318 HD
HETATM   23  H11 UNL     1       3.095   2.363  -0.440  1.00  0.00     0.160 HD
ENDROOT
TORSDOF 0
