REMARK  8 active torsions:
REMARK  status: ('A' for Active; 'I' for Inactive)
REMARK    1  A    between atoms: C2_2  and  C3_3 
REMARK    2  A    between atoms: C3_3  and  C4_4 
REMARK    3  A    between atoms: C4_4  and  N1_5 
REMARK    4  A    between atoms: N1_5  and  C5_6 
REMARK    5  A    between atoms: N1_5  and  C12_15 
REMARK    6  A    between atoms: C5_6  and  C6_7 
REMARK    7  A    between atoms: C11_13  and  O1_14 
REMARK    8  A    between atoms: N2_17  and  C13_18 
ROOT
HETATM    1  N1  UNL     1      -0.710   0.826   0.595  1.00  0.00    -0.349 N 
ENDROOT
BRANCH   1   2
HETATM    2  C4  UNL     1      -0.781   2.205   0.963  1.00  0.00     0.125 C 
BRANCH   2   3
HETATM    3  C3  UNL     1      -1.016   3.238  -0.044  1.00  0.00     0.019 C 
BRANCH   3   4
HETATM    4  C2  UNL     1      -2.234   3.226  -0.888  1.00  0.00    -0.003 C 
HETATM    5  C1  UNL     1      -3.538   3.226  -0.166  1.00  0.00     0.005 C 
ENDBRANCH   3   4
ENDBRANCH   2   3
ENDBRANCH   1   2
BRANCH   1   6
HETATM    6  C5  UNL     1      -1.831   0.031   0.218  1.00  0.00     0.166 C 
BRANCH   6   7
HETATM    7  C6  UNL     1      -1.524  -1.336  -0.276  1.00  0.00    -0.005 A 
HETATM    8  C7  UNL     1      -1.660  -2.468   0.504  1.00  0.00     0.012 A 
HETATM    9  C8  UNL     1      -1.406  -3.775   0.150  1.00  0.00     0.002 A 
HETATM   10  C9  UNL     1      -0.958  -3.938  -1.166  1.00  0.00     0.026 A 
HETATM   11  C10 UNL     1      -0.795  -2.858  -2.014  1.00  0.00     0.067 A 
HETATM   12 CL1  UNL     1      -0.226  -3.147  -3.655  1.00  0.00    -0.081 Cl
HETATM   13  C11 UNL     1      -1.072  -1.554  -1.587  1.00  0.00     0.095 A 
BRANCH  13  14
HETATM   14  O1  UNL     1      -0.903  -0.488  -2.448  1.00  0.00    -0.358 OA
HETATM   15  H15 UNL     1      -0.315  -0.611  -3.258  1.00  0.00     0.217 HD
ENDBRANCH  13  14
ENDBRANCH   6   7
ENDBRANCH   1   6
BRANCH   1  16
HETATM   16  C12 UNL     1       0.624   0.297   0.649  1.00  0.00     0.284 A 
HETATM   17  S1  UNL     1       1.880   1.292   1.096  1.00  0.00     0.145 SA
HETATM   18  N2  UNL     1       1.722  -0.582   0.574  1.00  0.00     0.051 N 
HETATM   19  H16 UNL     1       0.919  -1.198   0.332  1.00  0.00     0.306 HD
BRANCH  18  20
HETATM   20  C13 UNL     1       2.948  -1.311   0.557  1.00  0.00     0.256 A 
HETATM   21  C14 UNL     1       3.603  -1.362   1.884  1.00  0.00     0.012 A 
HETATM   22  C15 UNL     1       4.828  -0.812   1.843  1.00  0.00    -0.002 A 
HETATM   23  C16 UNL     1       5.070  -0.352   0.460  1.00  0.00    -0.002 A 
HETATM   24  C17 UNL     1       3.995  -0.641  -0.259  1.00  0.00     0.012 A 
ENDBRANCH  18  20
ENDBRANCH   1  16
TORSDOF 8
