REMARK  8 active torsions:
REMARK  status: ('A' for Active; 'I' for Inactive)
REMARK    1  A    between atoms: C2_2  and  C3_3 
REMARK    2  A    between atoms: C3_3  and  C4_4 
REMARK    3  A    between atoms: C4_4  and  N1_5 
REMARK    4  A    between atoms: N1_5  and  C5_6 
REMARK    5  A    between atoms: N1_5  and  C12_14 
REMARK    6  A    between atoms: C5_6  and  C6_7 
REMARK    7  A    between atoms: C12_14  and  N2_16 
REMARK    8  A    between atoms: N2_16  and  C13_17 
ROOT
HETATM    1  N1  UNL     1      -0.377  -0.185   0.577  1.00  0.00    -0.354 N 
ENDROOT
BRANCH   1   2
HETATM    2  C4  UNL     1      -1.204   0.603   1.506  1.00  0.00     0.125 C 
BRANCH   2   3
HETATM    3  C3  UNL     1      -2.342   1.244   0.774  1.00  0.00     0.020 C 
BRANCH   3   4
HETATM    4  C2  UNL     1      -1.913   2.151  -0.311  1.00  0.00    -0.003 C 
HETATM    5  C1  UNL     1      -1.109   3.303   0.232  1.00  0.00     0.005 C 
ENDBRANCH   3   4
ENDBRANCH   2   3
ENDBRANCH   1   2
BRANCH   1   6
HETATM    6  C5  UNL     1      -0.552  -1.380  -0.216  1.00  0.00     0.165 C 
BRANCH   6   7
HETATM    7  C6  UNL     1      -1.953  -1.794  -0.405  1.00  0.00    -0.019 A 
HETATM    8  C7  UNL     1      -2.751  -1.536  -1.499  1.00  0.00     0.010 A 
HETATM    9  C8  UNL     1      -4.053  -1.991  -1.497  1.00  0.00     0.001 A 
HETATM   10  C9  UNL     1      -4.639  -2.692  -0.480  1.00  0.00     0.002 A 
HETATM   11  C10 UNL     1      -3.826  -2.954   0.630  1.00  0.00     0.024 A 
HETATM   12  C11 UNL     1      -2.525  -2.513   0.654  1.00  0.00     0.042 A 
HETATM   13 CL1  UNL     1      -1.692  -2.992   2.145  1.00  0.00    -0.084 Cl
ENDBRANCH   6   7
ENDBRANCH   1   6
BRANCH   1  14
HETATM   14  C12 UNL     1       0.999   0.250   0.436  1.00  0.00     0.174 C 
HETATM   15  S1  UNL     1       1.616   1.500   1.313  1.00  0.00    -0.041 SA
BRANCH  14  16
HETATM   16  N2  UNL     1       2.051  -0.262  -0.387  1.00  0.00    -0.333 N 
HETATM   17  H16 UNL     1       1.868  -1.086  -1.039  1.00  0.00     0.168 HD
BRANCH  16  18
HETATM   18  C13 UNL     1       3.407   0.136  -0.539  1.00  0.00     0.034 A 
HETATM   19  C14 UNL     1       3.842   1.300  -1.138  1.00  0.00     0.029 A 
HETATM   20  C15 UNL     1       5.193   1.524  -1.215  1.00  0.00     0.002 A 
HETATM   21  C16 UNL     1       6.049   0.582  -0.693  1.00  0.00     0.000 A 
HETATM   22  C17 UNL     1       5.653  -0.598  -0.084  1.00  0.00     0.002 A 
HETATM   23  C18 UNL     1       4.293  -0.811  -0.014  1.00  0.00     0.029 A 
ENDBRANCH  16  18
ENDBRANCH  14  16
ENDBRANCH   1  14
TORSDOF 8
