REMARK  9 active torsions:
REMARK  status: ('A' for Active; 'I' for Inactive)
REMARK    1  A    between atoms: C2_2  and  C3_3 
REMARK    2  A    between atoms: C3_3  and  C4_4 
REMARK    3  A    between atoms: C4_4  and  N1_5 
REMARK    4  A    between atoms: N1_5  and  C5_6 
REMARK    5  A    between atoms: N1_5  and  C12_14 
REMARK    6  A    between atoms: C5_6  and  N2_7 
REMARK    7  A    between atoms: N2_7  and  C6_8 
REMARK    8  A    between atoms: C12_14  and  C13_15 
REMARK    9  A    between atoms: C14_16  and  O1_17 
ROOT
HETATM    1  N1  UNL     1      -1.044   0.338   0.463  1.00  0.00    -0.397 N 
ENDROOT
BRANCH   1   2
HETATM    2  C4  UNL     1      -1.641   1.577   0.700  1.00  0.00     0.118 C 
BRANCH   2   3
HETATM    3  C3  UNL     1      -1.729   2.623  -0.331  1.00  0.00     0.019 C 
BRANCH   3   4
HETATM    4  C2  UNL     1      -0.511   3.197  -0.928  1.00  0.00    -0.003 C 
HETATM    5  C1  UNL     1       0.432   3.834   0.060  1.00  0.00     0.005 C 
ENDBRANCH   3   4
ENDBRANCH   2   3
ENDBRANCH   1   2
BRANCH   1   6
HETATM    6  C5  UNL     1       0.359   0.311   0.312  1.00  0.00     0.240 C 
BRANCH   6   7
HETATM    7  N2  UNL     1       0.904  -1.044   0.341  1.00  0.00    -0.374 N 
HETATM    8  H12 UNL     1       0.310  -1.901   0.539  1.00  0.00     0.161 HD
BRANCH   7   9
HETATM    9  C6  UNL     1       2.293  -1.260   0.100  1.00  0.00     0.029 A 
HETATM   10  C7  UNL     1       3.148  -0.213  -0.166  1.00  0.00     0.029 A 
HETATM   11  C8  UNL     1       4.484  -0.475  -0.402  1.00  0.00     0.002 A 
HETATM   12  C9  UNL     1       5.037  -1.757  -0.390  1.00  0.00     0.000 A 
HETATM   13  C10 UNL     1       4.149  -2.774  -0.120  1.00  0.00     0.002 A 
HETATM   14  C11 UNL     1       2.814  -2.544   0.120  1.00  0.00     0.029 A 
ENDBRANCH   7   9
ENDBRANCH   6   7
ENDBRANCH   1   6
BRANCH   1  15
HETATM   15  C12 UNL     1      -1.746  -0.470  -0.525  1.00  0.00     0.127 C 
BRANCH  15  16
HETATM   16  C13 UNL     1      -3.062  -0.942  -0.034  1.00  0.00     0.058 A 
HETATM   17  C14 UNL     1      -2.957  -1.779   1.186  1.00  0.00     0.111 A 
HETATM   18  C15 UNL     1      -3.312  -2.883   0.503  1.00  0.00     0.055 A 
HETATM   19  C16 UNL     1      -3.704  -3.534  -0.751  1.00  0.00    -0.007 A 
HETATM   20  C17 UNL     1      -3.443  -2.229  -0.678  1.00  0.00     0.029 A 
HETATM   21 BR1  UNL     1      -4.196  -5.181  -1.573  1.00  0.00    -0.058 Br
BRANCH  17  22
HETATM   22  O1  UNL     1      -2.653  -1.725   2.548  1.00  0.00    -0.385 OA
HETATM   23  H21 UNL     1      -1.919  -1.134   2.859  1.00  0.00     0.210 HD
ENDBRANCH  17  22
ENDBRANCH  15  16
ENDBRANCH   1  15
TORSDOF 9
