REMARK  9 active torsions:
REMARK  status: ('A' for Active; 'I' for Inactive)
REMARK    1  A    between atoms: C2_2  and  N1_3 
REMARK    2  A    between atoms: N1_3  and  C3_4 
REMARK    3  A    between atoms: N1_3  and  S1_13 
REMARK    4  A    between atoms: C3_4  and  C4_5 
REMARK    5  A    between atoms: C4_5  and  N2_6 
REMARK    6  A    between atoms: N2_6  and  C5_7 
REMARK    7  A    between atoms: S1_13  and  C11_14 
REMARK    8  A    between atoms: C11_14  and  C12_15 
REMARK    9  A    between atoms: C17_21  and  O1_22 
ROOT
HETATM    1  N1  UNL     1      -0.471   0.535   0.226  1.00  0.00    -0.355 N 
ENDROOT
BRANCH   1   2
HETATM    2  C2  UNL     1      -0.496   1.867  -0.206  1.00  0.00     0.126 C 
HETATM    3  C1  UNL     1       0.588   2.783   0.243  1.00  0.00     0.027 C 
ENDBRANCH   1   2
BRANCH   1   4
HETATM    4  C3  UNL     1       0.492  -0.369  -0.250  1.00  0.00     0.150 C 
BRANCH   4   5
HETATM    5  C4  UNL     1       1.870  -0.034   0.197  1.00  0.00     0.140 C 
BRANCH   5   6
HETATM    6  N2  UNL     1       2.858  -1.015  -0.306  1.00  0.00    -0.388 N 
HETATM    7  H10 UNL     1       2.569  -1.878  -0.849  1.00  0.00     0.159 HD
BRANCH   6   8
HETATM    8  C5  UNL     1       4.258  -0.774  -0.037  1.00  0.00     0.028 A 
HETATM    9  C6  UNL     1       5.246  -1.632  -0.462  1.00  0.00     0.029 A 
HETATM   10  C7  UNL     1       6.550  -1.264  -0.139  1.00  0.00     0.002 A 
HETATM   11  C8  UNL     1       6.928  -0.143   0.553  1.00  0.00     0.000 A 
HETATM   12  C9  UNL     1       5.919   0.702   0.967  1.00  0.00     0.002 A 
HETATM   13  C10 UNL     1       4.606   0.368   0.664  1.00  0.00     0.029 A 
ENDBRANCH   6   8
ENDBRANCH   5   6
ENDBRANCH   4   5
ENDBRANCH   1   4
BRANCH   1  14
HETATM   14  S1  UNL     1      -1.193   0.134   1.725  1.00  0.00    -0.053 SA
BRANCH  14  15
HETATM   15  C11 UNL     1      -2.956   0.335   1.859  1.00  0.00     0.138 C 
BRANCH  15  16
HETATM   16  C12 UNL     1      -3.639  -0.641   0.982  1.00  0.00    -0.013 A 
HETATM   17  C13 UNL     1      -4.201  -1.801   1.520  1.00  0.00     0.011 A 
HETATM   18  C14 UNL     1      -4.846  -2.766   0.775  1.00  0.00     0.002 A 
HETATM   19  C15 UNL     1      -4.961  -2.611  -0.580  1.00  0.00     0.022 A 
HETATM   20  C16 UNL     1      -4.424  -1.484  -1.161  1.00  0.00     0.044 A 
HETATM   21 BR1  UNL     1      -4.589  -1.280  -3.046  1.00  0.00    -0.048 Br
HETATM   22  C17 UNL     1      -3.792  -0.554  -0.373  1.00  0.00     0.092 A 
BRANCH  22  23
HETATM   23  O1  UNL     1      -3.288   0.542  -1.053  1.00  0.00    -0.354 OA
HETATM   24  C18 UNL     1      -4.083   1.686  -1.257  1.00  0.00     0.210 C 
ENDBRANCH  22  23
ENDBRANCH  15  16
ENDBRANCH  14  15
ENDBRANCH   1  14
TORSDOF 9
