REMARK  0 active torsions:
REMARK  status: ('A' for Active; 'I' for Inactive)
ROOT
HETATM    1 BR1  UNL     1       0.601  -2.658  -0.896  1.00  0.00    -0.111 Br
HETATM    2  C1  UNL     1       0.960  -0.723  -0.628  1.00  0.00     0.092 A 
HETATM    3  C2  UNL     1       2.110  -1.242  -0.088  1.00  0.00     0.141 A 
HETATM    4  C3  UNL     1       3.175  -0.421  -0.360  1.00  0.00     0.017 A 
HETATM    5  C4  UNL     1       2.604   0.642  -1.096  1.00  0.00     0.006 A 
HETATM    6  C5  UNL     1       1.287   0.540  -1.298  1.00  0.00     0.077 A 
HETATM    7  C6  UNL     1       0.070   0.113  -1.293  1.00  0.00     0.029 A 
HETATM    8  C7  UNL     1      -1.116  -0.480  -1.179  1.00  0.00     0.010 A 
HETATM    9  C8  UNL     1      -1.404   0.652  -0.447  1.00  0.00     0.025 A 
HETATM   10  C9  UNL     1      -1.196   0.683   1.090  1.00  0.00     0.086 C 
HETATM   11  C10 UNL     1      -0.366   1.880   1.351  1.00  0.00     0.128 C 
HETATM   12  N1  UNL     1      -0.075   2.790   0.350  1.00  0.00    -0.406 N 
HETATM   13  C11 UNL     1       0.772   2.818  -0.690  1.00  0.00     0.233 C 
HETATM   14  N2  UNL     1       0.907   1.866  -1.764  1.00  0.00    -0.392 N 
HETATM   15  C12 UNL     1      -0.612  -0.648   1.457  1.00  0.00     0.149 C 
HETATM   16  N3  UNL     1       0.614  -0.903   1.602  1.00  0.00    -0.222 NA
HETATM   17  C13 UNL     1       1.306  -2.090   1.933  1.00  0.00     0.231 C 
HETATM   18  N4  UNL     1       2.221  -2.309   0.911  1.00  0.00    -0.255 NA
HETATM   19  O1  UNL     1      -1.482  -1.754   1.660  1.00  0.00    -0.312 OA
HETATM   20  C14 UNL     1      -2.409  -2.414   0.806  1.00  0.00     0.346 C 
HETATM   21  O2  UNL     1      -2.902  -1.711  -0.234  1.00  0.00    -0.366 OA
HETATM   22  C15 UNL     1      -2.062  -1.512  -1.345  1.00  0.00     0.182 C 
HETATM   23  H7  UNL     1      -0.934   3.412   0.207  1.00  0.00     0.154 HD
HETATM   24  H10 UNL     1       0.848   1.895  -2.797  1.00  0.00     0.156 HD
ENDROOT
TORSDOF 0
