REMARK  4 active torsions:
REMARK  status: ('A' for Active; 'I' for Inactive)
REMARK    1  A    between atoms: C2_2  and  S1_3 
REMARK    2  A    between atoms: N1_9  and  C8_10 
REMARK    3  A    between atoms: C8_10  and  N2_11 
REMARK    4  A    between atoms: N2_11  and  C9_12 
ROOT
HETATM    1  C1  UNL     1      -4.856  -0.624  -0.594  1.00  0.00     0.027 C 
HETATM    2  C2  UNL     1      -3.568  -0.573   0.280  1.00  0.00     0.006 C 
HETATM    3  C3  UNL     1      -2.876   0.741  -0.043  1.00  0.00     0.037 A 
HETATM    4  C4  UNL     1      -3.707   1.794  -0.281  1.00  0.00    -0.021 A 
HETATM    5  C5  UNL     1      -2.536   2.775  -0.528  1.00  0.00    -0.021 A 
HETATM    6  C6  UNL     1      -1.589   1.781  -0.271  1.00  0.00     0.047 A 
HETATM    7  C7  UNL     1      -0.152   1.539  -0.214  1.00  0.00     0.280 C 
HETATM    8  N1  UNL     1       0.123   0.318  -0.999  1.00  0.00     0.106 N 
HETATM    9  C15 UNL     1       0.549  -0.699  -0.026  1.00  0.00     0.274 C 
HETATM   10  C16 UNL     1      -0.398  -1.194   0.953  1.00  0.00     0.030 C 
HETATM   11  C17 UNL     1      -1.522  -2.064   0.594  1.00  0.00     0.003 C 
HETATM   12  C18 UNL     1      -2.655  -1.669  -0.229  1.00  0.00     0.020 C 
ENDROOT
BRANCH   8  13
HETATM   13  C8  UNL     1       1.417   0.596  -1.692  1.00  0.00     0.395 C 
BRANCH  13  14
HETATM   14  N2  UNL     1       2.504   0.908  -0.816  1.00  0.00    -0.365 N 
HETATM   15  H13 UNL     1       2.362   1.898  -0.442  1.00  0.00     0.161 HD
BRANCH  14  16
HETATM   16  C9  UNL     1       3.667   0.239  -0.358  1.00  0.00     0.029 A 
HETATM   17  C10 UNL     1       3.983  -1.035  -0.772  1.00  0.00     0.029 A 
HETATM   18  C11 UNL     1       5.150  -1.671  -0.319  1.00  0.00     0.002 A 
HETATM   19  C12 UNL     1       6.017  -1.022   0.556  1.00  0.00     0.000 A 
HETATM   20  C13 UNL     1       5.643   0.245   0.931  1.00  0.00     0.002 A 
HETATM   21  C14 UNL     1       4.523   0.916   0.527  1.00  0.00     0.029 A 
ENDBRANCH  14  16
ENDBRANCH  13  14
ENDBRANCH   8  13
BRANCH   2  22
HETATM   22  S1  UNL     1      -4.047  -0.749   1.985  1.00  0.00    -0.172 SA
HETATM   23  H4  UNL     1      -3.674   0.434   2.678  1.00  0.00     0.102 HD
ENDBRANCH   2  22
TORSDOF 4
