REMARK  8 active torsions:
REMARK  status: ('A' for Active; 'I' for Inactive)
REMARK    1  A    between atoms: C2_2  and  C3_3 
REMARK    2  A    between atoms: C3_3  and  C4_4 
REMARK    3  A    between atoms: C4_4  and  N1_5 
REMARK    4  A    between atoms: N1_5  and  C5_6 
REMARK    5  A    between atoms: N1_5  and  C13_15 
REMARK    6  A    between atoms: C5_6  and  C6_7 
REMARK    7  A    between atoms: C10_11  and  O1_12 
REMARK    8  A    between atoms: C13_15  and  N2_17 
ROOT
HETATM    1  N1  UNL     1      -0.325   0.746   0.017  1.00  0.00    -0.354 N 
ENDROOT
BRANCH   1   2
HETATM    2  C4  UNL     1      -0.061   2.185  -0.160  1.00  0.00     0.125 C 
BRANCH   2   3
HETATM    3  C3  UNL     1      -0.203   2.974   1.100  1.00  0.00     0.020 C 
BRANCH   3   4
HETATM    4  C2  UNL     1      -1.591   2.869   1.700  1.00  0.00    -0.003 C 
HETATM    5  C1  UNL     1      -1.686   3.684   2.975  1.00  0.00     0.005 C 
ENDBRANCH   3   4
ENDBRANCH   2   3
ENDBRANCH   1   2
BRANCH   1   6
HETATM    6  C5  UNL     1       0.687   0.120   0.848  1.00  0.00     0.164 C 
BRANCH   6   7
HETATM    7  C6  UNL     1       2.029   0.004   0.296  1.00  0.00    -0.037 C 
HETATM    8  C7  UNL     1       2.669  -1.168   0.043  1.00  0.00    -0.070 C 
HETATM    9  C8  UNL     1       1.990  -2.452   0.337  1.00  0.00     0.044 C 
HETATM   10  C9  UNL     1       4.035  -1.314  -0.531  1.00  0.00     0.099 C 
HETATM   11  C10 UNL     1       4.485  -0.037  -1.126  1.00  0.00     0.058 C 
HETATM   12  C11 UNL     1       3.662   1.003  -1.089  1.00  0.00     0.006 C 
HETATM   13  C12 UNL     1       2.894   1.142  -0.014  1.00  0.00     0.024 C 
BRANCH  11  14
HETATM   14  O1  UNL     1       5.701   0.182  -1.727  1.00  0.00    -0.364 OA
HETATM   15  H17 UNL     1       6.293  -0.510  -2.157  1.00  0.00     0.217 HD
ENDBRANCH  11  14
ENDBRANCH   6   7
ENDBRANCH   1   6
BRANCH   1  16
HETATM   16  C13 UNL     1      -1.502   0.158  -0.627  1.00  0.00     0.176 C 
HETATM   17  S1  UNL     1      -2.337   1.343  -1.461  1.00  0.00    -0.040 SA
BRANCH  16  18
HETATM   18  N2  UNL     1      -2.123  -1.095  -0.744  1.00  0.00    -0.331 N 
HETATM   19  C14 UNL     1      -1.777  -2.358  -0.224  1.00  0.00     0.093 A 
HETATM   20  C15 UNL     1      -2.346  -3.539  -0.309  1.00  0.00     0.017 A 
HETATM   21  C16 UNL     1      -3.576  -3.592  -1.088  1.00  0.00    -0.001 A 
HETATM   22  C17 UNL     1      -3.959  -2.450  -1.608  1.00  0.00    -0.007 A 
HETATM   23  C18 UNL     1      -3.346  -1.122  -1.532  1.00  0.00     0.158 A 
ENDBRANCH  16  18
ENDBRANCH   1  16
TORSDOF 8
