REMARK  6 active torsions:
REMARK  status: ('A' for Active; 'I' for Inactive)
REMARK    1  A    between atoms: C2_2  and  C3_3 
REMARK    2  A    between atoms: C4_5  and  C5_6 
REMARK    3  A    between atoms: C5_6  and  N1_8 
REMARK    4  A    between atoms: N1_8  and  C7_9 
REMARK    5  A    between atoms: C14_19  and  O1_20 
REMARK    6  A    between atoms: C16_22  and  O2_23 
ROOT
HETATM    1  C7  UNL     1       2.080   0.166   1.383  1.00  0.00     0.160 A 
HETATM    2  N2  UNL     1       2.392  -0.174   2.664  1.00  0.00    -0.222 NA
HETATM    3  C8  UNL     1       1.444  -0.071   3.635  1.00  0.00     0.238 A 
HETATM    4  N3  UNL     1       0.182   0.350   3.439  1.00  0.00    -0.215 NA
HETATM    5  C9  UNL     1      -0.168   0.696   2.187  1.00  0.00     0.202 A 
HETATM    6  C10 UNL     1       0.781   0.604   1.161  1.00  0.00     0.129 A 
HETATM    7  N4  UNL     1       0.591   0.932  -0.191  1.00  0.00    -0.379 N 
HETATM    8  C11 UNL     1      -0.558   0.923  -1.031  1.00  0.00     0.161 C 
HETATM    9  C12 UNL     1      -1.842   0.798  -0.363  1.00  0.00    -0.004 A 
HETATM   10  C13 UNL     1      -2.762   0.539  -1.382  1.00  0.00     0.051 A 
HETATM   11  C14 UNL     1      -4.119   0.358  -1.106  1.00  0.00     0.102 A 
HETATM   12  C16 UNL     1      -4.528   0.442   0.209  1.00  0.00     0.104 A 
HETATM   13  C18 UNL     1      -3.653   0.698   1.265  1.00  0.00     0.077 A 
HETATM   14  C19 UNL     1      -2.320   0.871   0.951  1.00  0.00     0.088 A 
HETATM   15  O3  UNL     1      -1.505   1.124   2.070  1.00  0.00    -0.289 OA
HETATM   16  H9  UNL     1       1.483   1.246  -0.661  1.00  0.00     0.160 HD
ENDROOT
BRANCH   1  17
HETATM   17  N1  UNL     1       3.044   0.074   0.323  1.00  0.00    -0.343 N 
HETATM   18  H7  UNL     1       3.315   1.099   0.410  1.00  0.00     0.167 HD
BRANCH  17  19
HETATM   19  C5  UNL     1       3.323  -1.130  -0.418  1.00  0.00     0.012 C 
HETATM   20  C6  UNL     1       2.106  -1.554  -0.806  1.00  0.00     0.063 C 
BRANCH  19  21
HETATM   21  C4  UNL     1       4.610  -1.759  -0.697  1.00  0.00     0.044 C 
HETATM   22  C3  UNL     1       5.854  -1.447  -0.376  1.00  0.00     0.012 C 
HETATM   23 BR1  UNL     1       7.273  -2.567  -0.958  1.00  0.00    -0.051 Br
BRANCH  22  24
HETATM   24  C2  UNL     1       6.146  -0.266   0.410  1.00  0.00     0.009 C 
HETATM   25  C1  UNL     1       7.399   0.012   0.708  1.00  0.00     0.012 C 
ENDBRANCH  22  24
ENDBRANCH  19  21
ENDBRANCH  17  19
ENDBRANCH   1  17
BRANCH  12  26
HETATM   26  O2  UNL     1      -5.860   0.265   0.491  1.00  0.00    -0.353 OA
HETATM   27  C17 UNL     1      -6.408   0.326   1.791  1.00  0.00     0.210 C 
ENDBRANCH  12  26
BRANCH  11  28
HETATM   28  O1  UNL     1      -5.062   0.099  -2.090  1.00  0.00    -0.353 OA
HETATM   29  C15 UNL     1      -4.637   0.011  -3.459  1.00  0.00     0.210 C 
ENDBRANCH  11  28
TORSDOF 6
