REMARK  8 active torsions:
REMARK  status: ('A' for Active; 'I' for Inactive)
REMARK    1  A    between atoms: C6_6  and  C7_7 
REMARK    2  A    between atoms: C7_7  and  N1_8 
REMARK    3  A    between atoms: N1_8  and  C9_10 
REMARK    4  A    between atoms: C9_10  and  C10_11 
REMARK    5  A    between atoms: C10_11  and  C11_12 
REMARK    6  A    between atoms: C11_12  and  N2_14 
REMARK    7  A    between atoms: N2_14  and  C12_15 
REMARK    8  A    between atoms: C18_21  and  O1_22 
ROOT
HETATM    1  N1  UNL     1      -0.745  -0.231   0.219  1.00  0.00     0.088 N 
HETATM    2  C8  UNL     1      -0.612  -0.874  -1.067  1.00  0.00     0.310 C 
ENDROOT
BRANCH   1   3
HETATM    3  C7  UNL     1      -2.079  -0.482   0.715  1.00  0.00     0.313 C 
BRANCH   3   4
HETATM    4  C6  UNL     1      -3.128   0.127  -0.138  1.00  0.00     0.004 A 
HETATM    5  C5  UNL     1      -2.981   0.924  -1.231  1.00  0.00     0.012 A 
HETATM    6  C4  UNL     1      -4.040   1.434  -1.936  1.00  0.00     0.001 A 
HETATM    7  C3  UNL     1      -5.321   1.130  -1.524  1.00  0.00     0.009 A 
HETATM    8  C2  UNL     1      -5.508   0.318  -0.411  1.00  0.00    -0.028 A 
HETATM    9  C1  UNL     1      -6.931   0.063  -0.062  1.00  0.00     0.051 C 
HETATM   10  C18 UNL     1      -4.410  -0.190   0.292  1.00  0.00     0.079 A 
BRANCH  10  11
HETATM   11  O1  UNL     1      -4.754  -0.996   1.396  1.00  0.00    -0.360 OA
HETATM   12  H22 UNL     1      -4.355  -0.817   2.321  1.00  0.00     0.217 HD
ENDBRANCH  10  11
ENDBRANCH   3   4
ENDBRANCH   1   3
BRANCH   1  13
HETATM   13  C9  UNL     1       0.208  -0.646   1.190  1.00  0.00     0.279 C 
BRANCH  13  14
HETATM   14  C10 UNL     1       1.639  -0.397   0.775  1.00  0.00     0.100 C 
BRANCH  14  15
HETATM   15  C11 UNL     1       2.581  -0.845   1.835  1.00  0.00     0.079 C 
HETATM   16  S1  UNL     1       2.062  -1.563   3.198  1.00  0.00    -0.065 SA
BRANCH  15  17
HETATM   17  N2  UNL     1       3.973  -0.662   1.693  1.00  0.00    -0.351 N 
HETATM   18  H16 UNL     1       4.667  -0.960   2.410  1.00  0.00     0.166 HD
BRANCH  17  19
HETATM   19  C12 UNL     1       4.930  -0.147   0.805  1.00  0.00     0.032 A 
HETATM   20  C13 UNL     1       5.659  -0.820  -0.137  1.00  0.00     0.029 A 
HETATM   21  C14 UNL     1       6.577  -0.183  -0.965  1.00  0.00     0.002 A 
HETATM   22  C15 UNL     1       6.734   1.186  -0.803  1.00  0.00     0.000 A 
HETATM   23  C16 UNL     1       6.039   1.930   0.118  1.00  0.00     0.002 A 
HETATM   24  C17 UNL     1       5.134   1.222   0.916  1.00  0.00     0.029 A 
ENDBRANCH  17  19
ENDBRANCH  15  17
ENDBRANCH  14  15
ENDBRANCH  13  14
ENDBRANCH   1  13
TORSDOF 8
