REMARK  7 active torsions:
REMARK  status: ('A' for Active; 'I' for Inactive)
REMARK    1  A    between atoms: N1_1  and  C1_2 
REMARK    2  A    between atoms: C1_2  and  C2_4 
REMARK    3  A    between atoms: C2_4  and  C3_5 
REMARK    4  A    between atoms: C3_5  and  C4_6 
REMARK    5  A    between atoms: C4_6  and  C5_7 
REMARK    6  A    between atoms: C5_7  and  C6_8 
REMARK    7  A    between atoms: C6_8  and  C7_9 
ROOT
HETATM    1  C6  UNL     1      -0.893   0.225  -0.114  1.00  0.00     0.106 C 
HETATM    2  C13 UNL     1      -1.602   0.877   1.012  1.00  0.00     0.016 C 
HETATM    3  C14 UNL     1      -2.472   1.900   1.121  1.00  0.00    -0.001 C 
HETATM    4  C15 UNL     1      -2.926   2.653  -0.072  1.00  0.00    -0.002 C 
HETATM    5  C16 UNL     1      -2.299   2.761  -1.258  1.00  0.00    -0.001 C 
HETATM    6  C17 UNL     1      -0.978   2.100  -1.572  1.00  0.00     0.197 C 
HETATM    7  O1  UNL     1      -0.884   0.806  -1.308  1.00  0.00    -0.368 OA
ENDROOT
BRANCH   1   8
HETATM    8  C5  UNL     1       0.516  -0.120   0.330  1.00  0.00     0.047 C 
BRANCH   8   9
HETATM    9  C4  UNL     1       1.423   1.014   0.582  1.00  0.00     0.004 C 
BRANCH   9  10
HETATM   10  C3  UNL     1       2.769   0.506   1.036  1.00  0.00     0.007 C 
BRANCH  10  11
HETATM   11  C2  UNL     1       3.361  -0.367  -0.033  1.00  0.00     0.069 C 
BRANCH  11  12
HETATM   12  C1  UNL     1       4.722  -0.876   0.389  1.00  0.00     0.071 C 
HETATM   13  S1  UNL     1       5.449  -2.321   0.649  1.00  0.00    -0.066 SA
BRANCH  12  14
HETATM   14  N1  UNL     1       5.569   0.222   0.611  1.00  0.00    -0.394 N 
HETATM   15  H1  UNL     1       6.216   0.483   1.379  1.00  0.00     0.156 HD
HETATM   16  H2  UNL     1       5.689   1.032  -0.034  1.00  0.00     0.156 HD
ENDBRANCH  12  14
ENDBRANCH  11  12
ENDBRANCH  10  11
ENDBRANCH   9  10
ENDBRANCH   8   9
ENDBRANCH   1   8
BRANCH   1  17
HETATM   17  C7  UNL     1      -1.581  -1.089  -0.281  1.00  0.00    -0.020 A 
HETATM   18  C8  UNL     1      -2.970  -0.997  -0.257  1.00  0.00     0.010 A 
HETATM   19  C9  UNL     1      -3.759  -2.144  -0.399  1.00  0.00     0.001 A 
HETATM   20  C10 UNL     1      -3.196  -3.403  -0.568  1.00  0.00     0.000 A 
HETATM   21  C11 UNL     1      -1.820  -3.477  -0.590  1.00  0.00     0.001 A 
HETATM   22  C12 UNL     1      -1.074  -2.358  -0.451  1.00  0.00     0.010 A 
ENDBRANCH   1  17
TORSDOF 7
