REMARK  12 active torsions:
REMARK  status: ('A' for Active; 'I' for Inactive)
REMARK    1  A    between atoms: C2_2  and  C3_3 
REMARK    2  A    between atoms: C3_3  and  C4_4 
REMARK    3  A    between atoms: C4_4  and  N1_5 
REMARK    4  A    between atoms: N1_5  and  C5_6 
REMARK    5  A    between atoms: N1_5  and  C13_15 
REMARK    6  A    between atoms: C5_6  and  C6_7 
REMARK    7  A    between atoms: C6_7  and  C7_8 
REMARK    8  A    between atoms: C7_8  and  C8_9 
REMARK    9  A    between atoms: C9_10  and  C10_11 
REMARK   10  A    between atoms: C11_12  and  O1_13 
REMARK   11  A    between atoms: C13_15  and  N2_17 
REMARK   12  A    between atoms: N2_17  and  C14_18 
ROOT
HETATM    1  N1  UNL     1      -0.799  -0.451  -0.690  1.00  0.00    -0.355 N 
ENDROOT
BRANCH   1   2
HETATM    2  C4  UNL     1      -0.361  -1.648  -0.014  1.00  0.00     0.125 C 
BRANCH   2   3
HETATM    3  C3  UNL     1      -1.385  -2.308   0.853  1.00  0.00     0.020 C 
BRANCH   3   4
HETATM    4  C2  UNL     1      -0.806  -3.586   1.462  1.00  0.00    -0.003 C 
HETATM    5  C1  UNL     1      -1.788  -4.298   2.341  1.00  0.00     0.005 C 
ENDBRANCH   3   4
ENDBRANCH   2   3
ENDBRANCH   1   2
BRANCH   1   6
HETATM    6  C5  UNL     1       0.315   0.065  -1.485  1.00  0.00     0.152 C 
BRANCH   6   7
HETATM    7  C6  UNL     1       1.331   0.637  -0.587  1.00  0.00    -0.007 C 
BRANCH   7   8
HETATM    8  C7  UNL     1       2.431   0.922   0.084  1.00  0.00    -0.002 C 
BRANCH   8   9
HETATM    9  C8  UNL     1       3.695   0.210  -0.076  1.00  0.00     0.000 C 
HETATM   10  C9  UNL     1       4.825   0.473   0.576  1.00  0.00     0.010 C 
BRANCH  10  11
HETATM   11  C10 UNL     1       6.072  -0.247   0.403  1.00  0.00    -0.023 A 
HETATM   12  C11 UNL     1       7.345  -0.133   0.970  1.00  0.00     0.054 A 
HETATM   13  C12 UNL     1       7.160  -1.171  -0.001  1.00  0.00     0.105 A 
BRANCH  12  14
HETATM   14  O1  UNL     1       8.383   0.356   1.779  1.00  0.00    -0.364 OA
HETATM   15  H16 UNL     1       8.246   1.124   2.446  1.00  0.00     0.217 HD
ENDBRANCH  12  14
ENDBRANCH  10  11
ENDBRANCH   8   9
ENDBRANCH   7   8
ENDBRANCH   6   7
ENDBRANCH   1   6
BRANCH   1  16
HETATM   16  C13 UNL     1      -1.998   0.311  -0.708  1.00  0.00     0.174 C 
HETATM   17  S1  UNL     1      -3.221  -0.218   0.249  1.00  0.00    -0.041 SA
BRANCH  16  18
HETATM   18  N2  UNL     1      -2.287   1.497  -1.463  1.00  0.00    -0.333 N 
HETATM   19  H19 UNL     1      -1.683   2.004  -2.134  1.00  0.00     0.168 HD
BRANCH  18  20
HETATM   20  C14 UNL     1      -3.527   2.172  -1.381  1.00  0.00     0.034 A 
HETATM   21  C15 UNL     1      -4.783   1.869  -1.864  1.00  0.00     0.029 A 
HETATM   22  C16 UNL     1      -5.862   2.703  -1.671  1.00  0.00     0.002 A 
HETATM   23  C17 UNL     1      -5.685   3.898  -0.962  1.00  0.00     0.000 A 
HETATM   24  C18 UNL     1      -4.447   4.241  -0.461  1.00  0.00     0.002 A 
HETATM   25  C19 UNL     1      -3.376   3.373  -0.675  1.00  0.00     0.029 A 
ENDBRANCH  18  20
ENDBRANCH  16  18
ENDBRANCH   1  16
TORSDOF 12
