REMARK  2 active torsions:
REMARK  status: ('A' for Active; 'I' for Inactive)
REMARK    1  A    between atoms: C6_7  and  P1_8 
REMARK    2  A    between atoms: P1_8  and  O2_9 
ROOT
HETATM    1  C1  UNL     1      -4.580   1.654  -0.574  1.00  0.00     0.000 C 
HETATM    2  O1  UNL     1      -3.487   1.527   0.306  1.00  0.00     0.000 OA
HETATM    3  C2  UNL     1      -3.301   0.206   1.003  1.00  0.00     0.044 A 
HETATM    4  C3  UNL     1      -2.211   0.548  -0.259  1.00  0.00     0.072 A 
HETATM    5  C4  UNL     1      -1.100  -0.446  -0.663  1.00  0.00     0.028 A 
HETATM    6  C5  UNL     1      -0.771  -1.677  -0.164  1.00  0.00     0.048 A 
HETATM    7  C6  UNL     1      -1.729  -0.964   0.271  1.00  0.00     0.040 A 
HETATM    8  P1  UNL     1      -2.840  -0.145   0.795  1.00  0.00     0.007 P 
HETATM    9  C8  UNL     1      -1.218  -2.594   0.852  1.00  0.00     0.073 A 
HETATM   10  O3  UNL     1      -1.639  -3.460   1.815  1.00  0.00     0.000 OA
HETATM   11  N1  UNL     1      -0.593  -2.629   2.028  1.00  0.00    -0.243 N 
HETATM   12  C9  UNL     1       0.509  -1.745   2.235  1.00  0.00     0.234 C 
HETATM   13  N2  UNL     1       1.304  -2.600   1.702  1.00  0.00    -0.234 NA
HETATM   14  C10 UNL     1       2.687  -2.468   1.514  1.00  0.00     0.256 C 
HETATM   15  N3  UNL     1       2.332  -1.804   0.476  1.00  0.00    -0.168 NA
HETATM   16  N4  UNL     1       3.194  -1.208  -0.447  1.00  0.00    -0.277 N 
HETATM   17  C11 UNL     1       3.500   0.125  -0.810  1.00  0.00     0.059 A 
HETATM   18  C12 UNL     1       4.813   0.248  -1.192  1.00  0.00     0.050 A 
HETATM   19  C13 UNL     1       5.350   1.479  -1.585  1.00  0.00     0.013 A 
HETATM   20 BR1  UNL     1       7.165   1.663  -2.125  1.00  0.00    -0.051 Br
HETATM   21  C14 UNL     1       4.520   2.581  -1.580  1.00  0.00     0.020 A 
HETATM   22  C15 UNL     1       3.212   2.402  -1.191  1.00  0.00     0.012 A 
HETATM   23  C16 UNL     1       2.634   1.181  -0.789  1.00  0.00    -0.002 A 
HETATM   24  C17 UNL     1       1.201   1.331  -0.439  1.00  0.00     0.310 C 
HETATM   25  N5  UNL     1       0.361   1.141  -1.628  1.00  0.00     0.088 N 
HETATM   26  C18 UNL     1      -0.074  -0.253  -1.760  1.00  0.00     0.282 C 
HETATM   27  H8  UNL     1      -2.094  -4.373   1.582  1.00  0.00     0.000 HD
HETATM   28  H11 UNL     1       3.654  -2.028  -0.923  1.00  0.00     0.189 HD
HETATM   29  H17 UNL     1       0.974   1.401  -2.437  1.00  0.00     0.316 HD
ENDROOT
BRANCH   8  30
HETATM   30  O2  UNL     1      -4.867   1.290   1.796  1.00  0.00    -0.373 OA
HETATM   31  C7  UNL     1      -4.973  -0.049   2.291  1.00  0.00     0.206 C 
ENDBRANCH   8  30
TORSDOF 2
