REMARK  5 active torsions:
REMARK  status: ('A' for Active; 'I' for Inactive)
REMARK    1  A    between atoms: C2_2  and  C3_3 
REMARK    2  A    between atoms: C3_3  and  C4_4 
REMARK    3  A    between atoms: N2_12  and  C9_13 
REMARK    4  A    between atoms: C9_13  and  C10_14 
REMARK    5  A    between atoms: C16_20  and  O1_21 
ROOT
HETATM    1  C4  UNL     1      -1.222   0.458   0.402  1.00  0.00     0.004 C 
HETATM    2  C5  UNL     1      -2.073   0.148   1.415  1.00  0.00    -0.001 C 
HETATM    3  C6  UNL     1      -2.985  -0.948   1.852  1.00  0.00     0.044 C 
HETATM    4  C7  UNL     1      -3.865  -1.409   0.707  1.00  0.00     0.103 C 
HETATM    5  N1  UNL     1      -3.472  -2.690   0.207  1.00  0.00    -0.266 NA
HETATM    6  S1  UNL     1      -1.959  -2.700  -0.624  1.00  0.00    -0.059 SA
HETATM    7  S2  UNL     1      -1.827  -4.104  -1.616  1.00  0.00    -0.007 SA
HETATM    8  C8  UNL     1      -1.644  -1.224  -1.585  1.00  0.00     0.214 C 
HETATM    9  N2  UNL     1      -0.858  -0.334  -0.711  1.00  0.00    -0.370 N 
HETATM   10  H13 UNL     1      -4.221  -3.226  -0.258  1.00  0.00     0.135 HD
ENDROOT
BRANCH   9  11
HETATM   11  C9  UNL     1       0.518  -0.234  -1.032  1.00  0.00     0.165 C 
BRANCH  11  12
HETATM   12  C10 UNL     1       1.515  -0.300   0.015  1.00  0.00    -0.007 A 
HETATM   13  C11 UNL     1       1.496  -0.626   1.347  1.00  0.00     0.011 A 
HETATM   14  C12 UNL     1       2.585  -0.653   2.190  1.00  0.00     0.001 A 
HETATM   15  C13 UNL     1       3.813  -0.326   1.664  1.00  0.00     0.009 A 
HETATM   16  C14 UNL     1       3.908   0.011   0.331  1.00  0.00    -0.028 A 
HETATM   17  C15 UNL     1       5.291   0.330  -0.115  1.00  0.00     0.051 C 
HETATM   18  C16 UNL     1       2.786   0.022  -0.467  1.00  0.00     0.079 A 
BRANCH  18  19
HETATM   19  O1  UNL     1       3.095   0.392  -1.785  1.00  0.00    -0.360 OA
HETATM   20  H24 UNL     1       3.487  -0.374  -2.341  1.00  0.00     0.217 HD
ENDBRANCH  18  19
ENDBRANCH  11  12
ENDBRANCH   9  11
BRANCH   1  21
HETATM   21  C3  UNL     1      -0.598   1.733   0.545  1.00  0.00     0.056 C 
BRANCH  21  22
HETATM   22  C2  UNL     1      -1.231   2.774  -0.334  1.00  0.00     0.002 C 
HETATM   23  C1  UNL     1      -1.211   2.552  -1.793  1.00  0.00     0.005 C 
ENDBRANCH  21  22
ENDBRANCH   1  21
TORSDOF 5
