REMARK  6 active torsions:
REMARK  status: ('A' for Active; 'I' for Inactive)
REMARK    1  A    between atoms: C3_4  and  S1_5 
REMARK    2  A    between atoms: C3_4  and  C4_6 
REMARK    3  A    between atoms: C4_6  and  C5_7 
REMARK    4  A    between atoms: C5_7  and  C6_8 
REMARK    5  A    between atoms: C14_17  and  C15_18 
REMARK    6  A    between atoms: C15_18  and  O1_19 
ROOT
HETATM    1  C1  UNL     1      -0.937   2.416   1.356  1.00  0.00     0.043 C 
HETATM    2  C2  UNL     1      -1.187   1.221   0.775  1.00  0.00     0.028 C 
HETATM    3  N1  UNL     1       0.035   0.513   1.016  1.00  0.00    -0.371 N 
HETATM    4  C3  UNL     1       0.827  -0.428   0.232  1.00  0.00     0.085 C 
HETATM    5  C8  UNL     1      -0.119  -1.558   0.091  1.00  0.00     0.071 C 
HETATM    6  C9  UNL     1      -0.130  -2.019  -1.300  1.00  0.00     0.047 C 
HETATM    7  C10 UNL     1      -1.270  -3.017  -1.154  1.00  0.00     0.074 C 
HETATM    8 CL1  UNL     1      -0.993  -4.212  -2.435  1.00  0.00    -0.110 Cl
HETATM    9  C11 UNL     1      -2.500  -2.289  -1.282  1.00  0.00     0.003 C 
HETATM   10  C12 UNL     1      -3.230  -1.200  -1.075  1.00  0.00    -0.001 C 
HETATM   11  C13 UNL     1      -3.169   0.122  -0.476  1.00  0.00     0.011 C 
HETATM   12  C14 UNL     1      -2.513   1.061   0.185  1.00  0.00    -0.009 C 
HETATM   13  C16 UNL     1      -0.873  -3.609   0.148  1.00  0.00     0.023 C 
HETATM   14  C17 UNL     1       0.171  -2.894   0.680  1.00  0.00     0.017 C 
HETATM   15 CL2  UNL     1       1.253  -3.848   1.719  1.00  0.00    -0.089 Cl
HETATM   16  H3  UNL     1       0.513   0.626   1.952  1.00  0.00     0.161 HD
ENDROOT
BRANCH   4  17
HETATM   17  S1  UNL     1       1.100   0.292  -1.398  1.00  0.00    -0.150 SA
HETATM   18  H4  UNL     1       0.058   1.145  -1.809  1.00  0.00     0.104 HD
ENDBRANCH   4  17
BRANCH   4  19
HETATM   19  C4  UNL     1       2.102  -0.796   0.874  1.00  0.00     0.043 C 
BRANCH  19  20
HETATM   20  C5  UNL     1       2.993   0.358   1.171  1.00  0.00     0.003 C 
BRANCH  20  21
HETATM   21  C6  UNL     1       3.460   1.216   0.060  1.00  0.00    -0.004 C 
HETATM   22  C7  UNL     1       4.425   2.309   0.572  1.00  0.00     0.005 C 
ENDBRANCH  20  21
ENDBRANCH  19  20
ENDBRANCH   4  19
BRANCH  12  23
HETATM   23  C15 UNL     1      -3.260   2.350   0.452  1.00  0.00     0.205 C 
BRANCH  23  24
HETATM   24  O1  UNL     1      -3.287   2.466   1.864  1.00  0.00    -0.396 OA
HETATM   25  H22 UNL     1      -3.521   3.384   2.154  1.00  0.00     0.209 HD
ENDBRANCH  23  24
ENDBRANCH  12  23
TORSDOF 6
