REMARK  8 active torsions:
REMARK  status: ('A' for Active; 'I' for Inactive)
REMARK    1  A    between atoms: C2_2  and  C3_3 
REMARK    2  A    between atoms: C3_3  and  C4_4 
REMARK    3  A    between atoms: C4_4  and  N1_5 
REMARK    4  A    between atoms: N1_5  and  C5_6 
REMARK    5  A    between atoms: N1_5  and  C9_12 
REMARK    6  A    between atoms: C5_6  and  N2_8 
REMARK    7  A    between atoms: N2_8  and  C6_9 
REMARK    8  A    between atoms: C14_19  and  O1_20 
ROOT
HETATM    1  N1  UNL     1      -0.283   0.227   0.151  1.00  0.00    -0.322 N 
ENDROOT
BRANCH   1   2
HETATM    2  C4  UNL     1       0.801  -0.684   0.041  1.00  0.00     0.131 C 
BRANCH   2   3
HETATM    3  C3  UNL     1       2.127  -0.030  -0.295  1.00  0.00     0.020 C 
BRANCH   3   4
HETATM    4  C2  UNL     1       3.111  -1.209  -0.358  1.00  0.00    -0.003 C 
HETATM    5  C1  UNL     1       4.502  -0.727  -0.688  1.00  0.00     0.005 C 
ENDBRANCH   3   4
ENDBRANCH   2   3
ENDBRANCH   1   2
BRANCH   1   6
HETATM    6  C5  UNL     1      -1.434  -0.589   0.450  1.00  0.00     0.175 C 
HETATM    7  S1  UNL     1      -2.947  -0.106   0.684  1.00  0.00    -0.041 SA
BRANCH   6   8
HETATM    8  N2  UNL     1      -1.525  -1.995   0.610  1.00  0.00    -0.356 N 
HETATM    9  H10 UNL     1      -0.631  -2.534   0.497  1.00  0.00     0.162 HD
BRANCH   8  10
HETATM   10  C6  UNL     1      -2.492  -3.025   0.896  1.00  0.00     0.129 A 
HETATM   11  C7  UNL     1      -3.617  -3.143  -0.057  1.00  0.00     0.000 A 
HETATM   12  C8  UNL     1      -2.675  -4.113  -0.118  1.00  0.00     0.000 A 
ENDBRANCH   8  10
ENDBRANCH   6   8
ENDBRANCH   1   6
BRANCH   1  13
HETATM   13  C9  UNL     1      -0.618   1.583   0.078  1.00  0.00     0.072 A 
HETATM   14  C10 UNL     1      -1.543   1.866  -0.934  1.00  0.00     0.052 A 
HETATM   15  C11 UNL     1      -2.018   3.152  -1.190  1.00  0.00     0.014 A 
HETATM   16 BR1  UNL     1      -3.270   3.512  -2.565  1.00  0.00    -0.051 Br
HETATM   17  C12 UNL     1      -1.496   4.130  -0.357  1.00  0.00     0.041 A 
HETATM   18  C13 UNL     1      -0.591   3.926   0.651  1.00  0.00     0.047 A 
HETATM   19 BR2  UNL     1       0.070   5.329   1.746  1.00  0.00    -0.048 Br
HETATM   20  C14 UNL     1      -0.173   2.635   0.840  1.00  0.00     0.110 A 
BRANCH  20  21
HETATM   21  O1  UNL     1       0.728   2.315   1.816  1.00  0.00    -0.357 OA
HETATM   22  H16 UNL     1       0.641   1.469   2.354  1.00  0.00     0.217 HD
ENDBRANCH  20  21
ENDBRANCH   1  13
TORSDOF 8
