REMARK  7 active torsions:
REMARK  status: ('A' for Active; 'I' for Inactive)
REMARK    1  A    between atoms: O1_2  and  C2_3 
REMARK    2  A    between atoms: C7_8  and  O2_9 
REMARK    3  A    between atoms: C11_16  and  N3_17 
REMARK    4  A    between atoms: N3_17  and  C12_18 
REMARK    5  A    between atoms: C12_18  and  C13_19 
REMARK    6  A    between atoms: C13_19  and  C14_20 
REMARK    7  A    between atoms: C14_20  and  S1_21 
ROOT
HETATM    1  C2  UNL     1      -2.796   0.517  -1.541  1.00  0.00     0.102 A 
HETATM    2  C3  UNL     1      -2.172  -0.659  -1.130  1.00  0.00     0.051 A 
HETATM    3  C4  UNL     1      -1.588  -0.831   0.125  1.00  0.00     0.007 A 
HETATM    4  C5  UNL     1      -1.646   0.237   0.986  1.00  0.00     0.087 A 
HETATM    5  C6  UNL     1      -2.265   1.390   0.563  1.00  0.00     0.077 A 
HETATM    6  C7  UNL     1      -2.856   1.593  -0.679  1.00  0.00     0.104 A 
HETATM    7  O3  UNL     1      -1.117   0.235   2.265  1.00  0.00    -0.303 OA
HETATM    8  C9  UNL     1      -0.725   1.446   2.853  1.00  0.00     0.260 C 
HETATM    9  N1  UNL     1       0.505   1.334   2.415  1.00  0.00    -0.230 NA
HETATM   10  C10 UNL     1       0.799   0.154   1.637  1.00  0.00     0.233 C 
HETATM   11  N2  UNL     1       1.013  -0.283   0.414  1.00  0.00    -0.220 NA
HETATM   12  C11 UNL     1       1.277  -1.687   0.234  1.00  0.00     0.577 C 
HETATM   13  N4  UNL     1       0.228  -2.379  -0.451  1.00  0.00     0.142 N 
HETATM   14  C15 UNL     1      -1.037  -2.197   0.203  1.00  0.00     0.316 C 
HETATM   15  H17 UNL     1       0.139  -2.084  -1.438  1.00  0.00     0.321 HD
ENDROOT
BRANCH  12  16
HETATM   16  N3  UNL     1       2.557  -1.809  -0.481  1.00  0.00     0.139 N 
HETATM   17  H12 UNL     1       2.513  -1.257  -1.353  1.00  0.00     0.321 HD
BRANCH  16  18
HETATM   18  C12 UNL     1       3.567  -1.174   0.353  1.00  0.00     0.293 C 
BRANCH  18  19
HETATM   19  C13 UNL     1       4.920  -1.225  -0.254  1.00  0.00     0.109 C 
BRANCH  19  20
HETATM   20  C14 UNL     1       5.813  -0.515   0.421  1.00  0.00    -0.107 C 
BRANCH  20  21
HETATM   21  S1  UNL     1       6.944   0.197   1.359  1.00  0.00    -0.092 SA
HETATM   22 BR1  UNL     1       7.687  -0.987   3.093  1.00  0.00    -0.013 Br
HETATM   23  H16 UNL     1       6.975   1.574   1.167  1.00  0.00     0.116 HD
ENDBRANCH  20  21
ENDBRANCH  19  20
ENDBRANCH  18  19
ENDBRANCH  16  18
ENDBRANCH  12  16
BRANCH   1  24
HETATM   24  O1  UNL     1      -3.385   0.715  -2.784  1.00  0.00    -0.353 OA
HETATM   25  C1  UNL     1      -3.353  -0.358  -3.710  1.00  0.00     0.210 C 
ENDBRANCH   1  24
BRANCH   6  26
HETATM   26  O2  UNL     1      -3.465   2.778  -1.047  1.00  0.00    -0.353 OA
HETATM   27  C8  UNL     1      -3.511   3.852  -0.154  1.00  0.00     0.210 C 
ENDBRANCH   6  26
TORSDOF 7
