REMARK  7 active torsions:
REMARK  status: ('A' for Active; 'I' for Inactive)
REMARK    1  A    between atoms: C6_7  and  C8_9 
REMARK    2  A    between atoms: C8_9  and  N1_10 
REMARK    3  A    between atoms: N1_10  and  C9_11 
REMARK    4  A    between atoms: N1_10  and  C16_18 
REMARK    5  A    between atoms: C9_11  and  C10_12 
REMARK    6  A    between atoms: C16_18  and  N2_20 
REMARK    7  A    between atoms: N2_20  and  C17_21 
ROOT
HETATM    1  N1  UNL     1       0.520   0.619   0.067  1.00  0.00    -0.351 N 
ENDROOT
BRANCH   1   2
HETATM    2  C8  UNL     1      -0.127   0.188  -1.147  1.00  0.00     0.163 C 
BRANCH   2   3
HETATM    3  C6  UNL     1      -1.492  -0.389  -0.986  1.00  0.00     0.078 C 
HETATM    4  O1  UNL     1      -2.393   0.497  -0.421  1.00  0.00    -0.370 OA
HETATM    5  C4  UNL     1      -3.653  -0.078  -0.270  1.00  0.00     0.141 C 
HETATM    6  C3  UNL     1      -3.600  -1.031   0.902  1.00  0.00     0.007 C 
HETATM    7  C5  UNL     1      -4.614   1.016   0.182  1.00  0.00     0.044 C 
HETATM    8  C2  UNL     1      -2.518  -1.769   0.784  1.00  0.00    -0.082 C 
HETATM    9  C1  UNL     1      -2.331  -2.776   1.893  1.00  0.00     0.043 C 
HETATM   10  C23 UNL     1      -1.488  -1.725  -0.288  1.00  0.00     0.072 C 
HETATM   11  C7  UNL     1      -2.017  -0.638  -2.412  1.00  0.00     0.048 C 
ENDBRANCH   2   3
ENDBRANCH   1   2
BRANCH   1  12
HETATM   12  C9  UNL     1      -0.026   1.801   0.678  1.00  0.00     0.164 C 
BRANCH  12  13
HETATM   13  C10 UNL     1       0.110   3.026  -0.152  1.00  0.00    -0.040 A 
HETATM   14  C11 UNL     1       1.255   3.786  -0.013  1.00  0.00     0.009 A 
HETATM   15  C12 UNL     1       1.501   4.954  -0.730  1.00  0.00     0.001 A 
HETATM   16  C13 UNL     1       0.562   5.396  -1.635  1.00  0.00     0.000 A 
HETATM   17  C14 UNL     1      -0.597   4.669  -1.807  1.00  0.00     0.001 A 
HETATM   18  C15 UNL     1      -0.781   3.530  -1.074  1.00  0.00     0.009 A 
ENDBRANCH  12  13
ENDBRANCH   1  12
BRANCH   1  19
HETATM   19  C16 UNL     1       1.643  -0.045   0.705  1.00  0.00     0.174 C 
HETATM   20  S1  UNL     1       2.173   0.699   2.088  1.00  0.00    -0.041 SA
BRANCH  19  21
HETATM   21  N2  UNL     1       2.259  -1.222   0.222  1.00  0.00    -0.333 N 
HETATM   22  H21 UNL     1       1.772  -1.533  -0.649  1.00  0.00     0.168 HD
BRANCH  21  23
HETATM   23  C17 UNL     1       3.336  -2.025   0.655  1.00  0.00     0.034 A 
HETATM   24  C18 UNL     1       4.108  -1.818   1.769  1.00  0.00     0.029 A 
HETATM   25  C19 UNL     1       5.158  -2.600   2.189  1.00  0.00     0.002 A 
HETATM   26  C20 UNL     1       5.412  -3.676   1.379  1.00  0.00     0.000 A 
HETATM   27  C21 UNL     1       4.696  -3.969   0.243  1.00  0.00     0.002 A 
HETATM   28  C22 UNL     1       3.665  -3.129  -0.096  1.00  0.00     0.029 A 
ENDBRANCH  21  23
ENDBRANCH  19  21
ENDBRANCH   1  19
TORSDOF 7
