REMARK  10 active torsions:
REMARK  status: ('A' for Active; 'I' for Inactive)
REMARK    1  A    between atoms: C3_3  and  C4_4 
REMARK    2  A    between atoms: C5_5  and  C6_6 
REMARK    3  A    between atoms: C7_7  and  C8_8 
REMARK    4  A    between atoms: C8_8  and  N1_9 
REMARK    5  A    between atoms: N1_9  and  C9_10 
REMARK    6  A    between atoms: N1_9  and  C18_20 
REMARK    7  A    between atoms: C9_10  and  C10_11 
REMARK    8  A    between atoms: C17_18  and  O1_19 
REMARK    9  A    between atoms: C18_20  and  N2_22 
REMARK   10  A    between atoms: N2_22  and  C19_23 
ROOT
HETATM    1  N1  UNL     1      -0.546   1.582   1.699  1.00  0.00    -0.350 N 
ENDROOT
BRANCH   1   2
HETATM    2  C8  UNL     1       0.889   1.386   1.742  1.00  0.00     0.153 C 
BRANCH   2   3
HETATM    3  C7  UNL     1       1.475   0.830   0.512  1.00  0.00    -0.007 C 
HETATM    4  C6  UNL     1       2.152  -0.333   0.496  1.00  0.00    -0.002 C 
BRANCH   4   5
HETATM    5  C5  UNL     1       2.758  -0.955  -0.649  1.00  0.00    -0.000 C 
HETATM    6  C4  UNL     1       3.422  -2.079  -0.704  1.00  0.00    -0.000 C 
BRANCH   6   7
HETATM    7  C3  UNL     1       3.706  -2.975   0.389  1.00  0.00    -0.004 C 
HETATM    8  C2  UNL     1       4.379  -4.105   0.314  1.00  0.00    -0.031 C 
HETATM    9  C1  UNL     1       4.875  -4.451  -1.044  1.00  0.00     0.036 C 
ENDBRANCH   6   7
ENDBRANCH   4   5
ENDBRANCH   2   3
ENDBRANCH   1   2
BRANCH   1  10
HETATM   10  C9  UNL     1      -1.509   0.530   1.659  1.00  0.00     0.167 C 
BRANCH  10  11
HETATM   11  C10 UNL     1      -1.432  -0.381   0.499  1.00  0.00    -0.006 A 
HETATM   12  C11 UNL     1      -0.931  -1.687   0.580  1.00  0.00     0.018 A 
HETATM   13  C12 UNL     1      -0.878  -2.521  -0.526  1.00  0.00    -0.061 A 
HETATM   14  C13 UNL     1      -0.347  -3.906  -0.441  1.00  0.00     0.048 C 
HETATM   15  C14 UNL     1      -1.347  -1.985  -1.701  1.00  0.00     0.016 A 
HETATM   16  C15 UNL     1      -1.858  -0.719  -1.886  1.00  0.00    -0.028 A 
HETATM   17  C16 UNL     1      -2.339  -0.245  -3.209  1.00  0.00     0.051 C 
HETATM   18  C17 UNL     1      -1.877   0.038  -0.758  1.00  0.00     0.079 A 
BRANCH  18  19
HETATM   19  O1  UNL     1      -2.375   1.346  -0.823  1.00  0.00    -0.360 OA
HETATM   20  H22 UNL     1      -1.713   2.041  -1.153  1.00  0.00     0.217 HD
ENDBRANCH  18  19
ENDBRANCH  10  11
ENDBRANCH   1  10
BRANCH   1  21
HETATM   21  C18 UNL     1      -1.026   2.951   1.695  1.00  0.00     0.174 C 
HETATM   22  S1  UNL     1       0.064   4.200   1.737  1.00  0.00    -0.041 SA
BRANCH  21  23
HETATM   23  N2  UNL     1      -2.386   3.431   1.658  1.00  0.00    -0.333 N 
HETATM   24  H23 UNL     1      -3.247   2.809   1.625  1.00  0.00     0.168 HD
BRANCH  23  25
HETATM   25  C19 UNL     1      -2.794   4.799   1.657  1.00  0.00     0.034 A 
HETATM   26  C20 UNL     1      -3.327   5.658   2.475  1.00  0.00     0.029 A 
HETATM   27  C21 UNL     1      -3.281   6.689   1.433  1.00  0.00     0.004 A 
HETATM   28  C22 UNL     1      -2.745   5.831   0.603  1.00  0.00     0.029 A 
ENDBRANCH  23  25
ENDBRANCH  21  23
ENDBRANCH   1  21
TORSDOF 10
