REMARK  9 active torsions:
REMARK  status: ('A' for Active; 'I' for Inactive)
REMARK    1  A    between atoms: C2_2  and  C3_3 
REMARK    2  A    between atoms: C3_3  and  C4_4 
REMARK    3  A    between atoms: C4_4  and  N1_5 
REMARK    4  A    between atoms: N1_5  and  C5_6 
REMARK    5  A    between atoms: C5_6  and  N2_8 
REMARK    6  A    between atoms: N2_8  and  C6_9 
REMARK    7  A    between atoms: C9_12  and  C10_13 
REMARK    8  A    between atoms: C10_13  and  C11_14 
REMARK    9  A    between atoms: C16_20  and  O1_21 
ROOT
HETATM    1  C6  UNL     1      -0.762  -1.006   0.914  1.00  0.00     0.012 A 
HETATM    2  C7  UNL     1      -1.403  -1.970   1.463  1.00  0.00    -0.001 A 
HETATM    3  C8  UNL     1      -1.899  -2.482   0.202  1.00  0.00     0.040 A 
HETATM    4  C9  UNL     1      -1.181  -1.356  -0.430  1.00  0.00     0.043 A 
ENDROOT
BRANCH   1   5
HETATM    5  N2  UNL     1       0.066   0.088   1.276  1.00  0.00    -0.337 N 
HETATM    6  H11 UNL     1      -0.368   0.656   2.029  1.00  0.00     0.168 HD
BRANCH   5   7
HETATM    7  C5  UNL     1       1.333   0.522   0.820  1.00  0.00     0.172 C 
HETATM    8  S1  UNL     1       2.033   1.847   1.434  1.00  0.00    -0.041 SA
BRANCH   7   9
HETATM    9  N1  UNL     1       2.211   0.008  -0.157  1.00  0.00    -0.367 N 
HETATM   10  H10 UNL     1       1.775  -0.838  -0.561  1.00  0.00     0.161 HD
BRANCH   9  11
HETATM   11  C4  UNL     1       3.508   0.385  -0.678  1.00  0.00     0.122 C 
BRANCH  11  12
HETATM   12  C3  UNL     1       4.537   0.169   0.392  1.00  0.00     0.019 C 
BRANCH  12  13
HETATM   13  C2  UNL     1       5.913   0.562  -0.154  1.00  0.00    -0.003 C 
HETATM   14  C1  UNL     1       5.975   1.993  -0.576  1.00  0.00     0.005 C 
ENDBRANCH  12  13
ENDBRANCH  11  12
ENDBRANCH   9  11
ENDBRANCH   7   9
ENDBRANCH   5   7
ENDBRANCH   1   5
BRANCH   4  15
HETATM   15  C10 UNL     1      -2.050  -0.392  -1.206  1.00  0.00     0.052 C 
BRANCH  15  16
HETATM   16  C11 UNL     1      -3.357  -0.100  -0.600  1.00  0.00    -0.023 A 
HETATM   17  C12 UNL     1      -4.397  -0.839  -1.191  1.00  0.00     0.010 A 
HETATM   18  C13 UNL     1      -5.720  -0.748  -0.776  1.00  0.00     0.002 A 
HETATM   19  C14 UNL     1      -6.055   0.097   0.258  1.00  0.00     0.022 A 
HETATM   20  C15 UNL     1      -5.069   0.826   0.851  1.00  0.00     0.044 A 
HETATM   21 BR1  UNL     1      -5.394   2.033   2.292  1.00  0.00    -0.048 Br
HETATM   22  C16 UNL     1      -3.771   0.715   0.419  1.00  0.00     0.089 A 
BRANCH  22  23
HETATM   23  O1  UNL     1      -2.736   1.436   0.987  1.00  0.00    -0.359 OA
HETATM   24  H21 UNL     1      -2.528   2.361   0.613  1.00  0.00     0.217 HD
ENDBRANCH  22  23
ENDBRANCH  15  16
ENDBRANCH   4  15
TORSDOF 9
