REMARK  7 active torsions:
REMARK  status: ('A' for Active; 'I' for Inactive)
REMARK    1  A    between atoms: C6_6  and  O1_7 
REMARK    2  A    between atoms: C7_8  and  C8_9 
REMARK    3  A    between atoms: C8_9  and  N1_10 
REMARK    4  A    between atoms: N1_10  and  C9_11 
REMARK    5  A    between atoms: N1_10  and  C16_18 
REMARK    6  A    between atoms: C9_11  and  C10_12 
REMARK    7  A    between atoms: C16_18  and  N2_19 
ROOT
HETATM    1  N1  UNL     1      -0.926  -0.468   0.145  1.00  0.00    -0.371 N 
ENDROOT
BRANCH   1   2
HETATM    2  C8  UNL     1      -0.164   0.215  -0.821  1.00  0.00     0.161 C 
BRANCH   2   3
HETATM    3  C7  UNL     1       1.275   0.318  -0.653  1.00  0.00    -0.006 A 
HETATM    4  C6  UNL     1       2.313  -0.526  -0.967  1.00  0.00     0.079 A 
HETATM    5  C4  UNL     1       3.644  -0.314  -0.704  1.00  0.00    -0.028 A 
HETATM    6  C3  UNL     1       4.037   0.839  -0.066  1.00  0.00     0.016 A 
HETATM    7  C5  UNL     1       4.652  -1.324  -1.105  1.00  0.00     0.051 C 
HETATM    8  C2  UNL     1       3.065   1.746   0.287  1.00  0.00    -0.061 A 
HETATM    9  C1  UNL     1       3.505   2.984   0.976  1.00  0.00     0.048 C 
HETATM   10  C21 UNL     1       1.751   1.470  -0.007  1.00  0.00     0.018 A 
BRANCH   4  11
HETATM   11  O1  UNL     1       1.981  -1.700  -1.615  1.00  0.00    -0.360 OA
HETATM   12  H8  UNL     1       1.792  -1.701  -2.622  1.00  0.00     0.217 HD
ENDBRANCH   4  11
ENDBRANCH   2   3
ENDBRANCH   1   2
BRANCH   1  13
HETATM   13  C9  UNL     1      -2.338  -0.431  -0.186  1.00  0.00     0.158 C 
BRANCH  13  14
HETATM   14  C10 UNL     1      -2.867   0.954  -0.290  1.00  0.00    -0.041 A 
HETATM   15  C11 UNL     1      -3.378   1.565   0.842  1.00  0.00     0.009 A 
HETATM   16  C12 UNL     1      -3.893   2.848   0.827  1.00  0.00     0.001 A 
HETATM   17  C13 UNL     1      -3.907   3.562  -0.352  1.00  0.00     0.000 A 
HETATM   18  C14 UNL     1      -3.409   2.994  -1.499  1.00  0.00     0.001 A 
HETATM   19  C15 UNL     1      -2.912   1.729  -1.440  1.00  0.00     0.009 A 
ENDBRANCH  13  14
ENDBRANCH   1  13
BRANCH   1  20
HETATM   20  C16 UNL     1      -0.493  -1.671   0.717  1.00  0.00     0.232 C 
HETATM   21  C17 UNL     1      -1.384  -2.109   1.888  1.00  0.00     0.090 C 
HETATM   22  C18 UNL     1      -2.290  -3.120   1.354  1.00  0.00    -0.026 C 
HETATM   23  C19 UNL     1      -1.785  -3.548   0.208  1.00  0.00    -0.026 C 
HETATM   24  C20 UNL     1      -0.507  -2.888  -0.154  1.00  0.00     0.090 C 
BRANCH  20  25
HETATM   25  N2  UNL     1       0.831  -1.517   1.280  1.00  0.00     0.107 N 
HETATM   26  H18 UNL     1       0.775  -1.082   2.238  1.00  0.00     0.316 HD
HETATM   27  H19 UNL     1       1.272  -2.441   1.380  1.00  0.00     0.316 HD
ENDBRANCH  20  25
ENDBRANCH   1  20
TORSDOF 7
