REMARK  9 active torsions:
REMARK  status: ('A' for Active; 'I' for Inactive)
REMARK    1  A    between atoms: C3_3  and  C4_4 
REMARK    2  A    between atoms: C5_5  and  C6_6 
REMARK    3  A    between atoms: C7_7  and  C8_8 
REMARK    4  A    between atoms: C8_8  and  C9_9 
REMARK    5  A    between atoms: C9_9  and  C10_10 
REMARK    6  A    between atoms: C11_11  and  O1_12 
REMARK    7  A    between atoms: N1_13  and  S1_14 
REMARK    8  A    between atoms: S1_14  and  N2_16 
REMARK    9  A    between atoms: N2_16  and  C12_17 
ROOT
HETATM    1  C10 UNL     1      -0.766  -0.450   0.318  1.00  0.00    -0.006 C 
HETATM    2  C11 UNL     1      -1.999  -0.076  -0.059  1.00  0.00     0.156 C 
HETATM    3  N1  UNL     1      -3.305  -0.636  -0.063  1.00  0.00    -0.281 N 
HETATM    4  C16 UNL     1      -3.975  -1.650   0.707  1.00  0.00     0.168 C 
HETATM    5  C17 UNL     1      -3.343  -2.982   0.561  1.00  0.00    -0.006 C 
HETATM    6  C18 UNL     1      -2.131  -3.490   0.694  1.00  0.00     0.004 C 
HETATM    7  C19 UNL     1      -0.822  -2.912   1.066  1.00  0.00    -0.062 C 
HETATM    8  C20 UNL     1       0.047  -3.912   1.747  1.00  0.00     0.048 C 
HETATM    9  C21 UNL     1      -0.260  -1.699   0.924  1.00  0.00     0.018 C 
ENDROOT
BRANCH   1  10
HETATM   10  C9  UNL     1       0.305   0.526   0.109  1.00  0.00     0.047 C 
BRANCH  10  11
HETATM   11  C8  UNL     1       1.400   0.046  -0.793  1.00  0.00     0.032 C 
BRANCH  11  12
HETATM   12  C7  UNL     1       2.395   1.145  -0.898  1.00  0.00    -0.026 C 
HETATM   13  C6  UNL     1       3.680   1.025  -0.526  1.00  0.00    -0.004 C 
BRANCH  13  14
HETATM   14  C5  UNL     1       4.612   2.139  -0.652  1.00  0.00    -0.000 C 
HETATM   15  C4  UNL     1       5.873   2.043  -0.294  1.00  0.00    -0.000 C 
BRANCH  15  16
HETATM   16  C3  UNL     1       6.495   0.856   0.259  1.00  0.00    -0.004 C 
HETATM   17  C2  UNL     1       7.770   0.761   0.621  1.00  0.00    -0.031 C 
HETATM   18  C1  UNL     1       8.373  -0.464   1.182  1.00  0.00     0.036 C 
ENDBRANCH  15  16
ENDBRANCH  13  14
ENDBRANCH  11  12
ENDBRANCH  10  11
ENDBRANCH   1  10
BRANCH   2  19
HETATM   19  O1  UNL     1      -1.881   1.229  -0.576  1.00  0.00    -0.345 OA
HETATM   20  H14 UNL     1      -1.800   1.273  -1.591  1.00  0.00     0.219 HD
ENDBRANCH   2  19
BRANCH   3  21
HETATM   21  S1  UNL     1      -4.243   0.154  -1.336  1.00  0.00     0.054 SA
HETATM   22  S2  UNL     1      -5.749  -0.656  -1.439  1.00  0.00     0.021 SA
BRANCH  21  23
HETATM   23  N2  UNL     1      -4.553   1.823  -0.908  1.00  0.00    -0.314 N 
HETATM   24  H15 UNL     1      -3.811   2.540  -0.709  1.00  0.00     0.175 HD
BRANCH  23  25
HETATM   25  C12 UNL     1      -5.813   2.474  -0.761  1.00  0.00     0.039 A 
HETATM   26  C13 UNL     1      -6.711   3.351  -1.187  1.00  0.00     0.030 A 
HETATM   27  C14 UNL     1      -7.638   3.050  -0.078  1.00  0.00     0.005 A 
HETATM   28  C15 UNL     1      -6.723   2.177   0.329  1.00  0.00     0.030 A 
ENDBRANCH  23  25
ENDBRANCH  21  23
ENDBRANCH   3  21
TORSDOF 9
