REMARK  8 active torsions:
REMARK  status: ('A' for Active; 'I' for Inactive)
REMARK    1  A    between atoms: O1_2  and  C2_3 
REMARK    2  A    between atoms: C2_3  and  C3_4 
REMARK    3  A    between atoms: C3_4  and  O2_5 
REMARK    4  A    between atoms: O2_5  and  C4_6 
REMARK    5  A    between atoms: C9_11  and  O3_12 
REMARK    6  A    between atoms: O3_12  and  C10_13 
REMARK    7  A    between atoms: C10_13  and  C11_14 
REMARK    8  A    between atoms: C11_14  and  O4_15 
ROOT
HETATM    1  C4  UNL     1       1.563  -0.346   0.379  1.00  0.00     0.102 A 
HETATM    2  C5  UNL     1       0.466  -1.163   0.398  1.00  0.00     0.049 A 
HETATM    3  C6  UNL     1      -0.803  -0.778   0.065  1.00  0.00    -0.023 A 
HETATM    4  C7  UNL     1      -1.088   0.508  -0.329  1.00  0.00     0.067 A 
HETATM    5  C8  UNL     1       0.003   1.385  -0.364  1.00  0.00     0.071 A 
HETATM    6  C9  UNL     1       1.297   0.970  -0.019  1.00  0.00     0.104 A 
HETATM    7  N1  UNL     1      -2.292   1.078  -0.710  1.00  0.00    -0.242 NA
HETATM    8  C13 UNL     1      -3.272   1.494   0.009  1.00  0.00     0.234 C 
HETATM    9  N2  UNL     1      -4.343   2.028  -0.803  1.00  0.00    -0.239 NA
HETATM   10  C14 UNL     1      -4.733   1.196  -1.714  1.00  0.00     0.093 C 
HETATM   11  C15 UNL     1      -5.106   0.021  -1.221  1.00  0.00    -0.031 C 
HETATM   12  C16 UNL     1      -5.561  -0.922  -2.307  1.00  0.00     0.050 C 
HETATM   13  C17 UNL     1      -5.085  -0.346   0.184  1.00  0.00     0.009 C 
HETATM   14  C18 UNL     1      -4.864  -0.753   1.405  1.00  0.00     0.000 C 
HETATM   15  C19 UNL     1      -3.702  -1.401   1.991  1.00  0.00    -0.004 C 
HETATM   16  C20 UNL     1      -2.543  -1.770   1.474  1.00  0.00    -0.022 C 
HETATM   17  C21 UNL     1      -1.975  -1.672   0.101  1.00  0.00     0.068 C 
ENDROOT
BRANCH   1  18
HETATM   18  O2  UNL     1       2.868  -0.556   0.668  1.00  0.00    -0.346 OA
BRANCH  18  19
HETATM   19  C3  UNL     1       3.426  -1.766   1.053  1.00  0.00     0.201 C 
BRANCH  19  20
HETATM   20  C2  UNL     1       3.376  -2.874   0.054  1.00  0.00     0.193 C 
BRANCH  20  21
HETATM   21  O1  UNL     1       3.959  -4.052   0.510  1.00  0.00    -0.394 OA
HETATM   22  C1  UNL     1       3.344  -4.544   1.629  1.00  0.00     0.201 C 
ENDBRANCH  20  21
ENDBRANCH  19  20
ENDBRANCH  18  19
ENDBRANCH   1  18
BRANCH   6  23
HETATM   23  O3  UNL     1       2.323   1.934  -0.089  1.00  0.00    -0.346 OA
BRANCH  23  24
HETATM   24  C10 UNL     1       2.049   3.238  -0.485  1.00  0.00     0.201 C 
BRANCH  24  25
HETATM   25  C11 UNL     1       3.274   4.127  -0.499  1.00  0.00     0.193 C 
BRANCH  25  26
HETATM   26  O4  UNL     1       4.240   3.617  -1.391  1.00  0.00    -0.394 OA
HETATM   27  C12 UNL     1       5.362   4.437  -1.399  1.00  0.00     0.201 C 
ENDBRANCH  25  26
ENDBRANCH  24  25
ENDBRANCH  23  24
ENDBRANCH   6  23
TORSDOF 8
