REMARK  10 active torsions:
REMARK  status: ('A' for Active; 'I' for Inactive)
REMARK    1  A    between atoms: C7_7  and  N1_8 
REMARK    2  A    between atoms: N1_8  and  C8_9 
REMARK    3  A    between atoms: C14_16  and  O1_17 
REMARK    4  A    between atoms: O1_17  and  C15_18 
REMARK    5  A    between atoms: C15_18  and  C16_19 
REMARK    6  A    between atoms: C16_19  and  O2_20 
REMARK    7  A    between atoms: C18_22  and  O3_23 
REMARK    8  A    between atoms: O3_23  and  C19_24 
REMARK    9  A    between atoms: C19_24  and  C20_25 
REMARK   10  A    between atoms: C20_25  and  O4_26 
ROOT
HETATM    1  C1  UNL     1       7.533  -1.619  -2.187  1.00  0.00     0.018 C 
HETATM    2  C2  UNL     1       6.953  -1.013  -1.315  1.00  0.00    -0.078 C 
HETATM    3  C3  UNL     1       6.276  -0.300  -0.258  1.00  0.00     0.019 A 
HETATM    4  C4  UNL     1       6.938   0.609   0.527  1.00  0.00     0.021 A 
HETATM    5  C5  UNL     1       6.198   1.237   1.519  1.00  0.00     0.004 A 
HETATM    6  C6  UNL     1       4.856   0.967   1.714  1.00  0.00     0.029 A 
HETATM    7  C7  UNL     1       4.221   0.032   0.888  1.00  0.00     0.034 A 
HETATM    8  C22 UNL     1       4.940  -0.604  -0.104  1.00  0.00     0.050 A 
ENDROOT
BRANCH   7   9
HETATM    9  N1  UNL     1       2.862  -0.155   1.191  1.00  0.00    -0.354 N 
HETATM   10  H5  UNL     1       2.513  -0.887   1.822  1.00  0.00     0.166 HD
BRANCH   9  11
HETATM   11  C8  UNL     1       1.958   0.721   0.584  1.00  0.00     0.075 C 
HETATM   12  C9  UNL     1       2.224   1.909   0.085  1.00  0.00     0.115 C 
HETATM   13  N2  UNL     1       1.414   2.882   0.243  1.00  0.00    -0.255 NA
HETATM   14  C10 UNL     1      -0.009   2.696   0.091  1.00  0.00     0.132 C 
HETATM   15  C11 UNL     1      -0.401   1.438   0.201  1.00  0.00     0.030 A 
HETATM   16  C12 UNL     1       0.534   0.348   0.454  1.00  0.00     0.010 A 
HETATM   17  C18 UNL     1      -1.724   0.803   0.117  1.00  0.00     0.114 A 
HETATM   18  C13 UNL     1      -0.139  -0.784   0.512  1.00  0.00     0.054 A 
HETATM   19  C14 UNL     1      -1.574  -0.498   0.298  1.00  0.00     0.103 A 
BRANCH  19  20
HETATM   20  O1  UNL     1      -2.429  -1.580   0.326  1.00  0.00    -0.346 OA
BRANCH  20  21
HETATM   21  C15 UNL     1      -2.349  -2.612   1.296  1.00  0.00     0.201 C 
BRANCH  21  22
HETATM   22  C16 UNL     1      -3.324  -3.706   0.914  1.00  0.00     0.193 C 
BRANCH  22  23
HETATM   23  O2  UNL     1      -2.933  -4.155  -0.343  1.00  0.00    -0.394 OA
HETATM   24  C17 UNL     1      -3.739  -5.171  -0.840  1.00  0.00     0.201 C 
ENDBRANCH  22  23
ENDBRANCH  21  22
ENDBRANCH  20  21
ENDBRANCH  19  20
BRANCH  17  25
HETATM   25  O3  UNL     1      -2.944   1.378  -0.106  1.00  0.00    -0.345 OA
BRANCH  25  26
HETATM   26  C19 UNL     1      -3.486   1.835  -1.293  1.00  0.00     0.202 C 
BRANCH  26  27
HETATM   27  C20 UNL     1      -4.854   2.462  -1.146  1.00  0.00     0.193 C 
BRANCH  27  28
HETATM   28  O4  UNL     1      -4.849   3.559  -0.301  1.00  0.00    -0.394 OA
HETATM   29  C21 UNL     1      -4.012   4.574  -0.736  1.00  0.00     0.201 C 
ENDBRANCH  27  28
ENDBRANCH  26  27
ENDBRANCH  25  26
ENDBRANCH  17  25
ENDBRANCH   9  11
ENDBRANCH   7   9
TORSDOF 10
