REMARK  7 active torsions:
REMARK  status: ('A' for Active; 'I' for Inactive)
REMARK    1  A    between atoms: C7_7  and  N1_8 
REMARK    2  A    between atoms: N1_8  and  C8_9 
REMARK    3  A    between atoms: C8_9  and  C9_10 
REMARK    4  A    between atoms: C11_12  and  O1_13 
REMARK    5  A    between atoms: O1_13  and  C12_14 
REMARK    6  A    between atoms: C12_14  and  C13_15 
REMARK    7  A    between atoms: C13_15  and  O2_16 
ROOT
HETATM    1  C1  UNL     1       7.993  -0.479  -2.721  1.00  0.00     0.018 C 
HETATM    2  C2  UNL     1       7.166  -0.751  -1.864  1.00  0.00    -0.078 C 
HETATM    3  C3  UNL     1       6.179  -1.056  -0.844  1.00  0.00     0.019 A 
HETATM    4  C4  UNL     1       6.656  -1.677   0.291  1.00  0.00     0.021 A 
HETATM    5  C5  UNL     1       5.696  -1.966   1.268  1.00  0.00     0.004 A 
HETATM    6  C6  UNL     1       4.364  -1.614   1.029  1.00  0.00     0.029 A 
HETATM    7  C7  UNL     1       3.973  -0.994  -0.134  1.00  0.00     0.029 A 
HETATM    8  C22 UNL     1       4.879  -0.690  -1.124  1.00  0.00     0.049 A 
ENDROOT
BRANCH   7   9
HETATM    9  N1  UNL     1       2.606  -0.655  -0.333  1.00  0.00    -0.386 N 
HETATM   10  H5  UNL     1       2.281  -0.185  -1.205  1.00  0.00     0.160 HD
BRANCH   9  11
HETATM   11  C8  UNL     1       1.597  -0.948   0.675  1.00  0.00     0.161 C 
BRANCH  11  12
HETATM   12  C9  UNL     1       0.257  -0.518   0.274  1.00  0.00    -0.009 A 
HETATM   13  C10 UNL     1      -0.795  -1.280  -0.167  1.00  0.00     0.050 A 
HETATM   14  C11 UNL     1      -2.036  -0.820  -0.526  1.00  0.00     0.102 A 
HETATM   15  C15 UNL     1      -2.300   0.525  -0.454  1.00  0.00     0.104 A 
HETATM   16  C16 UNL     1      -1.102   1.103   0.012  1.00  0.00     0.072 A 
HETATM   17  O4  UNL     1      -3.368   1.457  -0.692  1.00  0.00    -0.346 OA
HETATM   18  C17 UNL     1       0.186   0.838   0.411  1.00  0.00     0.069 A 
HETATM   19  N2  UNL     1       0.974   1.932   0.829  1.00  0.00    -0.244 NA
HETATM   20  C18 UNL     1       0.467   3.087   1.144  1.00  0.00     0.204 C 
HETATM   21  N3  UNL     1      -0.728   3.859   1.273  1.00  0.00    -0.363 N 
HETATM   22  C19 UNL     1      -1.667   4.805   0.868  1.00  0.00     0.291 C 
HETATM   23  H18 UNL     1      -0.774   3.286   2.175  1.00  0.00     0.162 HD
HETATM   24  O3  UNL     1      -2.448   4.852  -0.176  1.00  0.00    -0.370 OA
HETATM   25  C20 UNL     1      -3.500   4.011  -0.478  1.00  0.00     0.196 C 
HETATM   26  C21 UNL     1      -2.898   2.722  -0.458  1.00  0.00     0.202 C 
BRANCH  14  27
HETATM   27  O1  UNL     1      -3.202  -1.316  -0.969  1.00  0.00    -0.346 OA
BRANCH  27  28
HETATM   28  C12 UNL     1      -3.484  -2.655  -1.194  1.00  0.00     0.201 C 
BRANCH  28  29
HETATM   29  C13 UNL     1      -3.425  -3.519   0.041  1.00  0.00     0.193 C 
BRANCH  29  30
HETATM   30  O2  UNL     1      -4.318  -3.120   1.027  1.00  0.00    -0.394 OA
HETATM   31  C14 UNL     1      -5.626  -3.169   0.587  1.00  0.00     0.201 C 
ENDBRANCH  29  30
ENDBRANCH  28  29
ENDBRANCH  27  28
ENDBRANCH  14  27
ENDBRANCH  11  12
ENDBRANCH   9  11
ENDBRANCH   7   9
TORSDOF 7
