REMARK  6 active torsions:
REMARK  status: ('A' for Active; 'I' for Inactive)
REMARK    1  A    between atoms: O1_1  and  C1_2 
REMARK    2  A    between atoms: C6_8  and  C7_9 
REMARK    3  A    between atoms: C7_9  and  N1_10 
REMARK    4  A    between atoms: C9_12  and  O2_13 
REMARK    5  A    between atoms: C9_12  and  N2_14 
REMARK    6  A    between atoms: N2_14  and  C10_15 
ROOT
HETATM    1  N1  UNL     1      -0.620   0.978  -0.029  1.00  0.00     0.157 NA
HETATM    2  C8  UNL     1      -0.329   0.275  -1.211  1.00  0.00     0.375 A 
HETATM    3  C9  UNL     1       0.767   0.861  -0.302  1.00  0.00     0.366 A 
ENDROOT
BRANCH   1   4
HETATM    4  C7  UNL     1      -1.306   0.580   1.118  1.00  0.00     0.320 C 
BRANCH   4   5
HETATM    5  C6  UNL     1      -2.733   0.302   0.826  1.00  0.00     0.005 A 
HETATM    6  C1  UNL     1      -3.336  -0.804   0.290  1.00  0.00     0.095 A 
HETATM    7  C2  UNL     1      -4.679  -0.918   0.047  1.00  0.00     0.067 A 
HETATM    8 CL1  UNL     1      -5.286  -2.409  -0.647  1.00  0.00    -0.081 Cl
HETATM    9  C3  UNL     1      -5.534   0.118   0.342  1.00  0.00     0.026 A 
HETATM   10  C4  UNL     1      -5.014   1.270   0.886  1.00  0.00     0.002 A 
HETATM   11  C5  UNL     1      -3.663   1.318   1.103  1.00  0.00     0.012 A 
BRANCH   6  12
HETATM   12  O1  UNL     1      -2.508  -1.870  -0.017  1.00  0.00    -0.358 OA
HETATM   13  H1  UNL     1      -2.649  -2.272  -0.946  1.00  0.00     0.217 HD
ENDBRANCH   6  12
ENDBRANCH   4   5
ENDBRANCH   1   4
BRANCH   3  14
HETATM   14  O2  UNL     1       1.326   2.088  -0.735  1.00  0.00    -0.345 OA
HETATM   15  H9  UNL     1       0.788   2.505  -1.437  1.00  0.00     0.214 HD
ENDBRANCH   3  14
BRANCH   3  16
HETATM   16  N2  UNL     1       1.614  -0.082   0.356  1.00  0.00    -0.332 N 
HETATM   17  H10 UNL     1       1.095  -0.659   1.074  1.00  0.00     0.164 HD
BRANCH  16  18
HETATM   18  C10 UNL     1       3.002  -0.330   0.175  1.00  0.00     0.031 A 
HETATM   19  C11 UNL     1       3.766   0.362  -0.736  1.00  0.00     0.029 A 
HETATM   20  C12 UNL     1       5.119   0.157  -0.947  1.00  0.00     0.002 A 
HETATM   21  C13 UNL     1       5.735  -0.814  -0.184  1.00  0.00     0.000 A 
HETATM   22  C14 UNL     1       4.989  -1.520   0.734  1.00  0.00     0.002 A 
HETATM   23  C15 UNL     1       3.631  -1.297   0.930  1.00  0.00     0.029 A 
ENDBRANCH  16  18
ENDBRANCH   3  16
TORSDOF 6
