REMARK  7 active torsions:
REMARK  status: ('A' for Active; 'I' for Inactive)
REMARK    1  A    between atoms: C2_2  and  N1_3 
REMARK    2  A    between atoms: C2_2  and  C3_4 
REMARK    3  A    between atoms: C2_2  and  C10_13 
REMARK    4  A    between atoms: C3_4  and  C4_5 
REMARK    5  A    between atoms: C9_11  and  O1_12 
REMARK    6  A    between atoms: C10_13  and  N2_14 
REMARK    7  A    between atoms: C15_19  and  O2_20 
ROOT
HETATM    1  C1  UNL     1       0.219  -1.649   0.012  1.00  0.00     0.051 C 
HETATM    2  C2  UNL     1       0.175  -0.305  -0.589  1.00  0.00     0.181 C 
ENDROOT
BRANCH   2   3
HETATM    3  N1  UNL     1       0.549  -0.495  -2.010  1.00  0.00     0.089 N 
HETATM    4  H4  UNL     1       0.601  -1.490  -2.280  1.00  0.00     0.313 HD
HETATM    5  H5  UNL     1      -0.010   0.089  -2.651  1.00  0.00     0.313 HD
ENDBRANCH   2   3
BRANCH   2   6
HETATM    6  C3  UNL     1       1.130   0.689   0.047  1.00  0.00     0.084 C 
BRANCH   6   7
HETATM    7  C4  UNL     1       2.542   0.358   0.011  1.00  0.00    -0.021 A 
HETATM    8  C5  UNL     1       3.289   0.933  -1.016  1.00  0.00     0.010 A 
HETATM    9  C6  UNL     1       4.656   0.679  -1.167  1.00  0.00     0.002 A 
HETATM   10  C7  UNL     1       5.234  -0.169  -0.253  1.00  0.00     0.026 A 
HETATM   11  C8  UNL     1       4.529  -0.755   0.774  1.00  0.00     0.067 A 
HETATM   12 CL1  UNL     1       5.372  -1.822   1.920  1.00  0.00    -0.081 Cl
HETATM   13  C9  UNL     1       3.185  -0.492   0.904  1.00  0.00     0.093 A 
BRANCH  13  14
HETATM   14  O1  UNL     1       2.531  -1.108   1.956  1.00  0.00    -0.358 OA
HETATM   15  H11 UNL     1       2.132  -0.472   2.671  1.00  0.00     0.217 HD
ENDBRANCH  13  14
ENDBRANCH   6   7
ENDBRANCH   2   6
BRANCH   2  16
HETATM   16  C10 UNL     1      -1.164   0.385  -0.644  1.00  0.00     0.317 C 
BRANCH  16  17
HETATM   17  N2  UNL     1      -1.818   0.621   0.595  1.00  0.00     0.123 N 
HETATM   18  C11 UNL     1      -2.854   1.641   0.297  1.00  0.00     0.303 C 
HETATM   19  C12 UNL     1      -3.588   1.161  -0.904  1.00  0.00    -0.001 C 
HETATM   20  C13 UNL     1      -4.180   0.023  -0.554  1.00  0.00    -0.025 C 
HETATM   21  C14 UNL     1      -4.018  -0.509   0.828  1.00  0.00     0.091 C 
HETATM   22  C15 UNL     1      -2.512  -0.539   1.139  1.00  0.00     0.360 C 
BRANCH  22  23
HETATM   23  O2  UNL     1      -2.406  -0.458   2.527  1.00  0.00    -0.367 OA
HETATM   24  H21 UNL     1      -2.474  -1.391   2.889  1.00  0.00     0.212 HD
ENDBRANCH  22  23
ENDBRANCH  16  17
ENDBRANCH   2  16
TORSDOF 7
