REMARK  5 active torsions:
REMARK  status: ('A' for Active; 'I' for Inactive)
REMARK    1  A    between atoms: C2_2  and  C3_3 
REMARK    2  A    between atoms: N1_5  and  C5_6 
REMARK    3  A    between atoms: C5_6  and  C6_7 
REMARK    4  A    between atoms: C11_13  and  O1_14 
REMARK    5  A    between atoms: C12_15  and  N2_16 
ROOT
HETATM    1  C3  UNL     1      -1.677  -0.852  -1.479  1.00  0.00     0.066 C 
HETATM    2  C4  UNL     1      -0.378  -1.210  -2.130  1.00  0.00     0.284 C 
HETATM    3  N1  UNL     1       0.272  -0.727  -0.890  1.00  0.00     0.116 N 
HETATM    4  C12 UNL     1      -0.913  -0.237  -0.315  1.00  0.00     0.326 C 
ENDROOT
BRANCH   3   5
HETATM    5  C5  UNL     1       1.421   0.060  -1.150  1.00  0.00     0.316 C 
BRANCH   5   6
HETATM    6  C6  UNL     1       2.270   0.367   0.014  1.00  0.00     0.005 A 
HETATM    7  C7  UNL     1       2.576   1.491   0.750  1.00  0.00     0.012 A 
HETATM    8  C8  UNL     1       3.448   1.498   1.789  1.00  0.00     0.002 A 
HETATM    9  C9  UNL     1       4.096   0.348   2.179  1.00  0.00     0.026 A 
HETATM   10  C10 UNL     1       3.839  -0.815   1.486  1.00  0.00     0.067 A 
HETATM   11 CL1  UNL     1       4.700  -2.218   2.043  1.00  0.00    -0.081 Cl
HETATM   12  C11 UNL     1       2.936  -0.795   0.419  1.00  0.00     0.095 A 
BRANCH  12  13
HETATM   13  O1  UNL     1       2.818  -2.075  -0.146  1.00  0.00    -0.358 OA
HETATM   14  H14 UNL     1       3.400  -2.334  -0.933  1.00  0.00     0.217 HD
ENDBRANCH  12  13
ENDBRANCH   5   6
ENDBRANCH   3   5
BRANCH   4  15
HETATM   15  N2  UNL     1      -1.164   1.138  -0.108  1.00  0.00    -0.377 N 
HETATM   16  C13 UNL     1      -0.745   1.715   1.115  1.00  0.00     0.147 C 
HETATM   17  C14 UNL     1      -1.900   2.052   2.015  1.00  0.00     0.004 C 
HETATM   18  C15 UNL     1      -2.763   2.882   1.458  1.00  0.00    -0.031 C 
HETATM   19  C16 UNL     1      -2.810   2.852   0.164  1.00  0.00     0.004 C 
HETATM   20  C17 UNL     1      -2.358   1.677  -0.664  1.00  0.00     0.147 C 
ENDBRANCH   4  15
BRANCH   1  21
HETATM   21  C2  UNL     1      -2.531  -2.031  -1.141  1.00  0.00     0.005 C 
HETATM   22  C1  UNL     1      -1.865  -2.995  -0.186  1.00  0.00     0.005 C 
ENDBRANCH   1  21
TORSDOF 5
