REMARK  3 active torsions:
REMARK  status: ('A' for Active; 'I' for Inactive)
REMARK       I    between atoms: C1_2  and  N1_3 
REMARK       I    between atoms: C1_2  and  N2_10 
REMARK    1  A    between atoms: N1_3  and  C2_4 
REMARK    2  A    between atoms: C11_14  and  O2_15 
REMARK    3  A    between atoms: C16_20  and  O3_21 
ROOT
HETATM    1  O1  UNL     1       1.867   1.326   0.563  1.00  0.00    -0.246 OA
HETATM    2  C1  UNL     1       1.481   0.148   0.801  1.00  0.00     0.327 C 
HETATM    3  N1  UNL     1       2.653  -0.667   0.645  1.00  0.00    -0.309 N 
HETATM    4  N2  UNL     1       0.051   0.169   1.125  1.00  0.00    -0.303 N 
HETATM    5  C8  UNL     1      -0.304   1.569   1.263  1.00  0.00     0.139 C 
HETATM    6  C9  UNL     1      -1.113   2.250   0.287  1.00  0.00     0.021 C 
HETATM    7  C10 UNL     1      -2.012   1.532  -0.492  1.00  0.00     0.059 C 
HETATM    8  C11 UNL     1      -2.938   2.052  -1.571  1.00  0.00     0.045 C 
HETATM    9  C12 UNL     1      -3.781   1.157  -2.148  1.00  0.00     0.007 C 
HETATM   10  C13 UNL     1      -4.078  -0.327  -1.986  1.00  0.00     0.006 C 
HETATM   11  C14 UNL     1      -3.990  -1.607  -1.494  1.00  0.00     0.065 C 
HETATM   12  C15 UNL     1      -3.058  -2.113  -0.383  1.00  0.00    -0.023 C 
HETATM   13  C16 UNL     1      -2.947  -2.147   0.999  1.00  0.00     0.055 C 
HETATM   14  C17 UNL     1      -1.734  -1.790   1.820  1.00  0.00     0.122 C 
HETATM   15  C18 UNL     1      -0.671  -1.090   1.103  1.00  0.00     0.022 C 
HETATM   16  C19 UNL     1      -0.064  -1.621  -0.009  1.00  0.00     0.025 C 
HETATM   17  C20 UNL     1      -0.526  -2.777  -0.881  1.00  0.00     0.003 C 
HETATM   18  C21 UNL     1      -1.902  -2.756  -1.153  1.00  0.00     0.010 C 
HETATM   19  H1  UNL     1       2.343  -1.650   0.894  1.00  0.00     0.170 HD
ENDROOT
BRANCH   3  20
HETATM   20  C2  UNL     1       3.783   0.105   0.262  1.00  0.00     0.036 A 
HETATM   21  C3  UNL     1       3.984   0.258  -1.104  1.00  0.00     0.029 A 
HETATM   22  C4  UNL     1       5.070   1.001  -1.513  1.00  0.00     0.002 A 
HETATM   23  C5  UNL     1       5.896   1.551  -0.562  1.00  0.00     0.000 A 
HETATM   24  C6  UNL     1       5.691   1.395   0.812  1.00  0.00     0.002 A 
HETATM   25  C7  UNL     1       4.613   0.658   1.217  1.00  0.00     0.029 A 
ENDBRANCH   3  20
BRANCH  13  26
HETATM   26  O3  UNL     1      -3.963  -2.527   1.889  1.00  0.00    -0.364 OA
HETATM   27  H15 UNL     1      -3.725  -3.336   2.480  1.00  0.00     0.217 HD
ENDBRANCH  13  26
BRANCH   8  28
HETATM   28  O2  UNL     1      -3.370   3.204  -2.344  1.00  0.00    -0.365 OA
HETATM   29  H11 UNL     1      -2.697   3.459  -3.057  1.00  0.00     0.217 HD
ENDBRANCH   8  28
TORSDOF 3
