REMARK  10 active torsions:
REMARK  status: ('A' for Active; 'I' for Inactive)
REMARK    1  A    between atoms: C2_2  and  C3_3 
REMARK    2  A    between atoms: C4_4  and  C5_5 
REMARK    3  A    between atoms: C5_5  and  C6_6 
REMARK    4  A    between atoms: C6_6  and  N1_7 
REMARK       I    between atoms: N1_7  and  C7_8 
REMARK       I    between atoms: C7_8  and  N2_10 
REMARK    5  A    between atoms: N2_10  and  C8_11 
REMARK    6  A    between atoms: N2_10  and  C15_19 
REMARK    7  A    between atoms: C8_11  and  C9_12 
REMARK    8  A    between atoms: C12_15  and  O2_16 
REMARK    9  A    between atoms: C15_19  and  C16_20 
REMARK   10  A    between atoms: C23_27  and  O3_28 
ROOT
HETATM    1  N1  UNL     1       2.021   1.206   1.370  1.00  0.00    -0.150 NA
HETATM    2  C7  UNL     1       0.860   0.531   1.816  1.00  0.00     0.352 C 
HETATM    3  O1  UNL     1       1.546   0.137   2.791  1.00  0.00    -0.244 OA
HETATM    4  N2  UNL     1      -0.371   0.571   1.110  1.00  0.00    -0.323 N 
ENDROOT
BRANCH   4   5
HETATM    5  C8  UNL     1      -0.464   1.336  -0.119  1.00  0.00     0.166 C 
BRANCH   5   6
HETATM    6  C9  UNL     1      -0.906   2.724   0.119  1.00  0.00    -0.040 A 
HETATM    7  C10 UNL     1      -0.066   3.776   0.375  1.00  0.00     0.011 A 
HETATM    8  C11 UNL     1      -0.501   5.057   0.590  1.00  0.00     0.037 A 
HETATM    9  C12 UNL     1      -1.849   5.356   0.557  1.00  0.00     0.065 A 
HETATM   10  C13 UNL     1      -2.746   4.316   0.299  1.00  0.00     0.037 A 
HETATM   11  C14 UNL     1      -2.252   3.048   0.091  1.00  0.00     0.011 A 
BRANCH   9  12
HETATM   12  O2  UNL     1      -2.337   6.640   0.768  1.00  0.00    -0.361 OA
HETATM   13  H11 UNL     1      -2.630   7.128  -0.079  1.00  0.00     0.217 HD
ENDBRANCH   9  12
ENDBRANCH   5   6
ENDBRANCH   4   5
BRANCH   4  14
HETATM   14  C15 UNL     1      -1.549  -0.131   1.567  1.00  0.00     0.169 C 
BRANCH  14  15
HETATM   15  C16 UNL     1      -1.681  -1.503   1.051  1.00  0.00    -0.006 A 
HETATM   16  C17 UNL     1      -2.588  -1.751   0.015  1.00  0.00     0.018 A 
HETATM   17  C18 UNL     1      -2.829  -2.953  -0.576  1.00  0.00    -0.061 A 
HETATM   18  C19 UNL     1      -3.830  -3.078  -1.676  1.00  0.00     0.048 C 
HETATM   19  C20 UNL     1      -2.130  -4.038  -0.132  1.00  0.00     0.016 A 
HETATM   20  C21 UNL     1      -1.227  -3.866   0.879  1.00  0.00    -0.028 A 
HETATM   21  C22 UNL     1      -0.437  -5.039   1.396  1.00  0.00     0.051 C 
HETATM   22  C23 UNL     1      -1.002  -2.627   1.463  1.00  0.00     0.079 A 
BRANCH  22  23
HETATM   23  O3  UNL     1      -0.084  -2.456   2.490  1.00  0.00    -0.360 OA
HETATM   24  H24 UNL     1       0.912  -2.498   2.315  1.00  0.00     0.217 HD
ENDBRANCH  22  23
ENDBRANCH  14  15
ENDBRANCH   4  14
BRANCH   1  25
HETATM   25  C6  UNL     1       2.695   0.619   0.434  1.00  0.00    -0.011 C 
BRANCH  25  26
HETATM   26  C5  UNL     1       3.378  -0.238  -0.315  1.00  0.00     0.077 C 
BRANCH  26  27
HETATM   27  C4  UNL     1       2.858  -0.200  -1.676  1.00  0.00     0.009 C 
HETATM   28  C3  UNL     1       3.894  -0.022  -2.475  1.00  0.00    -0.003 C 
BRANCH  28  29
HETATM   29  C2  UNL     1       5.144   0.070  -1.740  1.00  0.00    -0.026 C 
HETATM   30  C1  UNL     1       6.390   0.244  -2.142  1.00  0.00     0.031 C 
ENDBRANCH  28  29
ENDBRANCH  26  27
ENDBRANCH  25  26
ENDBRANCH   1  25
TORSDOF 10
