REMARK  5 active torsions:
REMARK  status: ('A' for Active; 'I' for Inactive)
REMARK    1  A    between atoms: C3_3  and  O1_4 
REMARK    2  A    between atoms: N1_7  and  C6_8 
REMARK    3  A    between atoms: C6_8  and  C7_9 
REMARK    4  A    between atoms: C7_9  and  C8_10 
REMARK    5  A    between atoms: C11_13  and  O2_14 
ROOT
HETATM    1  C1  UNL     1      -3.738  -0.757   0.968  1.00  0.00     0.050 C 
HETATM    2  C2  UNL     1      -2.749  -1.450   0.051  1.00  0.00    -0.033 C 
HETATM    3  C3  UNL     1      -2.226  -1.800   1.212  1.00  0.00     0.050 C 
HETATM    4  C4  UNL     1      -0.967  -2.615   1.309  1.00  0.00     0.084 C 
HETATM    5  C5  UNL     1       0.133  -1.622   1.826  1.00  0.00     0.128 C 
HETATM    6  N1  UNL     1       0.355  -0.750   0.626  1.00  0.00    -0.348 N 
HETATM    7  C14 UNL     1       0.043   0.376  -0.249  1.00  0.00     0.452 A 
HETATM    8  O3  UNL     1      -0.828   0.375   0.611  1.00  0.00    -0.120 OA
HETATM    9  N2  UNL     1      -0.947   1.392  -0.373  1.00  0.00     0.142 N 
HETATM   10  C15 UNL     1      -2.150   2.127  -0.015  1.00  0.00     0.183 A 
HETATM   11  C16 UNL     1      -1.927   3.241   0.738  1.00  0.00     0.041 A 
HETATM   12  C17 UNL     1      -3.029   3.938   1.108  1.00  0.00     0.002 A 
HETATM   13  C18 UNL     1      -4.262   3.519   0.731  1.00  0.00     0.001 A 
HETATM   14  C19 UNL     1      -4.503   2.403  -0.026  1.00  0.00     0.014 A 
HETATM   15  C20 UNL     1      -3.432   1.647  -0.437  1.00  0.00     0.001 A 
HETATM   16  C21 UNL     1      -3.604   0.440  -1.278  1.00  0.00     0.014 C 
HETATM   17  C22 UNL     1      -3.336  -0.884  -1.138  1.00  0.00     0.010 C 
HETATM   18  H18 UNL     1      -0.618   1.973  -1.204  1.00  0.00     0.332 HD
ENDROOT
BRANCH   6  19
HETATM   19  C6  UNL     1       1.490  -1.206  -0.157  1.00  0.00     0.126 C 
BRANCH  19  20
HETATM   20  C7  UNL     1       2.773  -0.538   0.285  1.00  0.00     0.055 C 
BRANCH  20  21
HETATM   21  C8  UNL     1       3.960  -0.978  -0.494  1.00  0.00    -0.064 C 
HETATM   22  C9  UNL     1       4.998  -1.556   0.051  1.00  0.00    -0.020 C 
HETATM   23  C10 UNL     1       6.152  -0.975  -0.185  1.00  0.00     0.048 C 
HETATM   24  C11 UNL     1       6.306  -0.055  -1.330  1.00  0.00     0.063 C 
HETATM   25  C12 UNL     1       5.283   0.031  -2.179  1.00  0.00     0.014 C 
HETATM   26  C13 UNL     1       4.032  -0.780  -1.967  1.00  0.00     0.065 C 
BRANCH  24  27
HETATM   27  O2  UNL     1       7.487   0.658  -1.458  1.00  0.00    -0.361 OA
HETATM   28  H14 UNL     1       7.570   1.622  -1.126  1.00  0.00     0.217 HD
ENDBRANCH  24  27
ENDBRANCH  20  21
ENDBRANCH  19  20
ENDBRANCH   6  19
BRANCH   3  29
HETATM   29  O1  UNL     1      -2.529  -1.590   2.551  1.00  0.00    -0.364 OA
HETATM   30  H4  UNL     1      -2.889  -2.328   3.150  1.00  0.00     0.217 HD
ENDBRANCH   3  29
TORSDOF 5
