REMARK  6 active torsions:
REMARK  status: ('A' for Active; 'I' for Inactive)
REMARK    1  A    between atoms: C2_2  and  C3_4 
REMARK    2  A    between atoms: C4_5  and  C5_6 
REMARK    3  A    between atoms: C6_7  and  N1_8 
REMARK    4  A    between atoms: N1_8  and  C7_9 
REMARK    5  A    between atoms: C14_19  and  O1_20 
REMARK    6  A    between atoms: C16_22  and  O2_23 
ROOT
HETATM    1  C7  UNL     1       1.407   1.312  -0.397  1.00  0.00     0.159 A 
HETATM    2  N2  UNL     1       1.928   2.493  -0.012  1.00  0.00    -0.222 NA
HETATM    3  C8  UNL     1       1.091   3.384   0.589  1.00  0.00     0.238 A 
HETATM    4  N3  UNL     1      -0.197   3.049   0.769  1.00  0.00    -0.215 NA
HETATM    5  C9  UNL     1      -0.709   1.866   0.382  1.00  0.00     0.202 A 
HETATM    6  C10 UNL     1       0.092   0.924  -0.234  1.00  0.00     0.129 A 
HETATM    7  N4  UNL     1      -0.178  -0.381  -0.736  1.00  0.00    -0.379 N 
HETATM    8  C11 UNL     1      -1.208  -1.250  -0.157  1.00  0.00     0.161 C 
HETATM    9  C12 UNL     1      -2.529  -0.581  -0.075  1.00  0.00    -0.004 A 
HETATM   10  C13 UNL     1      -3.536  -1.457  -0.432  1.00  0.00     0.051 A 
HETATM   11  C14 UNL     1      -4.854  -1.049  -0.429  1.00  0.00     0.102 A 
HETATM   12  C16 UNL     1      -5.262   0.223  -0.082  1.00  0.00     0.104 A 
HETATM   13  C18 UNL     1      -4.247   1.093   0.275  1.00  0.00     0.077 A 
HETATM   14  C19 UNL     1      -2.915   0.708   0.280  1.00  0.00     0.088 A 
HETATM   15  O3  UNL     1      -2.067   1.735   0.668  1.00  0.00    -0.289 OA
HETATM   16  H11 UNL     1       0.464  -0.596  -1.556  1.00  0.00     0.160 HD
ENDROOT
BRANCH   1  17
HETATM   17  N1  UNL     1       2.307   0.403  -1.023  1.00  0.00    -0.349 N 
HETATM   18  H9  UNL     1       2.192   0.686  -2.023  1.00  0.00     0.167 HD
BRANCH  17  19
HETATM   19  C6  UNL     1       3.230  -0.650  -0.879  1.00  0.00     0.090 C 
HETATM   20  C5  UNL     1       4.527  -0.541  -0.644  1.00  0.00     0.017 C 
BRANCH  20  21
HETATM   21  C4  UNL     1       5.177   0.744  -0.500  1.00  0.00    -0.002 C 
HETATM   22  C3  UNL     1       6.447   0.912  -0.269  1.00  0.00    -0.011 C 
BRANCH  22  23
HETATM   23  C2  UNL     1       7.415  -0.203  -0.118  1.00  0.00     0.076 C 
HETATM   24  C1  UNL     1       6.972  -1.047   1.058  1.00  0.00     0.026 C 
HETATM   25 BR1  UNL     1       7.372  -1.356  -1.688  1.00  0.00    -0.087 Br
ENDBRANCH  22  23
ENDBRANCH  20  21
ENDBRANCH  17  19
ENDBRANCH   1  17
BRANCH  12  26
HETATM   26  O2  UNL     1      -6.599   0.512  -0.116  1.00  0.00    -0.353 OA
HETATM   27  C17 UNL     1      -7.037   1.799   0.233  1.00  0.00     0.210 C 
ENDBRANCH  12  26
BRANCH  11  28
HETATM   28  O1  UNL     1      -5.827  -1.994  -0.804  1.00  0.00    -0.353 OA
HETATM   29  C15 UNL     1      -5.441  -3.300  -1.164  1.00  0.00     0.210 C 
ENDBRANCH  11  28
TORSDOF 6
