REMARK  7 active torsions:
REMARK  status: ('A' for Active; 'I' for Inactive)
REMARK    1  A    between atoms: C6_6  and  O1_7 
REMARK    2  A    between atoms: C7_8  and  C8_9 
REMARK    3  A    between atoms: C8_9  and  N1_10 
REMARK    4  A    between atoms: N1_10  and  C9_11 
REMARK       I    between atoms: N1_10  and  C16_19 
REMARK    5  A    between atoms: C9_11  and  C10_12 
REMARK    6  A    between atoms: C13_15  and  O2_16 
REMARK       I    between atoms: C16_19  and  N2_21 
REMARK    7  A    between atoms: N2_21  and  C17_22 
ROOT
HETATM    1  N1  UNL     1      -0.232  -0.326  -0.330  1.00  0.00    -0.325 N 
HETATM    2  C16 UNL     1      -0.956   0.580   0.492  1.00  0.00     0.323 C 
HETATM    3  O3  UNL     1      -0.736   1.789   0.230  1.00  0.00    -0.247 OA
HETATM    4  N2  UNL     1      -1.878   0.366   1.549  1.00  0.00    -0.312 N 
HETATM    5  H18 UNL     1      -2.050  -0.638   1.754  1.00  0.00     0.170 HD
ENDROOT
BRANCH   1   6
HETATM    6  C8  UNL     1       0.616   0.351  -1.271  1.00  0.00     0.169 C 
BRANCH   6   7
HETATM    7  C7  UNL     1       1.982   0.642  -0.808  1.00  0.00    -0.006 A 
HETATM    8  C6  UNL     1       3.026  -0.243  -0.736  1.00  0.00     0.079 A 
HETATM    9  C4  UNL     1       4.303   0.028  -0.295  1.00  0.00    -0.028 A 
HETATM   10  C3  UNL     1       4.606   1.306   0.125  1.00  0.00     0.016 A 
HETATM   11  C5  UNL     1       5.385  -0.990  -0.246  1.00  0.00     0.051 C 
HETATM   12  C2  UNL     1       3.594   2.262   0.079  1.00  0.00    -0.061 A 
HETATM   13  C1  UNL     1       3.985   3.617   0.545  1.00  0.00     0.048 C 
HETATM   14  C22 UNL     1       2.343   1.901  -0.377  1.00  0.00     0.018 A 
BRANCH   8  15
HETATM   15  O1  UNL     1       2.851  -1.560  -1.133  1.00  0.00    -0.360 OA
HETATM   16  H8  UNL     1       2.258  -1.768  -1.927  1.00  0.00     0.217 HD
ENDBRANCH   8  15
ENDBRANCH   6   7
ENDBRANCH   1   6
BRANCH   1  17
HETATM   17  C9  UNL     1      -0.434  -1.746  -0.159  1.00  0.00     0.166 C 
BRANCH  17  18
HETATM   18  C10 UNL     1      -1.515  -2.287  -1.038  1.00  0.00    -0.040 A 
HETATM   19  C11 UNL     1      -1.116  -2.736  -2.302  1.00  0.00     0.011 A 
HETATM   20  C12 UNL     1      -1.975  -3.273  -3.257  1.00  0.00     0.037 A 
HETATM   21  C13 UNL     1      -3.311  -3.337  -2.859  1.00  0.00     0.065 A 
HETATM   22  C14 UNL     1      -3.787  -2.920  -1.641  1.00  0.00     0.037 A 
HETATM   23  C15 UNL     1      -2.859  -2.413  -0.790  1.00  0.00     0.011 A 
BRANCH  21  24
HETATM   24  O2  UNL     1      -4.181  -3.873  -3.807  1.00  0.00    -0.361 OA
HETATM   25  H15 UNL     1      -4.266  -4.900  -3.848  1.00  0.00     0.217 HD
ENDBRANCH  21  24
ENDBRANCH  17  18
ENDBRANCH   1  17
BRANCH   4  26
HETATM   26  C17 UNL     1      -2.531   1.382   2.289  1.00  0.00     0.017 A 
HETATM   27  C18 UNL     1      -2.493   2.689   2.233  1.00  0.00     0.025 A 
HETATM   28  C19 UNL     1      -3.338   3.358   3.197  1.00  0.00    -0.002 A 
HETATM   29  C20 UNL     1      -3.930   2.407   3.885  1.00  0.00    -0.021 A 
HETATM   30  C21 UNL     1      -3.489   1.095   3.391  1.00  0.00     0.084 A 
ENDBRANCH   4  26
TORSDOF 7
