REMARK  7 active torsions:
REMARK  status: ('A' for Active; 'I' for Inactive)
REMARK    1  A    between atoms: C3_3  and  N1_4 
REMARK       I    between atoms: N1_4  and  C5_6 
REMARK       I    between atoms: C5_6  and  N2_8 
REMARK    2  A    between atoms: N2_8  and  C6_9 
REMARK    3  A    between atoms: N2_8  and  C13_17 
REMARK    4  A    between atoms: C6_9  and  C7_10 
REMARK    5  A    between atoms: C10_13  and  O2_14 
REMARK    6  A    between atoms: C13_17  and  C14_18 
REMARK    7  A    between atoms: C21_25  and  O3_26 
ROOT
HETATM    1  N1  UNL     1      -1.816  -1.759  -0.952  1.00  0.00    -0.315 N 
HETATM    2  C4  UNL     1      -2.510  -2.237  -2.126  1.00  0.00     0.160 C 
HETATM    3  C5  UNL     1      -1.219  -0.474  -1.003  1.00  0.00     0.324 C 
HETATM    4  O1  UNL     1      -1.370   0.190  -2.056  1.00  0.00    -0.247 OA
HETATM    5  N2  UNL     1      -0.442   0.440  -0.247  1.00  0.00    -0.325 N 
ENDROOT
BRANCH   5   6
HETATM    6  C6  UNL     1      -0.221   1.716  -0.895  1.00  0.00     0.166 C 
BRANCH   6   7
HETATM    7  C7  UNL     1      -1.167   2.777  -0.553  1.00  0.00    -0.040 A 
HETATM    8  C8  UNL     1      -0.870   3.614   0.534  1.00  0.00     0.011 A 
HETATM    9  C9  UNL     1      -1.676   4.637   0.944  1.00  0.00     0.037 A 
HETATM   10  C10 UNL     1      -2.857   4.904   0.289  1.00  0.00     0.065 A 
HETATM   11  C11 UNL     1      -3.207   4.131  -0.775  1.00  0.00     0.037 A 
HETATM   12  C12 UNL     1      -2.361   3.112  -1.150  1.00  0.00     0.011 A 
BRANCH  10  13
HETATM   13  O2  UNL     1      -3.706   5.932   0.671  1.00  0.00    -0.361 OA
HETATM   14  H13 UNL     1      -4.343   6.346   0.002  1.00  0.00     0.217 HD
ENDBRANCH  10  13
ENDBRANCH   6   7
ENDBRANCH   5   6
BRANCH   5  15
HETATM   15  C13 UNL     1       0.219   0.296   1.064  1.00  0.00     0.169 C 
BRANCH  15  16
HETATM   16  C14 UNL     1       1.620  -0.168   0.921  1.00  0.00    -0.006 A 
HETATM   17  C15 UNL     1       2.605   0.812   1.096  1.00  0.00     0.018 A 
HETATM   18  C16 UNL     1       3.968   0.638   1.014  1.00  0.00    -0.061 A 
HETATM   19  C17 UNL     1       4.922   1.757   1.218  1.00  0.00     0.048 C 
HETATM   20  C18 UNL     1       4.427  -0.625   0.733  1.00  0.00     0.016 A 
HETATM   21  C19 UNL     1       3.506  -1.630   0.551  1.00  0.00    -0.028 A 
HETATM   22  C20 UNL     1       3.905  -3.047   0.240  1.00  0.00     0.051 C 
HETATM   23  C21 UNL     1       2.153  -1.401   0.644  1.00  0.00     0.079 A 
BRANCH  23  24
HETATM   24  O3  UNL     1       1.224  -2.409   0.462  1.00  0.00    -0.360 OA
HETATM   25  H26 UNL     1       1.379  -3.036  -0.322  1.00  0.00     0.217 HD
ENDBRANCH  23  24
ENDBRANCH  15  16
ENDBRANCH   5  15
BRANCH   1  26
HETATM   26  C3  UNL     1      -1.952  -2.822  -0.026  1.00  0.00     0.090 C 
HETATM   27  C2  UNL     1      -2.480  -4.011   0.050  1.00  0.00    -0.014 C 
HETATM   28  C1  UNL     1      -3.239  -5.016  -0.685  1.00  0.00     0.037 C 
ENDBRANCH   1  26
TORSDOF 7
