REMARK  1 active torsions:
REMARK  status: ('A' for Active; 'I' for Inactive)
REMARK    1  A    between atoms: C11_15  and  O3_16 
ROOT
HETATM    1  O1  UNL     1      -0.893  -1.168  -1.425  1.00  0.00    -0.101 OA
HETATM    2  C1  UNL     1      -0.391  -1.776  -0.551  1.00  0.00     0.398 A 
HETATM    3  N1  UNL     1      -1.659  -1.312  -0.108  1.00  0.00     0.154 N 
HETATM    4  C2  UNL     1      -2.850  -0.537  -0.360  1.00  0.00     0.392 C 
HETATM    5  C3  UNL     1      -3.011   0.025   1.097  1.00  0.00     0.038 C 
HETATM    6  C4  UNL     1      -1.925   0.576   1.793  1.00  0.00     0.012 C 
HETATM    7  C5  UNL     1      -0.753   0.935   1.009  1.00  0.00    -0.028 C 
HETATM    8  C6  UNL     1      -0.984   1.779  -0.060  1.00  0.00     0.011 C 
HETATM    9  C7  UNL     1      -2.297   1.746  -0.864  1.00  0.00     0.199 C 
HETATM   10  O2  UNL     1      -2.736   0.500  -1.223  1.00  0.00    -0.350 OA
HETATM   11  C8  UNL     1       0.665   0.891   0.638  1.00  0.00    -0.024 A 
HETATM   12  C9  UNL     1       1.640   1.829   0.601  1.00  0.00     0.039 A 
HETATM   13  C10 UNL     1       2.839   1.421   0.056  1.00  0.00     0.068 A 
HETATM   14 CL1  UNL     1       4.100   2.642   0.022  1.00  0.00    -0.081 Cl
HETATM   15  C11 UNL     1       3.191   0.195  -0.467  1.00  0.00     0.095 A 
HETATM   16  C12 UNL     1       2.347  -0.894  -0.539  1.00  0.00    -0.003 A 
HETATM   17  C13 UNL     1       1.373  -0.135   0.055  1.00  0.00     0.024 A 
HETATM   18  C14 UNL     1       1.848  -2.266  -0.952  1.00  0.00     0.188 C 
HETATM   19  N2  UNL     1       0.707  -2.506  -0.022  1.00  0.00    -0.240 N 
HETATM   20 CL2  UNL     1      -0.046  -3.185   1.346  1.00  0.00     0.017 Cl
HETATM   21  H1  UNL     1      -1.627  -1.839   0.830  1.00  0.00     0.334 HD
ENDROOT
BRANCH  15  22
HETATM   22  O3  UNL     1       4.334  -0.314  -1.023  1.00  0.00    -0.358 OA
HETATM   23  H9  UNL     1       5.194  -0.291  -0.491  1.00  0.00     0.217 HD
ENDBRANCH  15  22
TORSDOF 1
