REMARK  7 active torsions:
REMARK  status: ('A' for Active; 'I' for Inactive)
REMARK       I    between atoms: C1_2  and  N1_3 
REMARK       I    between atoms: C1_2  and  N2_10 
REMARK    1  A    between atoms: N1_3  and  C2_4 
REMARK    2  A    between atoms: N2_10  and  C8_11 
REMARK    3  A    between atoms: N2_10  and  C15_19 
REMARK    4  A    between atoms: C8_11  and  C9_12 
REMARK    5  A    between atoms: C12_15  and  O2_16 
REMARK    6  A    between atoms: C15_19  and  C16_20 
REMARK    7  A    between atoms: C21_26  and  O3_27 
ROOT
HETATM    1  O1  UNL     1       1.346   0.445   1.155  1.00  0.00    -0.247 OA
HETATM    2  C1  UNL     1       0.929  -0.253   0.183  1.00  0.00     0.323 C 
HETATM    3  N1  UNL     1       1.914  -1.080  -0.418  1.00  0.00    -0.309 N 
HETATM    4  N2  UNL     1      -0.453  -0.037  -0.083  1.00  0.00    -0.325 N 
HETATM    5  H1  UNL     1       1.528  -1.623  -1.221  1.00  0.00     0.170 HD
ENDROOT
BRANCH   4   6
HETATM    6  C8  UNL     1      -1.109   0.957   0.740  1.00  0.00     0.166 C 
BRANCH   6   7
HETATM    7  C9  UNL     1      -1.107   2.318   0.211  1.00  0.00    -0.040 A 
HETATM    8  C10 UNL     1      -0.163   3.304   0.394  1.00  0.00     0.011 A 
HETATM    9  C11 UNL     1      -0.202   4.581  -0.120  1.00  0.00     0.037 A 
HETATM   10  C12 UNL     1      -1.290   4.924  -0.898  1.00  0.00     0.065 A 
HETATM   11  C13 UNL     1      -2.274   3.981  -1.121  1.00  0.00     0.037 A 
HETATM   12  C14 UNL     1      -2.184   2.714  -0.581  1.00  0.00     0.011 A 
BRANCH  10  13
HETATM   13  O2  UNL     1      -1.333   6.208  -1.416  1.00  0.00    -0.361 OA
HETATM   14  H11 UNL     1      -1.760   6.981  -0.893  1.00  0.00     0.217 HD
ENDBRANCH  10  13
ENDBRANCH   6   7
ENDBRANCH   4   6
BRANCH   4  15
HETATM   15  C15 UNL     1      -1.343  -0.698  -1.041  1.00  0.00     0.169 C 
BRANCH  15  16
HETATM   16  C16 UNL     1      -2.055  -1.858  -0.494  1.00  0.00    -0.006 A 
HETATM   17  C17 UNL     1      -3.403  -1.639  -0.167  1.00  0.00     0.030 A 
HETATM   18  C18 UNL     1      -4.264  -2.569   0.361  1.00  0.00     0.011 A 
HETATM   19 BR1  UNL     1      -6.081  -2.155   0.766  1.00  0.00    -0.051 Br
HETATM   20  C19 UNL     1      -3.779  -3.835   0.595  1.00  0.00     0.022 A 
HETATM   21  C20 UNL     1      -2.463  -4.120   0.297  1.00  0.00     0.038 A 
HETATM   22  C21 UNL     1      -1.652  -3.143  -0.230  1.00  0.00     0.073 A 
BRANCH  22  23
HETATM   23  O3  UNL     1      -0.337  -3.423  -0.530  1.00  0.00    -0.360 OA
HETATM   24  H19 UNL     1      -0.024  -4.340  -0.850  1.00  0.00     0.217 HD
ENDBRANCH  22  23
ENDBRANCH  15  16
ENDBRANCH   4  15
BRANCH   3  25
HETATM   25  C2  UNL     1       3.229  -1.053   0.114  1.00  0.00     0.036 A 
HETATM   26  C3  UNL     1       4.135  -0.146  -0.390  1.00  0.00     0.029 A 
HETATM   27  C4  UNL     1       5.424  -0.105   0.117  1.00  0.00     0.002 A 
HETATM   28  C5  UNL     1       5.835  -0.955   1.124  1.00  0.00     0.000 A 
HETATM   29  C6  UNL     1       4.927  -1.863   1.628  1.00  0.00     0.002 A 
HETATM   30  C7  UNL     1       3.631  -1.902   1.116  1.00  0.00     0.029 A 
ENDBRANCH   3  25
TORSDOF 7
