REMARK  9 active torsions:
REMARK  status: ('A' for Active; 'I' for Inactive)
REMARK    1  A    between atoms: O1_2  and  C2_3 
REMARK    2  A    between atoms: C2_3  and  C3_4 
REMARK    3  A    between atoms: C3_4  and  O3_26 
REMARK    4  A    between atoms: C4_5  and  C5_6 
REMARK    5  A    between atoms: C8_10  and  C9_11 
REMARK    6  A    between atoms: C9_11  and  N1_12 
REMARK    7  A    between atoms: C9_11  and  C10_13 
REMARK    8  A    between atoms: C11_14  and  N2_15 
REMARK    9  A    between atoms: N2_15  and  C12_16 
ROOT
HETATM    1  C5  UNL     1      -3.151   0.863   0.005  1.00  0.00     0.032 C 
HETATM    2  C6  UNL     1      -1.844   0.960  -0.243  1.00  0.00     0.060 C 
HETATM    3  C7  UNL     1      -1.232  -0.318  -0.638  1.00  0.00     0.236 C 
HETATM    4  O2  UNL     1       0.142  -0.197  -0.937  1.00  0.00    -0.330 OA
HETATM    5  C8  UNL     1       1.188   0.506  -0.415  1.00  0.00     0.178 C 
HETATM    6  N3  UNL     1       1.063   1.719  -0.014  1.00  0.00    -0.220 NA
HETATM    7  C18 UNL     1      -0.051   2.604   0.015  1.00  0.00     0.235 C 
HETATM    8  N4  UNL     1      -1.288   2.253  -0.085  1.00  0.00    -0.244 NA
ENDROOT
BRANCH   5   9
HETATM    9  C9  UNL     1       2.497  -0.193  -0.328  1.00  0.00     0.318 C 
BRANCH   9  10
HETATM   10  N1  UNL     1       2.418  -1.391   0.506  1.00  0.00     0.094 N 
HETATM   11  H11 UNL     1       2.326  -1.157   1.501  1.00  0.00     0.314 HD
HETATM   12  H12 UNL     1       1.707  -2.064   0.140  1.00  0.00     0.314 HD
ENDBRANCH   9  10
BRANCH   9  13
HETATM   13  C10 UNL     1       2.834  -0.661  -1.706  1.00  0.00     0.033 C 
HETATM   14  C11 UNL     1       4.051  -0.340  -2.175  1.00  0.00     0.087 C 
BRANCH  14  15
HETATM   15  N2  UNL     1       4.828   0.402  -1.271  1.00  0.00    -0.366 N 
HETATM   16  H15 UNL     1       4.477   1.386  -1.313  1.00  0.00     0.165 HD
BRANCH  15  17
HETATM   17  C12 UNL     1       5.889  -0.035  -0.439  1.00  0.00     0.033 A 
HETATM   18  C13 UNL     1       6.234  -1.368  -0.500  1.00  0.00     0.029 A 
HETATM   19  C14 UNL     1       7.285  -1.733   0.342  1.00  0.00     0.004 A 
HETATM   20  C15 UNL     1       7.930  -0.819   1.176  1.00  0.00     0.019 A 
HETATM   21  C16 UNL     1       7.521   0.499   1.175  1.00  0.00     0.013 A 
HETATM   22 BR1  UNL     1       8.400   1.751   2.313  1.00  0.00    -0.051 Br
HETATM   23  C17 UNL     1       6.481   0.907   0.355  1.00  0.00     0.048 A 
ENDBRANCH  15  17
ENDBRANCH  14  15
ENDBRANCH   9  13
ENDBRANCH   5   9
BRANCH   1  24
HETATM   24  C4  UNL     1      -3.858  -0.400  -0.116  1.00  0.00     0.036 C 
HETATM   25  C3  UNL     1      -5.132  -0.521   0.121  1.00  0.00     0.069 C 
BRANCH  25  26
HETATM   26  C2  UNL     1      -6.144   0.481   0.540  1.00  0.00     0.231 C 
BRANCH  26  27
HETATM   27  O1  UNL     1      -7.164   0.574  -0.416  1.00  0.00    -0.390 OA
HETATM   28  C1  UNL     1      -8.126   1.518  -0.031  1.00  0.00     0.201 C 
ENDBRANCH  26  27
ENDBRANCH  25  26
BRANCH  25  29
HETATM   29  O3  UNL     1      -5.821  -1.716   0.011  1.00  0.00    -0.358 OA
HETATM   30  C19 UNL     1      -5.983  -2.615   1.068  1.00  0.00     0.209 C 
ENDBRANCH  25  29
ENDBRANCH   1  24
TORSDOF 9
