REMARK  3 active torsions:
REMARK  status: ('A' for Active; 'I' for Inactive)
REMARK    1  A    between atoms: C6_6  and  O1_7 
REMARK    2  A    between atoms: C7_8  and  N1_9 
REMARK    3  A    between atoms: C20_24  and  O3_25 
ROOT
HETATM    1  N1  UNL     1      -0.158   0.331  -0.491  1.00  0.00    -0.286 N 
HETATM    2  C8  UNL     1       0.349   1.599  -0.048  1.00  0.00     0.328 C 
HETATM    3  O2  UNL     1      -0.470   2.526   0.147  1.00  0.00    -0.246 OA
HETATM    4  N2  UNL     1       1.657   2.153   0.264  1.00  0.00    -0.308 N 
HETATM    5  C9  UNL     1       2.902   1.425   0.534  1.00  0.00     0.047 A 
HETATM    6  C10 UNL     1       3.819   2.092   1.244  1.00  0.00     0.030 A 
HETATM    7  C11 UNL     1       4.973   1.401   1.542  1.00  0.00     0.002 A 
HETATM    8  C12 UNL     1       5.253   0.100   1.173  1.00  0.00     0.001 A 
HETATM    9  C13 UNL     1       4.357  -0.661   0.435  1.00  0.00     0.014 A 
HETATM   10  C14 UNL     1       3.218   0.077   0.163  1.00  0.00    -0.000 A 
HETATM   11  C15 UNL     1       2.387  -0.914  -0.590  1.00  0.00    -0.015 C 
HETATM   12  C16 UNL     1       2.550  -1.995   0.222  1.00  0.00     0.010 C 
HETATM   13  C17 UNL     1       1.262  -2.727   0.334  1.00  0.00    -0.001 C 
HETATM   14  C18 UNL     1       0.259  -2.137  -0.383  1.00  0.00     0.002 C 
HETATM   15  C19 UNL     1       0.146  -0.862  -1.185  1.00  0.00     0.151 C 
HETATM   16  C20 UNL     1       1.545  -0.783  -1.862  1.00  0.00     0.179 C 
HETATM   17  H9  UNL     1       1.907   3.143   0.356  1.00  0.00     0.170 HD
ENDROOT
BRANCH   1  18
HETATM   18  C7  UNL     1      -1.538   0.264  -0.051  1.00  0.00     0.073 A 
HETATM   19  C6  UNL     1      -2.388   0.780  -1.008  1.00  0.00     0.098 A 
HETATM   20  C4  UNL     1      -3.746   0.814  -0.795  1.00  0.00    -0.026 A 
HETATM   21  C3  UNL     1      -4.240   0.323   0.391  1.00  0.00     0.016 A 
HETATM   22  C5  UNL     1      -4.722   1.362  -1.795  1.00  0.00     0.051 C 
HETATM   23  C2  UNL     1      -3.386  -0.191   1.342  1.00  0.00    -0.059 A 
HETATM   24  C1  UNL     1      -3.871  -0.729   2.630  1.00  0.00     0.048 C 
HETATM   25  C21 UNL     1      -2.024  -0.229   1.137  1.00  0.00     0.039 A 
BRANCH  19  26
HETATM   26  O1  UNL     1      -1.998   1.306  -2.249  1.00  0.00    -0.358 OA
HETATM   27  H8  UNL     1      -1.943   0.662  -3.035  1.00  0.00     0.217 HD
ENDBRANCH  19  26
ENDBRANCH   1  18
BRANCH  16  28
HETATM   28  O3  UNL     1       1.720  -1.844  -2.703  1.00  0.00    -0.388 OA
HETATM   29  H19 UNL     1       0.864  -2.299  -2.964  1.00  0.00     0.210 HD
ENDBRANCH  16  28
TORSDOF 3
