REMARK  7 active torsions:
REMARK  status: ('A' for Active; 'I' for Inactive)
REMARK    1  A    between atoms: O1_1  and  C1_2 
REMARK    2  A    between atoms: C4_5  and  C5_6 
REMARK    3  A    between atoms: C5_6  and  N1_7 
REMARK    4  A    between atoms: N1_7  and  B1_9 
REMARK    5  A    between atoms: B1_9  and  C6_10 
REMARK    6  A    between atoms: C6_10  and  C7_11 
REMARK    7  A    between atoms: C12_17  and  O2_18 
ROOT
HETATM    1  B1  UNL     1       0.861   0.258   0.791  1.00  0.00     0.265 B 
HETATM    2  H6  UNL     1       1.319   0.149   1.894  1.00  0.00    -0.006 HD
ENDROOT
BRANCH   1   3
HETATM    3  N1  UNL     1      -0.598   0.640   0.604  1.00  0.00    -0.275 NA
HETATM    4 CL1  UNL     1      -0.701   1.678  -0.787  1.00  0.00    -0.037 Cl
BRANCH   3   5
HETATM    5  C5  UNL     1      -1.361  -0.555   0.411  1.00  0.00     0.129 C 
BRANCH   5   6
HETATM    6  C4  UNL     1      -2.795  -0.226   0.183  1.00  0.00    -0.045 A 
HETATM    7  C3  UNL     1      -3.589  -0.158   1.330  1.00  0.00     0.011 A 
HETATM    8  C2  UNL     1      -4.930   0.142   1.209  1.00  0.00     0.037 A 
HETATM    9  C1  UNL     1      -5.400   0.356  -0.069  1.00  0.00     0.065 A 
HETATM   10  C14 UNL     1      -4.673   0.303  -1.234  1.00  0.00     0.037 A 
HETATM   11  C13 UNL     1      -3.330  -0.001  -1.068  1.00  0.00     0.011 A 
BRANCH   9  12
HETATM   12  O1  UNL     1      -6.768   0.661  -0.186  1.00  0.00    -0.361 OA
HETATM   13  H1  UNL     1      -7.234   1.172   0.569  1.00  0.00     0.217 HD
ENDBRANCH   9  12
ENDBRANCH   5   6
ENDBRANCH   3   5
ENDBRANCH   1   3
BRANCH   1  14
HETATM   14  C6  UNL     1       1.567  -0.612  -0.337  1.00  0.00     0.007 C 
BRANCH  14  15
HETATM   15  C7  UNL     1       2.984  -0.178  -0.378  1.00  0.00    -0.031 A 
HETATM   16  C8  UNL     1       3.530   0.643  -1.360  1.00  0.00     0.033 A 
HETATM   17  C9  UNL     1       4.876   1.002  -1.319  1.00  0.00     0.034 A 
HETATM   18 CL2  UNL     1       5.515   2.042  -2.584  1.00  0.00    -0.084 Cl
HETATM   19  C10 UNL     1       5.687   0.533  -0.283  1.00  0.00     0.026 A 
HETATM   20  C11 UNL     1       5.143  -0.284   0.693  1.00  0.00     0.039 A 
HETATM   21  C12 UNL     1       3.809  -0.635   0.646  1.00  0.00     0.071 A 
BRANCH  21  22
HETATM   22  O2  UNL     1       3.395  -1.463   1.693  1.00  0.00    -0.360 OA
HETATM   23  H12 UNL     1       3.483  -2.465   1.652  1.00  0.00     0.217 HD
ENDBRANCH  21  22
ENDBRANCH  14  15
ENDBRANCH   1  14
TORSDOF 7
