REMARK  9 active torsions:
REMARK  status: ('A' for Active; 'I' for Inactive)
REMARK    1  A    between atoms: C3_3  and  C4_4 
REMARK    2  A    between atoms: C4_4  and  O1_5 
REMARK    3  A    between atoms: C6_8  and  C7_9 
REMARK    4  A    between atoms: C7_9  and  C8_10 
REMARK    5  A    between atoms: C8_10  and  N1_11 
REMARK    6  A    between atoms: N1_11  and  C9_12 
REMARK       I    between atoms: N1_11  and  C17_22 
REMARK    7  A    between atoms: C9_12  and  C10_13 
REMARK    8  A    between atoms: C10_13  and  C11_14 
REMARK       I    between atoms: C17_22  and  N2_24 
REMARK    9  A    between atoms: N2_24  and  C18_25 
ROOT
HETATM    1  N1  UNL     1       0.512   0.115   0.385  1.00  0.00    -0.333 N 
HETATM    2  C17 UNL     1       0.030   1.462   0.582  1.00  0.00     0.322 C 
HETATM    3  O4  UNL     1       0.318   2.312   1.467  1.00  0.00    -0.247 OA
HETATM    4  N2  UNL     1      -0.939   2.067  -0.304  1.00  0.00    -0.309 N 
HETATM    5  H25 UNL     1      -1.311   1.501  -1.126  1.00  0.00     0.170 HD
ENDROOT
BRANCH   1   6
HETATM    6  C8  UNL     1       0.209  -0.897  -0.570  1.00  0.00     0.132 C 
BRANCH   6   7
HETATM    7  C7  UNL     1      -0.797  -1.925  -0.271  1.00  0.00     0.056 C 
BRANCH   7   8
HETATM    8  C6  UNL     1      -2.157  -1.486   0.015  1.00  0.00    -0.054 A 
HETATM    9  C5  UNL     1      -2.764  -0.725   1.126  1.00  0.00     0.209 A 
HETATM   10  O2  UNL     1      -4.151  -0.639   1.043  1.00  0.00    -0.348 OA
HETATM   11  C3  UNL     1      -5.002  -1.101   0.079  1.00  0.00     0.076 A 
HETATM   12  C2  UNL     1      -4.480  -1.778  -0.925  1.00  0.00    -0.030 A 
HETATM   13  C1  UNL     1      -5.393  -2.287  -1.971  1.00  0.00     0.050 C 
HETATM   14  C24 UNL     1      -3.030  -1.945  -0.907  1.00  0.00     0.014 A 
BRANCH  11  15
HETATM   15  C4  UNL     1      -6.429  -0.755   0.331  1.00  0.00     0.229 C 
BRANCH  15  16
HETATM   16  O1  UNL     1      -6.660   0.598   0.393  1.00  0.00    -0.394 OA
HETATM   17  H6  UNL     1      -7.472   0.732   0.936  1.00  0.00     0.209 HD
ENDBRANCH  15  16
ENDBRANCH  11  15
ENDBRANCH   7   8
ENDBRANCH   6   7
ENDBRANCH   1   6
BRANCH   1  18
HETATM   18  C9  UNL     1       1.464  -0.204   1.404  1.00  0.00     0.131 C 
BRANCH  18  19
HETATM   19  C10 UNL     1       2.879   0.188   1.142  1.00  0.00     0.047 C 
BRANCH  19  20
HETATM   20  C11 UNL     1       3.491  -0.380  -0.059  1.00  0.00    -0.019 C 
HETATM   21  C12 UNL     1       4.486  -1.203  -0.287  1.00  0.00    -0.074 C 
HETATM   22  C13 UNL     1       5.197  -1.714   0.878  1.00  0.00    -0.078 C 
HETATM   23  C16 UNL     1       4.737  -1.489  -1.714  1.00  0.00     0.063 C 
HETATM   24  B1  UNL     1       6.925  -2.303   0.954  1.00  0.00     0.201 B 
HETATM   25  C14 UNL     1       7.862  -2.264  -0.517  1.00  0.00     0.108 C 
HETATM   26  O3  UNL     1       7.128  -1.728  -1.579  1.00  0.00    -0.400 OA
HETATM   27  C15 UNL     1       5.949  -2.388  -1.836  1.00  0.00     0.171 C 
ENDBRANCH  19  20
ENDBRANCH  18  19
ENDBRANCH   1  18
BRANCH   4  28
HETATM   28  C18 UNL     1      -1.191   3.403   0.178  1.00  0.00     0.036 A 
HETATM   29  C19 UNL     1      -2.218   3.550   1.097  1.00  0.00     0.029 A 
HETATM   30  C20 UNL     1      -2.458   4.821   1.556  1.00  0.00     0.002 A 
HETATM   31  C21 UNL     1      -1.725   5.911   1.135  1.00  0.00     0.000 A 
HETATM   32  C22 UNL     1      -0.701   5.737   0.213  1.00  0.00     0.002 A 
HETATM   33  C23 UNL     1      -0.445   4.457  -0.260  1.00  0.00     0.029 A 
ENDBRANCH   4  28
TORSDOF 9
