REMARK  4 active torsions:
REMARK  status: ('A' for Active; 'I' for Inactive)
REMARK    1  A    between atoms: C2_2  and  C3_3 
REMARK    2  A    between atoms: C7_7  and  N1_8 
REMARK    3  A    between atoms: N1_8  and  C8_9 
REMARK    4  A    between atoms: C19_24  and  N5_25 
ROOT
HETATM    1  C8  UNL     1      -0.246   0.347   0.261  1.00  0.00     0.095 C 
HETATM    2  C9  UNL     1      -0.519  -0.767  -0.417  1.00  0.00     0.042 C 
HETATM    3  C10 UNL     1      -1.298  -1.602  -1.365  1.00  0.00     0.179 C 
HETATM    4  N2  UNL     1      -1.801  -2.811  -0.791  1.00  0.00    -0.300 NA
HETATM    5  C11 UNL     1      -2.947  -2.786  -0.235  1.00  0.00     0.105 C 
HETATM    6  C12 UNL     1      -4.293  -2.496   0.348  1.00  0.00     0.194 C 
HETATM    7  N3  UNL     1      -4.733  -1.179   0.036  1.00  0.00    -0.300 NA
HETATM    8  C13 UNL     1      -5.818  -0.796  -0.496  1.00  0.00     0.093 C 
HETATM    9  C14 UNL     1      -5.275   0.538  -0.359  1.00  0.00     0.062 C 
HETATM   10  C15 UNL     1      -5.561   1.795  -0.603  1.00  0.00     0.004 C 
HETATM   11  C16 UNL     1      -4.306   2.303  -0.062  1.00  0.00     0.012 A 
HETATM   12 CL1  UNL     1      -3.825   3.985   0.010  1.00  0.00    -0.175 Cl
HETATM   13  C17 UNL     1      -3.123   2.170   0.505  1.00  0.00     0.132 A 
HETATM   14  C18 UNL     1      -1.803   2.351   1.107  1.00  0.00     0.146 C 
HETATM   15  N4  UNL     1      -0.714   1.675   0.442  1.00  0.00    -0.375 N 
HETATM   16  H23 UNL     1      -0.100   2.392  -0.072  1.00  0.00     0.161 HD
ENDROOT
BRANCH   1  17
HETATM   17  N1  UNL     1       0.865   0.455   1.161  1.00  0.00    -0.366 N 
HETATM   18  H10 UNL     1       0.568  -0.057   2.042  1.00  0.00     0.161 HD
BRANCH  17  19
HETATM   19  C7  UNL     1       2.153   1.096   1.013  1.00  0.00     0.143 A 
HETATM   20  C6  UNL     1       2.896   0.876   2.281  1.00  0.00     0.000 A 
HETATM   21  C5  UNL     1       4.036   0.243   2.533  1.00  0.00    -0.002 A 
HETATM   22  C4  UNL     1       4.670  -0.340   1.357  1.00  0.00     0.005 A 
HETATM   23  C3  UNL     1       4.113  -0.216   0.181  1.00  0.00    -0.046 A 
HETATM   24  C19 UNL     1       2.847   0.473  -0.179  1.00  0.00     0.273 A 
BRANCH  23  25
HETATM   25  C2  UNL     1       4.785  -0.824  -1.009  1.00  0.00     0.032 C 
HETATM   26  C1  UNL     1       6.064  -1.520  -0.637  1.00  0.00     0.010 C 
ENDBRANCH  23  25
BRANCH  24  27
HETATM   27  N5  UNL     1       3.081   1.495  -1.193  1.00  0.00     0.089 N 
HETATM   28  H25 UNL     1       2.149   1.950  -1.339  1.00  0.00     0.313 HD
HETATM   29  H26 UNL     1       3.307   1.005  -2.089  1.00  0.00     0.313 HD
ENDBRANCH  24  27
ENDBRANCH  17  19
ENDBRANCH   1  17
TORSDOF 4
