REMARK  6 active torsions:
REMARK  status: ('A' for Active; 'I' for Inactive)
REMARK       I    between atoms: C1_2  and  N1_3 
REMARK       I    between atoms: C1_2  and  N2_11 
REMARK    1  A    between atoms: N1_3  and  C2_4 
REMARK    2  A    between atoms: N2_11  and  C8_12 
REMARK    3  A    between atoms: N2_11  and  C12_17 
REMARK    4  A    between atoms: C8_12  and  C9_13 
REMARK    5  A    between atoms: C10_14  and  C11_15 
REMARK    6  A    between atoms: C12_17  and  C13_18 
ROOT
HETATM    1  O1  UNL     1       0.004  -1.352  -0.074  1.00  0.00    -0.247 OA
HETATM    2  C1  UNL     1      -0.257  -0.155  -0.447  1.00  0.00     0.321 C 
HETATM    3  N1  UNL     1      -1.654   0.102  -0.360  1.00  0.00    -0.313 N 
HETATM    4  N2  UNL     1       0.694   0.803  -0.890  1.00  0.00    -0.327 N 
HETATM    5  H1  UNL     1      -2.029   1.028  -0.627  1.00  0.00     0.167 HD
ENDROOT
BRANCH   4   6
HETATM    6  C8  UNL     1       0.555   2.178  -1.339  1.00  0.00     0.155 C 
BRANCH   6   7
HETATM    7  C9  UNL     1       0.343   2.305  -2.799  1.00  0.00    -0.010 C 
HETATM    8  C10 UNL     1      -0.565   2.795  -3.600  1.00  0.00    -0.014 C 
BRANCH   8   9
HETATM    9  C11 UNL     1      -1.852   3.478  -3.473  1.00  0.00     0.141 C 
HETATM   10 CL1  UNL     1      -2.375   3.754  -1.799  1.00  0.00    -0.126 Cl
ENDBRANCH   8   9
ENDBRANCH   6   7
ENDBRANCH   4   6
BRANCH   4  11
HETATM   11  C12 UNL     1       2.059   0.317  -0.895  1.00  0.00     0.155 C 
BRANCH  11  12
HETATM   12  C13 UNL     1       2.768   0.552   0.370  1.00  0.00     0.002 C 
HETATM   13  C14 UNL     1       3.317  -0.280   1.216  1.00  0.00    -0.043 C 
HETATM   14  C15 UNL     1       3.305  -1.722   1.002  1.00  0.00     0.006 C 
HETATM   15  C18 UNL     1       3.975   0.255   2.434  1.00  0.00     0.152 C 
HETATM   16  C16 UNL     1       4.175  -2.409   1.711  1.00  0.00    -0.007 C 
HETATM   17  C17 UNL     1       5.133  -1.865   2.672  1.00  0.00     0.141 C 
HETATM   18  N3  UNL     1       5.140  -0.460   2.843  1.00  0.00    -0.414 N 
HETATM   19  H22 UNL     1       6.033   0.031   2.812  1.00  0.00     0.153 HD
ENDBRANCH  11  12
ENDBRANCH   4  11
BRANCH   3  20
HETATM   20  C2  UNL     1      -2.674  -0.800   0.073  1.00  0.00     0.249 C 
HETATM   21  C3  UNL     1      -3.704  -1.029  -0.998  1.00  0.00     0.026 C 
HETATM   22  C4  UNL     1      -4.921  -1.535  -0.881  1.00  0.00     0.000 C 
HETATM   23  C5  UNL     1      -5.532  -1.994   0.385  1.00  0.00    -0.002 C 
HETATM   24  C6  UNL     1      -5.068  -1.832   1.615  1.00  0.00    -0.001 C 
HETATM   25  C7  UNL     1      -3.822  -1.155   2.058  1.00  0.00     0.198 C 
HETATM   26  O2  UNL     1      -3.332  -0.240   1.157  1.00  0.00    -0.360 OA
ENDBRANCH   3  20
TORSDOF 6
