REMARK  7 active torsions:
REMARK  status: ('A' for Active; 'I' for Inactive)
REMARK    1  A    between atoms: O1_1  and  C1_2 
REMARK    2  A    between atoms: C4_5  and  C5_6 
REMARK    3  A    between atoms: C5_6  and  N1_7 
REMARK    4  A    between atoms: N1_7  and  P1_9 
REMARK    5  A    between atoms: P1_9  and  C6_10 
REMARK    6  A    between atoms: C6_10  and  C7_11 
REMARK    7  A    between atoms: C12_17  and  O2_18 
ROOT
HETATM    1  P1  UNL     1      -0.369  -0.518  -0.398  1.00  0.00    -0.032 P 
HETATM    2  H6  UNL     1       0.554  -0.442  -1.500  1.00  0.00     0.075 HD
ENDROOT
BRANCH   1   3
HETATM    3  N1  UNL     1       0.412  -0.602   1.195  1.00  0.00    -0.201 NA
HETATM    4 CL1  UNL     1       1.073  -2.160   1.460  1.00  0.00    -0.017 Cl
BRANCH   3   5
HETATM    5  C5  UNL     1       1.318   0.481   1.473  1.00  0.00     0.151 C 
BRANCH   5   6
HETATM    6  C4  UNL     1       2.547   0.369   0.622  1.00  0.00    -0.043 A 
HETATM    7  C3  UNL     1       2.725   0.920  -0.628  1.00  0.00     0.011 A 
HETATM    8  C2  UNL     1       3.927   0.716  -1.273  1.00  0.00     0.037 A 
HETATM    9  C1  UNL     1       4.953  -0.022  -0.705  1.00  0.00     0.065 A 
HETATM   10  C14 UNL     1       4.800  -0.590   0.554  1.00  0.00     0.037 A 
HETATM   11  C13 UNL     1       3.584  -0.373   1.187  1.00  0.00     0.011 A 
BRANCH   9  12
HETATM   12  O1  UNL     1       6.148  -0.208  -1.381  1.00  0.00    -0.361 OA
HETATM   13  H1  UNL     1       6.455  -1.170  -1.541  1.00  0.00     0.217 HD
ENDBRANCH   9  12
ENDBRANCH   5   6
ENDBRANCH   3   5
ENDBRANCH   1   3
BRANCH   1  14
HETATM   14  C6  UNL     1      -1.549   0.934  -0.393  1.00  0.00     0.090 C 
BRANCH  14  15
HETATM   15  C7  UNL     1      -2.912   0.394  -0.181  1.00  0.00    -0.018 A 
HETATM   16  C8  UNL     1      -3.446   0.527   1.088  1.00  0.00     0.034 A 
HETATM   17  C9  UNL     1      -4.718   0.056   1.425  1.00  0.00     0.034 A 
HETATM   18 CL2  UNL     1      -5.382   0.232   3.038  1.00  0.00    -0.084 Cl
HETATM   19  C10 UNL     1      -5.428  -0.565   0.393  1.00  0.00     0.026 A 
HETATM   20  C11 UNL     1      -4.921  -0.715  -0.891  1.00  0.00     0.039 A 
HETATM   21  C12 UNL     1      -3.658  -0.226  -1.153  1.00  0.00     0.072 A 
BRANCH  21  22
HETATM   22  O2  UNL     1      -3.105  -0.352  -2.421  1.00  0.00    -0.360 OA
HETATM   23  H12 UNL     1      -2.810  -1.220  -2.814  1.00  0.00     0.217 HD
ENDBRANCH  21  22
ENDBRANCH  14  15
ENDBRANCH   1  14
TORSDOF 7
