REMARK  9 active torsions:
REMARK  status: ('A' for Active; 'I' for Inactive)
REMARK    1  A    between atoms: C2_2  and  C3_3 
REMARK    2  A    between atoms: C4_4  and  C5_5 
REMARK    3  A    between atoms: C6_6  and  C7_7 
REMARK    4  A    between atoms: C7_7  and  C8_8 
REMARK    5  A    between atoms: C8_8  and  N1_9 
REMARK    6  A    between atoms: N1_9  and  C9_10 
REMARK       I    between atoms: N1_9  and  C16_18 
REMARK    7  A    between atoms: C9_10  and  C10_11 
REMARK    8  A    between atoms: C13_14  and  O1_15 
REMARK       I    between atoms: C16_18  and  N2_20 
REMARK    9  A    between atoms: N2_20  and  C17_21 
ROOT
HETATM    1  N1  UNL     1      -1.239  -0.162  -1.447  1.00  0.00    -0.329 N 
HETATM    2  C16 UNL     1      -2.118   0.915  -1.019  1.00  0.00     0.323 C 
HETATM    3  O2  UNL     1      -1.610   2.037  -1.383  1.00  0.00    -0.247 OA
HETATM    4  N2  UNL     1      -3.347   1.060  -0.332  1.00  0.00    -0.309 N 
HETATM    5  H21 UNL     1      -3.679   0.087  -0.093  1.00  0.00     0.170 HD
ENDROOT
BRANCH   1   6
HETATM    6  C8  UNL     1      -0.162   0.480  -2.135  1.00  0.00     0.132 C 
BRANCH   6   7
HETATM    7  C7  UNL     1       0.929   0.968  -1.290  1.00  0.00     0.047 C 
BRANCH   7   8
HETATM    8  C6  UNL     1       1.589  -0.091  -0.523  1.00  0.00    -0.025 C 
HETATM    9  C5  UNL     1       2.830  -0.526  -0.540  1.00  0.00    -0.004 C 
BRANCH   9  10
HETATM   10  C4  UNL     1       3.833   0.047  -1.422  1.00  0.00    -0.004 C 
HETATM   11  C3  UNL     1       5.078  -0.389  -1.440  1.00  0.00    -0.027 C 
BRANCH  11  12
HETATM   12  C2  UNL     1       5.697  -1.464  -0.644  1.00  0.00     0.022 C 
HETATM   13  C1  UNL     1       6.847  -0.919   0.195  1.00  0.00     0.009 C 
ENDBRANCH  11  12
ENDBRANCH   9  10
ENDBRANCH   7   8
ENDBRANCH   6   7
ENDBRANCH   1   6
BRANCH   1  14
HETATM   14  C9  UNL     1      -1.793  -1.445  -1.094  1.00  0.00     0.166 C 
BRANCH  14  15
HETATM   15  C10 UNL     1      -1.389  -2.065   0.161  1.00  0.00    -0.040 A 
HETATM   16  C11 UNL     1      -0.336  -3.000   0.164  1.00  0.00     0.011 A 
HETATM   17  C12 UNL     1       0.165  -3.673   1.251  1.00  0.00     0.037 A 
HETATM   18  C13 UNL     1      -0.403  -3.426   2.478  1.00  0.00     0.065 A 
HETATM   19  C14 UNL     1      -1.439  -2.525   2.563  1.00  0.00     0.037 A 
HETATM   20  C15 UNL     1      -1.880  -1.896   1.430  1.00  0.00     0.011 A 
BRANCH  18  21
HETATM   21  O1  UNL     1       0.087  -4.089   3.567  1.00  0.00    -0.361 OA
HETATM   22  H18 UNL     1      -0.403  -4.450   4.351  1.00  0.00     0.217 HD
ENDBRANCH  18  21
ENDBRANCH  14  15
ENDBRANCH   1  14
BRANCH   4  23
HETATM   23  C17 UNL     1      -3.793   2.378  -0.161  1.00  0.00     0.036 A 
HETATM   24  C18 UNL     1      -3.392   3.044   0.986  1.00  0.00     0.029 A 
HETATM   25  C19 UNL     1      -3.838   4.342   1.144  1.00  0.00     0.002 A 
HETATM   26  C20 UNL     1      -4.650   4.956   0.203  1.00  0.00     0.000 A 
HETATM   27  C21 UNL     1      -5.019   4.243  -0.919  1.00  0.00     0.002 A 
HETATM   28  C22 UNL     1      -4.602   2.925  -1.141  1.00  0.00     0.029 A 
ENDBRANCH   4  23
TORSDOF 9
