REMARK  7 active torsions:
REMARK  status: ('A' for Active; 'I' for Inactive)
REMARK    1  A    between atoms: C6_6  and  C7_7 
REMARK    2  A    between atoms: C7_7  and  N1_8 
REMARK    3  A    between atoms: N1_8  and  C8_9 
REMARK       I    between atoms: N1_8  and  C14_17 
REMARK    4  A    between atoms: C8_9  and  C9_10 
REMARK    5  A    between atoms: N2_13  and  O1_14 
REMARK       I    between atoms: C14_17  and  N3_19 
REMARK    6  A    between atoms: N3_19  and  C15_20 
REMARK    7  A    between atoms: C21_26  and  O3_27 
ROOT
HETATM    1  N1  UNL     1      -0.553  -0.090   1.669  1.00  0.00    -0.326 N 
HETATM    2  C14 UNL     1      -1.071  -1.347   1.162  1.00  0.00     0.323 C 
HETATM    3  O2  UNL     1      -2.265  -1.349   0.697  1.00  0.00    -0.247 OA
HETATM    4  N3  UNL     1      -0.515  -2.648   1.062  1.00  0.00    -0.309 N 
HETATM    5  H19 UNL     1       0.469  -2.691   1.430  1.00  0.00     0.170 HD
ENDROOT
BRANCH   1   6
HETATM    6  C7  UNL     1      -1.517   0.986   1.551  1.00  0.00     0.169 C 
BRANCH   6   7
HETATM    7  C6  UNL     1      -1.461   1.747   0.303  1.00  0.00    -0.006 A 
HETATM    8  C5  UNL     1      -2.336   1.553  -0.765  1.00  0.00     0.012 A 
HETATM    9  C4  UNL     1      -2.322   2.228  -1.958  1.00  0.00     0.001 A 
HETATM   10  C3  UNL     1      -1.361   3.196  -2.144  1.00  0.00     0.009 A 
HETATM   11  C2  UNL     1      -0.451   3.463  -1.150  1.00  0.00    -0.028 A 
HETATM   12  C1  UNL     1       0.606   4.514  -1.327  1.00  0.00     0.051 C 
HETATM   13  C21 UNL     1      -0.537   2.733   0.026  1.00  0.00     0.079 A 
BRANCH  13  14
HETATM   14  O3  UNL     1       0.407   3.055   0.987  1.00  0.00    -0.360 OA
HETATM   15  H25 UNL     1       0.331   3.782   1.667  1.00  0.00     0.217 HD
ENDBRANCH  13  14
ENDBRANCH   6   7
ENDBRANCH   1   6
BRANCH   1  16
HETATM   16  C8  UNL     1       0.787  -0.214   2.189  1.00  0.00     0.162 C 
BRANCH  16  17
HETATM   17  C9  UNL     1       1.865   0.003   1.189  1.00  0.00    -0.063 C 
HETATM   18  C10 UNL     1       2.787   0.978   1.372  1.00  0.00    -0.006 C 
HETATM   19  C11 UNL     1       3.973   1.426   0.549  1.00  0.00     0.147 C 
HETATM   20  N2  UNL     1       3.931   0.807  -0.765  1.00  0.00    -0.196 NA
HETATM   21  C12 UNL     1       2.596   0.340  -1.087  1.00  0.00     0.125 C 
HETATM   22  C13 UNL     1       2.127  -0.723  -0.083  1.00  0.00     0.052 C 
BRANCH  20  23
HETATM   23  O1  UNL     1       4.779  -0.229  -0.802  1.00  0.00    -0.313 OA
HETATM   24  H14 UNL     1       5.031  -0.464  -1.751  1.00  0.00     0.237 HD
ENDBRANCH  20  23
ENDBRANCH  16  17
ENDBRANCH   1  16
BRANCH   4  25
HETATM   25  C15 UNL     1      -1.544  -3.448   0.469  1.00  0.00     0.036 A 
HETATM   26  C16 UNL     1      -1.489  -3.480  -0.906  1.00  0.00     0.029 A 
HETATM   27  C17 UNL     1      -2.434  -4.222  -1.622  1.00  0.00     0.002 A 
HETATM   28  C18 UNL     1      -3.375  -4.885  -0.862  1.00  0.00     0.000 A 
HETATM   29  C19 UNL     1      -3.430  -4.853   0.515  1.00  0.00     0.002 A 
HETATM   30  C20 UNL     1      -2.476  -4.105   1.206  1.00  0.00     0.029 A 
ENDBRANCH   4  25
TORSDOF 7
