REMARK  11 active torsions:
REMARK  status: ('A' for Active; 'I' for Inactive)
REMARK    1  A    between atoms: C2_2  and  C3_3 
REMARK    2  A    between atoms: C2_2  and  C4_5 
REMARK    3  A    between atoms: C4_5  and  C5_6 
REMARK    4  A    between atoms: C5_6  and  N1_7 
REMARK    5  A    between atoms: N1_7  and  C6_8 
REMARK    6  A    between atoms: N1_7  and  C13_17 
REMARK    7  A    between atoms: C6_8  and  B1_9 
REMARK    8  A    between atoms: B1_9  and  N2_10 
REMARK    9  A    between atoms: N2_10  and  C7_11 
REMARK   10  A    between atoms: C13_17  and  C14_18 
REMARK   11  A    between atoms: C17_21  and  O1_22 
ROOT
HETATM    1  N1  UNL     1      -1.157   0.043   0.185  1.00  0.00    -0.415 N 
ENDROOT
BRANCH   1   2
HETATM    2  C5  UNL     1      -1.204   1.467   0.187  1.00  0.00     0.116 C 
BRANCH   2   3
HETATM    3  C4  UNL     1      -1.729   1.920  -1.130  1.00  0.00     0.024 C 
BRANCH   3   4
HETATM    4  C2  UNL     1      -1.865   3.379  -1.340  1.00  0.00    -0.003 C 
HETATM    5  C1  UNL     1      -2.784   4.091  -0.375  1.00  0.00     0.011 C 
BRANCH   4   6
HETATM    6  C3  UNL     1      -0.571   4.133  -1.492  1.00  0.00     0.119 C 
HETATM    7 CL1  UNL     1       0.317   4.325   0.032  1.00  0.00    -0.130 Cl
ENDBRANCH   4   6
ENDBRANCH   3   4
ENDBRANCH   2   3
ENDBRANCH   1   2
BRANCH   1   8
HETATM    8  C6  UNL     1      -0.689  -0.582   1.360  1.00  0.00     0.087 C 
BRANCH   8   9
HETATM    9  B1  UNL     1       0.805  -0.174   1.754  1.00  0.00     0.288 B 
HETATM   10  H13 UNL     1       1.000   0.749   2.463  1.00  0.00     0.001 HD
BRANCH   9  11
HETATM   11  N2  UNL     1       2.006  -0.939   1.248  1.00  0.00    -0.441 N 
HETATM   12  H14 UNL     1       1.930  -1.944   0.978  1.00  0.00     0.138 HD
BRANCH  11  13
HETATM   13  C7  UNL     1       3.286  -0.330   1.117  1.00  0.00     0.013 A 
HETATM   14  C8  UNL     1       4.397  -1.036   0.649  1.00  0.00     0.028 A 
HETATM   15  C9  UNL     1       5.654  -0.483   0.507  1.00  0.00     0.002 A 
HETATM   16  C10 UNL     1       5.834   0.842   0.844  1.00  0.00     0.000 A 
HETATM   17  C11 UNL     1       4.771   1.587   1.311  1.00  0.00     0.002 A 
HETATM   18  C12 UNL     1       3.512   0.992   1.442  1.00  0.00     0.028 A 
ENDBRANCH  11  13
ENDBRANCH   9  11
ENDBRANCH   8   9
ENDBRANCH   1   8
BRANCH   1  19
HETATM   19  C13 UNL     1      -2.002  -0.652  -0.688  1.00  0.00     0.154 C 
BRANCH  19  20
HETATM   20  C14 UNL     1      -1.902  -2.136  -0.621  1.00  0.00    -0.041 A 
HETATM   21  C15 UNL     1      -2.684  -2.889   0.232  1.00  0.00     0.011 A 
HETATM   22  C16 UNL     1      -2.623  -4.272   0.326  1.00  0.00     0.037 A 
HETATM   23  C17 UNL     1      -1.725  -4.931  -0.485  1.00  0.00     0.065 A 
HETATM   24  C18 UNL     1      -0.936  -4.202  -1.342  1.00  0.00     0.037 A 
HETATM   25  C19 UNL     1      -0.997  -2.830  -1.435  1.00  0.00     0.011 A 
BRANCH  23  26
HETATM   26  O1  UNL     1      -1.596  -6.314  -0.457  1.00  0.00    -0.361 OA
HETATM   27  H24 UNL     1      -2.254  -6.912   0.031  1.00  0.00     0.217 HD
ENDBRANCH  23  26
ENDBRANCH  19  20
ENDBRANCH   1  19
TORSDOF 11
