REMARK  6 active torsions:
REMARK  status: ('A' for Active; 'I' for Inactive)
REMARK    1  A    between atoms: C2_2  and  C3_3 
REMARK    2  A    between atoms: C6_6  and  N1_7 
REMARK       I    between atoms: N1_7  and  C7_8 
REMARK    3  A    between atoms: N1_7  and  C14_17 
REMARK       I    between atoms: C7_8  and  N2_10 
REMARK    4  A    between atoms: N2_10  and  C8_11 
REMARK    5  A    between atoms: C17_20  and  O2_21 
REMARK    6  A    between atoms: C19_23  and  O3_24 
ROOT
HETATM    1  N1  UNL     1      -0.197   0.068  -0.088  1.00  0.00    -0.265 N 
HETATM    2  C7  UNL     1       1.212   0.090   0.006  1.00  0.00     0.332 C 
HETATM    3  O1  UNL     1       1.601   1.280   0.040  1.00  0.00    -0.246 OA
HETATM    4  N2  UNL     1       2.149  -0.966   0.062  1.00  0.00    -0.308 N 
HETATM    5  H9  UNL     1       1.666  -1.886   0.022  1.00  0.00     0.170 HD
ENDROOT
BRANCH   1   6
HETATM    6  C6  UNL     1      -1.206  -0.929  -0.156  1.00  0.00     0.025 A 
HETATM    7  C5  UNL     1      -0.949  -2.392  -0.134  1.00  0.00     0.085 A 
HETATM    8  C4  UNL     1      -2.320  -2.967  -0.229  1.00  0.00    -0.014 A 
HETATM    9  C3  UNL     1      -3.145  -1.935  -0.288  1.00  0.00    -0.060 A 
HETATM   10  C20 UNL     1      -2.493  -0.633  -0.246  1.00  0.00     0.032 A 
BRANCH   9  11
HETATM   11  C2  UNL     1      -4.638  -2.046  -0.392  1.00  0.00     0.034 C 
HETATM   12  C1  UNL     1      -5.267  -1.369   0.800  1.00  0.00     0.010 C 
ENDBRANCH   9  11
ENDBRANCH   1   6
BRANCH   1  13
HETATM   13  C14 UNL     1      -0.477   1.461  -0.103  1.00  0.00     0.077 A 
HETATM   14  C15 UNL     1      -0.685   2.088   1.121  1.00  0.00     0.036 A 
HETATM   15  C16 UNL     1      -0.963   3.453   1.147  1.00  0.00     0.039 A 
HETATM   16  C17 UNL     1      -1.030   4.176  -0.025  1.00  0.00     0.068 A 
HETATM   17  C18 UNL     1      -0.826   3.568  -1.237  1.00  0.00     0.075 A 
HETATM   18  C19 UNL     1      -0.549   2.209  -1.276  1.00  0.00     0.095 A 
BRANCH  16  19
HETATM   19  O2  UNL     1      -1.305   5.531   0.001  1.00  0.00    -0.361 OA
HETATM   20  H17 UNL     1      -1.256   6.068   0.850  1.00  0.00     0.217 HD
ENDBRANCH  16  19
BRANCH  18  21
HETATM   21  O3  UNL     1      -0.321   1.462  -2.427  1.00  0.00    -0.358 OA
HETATM   22  H19 UNL     1      -1.076   1.323  -3.109  1.00  0.00     0.217 HD
ENDBRANCH  18  21
ENDBRANCH   1  13
BRANCH   4  23
HETATM   23  C8  UNL     1       3.557  -0.887   0.156  1.00  0.00     0.036 A 
HETATM   24  C9  UNL     1       4.257  -2.072   0.195  1.00  0.00     0.029 A 
HETATM   25  C10 UNL     1       5.632  -2.107   0.287  1.00  0.00     0.002 A 
HETATM   26  C11 UNL     1       6.365  -0.948   0.344  1.00  0.00     0.000 A 
HETATM   27  C12 UNL     1       5.689   0.247   0.307  1.00  0.00     0.002 A 
HETATM   28  C13 UNL     1       4.329   0.243   0.216  1.00  0.00     0.029 A 
ENDBRANCH   4  23
TORSDOF 6
