REMARK  6 active torsions:
REMARK  status: ('A' for Active; 'I' for Inactive)
REMARK    1  A    between atoms: C3_3  and  O1_4 
REMARK    2  A    between atoms: C5_6  and  N1_7 
REMARK    3  A    between atoms: N1_7  and  C6_8 
REMARK       I    between atoms: N1_7  and  C13_16 
REMARK    4  A    between atoms: C6_8  and  C7_9 
REMARK    5  A    between atoms: C10_12  and  O2_13 
REMARK       I    between atoms: C13_16  and  N2_18 
REMARK    6  A    between atoms: N2_18  and  C14_19 
ROOT
HETATM    1  N1  UNL     1      -0.052   0.133  -1.151  1.00  0.00    -0.303 N 
HETATM    2  C13 UNL     1      -0.756  -0.766  -0.304  1.00  0.00     0.325 C 
HETATM    3  O3  UNL     1      -0.072  -1.707   0.168  1.00  0.00    -0.247 OA
HETATM    4  N2  UNL     1      -2.136  -0.647   0.012  1.00  0.00    -0.312 N 
HETATM    5  H15 UNL     1      -2.569   0.168  -0.445  1.00  0.00     0.170 HD
ENDROOT
BRANCH   1   6
HETATM    6  C5  UNL     1       1.373  -0.191  -1.335  1.00  0.00     0.234 C 
HETATM    7  C4  UNL     1       2.001  -0.089   0.037  1.00  0.00     0.118 C 
HETATM    8  C3  UNL     1       2.742  -1.319   0.416  1.00  0.00     0.051 C 
HETATM    9  C2  UNL     1       3.071  -2.315  -0.387  1.00  0.00    -0.031 C 
HETATM   10  C1  UNL     1       3.822  -3.488   0.154  1.00  0.00     0.048 C 
HETATM   11  C19 UNL     1       2.618  -2.106  -1.787  1.00  0.00     0.207 C 
HETATM   12  O4  UNL     1       1.382  -1.482  -1.850  1.00  0.00    -0.362 OA
BRANCH   8  13
HETATM   13  O1  UNL     1       3.111  -1.394   1.763  1.00  0.00    -0.365 OA
HETATM   14  H4  UNL     1       2.396  -1.744   2.405  1.00  0.00     0.217 HD
ENDBRANCH   8  13
ENDBRANCH   1   6
BRANCH   1  15
HETATM   15  C6  UNL     1      -0.560   1.296  -1.830  1.00  0.00     0.168 C 
BRANCH  15  16
HETATM   16  C7  UNL     1      -0.466   2.546  -1.076  1.00  0.00    -0.040 A 
HETATM   17  C8  UNL     1       0.701   3.262  -1.255  1.00  0.00     0.011 A 
HETATM   18  C9  UNL     1       0.973   4.463  -0.630  1.00  0.00     0.037 A 
HETATM   19  C10 UNL     1       0.037   5.003   0.229  1.00  0.00     0.065 A 
HETATM   20  C11 UNL     1      -1.141   4.298   0.421  1.00  0.00     0.037 A 
HETATM   21  C12 UNL     1      -1.391   3.099  -0.215  1.00  0.00     0.011 A 
BRANCH  19  22
HETATM   22  O2  UNL     1       0.197   6.193   0.908  1.00  0.00    -0.361 OA
HETATM   23  H12 UNL     1       0.916   6.883   0.653  1.00  0.00     0.217 HD
ENDBRANCH  19  22
ENDBRANCH  15  16
ENDBRANCH   1  15
BRANCH   4  24
HETATM   24  C14 UNL     1      -2.867  -1.527   0.853  1.00  0.00     0.017 A 
HETATM   25  C15 UNL     1      -2.433  -2.599   1.491  1.00  0.00     0.025 A 
HETATM   26  C16 UNL     1      -3.493  -3.245   2.261  1.00  0.00    -0.002 A 
HETATM   27  C17 UNL     1      -4.573  -2.523   2.059  1.00  0.00    -0.021 A 
HETATM   28  C18 UNL     1      -4.291  -1.378   1.160  1.00  0.00     0.084 A 
ENDBRANCH   4  24
TORSDOF 6
