REMARK  2 active torsions:
REMARK  status: ('A' for Active; 'I' for Inactive)
REMARK    1  A    between atoms: C12_13  and  O1_14 
REMARK       I    between atoms: N1_17  and  C15_18 
REMARK       I    between atoms: C15_18  and  N2_20 
REMARK    2  A    between atoms: N2_20  and  C16_21 
ROOT
HETATM    1  C1  UNL     1      -3.362  -3.464   0.197  1.00  0.00     0.049 C 
HETATM    2  C2  UNL     1      -2.279  -2.718  -0.550  1.00  0.00    -0.053 A 
HETATM    3  C3  UNL     1      -1.519  -3.441  -1.322  1.00  0.00     0.007 A 
HETATM    4  C4  UNL     1      -0.446  -2.865  -2.091  1.00  0.00    -0.001 A 
HETATM    5  C5  UNL     1      -0.319  -1.576  -1.935  1.00  0.00     0.003 A 
HETATM    6  C6  UNL     1      -1.116  -0.663  -1.089  1.00  0.00     0.145 A 
HETATM    7  C7  UNL     1      -2.194  -1.235  -0.347  1.00  0.00    -0.026 A 
HETATM    8  C8  UNL     1      -3.047  -0.537   0.282  1.00  0.00     0.007 C 
HETATM    9  C9  UNL     1      -3.746   0.572   0.898  1.00  0.00    -0.015 C 
HETATM   10  C10 UNL     1      -3.041   1.732   0.756  1.00  0.00     0.063 C 
HETATM   11  C11 UNL     1      -2.800   3.176   0.916  1.00  0.00     0.026 C 
HETATM   12 BR1  UNL     1      -3.778   4.705   1.668  1.00  0.00    -0.052 Br
HETATM   13  C12 UNL     1      -1.580   3.451   0.388  1.00  0.00     0.059 C 
HETATM   14  C13 UNL     1      -0.304   3.091  -0.271  1.00  0.00     0.085 C 
HETATM   15  C14 UNL     1      -0.265   1.664  -0.443  1.00  0.00     0.135 C 
HETATM   16  N1  UNL     1      -0.229   0.353  -0.600  1.00  0.00    -0.321 N 
HETATM   17  C15 UNL     1       1.117   0.121  -0.207  1.00  0.00     0.323 C 
HETATM   18  O2  UNL     1       1.424   1.343   0.033  1.00  0.00    -0.247 OA
HETATM   19  N2  UNL     1       2.046  -0.942  -0.043  1.00  0.00    -0.309 N 
HETATM   20  H16 UNL     1       1.516  -1.784  -0.303  1.00  0.00     0.170 HD
ENDROOT
BRANCH  19  21
HETATM   21  C16 UNL     1       3.354  -0.619   0.399  1.00  0.00     0.036 A 
HETATM   22  C17 UNL     1       4.207  -0.386  -0.659  1.00  0.00     0.029 A 
HETATM   23  C18 UNL     1       5.542  -0.052  -0.405  1.00  0.00     0.002 A 
HETATM   24  C19 UNL     1       6.018   0.047   0.890  1.00  0.00     0.000 A 
HETATM   25  C20 UNL     1       5.144  -0.191   1.927  1.00  0.00     0.002 A 
HETATM   26  C21 UNL     1       3.817  -0.523   1.695  1.00  0.00     0.029 A 
ENDBRANCH  19  21
BRANCH  13  27
HETATM   27  O1  UNL     1      -1.355   4.824   0.529  1.00  0.00    -0.364 OA
HETATM   28  H11 UNL     1      -0.877   5.098   1.391  1.00  0.00     0.217 HD
ENDBRANCH  13  27
TORSDOF 2
