REMARK  5 active torsions:
REMARK  status: ('A' for Active; 'I' for Inactive)
REMARK    1  A    between atoms: C2_2  and  C3_3 
REMARK    2  A    between atoms: C3_3  and  C4_4 
REMARK    3  A    between atoms: C4_4  and  C5_5 
REMARK    4  A    between atoms: C5_5  and  N1_6 
REMARK    5  A    between atoms: C10_12  and  O2_13 
ROOT
HETATM    1  C4  UNL     1      -3.076  -0.137   0.454  1.00  0.00     0.001 C 
HETATM    2  C6  UNL     1      -1.784  -0.151   0.189  1.00  0.00     0.038 C 
HETATM    3  C7  UNL     1      -1.033   0.617   1.214  1.00  0.00     0.232 C 
HETATM    4  O1  UNL     1       0.232   1.011   0.774  1.00  0.00    -0.345 OA
HETATM    5  C8  UNL     1       1.220   0.249   0.166  1.00  0.00     0.079 A 
HETATM    6  C9  UNL     1       2.487   0.728   0.427  1.00  0.00     0.074 A 
HETATM    7  C10 UNL     1       3.632   0.166  -0.049  1.00  0.00     0.076 A 
HETATM    8  C12 UNL     1       3.487  -0.966  -0.848  1.00  0.00    -0.028 A 
HETATM    9  C13 UNL     1       4.659  -1.670  -1.426  1.00  0.00     0.051 C 
HETATM   10  C14 UNL     1       2.236  -1.504  -1.151  1.00  0.00     0.021 A 
HETATM   11  C15 UNL     1       1.109  -0.872  -0.627  1.00  0.00    -0.006 A 
HETATM   12  C16 UNL     1      -0.095  -1.605  -1.073  1.00  0.00     0.161 C 
HETATM   13  N2  UNL     1      -1.303  -0.850  -0.962  1.00  0.00    -0.387 N 
HETATM   14  H20 UNL     1      -1.982  -0.741  -1.773  1.00  0.00     0.159 HD
ENDROOT
BRANCH   1  15
HETATM   15  C3  UNL     1      -3.410   0.612   1.652  1.00  0.00     0.061 C 
BRANCH  15  16
HETATM   16  C2  UNL     1      -4.090   1.741   1.523  1.00  0.00    -0.154 C 
HETATM   17  C1  UNL     1      -4.654   2.884   1.161  1.00  0.00     0.096 C 
ENDBRANCH  15  16
ENDBRANCH   1  15
BRANCH   1  18
HETATM   18  C5  UNL     1      -4.349  -0.654  -0.093  1.00  0.00     0.307 C 
BRANCH  18  19
HETATM   19  N1  UNL     1      -4.185  -1.428  -1.301  1.00  0.00     0.082 N 
HETATM   20  H6  UNL     1      -4.409  -0.871  -2.161  1.00  0.00     0.313 HD
HETATM   21  H7  UNL     1      -4.659  -2.344  -1.279  1.00  0.00     0.313 HD
ENDBRANCH  18  19
ENDBRANCH   1  18
BRANCH   7  22
HETATM   22  O2  UNL     1       4.924   0.577   0.162  1.00  0.00    -0.355 OA
HETATM   23  C11 UNL     1       5.181   1.706   0.951  1.00  0.00     0.210 C 
ENDBRANCH   7  22
TORSDOF 5
