REMARK  6 active torsions:
REMARK  status: ('A' for Active; 'I' for Inactive)
REMARK    1  A    between atoms: C2_2  and  N1_3 
REMARK    2  A    between atoms: N1_3  and  C3_4 
REMARK       I    between atoms: N1_3  and  C10_13 
REMARK    3  A    between atoms: C3_4  and  C4_5 
REMARK    4  A    between atoms: C9_11  and  O1_12 
REMARK       I    between atoms: C10_13  and  N2_15 
REMARK    5  A    between atoms: N2_15  and  C11_16 
REMARK    6  A    between atoms: C12_17  and  C13_18 
ROOT
HETATM    1  N1  UNL     1       0.044  -0.999  -0.116  1.00  0.00    -0.330 N 
HETATM    2  C10 UNL     1       1.096  -0.041  -0.242  1.00  0.00     0.330 C 
HETATM    3  O2  UNL     1       1.962  -0.354   0.627  1.00  0.00    -0.246 OA
HETATM    4  N2  UNL     1       1.305   1.063  -1.073  1.00  0.00    -0.267 N 
HETATM    5  H12 UNL     1       0.526   1.198  -1.735  1.00  0.00     0.181 HD
ENDROOT
BRANCH   1   6
HETATM    6  C2  UNL     1       0.335  -1.981   0.916  1.00  0.00     0.123 C 
HETATM    7  C1  UNL     1       1.081  -3.172   0.352  1.00  0.00     0.026 C 
ENDBRANCH   1   6
BRANCH   1   8
HETATM    8  C3  UNL     1      -1.244  -1.229  -0.742  1.00  0.00     0.169 C 
BRANCH   8   9
HETATM    9  C4  UNL     1      -2.373  -0.571  -0.057  1.00  0.00    -0.006 A 
HETATM   10  C5  UNL     1      -3.145  -1.444   0.717  1.00  0.00     0.012 A 
HETATM   11  C6  UNL     1      -4.246  -0.959   1.427  1.00  0.00     0.002 A 
HETATM   12  C7  UNL     1      -4.589   0.375   1.379  1.00  0.00     0.022 A 
HETATM   13  C8  UNL     1      -3.835   1.274   0.613  1.00  0.00     0.044 A 
HETATM   14 BR1  UNL     1      -4.214   3.139   0.471  1.00  0.00    -0.048 Br
HETATM   15  C9  UNL     1      -2.763   0.742  -0.065  1.00  0.00     0.090 A 
BRANCH  15  16
HETATM   16  O1  UNL     1      -2.002   1.584  -0.824  1.00  0.00    -0.359 OA
HETATM   17  H11 UNL     1      -1.378   2.277  -0.429  1.00  0.00     0.217 HD
ENDBRANCH  15  16
ENDBRANCH   8   9
ENDBRANCH   1   8
BRANCH   4  18
HETATM   18  C11 UNL     1       2.472   1.820  -0.939  1.00  0.00     0.015 C 
HETATM   19  C12 UNL     1       3.476   2.478  -0.841  1.00  0.00    -0.074 C 
BRANCH  19  20
HETATM   20  C13 UNL     1       4.688   3.265  -0.743  1.00  0.00     0.121 C 
HETATM   21  C14 UNL     1       5.816   2.573  -0.799  1.00  0.00     0.432 C 
HETATM   22  F1  UNL     1       7.104   3.026  -0.734  1.00  0.00    -0.454 F 
ENDBRANCH  19  20
ENDBRANCH   4  18
TORSDOF 6
