REMARK  6 active torsions:
REMARK  status: ('A' for Active; 'I' for Inactive)
REMARK       I    between atoms: C1_2  and  N1_3 
REMARK       I    between atoms: C1_2  and  N2_10 
REMARK    1  A    between atoms: N1_3  and  C2_4 
REMARK    2  A    between atoms: N2_10  and  C8_11 
REMARK    3  A    between atoms: N2_10  and  C15_19 
REMARK    4  A    between atoms: C8_11  and  C9_12 
REMARK    5  A    between atoms: C12_15  and  O2_16 
REMARK    6  A    between atoms: C15_19  and  C16_20 
ROOT
HETATM    1  O1  UNL     1      -0.285  -1.997   1.199  1.00  0.00    -0.247 OA
HETATM    2  C1  UNL     1      -0.519  -0.752   1.394  1.00  0.00     0.323 C 
HETATM    3  N1  UNL     1      -1.913  -0.575   1.456  1.00  0.00    -0.309 N 
HETATM    4  N2  UNL     1       0.539   0.226   1.518  1.00  0.00    -0.326 N 
HETATM    5  H1  UNL     1      -2.262   0.377   1.618  1.00  0.00     0.170 HD
ENDROOT
BRANCH   4   6
HETATM    6  C8  UNL     1       1.871  -0.332   1.414  1.00  0.00     0.166 C 
BRANCH   6   7
HETATM    7  C9  UNL     1       2.423  -0.354   0.042  1.00  0.00    -0.040 A 
HETATM    8  C10 UNL     1       2.254  -1.362  -0.880  1.00  0.00     0.011 A 
HETATM    9  C11 UNL     1       2.773  -1.388  -2.149  1.00  0.00     0.037 A 
HETATM   10  C12 UNL     1       3.538  -0.324  -2.575  1.00  0.00     0.065 A 
HETATM   11  C13 UNL     1       3.761   0.729  -1.723  1.00  0.00     0.037 A 
HETATM   12  C14 UNL     1       3.210   0.683  -0.470  1.00  0.00     0.011 A 
BRANCH  10  13
HETATM   13  O2  UNL     1       4.078  -0.317  -3.852  1.00  0.00    -0.361 OA
HETATM   14  H11 UNL     1       4.893  -0.918  -3.992  1.00  0.00     0.217 HD
ENDBRANCH  10  13
ENDBRANCH   6   7
ENDBRANCH   4   6
BRANCH   4  15
HETATM   15  C15 UNL     1       0.106   1.591   1.727  1.00  0.00     0.166 C 
BRANCH  15  16
HETATM   16  C16 UNL     1      -0.035   2.407   0.527  1.00  0.00    -0.039 A 
HETATM   17  C17 UNL     1       1.037   3.221   0.137  1.00  0.00     0.009 A 
HETATM   18  C18 UNL     1       1.072   4.043  -0.970  1.00  0.00     0.002 A 
HETATM   19  C19 UNL     1      -0.046   4.077  -1.775  1.00  0.00     0.019 A 
HETATM   20  C20 UNL     1      -1.140   3.312  -1.466  1.00  0.00     0.011 A 
HETATM   21 BR1  UNL     1      -2.705   3.332  -2.555  1.00  0.00    -0.051 Br
HETATM   22  C21 UNL     1      -1.097   2.516  -0.344  1.00  0.00     0.027 A 
ENDBRANCH  15  16
ENDBRANCH   4  15
BRANCH   3  23
HETATM   23  C2  UNL     1      -2.713  -1.751   1.293  1.00  0.00     0.036 A 
HETATM   24  C3  UNL     1      -3.139  -2.153   0.044  1.00  0.00     0.029 A 
HETATM   25  C4  UNL     1      -3.910  -3.275  -0.162  1.00  0.00     0.002 A 
HETATM   26  C5  UNL     1      -4.271  -4.034   0.954  1.00  0.00     0.000 A 
HETATM   27  C6  UNL     1      -3.851  -3.642   2.205  1.00  0.00     0.002 A 
HETATM   28  C7  UNL     1      -3.083  -2.517   2.380  1.00  0.00     0.029 A 
ENDBRANCH   3  23
TORSDOF 6
