REMARK  6 active torsions:
REMARK  status: ('A' for Active; 'I' for Inactive)
REMARK    1  A    between atoms: C2_3  and  C3_4 
REMARK    2  A    between atoms: C3_4  and  N2_5 
REMARK    3  A    between atoms: N2_5  and  C4_6 
REMARK       I    between atoms: N2_5  and  C11_14 
REMARK    4  A    between atoms: C4_6  and  C5_7 
REMARK    5  A    between atoms: C8_10  and  O1_11 
REMARK       I    between atoms: C11_14  and  N3_16 
REMARK    6  A    between atoms: N3_16  and  C12_17 
ROOT
HETATM    1  N1  UNL     1      -0.882   4.134   2.683  1.00  0.00    -0.197 NA
HETATM    2  C1  UNL     1      -0.526   3.902   1.607  1.00  0.00     0.060 C 
HETATM    3  C2  UNL     1      -0.070   3.634   0.258  1.00  0.00     0.144 C 
ENDROOT
BRANCH   3   4
HETATM    4  C3  UNL     1      -0.632   2.349  -0.272  1.00  0.00     0.142 C 
BRANCH   4   5
HETATM    5  N2  UNL     1      -0.299   1.178   0.468  1.00  0.00    -0.329 N 
HETATM    6  C11 UNL     1       0.893   0.513   0.076  1.00  0.00     0.323 C 
HETATM    7  O2  UNL     1       1.303   1.229  -0.887  1.00  0.00    -0.247 OA
HETATM    8  N3  UNL     1       1.584  -0.644   0.525  1.00  0.00    -0.309 N 
HETATM    9  H12 UNL     1       1.051  -1.053   1.324  1.00  0.00     0.170 HD
BRANCH   5  10
HETATM   10  C4  UNL     1      -1.140   0.686   1.561  1.00  0.00     0.166 C 
BRANCH  10  11
HETATM   11  C5  UNL     1      -2.143  -0.222   0.954  1.00  0.00    -0.040 A 
HETATM   12  C6  UNL     1      -3.336   0.364   0.546  1.00  0.00     0.011 A 
HETATM   13  C7  UNL     1      -4.352  -0.367  -0.034  1.00  0.00     0.037 A 
HETATM   14  C8  UNL     1      -4.219  -1.738  -0.234  1.00  0.00     0.065 A 
HETATM   15  C9  UNL     1      -3.039  -2.328   0.168  1.00  0.00     0.037 A 
HETATM   16  C10 UNL     1      -2.038  -1.579   0.744  1.00  0.00     0.011 A 
BRANCH  14  17
HETATM   17  O1  UNL     1      -5.208  -2.521  -0.811  1.00  0.00    -0.361 OA
HETATM   18  H9  UNL     1      -5.318  -3.494  -0.507  1.00  0.00     0.217 HD
ENDBRANCH  14  17
ENDBRANCH  10  11
ENDBRANCH   5  10
BRANCH   8  19
HETATM   19  C12 UNL     1       2.776  -0.949  -0.185  1.00  0.00     0.036 A 
HETATM   20  C13 UNL     1       3.985  -0.430   0.230  1.00  0.00     0.029 A 
HETATM   21  C14 UNL     1       5.086  -0.787  -0.530  1.00  0.00     0.002 A 
HETATM   22  C15 UNL     1       5.028  -1.611  -1.645  1.00  0.00     0.000 A 
HETATM   23  C16 UNL     1       3.786  -2.117  -2.032  1.00  0.00     0.002 A 
HETATM   24  C17 UNL     1       2.659  -1.775  -1.287  1.00  0.00     0.029 A 
ENDBRANCH   8  19
ENDBRANCH   4   5
ENDBRANCH   3   4
TORSDOF 6
