REMARK  6 active torsions:
REMARK  status: ('A' for Active; 'I' for Inactive)
REMARK    1  A    between atoms: B1_2  and  C1_3 
REMARK    2  A    between atoms: C4_6  and  N1_7 
REMARK    3  A    between atoms: N1_7  and  C5_8 
REMARK       I    between atoms: N1_7  and  C12_17 
REMARK    4  A    between atoms: C5_8  and  C6_9 
REMARK    5  A    between atoms: C11_15  and  O2_16 
REMARK       I    between atoms: C12_17  and  N2_19 
REMARK    6  A    between atoms: N2_19  and  C13_20 
ROOT
HETATM    1  N1  UNL     1      -0.176  -0.493  -0.979  1.00  0.00    -0.295 N 
HETATM    2  C12 UNL     1       1.002  -0.984  -0.291  1.00  0.00     0.327 C 
HETATM    3  O3  UNL     1       1.770  -1.890   0.194  1.00  0.00    -0.246 OA
HETATM    4  N2  UNL     1       1.780   0.183   0.070  1.00  0.00    -0.309 N 
HETATM    5  H9  UNL     1       1.729   1.225  -0.023  1.00  0.00     0.170 HD
ENDROOT
BRANCH   1   6
HETATM    6  C4  UNL     1      -0.564   0.863  -1.289  1.00  0.00     0.039 A 
HETATM    7  C3  UNL     1      -1.329   1.395  -0.245  1.00  0.00     0.029 A 
HETATM    8  C2  UNL     1      -1.788   2.705  -0.383  1.00  0.00    -0.001 A 
HETATM    9  C1  UNL     1      -1.464   3.391  -1.530  1.00  0.00    -0.068 A 
HETATM   10  C20 UNL     1      -0.710   2.866  -2.560  1.00  0.00    -0.001 A 
HETATM   11  C19 UNL     1      -0.254   1.573  -2.430  1.00  0.00     0.029 A 
BRANCH   9  12
HETATM   12  B1  UNL     1      -2.063   5.050  -1.676  1.00  0.00     0.410 B 
HETATM   13  O1  UNL     1      -1.812   6.833  -1.386  1.00  0.00    -0.335 OA
ENDBRANCH   9  12
ENDBRANCH   1   6
BRANCH   1  14
HETATM   14  C5  UNL     1      -1.130  -1.482  -1.426  1.00  0.00     0.175 C 
BRANCH  14  15
HETATM   15  C6  UNL     1      -2.190  -1.805  -0.463  1.00  0.00    -0.005 A 
HETATM   16  C7  UNL     1      -3.456  -1.242  -0.684  1.00  0.00     0.012 A 
HETATM   17  C8  UNL     1      -4.561  -1.453   0.148  1.00  0.00     0.002 A 
HETATM   18  C9  UNL     1      -4.377  -2.269   1.254  1.00  0.00     0.022 A 
HETATM   19  C10 UNL     1      -3.159  -2.856   1.533  1.00  0.00     0.044 A 
HETATM   20 BR1  UNL     1      -2.876  -3.985   3.045  1.00  0.00    -0.048 Br
HETATM   21  C11 UNL     1      -2.128  -2.594   0.659  1.00  0.00     0.090 A 
BRANCH  21  22
HETATM   22  O2  UNL     1      -0.916  -3.172   0.927  1.00  0.00    -0.359 OA
HETATM   23  H8  UNL     1      -0.390  -2.912   1.749  1.00  0.00     0.217 HD
ENDBRANCH  21  22
ENDBRANCH  14  15
ENDBRANCH   1  14
BRANCH   4  24
HETATM   24  C13 UNL     1       3.031   0.108   0.772  1.00  0.00     0.036 A 
HETATM   25  C14 UNL     1       4.136   0.015  -0.069  1.00  0.00     0.029 A 
HETATM   26  C15 UNL     1       5.431  -0.067   0.434  1.00  0.00     0.002 A 
HETATM   27  C16 UNL     1       5.582  -0.055   1.786  1.00  0.00     0.000 A 
HETATM   28  C17 UNL     1       4.500   0.036   2.636  1.00  0.00     0.002 A 
HETATM   29  C18 UNL     1       3.210   0.119   2.156  1.00  0.00     0.029 A 
ENDBRANCH   4  24
TORSDOF 6
