REMARK  3 active torsions:
REMARK  status: ('A' for Active; 'I' for Inactive)
REMARK    1  A    between atoms: N2_18  and  C15_19 
REMARK    2  A    between atoms: C15_19  and  C16_20 
REMARK    3  A    between atoms: C21_26  and  O3_27 
ROOT
HETATM    1  O1  UNL     1      -0.319  -0.737  -1.179  1.00  0.00    -0.122 OA
HETATM    2  C1  UNL     1       0.345   0.029  -1.821  1.00  0.00     0.451 A 
HETATM    3  N1  UNL     1      -0.887   0.770  -2.066  1.00  0.00    -0.324 N 
HETATM    4  C2  UNL     1      -2.332   0.803  -1.779  1.00  0.00     0.039 A 
HETATM    5  C3  UNL     1      -3.050   1.216  -2.846  1.00  0.00     0.030 A 
HETATM    6  C4  UNL     1      -4.409   1.266  -2.715  1.00  0.00     0.002 A 
HETATM    7  C5  UNL     1      -4.963   0.900  -1.520  1.00  0.00     0.001 A 
HETATM    8  C6  UNL     1      -4.162   0.500  -0.506  1.00  0.00     0.010 A 
HETATM    9  C7  UNL     1      -2.759   0.397  -0.492  1.00  0.00    -0.022 A 
HETATM   10  C8  UNL     1      -2.143  -0.058   0.743  1.00  0.00     0.068 C 
HETATM   11  C9  UNL     1      -1.611  -1.449   0.792  1.00  0.00    -0.006 C 
HETATM   12  C10 UNL     1      -0.251  -1.729   0.920  1.00  0.00    -0.031 C 
HETATM   13  C11 UNL     1       0.523  -1.422   2.107  1.00  0.00     0.032 C 
HETATM   14  C12 UNL     1       0.259  -0.342   2.873  1.00  0.00     0.135 C 
HETATM   15  O2  UNL     1      -0.781   0.599   2.669  1.00  0.00    -0.362 OA
HETATM   16  C13 UNL     1      -1.208   0.970   1.345  1.00  0.00     0.187 C 
HETATM   17  C14 UNL     1       0.267  -2.345  -0.380  1.00  0.00     0.319 C 
HETATM   18  N2  UNL     1       0.870  -1.159  -1.117  1.00  0.00     0.121 N 
HETATM   19  H1  UNL     1      -0.381   1.465  -2.654  1.00  0.00     0.165 HD
ENDROOT
BRANCH  18  20
HETATM   20  C15 UNL     1       2.336  -1.078  -1.242  1.00  0.00     0.322 C 
BRANCH  20  21
HETATM   21  C16 UNL     1       2.973  -0.334  -0.137  1.00  0.00     0.004 A 
HETATM   22  C17 UNL     1       3.631  -1.083   0.844  1.00  0.00     0.013 A 
HETATM   23  C18 UNL     1       4.243  -0.391   1.895  1.00  0.00     0.024 A 
HETATM   24  C19 UNL     1       4.166   0.972   1.909  1.00  0.00     0.036 A 
HETATM   25 CL1  UNL     1       4.970   1.733   3.274  1.00  0.00    -0.084 Cl
HETATM   26  C20 UNL     1       3.527   1.742   0.962  1.00  0.00     0.060 A 
HETATM   27  C21 UNL     1       2.923   1.041  -0.078  1.00  0.00     0.075 A 
BRANCH  27  28
HETATM   28  O3  UNL     1       2.279   1.809  -1.035  1.00  0.00    -0.360 OA
HETATM   29  H19 UNL     1       1.534   2.409  -0.664  1.00  0.00     0.217 HD
ENDBRANCH  27  28
ENDBRANCH  20  21
ENDBRANCH  18  20
TORSDOF 3
