REMARK  7 active torsions:
REMARK  status: ('A' for Active; 'I' for Inactive)
REMARK       I    between atoms: C1_2  and  N1_3 
REMARK       I    between atoms: C1_2  and  N2_10 
REMARK    1  A    between atoms: N1_3  and  C2_4 
REMARK    2  A    between atoms: N2_10  and  C8_11 
REMARK    3  A    between atoms: N2_10  and  C15_19 
REMARK    4  A    between atoms: C8_11  and  C9_12 
REMARK    5  A    between atoms: C12_15  and  O2_16 
REMARK    6  A    between atoms: C15_19  and  C16_20 
REMARK    7  A    between atoms: C20_25  and  O3_26 
ROOT
HETATM    1  O1  UNL     1       0.939  -1.540   1.219  1.00  0.00    -0.247 OA
HETATM    2  C1  UNL     1       0.512  -0.754   0.306  1.00  0.00     0.323 C 
HETATM    3  N1  UNL     1       1.599  -0.428  -0.553  1.00  0.00    -0.309 N 
HETATM    4  N2  UNL     1      -0.826  -0.254   0.130  1.00  0.00    -0.329 N 
HETATM    5  H1  UNL     1       1.461   0.200  -1.366  1.00  0.00     0.170 HD
ENDROOT
BRANCH   4   6
HETATM    6  C8  UNL     1      -1.150   0.646  -0.942  1.00  0.00     0.166 C 
BRANCH   6   7
HETATM    7  C9  UNL     1      -1.040   2.085  -0.571  1.00  0.00    -0.040 A 
HETATM    8  C10 UNL     1      -2.197   2.675  -0.040  1.00  0.00     0.011 A 
HETATM    9  C11 UNL     1      -2.307   3.989   0.363  1.00  0.00     0.037 A 
HETATM   10  C12 UNL     1      -1.211   4.794   0.241  1.00  0.00     0.065 A 
HETATM   11  C13 UNL     1      -0.053   4.240  -0.280  1.00  0.00     0.037 A 
HETATM   12  C14 UNL     1       0.024   2.923  -0.674  1.00  0.00     0.011 A 
BRANCH  10  13
HETATM   13  O2  UNL     1      -1.298   6.116   0.639  1.00  0.00    -0.361 OA
HETATM   14  H11 UNL     1      -0.592   6.786   0.364  1.00  0.00     0.217 HD
ENDBRANCH  10  13
ENDBRANCH   6   7
ENDBRANCH   4   6
BRANCH   4  15
HETATM   15  C15 UNL     1      -1.721  -0.755   1.127  1.00  0.00     0.143 C 
BRANCH  15  16
HETATM   16  C16 UNL     1      -2.421  -2.032   0.797  1.00  0.00     0.085 A 
HETATM   17  C17 UNL     1      -1.542  -3.172   0.539  1.00  0.00    -0.012 A 
HETATM   18  C18 UNL     1      -1.824  -3.719  -0.658  1.00  0.00     0.023 A 
HETATM   19  C19 UNL     1      -2.931  -2.958  -1.277  1.00  0.00     0.063 A 
HETATM   20 CL1  UNL     1      -3.679  -3.268  -2.851  1.00  0.00    -0.082 Cl
HETATM   21  C20 UNL     1      -3.269  -1.980  -0.419  1.00  0.00     0.074 A 
BRANCH  21  22
HETATM   22  O3  UNL     1      -4.296  -1.084  -0.719  1.00  0.00    -0.362 OA
HETATM   23  H19 UNL     1      -4.388  -0.163  -0.356  1.00  0.00     0.217 HD
ENDBRANCH  21  22
ENDBRANCH  15  16
ENDBRANCH   4  15
BRANCH   3  24
HETATM   24  C2  UNL     1       2.901  -0.953  -0.326  1.00  0.00     0.036 A 
HETATM   25  C3  UNL     1       3.688  -0.159   0.492  1.00  0.00     0.029 A 
HETATM   26  C4  UNL     1       4.977  -0.586   0.773  1.00  0.00     0.002 A 
HETATM   27  C5  UNL     1       5.493  -1.759   0.271  1.00  0.00     0.000 A 
HETATM   28  C6  UNL     1       4.689  -2.549  -0.552  1.00  0.00     0.002 A 
HETATM   29  C7  UNL     1       3.392  -2.135  -0.845  1.00  0.00     0.029 A 
ENDBRANCH   3  24
TORSDOF 7
