REMARK  9 active torsions:
REMARK  status: ('A' for Active; 'I' for Inactive)
REMARK    1  A    between atoms: C2_2  and  N1_3 
REMARK    2  A    between atoms: C2_2  and  N2_9 
REMARK    3  A    between atoms: N1_3  and  C3_4 
REMARK    4  A    between atoms: N2_9  and  C8_10 
REMARK    5  A    between atoms: N2_9  and  C15_18 
REMARK    6  A    between atoms: C8_10  and  C9_11 
REMARK    7  A    between atoms: C12_14  and  O1_15 
REMARK    8  A    between atoms: C16_19  and  O2_20 
REMARK    9  A    between atoms: C20_25  and  O3_26 
ROOT
HETATM    1  N2  UNL     1       0.218   0.234   1.019  1.00  0.00    -0.328 N 
ENDROOT
BRANCH   1   2
HETATM    2  C2  UNL     1       1.463   0.849   1.395  1.00  0.00     0.081 C 
HETATM    3  C1  UNL     1       1.578   1.134   2.688  1.00  0.00     0.084 C 
BRANCH   2   4
HETATM    4  N1  UNL     1       2.473   1.117   0.425  1.00  0.00    -0.368 N 
HETATM    5  H3  UNL     1       2.114   1.998   0.002  1.00  0.00     0.161 HD
BRANCH   4   6
HETATM    6  C3  UNL     1       3.556   0.157   0.365  1.00  0.00     0.129 A 
HETATM    7  C4  UNL     1       3.138  -1.210   0.049  1.00  0.00     0.002 A 
HETATM    8  C5  UNL     1       3.718  -1.663  -1.076  1.00  0.00    -0.002 A 
HETATM    9  C6  UNL     1       4.579  -0.575  -1.574  1.00  0.00    -0.002 A 
HETATM   10  C7  UNL     1       4.491   0.466  -0.757  1.00  0.00     0.002 A 
ENDBRANCH   4   6
ENDBRANCH   2   4
ENDBRANCH   1   2
BRANCH   1  11
HETATM   11  C8  UNL     1      -0.358  -0.973   1.584  1.00  0.00     0.169 C 
BRANCH  11  12
HETATM   12  C9  UNL     1      -1.660  -1.307   0.943  1.00  0.00    -0.040 A 
HETATM   13  C10 UNL     1      -2.924  -0.883   1.345  1.00  0.00     0.011 A 
HETATM   14  C11 UNL     1      -4.034  -1.288   0.634  1.00  0.00     0.037 A 
HETATM   15  C12 UNL     1      -3.916  -2.117  -0.487  1.00  0.00     0.065 A 
HETATM   16  C13 UNL     1      -2.678  -2.554  -0.911  1.00  0.00     0.037 A 
HETATM   17  C14 UNL     1      -1.576  -2.128  -0.172  1.00  0.00     0.011 A 
BRANCH  15  18
HETATM   18  O1  UNL     1      -5.035  -2.509  -1.182  1.00  0.00    -0.361 OA
HETATM   19  H13 UNL     1      -5.159  -3.500  -1.363  1.00  0.00     0.217 HD
ENDBRANCH  15  18
ENDBRANCH  11  12
ENDBRANCH   1  11
BRANCH   1  20
HETATM   20  C15 UNL     1      -0.363   1.029  -0.023  1.00  0.00     0.104 A 
HETATM   21  C16 UNL     1      -0.185   0.899  -1.399  1.00  0.00     0.095 A 
HETATM   22  C17 UNL     1      -0.844   1.776  -2.225  1.00  0.00     0.040 A 
HETATM   23  C18 UNL     1      -1.661   2.760  -1.750  1.00  0.00     0.025 A 
HETATM   24  C19 UNL     1      -1.859   2.915  -0.392  1.00  0.00     0.046 A 
HETATM   25 BR1  UNL     1      -3.002   4.295   0.252  1.00  0.00    -0.048 Br
HETATM   26  C20 UNL     1      -1.191   2.026   0.456  1.00  0.00     0.112 A 
BRANCH  21  27
HETATM   27  O2  UNL     1       0.663  -0.131  -1.766  1.00  0.00    -0.358 OA
HETATM   28  H16 UNL     1       0.264  -0.961  -2.160  1.00  0.00     0.217 HD
ENDBRANCH  21  27
BRANCH  26  29
HETATM   29  O3  UNL     1      -1.442   2.248   1.804  1.00  0.00    -0.357 OA
HETATM   30  H19 UNL     1      -0.857   2.909   2.277  1.00  0.00     0.217 HD
ENDBRANCH  26  29
ENDBRANCH   1  20
TORSDOF 9
