REMARK  9 active torsions:
REMARK  status: ('A' for Active; 'I' for Inactive)
REMARK    1  A    between atoms: O1_1  and  C1_2 
REMARK    2  A    between atoms: C4_5  and  C5_6 
REMARK    3  A    between atoms: C5_6  and  N1_7 
REMARK    4  A    between atoms: N1_7  and  C6_8 
REMARK    5  A    between atoms: N1_7  and  O3_17 
REMARK    6  A    between atoms: C6_8  and  C7_9 
REMARK    7  A    between atoms: C12_15  and  O2_16 
REMARK    8  A    between atoms: O3_17  and  N2_18 
REMARK    9  A    between atoms: N2_18  and  C13_19 
ROOT
HETATM    1  N1  UNL     1       0.009   0.065  -0.118  1.00  0.00    -0.261 N 
ENDROOT
BRANCH   1   2
HETATM    2  C5  UNL     1      -0.791  -0.638   0.748  1.00  0.00     0.190 C 
BRANCH   2   3
HETATM    3  C4  UNL     1      -1.782  -1.610   0.270  1.00  0.00    -0.038 A 
HETATM    4  C3  UNL     1      -3.143  -1.643   0.111  1.00  0.00     0.011 A 
HETATM    5  C2  UNL     1      -3.842  -2.686  -0.410  1.00  0.00     0.037 A 
HETATM    6  C1  UNL     1      -3.204  -3.824  -0.828  1.00  0.00     0.065 A 
HETATM    7  C20 UNL     1      -1.855  -3.857  -0.697  1.00  0.00     0.037 A 
HETATM    8  C19 UNL     1      -1.143  -2.791  -0.165  1.00  0.00     0.011 A 
BRANCH   6   9
HETATM    9  O1  UNL     1      -4.078  -4.774  -1.329  1.00  0.00    -0.361 OA
HETATM   10  H1  UNL     1      -3.790  -5.475  -1.990  1.00  0.00     0.217 HD
ENDBRANCH   6   9
ENDBRANCH   2   3
ENDBRANCH   1   2
BRANCH   1  11
HETATM   11  C6  UNL     1      -0.366   1.060  -1.010  1.00  0.00     0.193 C 
BRANCH  11  12
HETATM   12  C7  UNL     1      -1.051   2.239  -0.529  1.00  0.00    -0.003 A 
HETATM   13  C8  UNL     1      -0.272   3.321  -0.107  1.00  0.00     0.012 A 
HETATM   14  C9  UNL     1      -0.783   4.480   0.426  1.00  0.00     0.002 A 
HETATM   15  C10 UNL     1      -2.129   4.672   0.591  1.00  0.00     0.026 A 
HETATM   16  C11 UNL     1      -2.952   3.638   0.192  1.00  0.00     0.067 A 
HETATM   17 CL1  UNL     1      -4.715   3.740   0.342  1.00  0.00    -0.081 Cl
HETATM   18  C12 UNL     1      -2.415   2.498  -0.336  1.00  0.00     0.095 A 
BRANCH  18  19
HETATM   19  O2  UNL     1      -3.249   1.481  -0.736  1.00  0.00    -0.358 OA
HETATM   20  H11 UNL     1      -3.063   0.891  -1.557  1.00  0.00     0.217 HD
ENDBRANCH  18  19
ENDBRANCH  11  12
ENDBRANCH   1  11
BRANCH   1  21
HETATM   21  O3  UNL     1       1.161  -0.561  -0.493  1.00  0.00    -0.159 OA
BRANCH  21  22
HETATM   22  N2  UNL     1       1.903  -1.065   0.489  1.00  0.00    -0.242 N 
HETATM   23  H12 UNL     1       1.735  -1.743   1.296  1.00  0.00     0.197 HD
BRANCH  22  24
HETATM   24  C13 UNL     1       3.280  -0.663   0.553  1.00  0.00     0.056 A 
HETATM   25  C14 UNL     1       4.230  -1.064   1.493  1.00  0.00     0.031 A 
HETATM   26  C15 UNL     1       5.533  -0.639   1.490  1.00  0.00     0.002 A 
HETATM   27  C16 UNL     1       5.977   0.235   0.524  1.00  0.00     0.000 A 
HETATM   28  C17 UNL     1       5.112   0.684  -0.443  1.00  0.00     0.002 A 
HETATM   29  C18 UNL     1       3.824   0.222  -0.385  1.00  0.00     0.031 A 
ENDBRANCH  22  24
ENDBRANCH  21  22
ENDBRANCH   1  21
TORSDOF 9
