REMARK  7 active torsions:
REMARK  status: ('A' for Active; 'I' for Inactive)
REMARK    1  A    between atoms: C1_2  and  C2_3 
REMARK       I    between atoms: C1_2  and  N2_10 
REMARK    2  A    between atoms: N2_10  and  C8_11 
REMARK    3  A    between atoms: N2_10  and  C15_19 
REMARK    4  A    between atoms: C8_11  and  C9_12 
REMARK    5  A    between atoms: C12_15  and  O2_16 
REMARK    6  A    between atoms: C15_19  and  C16_20 
REMARK    7  A    between atoms: C21_26  and  O3_27 
ROOT
HETATM    1  O1  UNL     1       0.329  -1.183   1.788  1.00  0.00    -0.268 OA
HETATM    2  C1  UNL     1       0.756  -0.488   0.800  1.00  0.00     0.252 C 
HETATM    3  N2  UNL     1      -0.418  -0.150   0.140  1.00  0.00    -0.340 N 
ENDROOT
BRANCH   3   4
HETATM    4  C8  UNL     1      -0.406   0.721  -1.033  1.00  0.00     0.165 C 
BRANCH   4   5
HETATM    5  C9  UNL     1      -0.579   2.147  -0.713  1.00  0.00    -0.040 A 
HETATM    6  C10 UNL     1      -1.825   2.739  -0.696  1.00  0.00     0.011 A 
HETATM    7  C11 UNL     1      -2.093   4.058  -0.408  1.00  0.00     0.037 A 
HETATM    8  C12 UNL     1      -1.026   4.901  -0.101  1.00  0.00     0.065 A 
HETATM    9  C13 UNL     1       0.234   4.349  -0.108  1.00  0.00     0.037 A 
HETATM   10  C14 UNL     1       0.443   3.020  -0.404  1.00  0.00     0.011 A 
BRANCH   8  11
HETATM   11  O2  UNL     1      -1.202   6.223   0.196  1.00  0.00    -0.361 OA
HETATM   12  H11 UNL     1      -2.090   6.659   0.386  1.00  0.00     0.217 HD
ENDBRANCH   8  11
ENDBRANCH   4   5
ENDBRANCH   3   4
BRANCH   3  13
HETATM   13  C15 UNL     1      -1.775  -0.593   0.428  1.00  0.00     0.167 C 
BRANCH  13  14
HETATM   14  C16 UNL     1      -2.212  -1.785  -0.315  1.00  0.00    -0.005 A 
HETATM   15  C17 UNL     1      -3.066  -1.479  -1.389  1.00  0.00     0.012 A 
HETATM   16  C18 UNL     1      -3.613  -2.408  -2.244  1.00  0.00     0.002 A 
HETATM   17  C19 UNL     1      -3.336  -3.747  -2.082  1.00  0.00     0.026 A 
HETATM   18  C20 UNL     1      -2.503  -4.091  -1.041  1.00  0.00     0.067 A 
HETATM   19 CL1  UNL     1      -2.099  -5.760  -0.760  1.00  0.00    -0.081 Cl
HETATM   20  C21 UNL     1      -1.990  -3.131  -0.224  1.00  0.00     0.095 A 
BRANCH  20  21
HETATM   21  O3  UNL     1      -1.165  -3.526   0.803  1.00  0.00    -0.358 OA
HETATM   22  H19 UNL     1      -1.451  -3.362   1.760  1.00  0.00     0.217 HD
ENDBRANCH  20  21
ENDBRANCH  13  14
ENDBRANCH   3  13
BRANCH   2  23
HETATM   23  C2  UNL     1       2.151  -0.589   1.131  1.00  0.00     0.029 C 
HETATM   24  C3  UNL     1       2.938   0.061   0.251  1.00  0.00     0.014 C 
HETATM   25  C4  UNL     1       4.414   0.213   0.207  1.00  0.00     0.002 C 
HETATM   26  C5  UNL     1       5.249  -0.733   0.692  1.00  0.00     0.019 C 
HETATM   27  C6  UNL     1       4.947  -2.035   1.328  1.00  0.00     0.110 C 
HETATM   28  N1  UNL     1       3.840  -2.148   1.985  1.00  0.00    -0.297 NA
HETATM   29  C7  UNL     1       2.739  -1.304   2.293  1.00  0.00     0.192 C 
ENDBRANCH   2  23
TORSDOF 7
