REMARK  7 active torsions:
REMARK  status: ('A' for Active; 'I' for Inactive)
REMARK    1  A    between atoms: B1_1  and  C1_2 
REMARK    2  A    between atoms: C3_4  and  C4_5 
REMARK    3  A    between atoms: C4_5  and  C5_6 
REMARK    4  A    between atoms: C5_6  and  C6_7 
REMARK    5  A    between atoms: C13_15  and  N1_16 
REMARK       I    between atoms: N1_16  and  C15_18 
REMARK       I    between atoms: C15_18  and  N2_20 
REMARK    6  A    between atoms: N2_20  and  C16_21 
REMARK    7  A    between atoms: C22_27  and  O2_28 
ROOT
HETATM    1  C1  UNL     1       2.283  -2.608   0.984  1.00  0.00    -0.073 A 
HETATM    2  C2  UNL     1       3.046  -1.479   1.256  1.00  0.00     0.004 A 
HETATM    3  C3  UNL     1       2.441  -0.290   1.615  1.00  0.00    -0.056 A 
HETATM    4  C12 UNL     1       1.066  -0.222   1.705  1.00  0.00     0.039 A 
HETATM    5  C13 UNL     1       0.261  -1.291   1.452  1.00  0.00     0.071 A 
HETATM    6  C22 UNL     1       0.912  -2.459   1.096  1.00  0.00     0.087 A 
ENDROOT
BRANCH   5   7
HETATM    7  N1  UNL     1      -1.159  -1.242   1.537  1.00  0.00    -0.301 N 
HETATM    8  C14 UNL     1      -1.776  -1.548   2.809  1.00  0.00     0.161 C 
HETATM    9  C15 UNL     1      -2.003  -0.906   0.438  1.00  0.00     0.327 C 
HETATM   10  O1  UNL     1      -3.275  -0.873   0.568  1.00  0.00    -0.246 OA
HETATM   11  N2  UNL     1      -1.512  -0.587  -0.867  1.00  0.00    -0.309 N 
HETATM   12  H16 UNL     1      -0.450  -0.636  -0.898  1.00  0.00     0.170 HD
BRANCH  11  13
HETATM   13  C16 UNL     1      -2.649  -0.304  -1.711  1.00  0.00     0.036 A 
HETATM   14  C17 UNL     1      -3.057   1.009  -1.743  1.00  0.00     0.029 A 
HETATM   15  C18 UNL     1      -4.150   1.240  -2.563  1.00  0.00     0.002 A 
HETATM   16  C19 UNL     1      -4.759   0.233  -3.275  1.00  0.00     0.000 A 
HETATM   17  C20 UNL     1      -4.303  -1.057  -3.200  1.00  0.00     0.002 A 
HETATM   18  C21 UNL     1      -3.204  -1.366  -2.392  1.00  0.00     0.029 A 
ENDBRANCH  11  13
ENDBRANCH   5   7
BRANCH   6  19
HETATM   19  O2  UNL     1       0.121  -3.592   0.824  1.00  0.00    -0.359 OA
HETATM   20  H22 UNL     1      -0.164  -4.198   1.589  1.00  0.00     0.217 HD
ENDBRANCH   6  19
BRANCH   3  21
HETATM   21  C4  UNL     1       3.357   0.850   1.882  1.00  0.00     0.043 C 
BRANCH  21  22
HETATM   22  C5  UNL     1       3.650   1.681   0.656  1.00  0.00     0.043 C 
BRANCH  22  23
HETATM   23  C6  UNL     1       2.418   2.270   0.078  1.00  0.00    -0.058 A 
HETATM   24  C7  UNL     1       1.654   1.640  -0.882  1.00  0.00     0.010 A 
HETATM   25  C8  UNL     1       0.502   2.181  -1.429  1.00  0.00     0.043 A 
HETATM   26  C9  UNL     1       0.155   3.440  -0.930  1.00  0.00     0.116 A 
HETATM   27  F1  UNL     1      -0.979   3.974  -1.468  1.00  0.00    -0.206 F 
HETATM   28  C10 UNL     1       0.866   4.132   0.027  1.00  0.00     0.043 A 
HETATM   29  C11 UNL     1       1.987   3.502   0.496  1.00  0.00     0.010 A 
ENDBRANCH  22  23
ENDBRANCH  21  22
ENDBRANCH   3  21
BRANCH   1  30
HETATM   30  B1  UNL     1       2.928  -3.966   0.576  1.00  0.00     0.178 B 
HETATM   31  H1  UNL     1       3.100  -4.239  -0.567  1.00  0.00    -0.026 HD
HETATM   32  H2  UNL     1       3.104  -4.858   1.356  1.00  0.00    -0.026 HD
ENDBRANCH   1  30
TORSDOF 7
