REMARK  6 active torsions:
REMARK  status: ('A' for Active; 'I' for Inactive)
REMARK    1  A    between atoms: C3_3  and  C4_4 
REMARK    2  A    between atoms: C3_3  and  N5_24 
REMARK    3  A    between atoms: C4_4  and  C5_5 
REMARK    4  A    between atoms: C8_9  and  N2_10 
REMARK    5  A    between atoms: N2_10  and  C9_11 
REMARK    6  A    between atoms: N5_24  and  S1_25 
ROOT
HETATM    1  C5  UNL     1      -1.782  -0.109   1.419  1.00  0.00     0.075 C 
HETATM    2  C6  UNL     1      -0.519   0.189   2.182  1.00  0.00     0.185 C 
HETATM    3  N1  UNL     1       0.596   0.020   1.264  1.00  0.00    -0.377 N 
HETATM    4  C7  UNL     1       0.604   0.810   0.072  1.00  0.00     0.129 A 
HETATM    5  C8  UNL     1       1.772   1.226  -0.540  1.00  0.00     0.160 A 
HETATM    6  N3  UNL     1       1.568   1.959  -1.652  1.00  0.00    -0.222 NA
HETATM    7  C15 UNL     1       0.348   2.259  -2.124  1.00  0.00     0.238 A 
HETATM    8  N4  UNL     1      -0.783   1.855  -1.530  1.00  0.00    -0.215 NA
HETATM    9  C16 UNL     1      -0.664   1.104  -0.392  1.00  0.00     0.201 A 
HETATM   10  O1  UNL     1      -1.776   0.658   0.263  1.00  0.00    -0.293 OA
HETATM   11  H8  UNL     1       1.421  -0.644   1.393  1.00  0.00     0.160 HD
ENDROOT
BRANCH   1  12
HETATM   12  C4  UNL     1      -2.850  -0.858   1.528  1.00  0.00     0.064 C 
BRANCH  12  13
HETATM   13  C3  UNL     1      -4.085  -1.623   1.498  1.00  0.00     0.040 C 
HETATM   14  C2  UNL     1      -4.636  -2.517   2.319  1.00  0.00    -0.001 C 
HETATM   15  C1  UNL     1      -3.725  -2.704   3.470  1.00  0.00     0.038 C 
BRANCH  13  16
HETATM   16  N5  UNL     1      -4.718  -1.211   0.270  1.00  0.00    -0.285 N 
HETATM   17  H14 UNL     1      -5.366  -0.513   0.749  1.00  0.00     0.178 HD
BRANCH  16  18
HETATM   18  S1  UNL     1      -4.765  -1.446  -1.436  1.00  0.00     0.227 S 
HETATM   19  C17 UNL     1      -3.183  -1.024  -2.109  1.00  0.00     0.186 C 
HETATM   20  O2  UNL     1      -5.128  -2.861  -1.787  1.00  0.00    -0.206 OA
HETATM   21  O3  UNL     1      -5.755  -0.471  -1.990  1.00  0.00    -0.206 OA
ENDBRANCH  16  18
ENDBRANCH  13  16
ENDBRANCH  12  13
ENDBRANCH   1  12
BRANCH   5  22
HETATM   22  N2  UNL     1       3.014   0.878   0.028  1.00  0.00    -0.339 N 
HETATM   23  H9  UNL     1       3.036   0.359   0.918  1.00  0.00     0.167 HD
BRANCH  22  24
HETATM   24  C9  UNL     1       4.301   1.166  -0.489  1.00  0.00     0.035 A 
HETATM   25  C10 UNL     1       4.557   1.764  -1.701  1.00  0.00     0.032 A 
HETATM   26  C11 UNL     1       5.800   2.055  -2.216  1.00  0.00     0.046 A 
HETATM   27  C12 UNL     1       6.907   1.726  -1.468  1.00  0.00     0.138 A 
HETATM   28  F1  UNL     1       8.183   1.952  -1.848  1.00  0.00    -0.204 F 
HETATM   29  C13 UNL     1       6.717   1.125  -0.246  1.00  0.00     0.074 A 
HETATM   30 CL1  UNL     1       8.102   0.684   0.747  1.00  0.00    -0.081 Cl
HETATM   31  C14 UNL     1       5.452   0.865   0.205  1.00  0.00     0.056 A 
ENDBRANCH  22  24
ENDBRANCH   5  22
TORSDOF 6
