REMARK  5 active torsions:
REMARK  status: ('A' for Active; 'I' for Inactive)
REMARK       I    between atoms: N1_7  and  C7_8 
REMARK       I    between atoms: C7_8  and  N2_10 
REMARK    1  A    between atoms: N2_10  and  C8_11 
REMARK    2  A    between atoms: N2_10  and  C15_19 
REMARK    3  A    between atoms: C8_11  and  C9_12 
REMARK    4  A    between atoms: C15_19  and  C16_20 
REMARK    5  A    between atoms: C22_26  and  O2_27 
ROOT
HETATM    1  C1  UNL     1      -2.917  -1.432  -2.354  1.00  0.00     0.068 C 
HETATM    2  C2  UNL     1      -2.921  -1.785  -0.926  1.00  0.00     0.013 A 
HETATM    3  C3  UNL     1      -3.765  -2.639  -0.433  1.00  0.00     0.002 A 
HETATM    4  C4  UNL     1      -3.866  -3.070   0.972  1.00  0.00     0.057 A 
HETATM    5  C5  UNL     1      -2.878  -2.425   1.856  1.00  0.00    -0.005 A 
HETATM    6  C6  UNL     1      -2.016  -1.557   1.371  1.00  0.00     0.098 A 
HETATM    7  N1  UNL     1      -2.016  -1.222  -0.004  1.00  0.00    -0.280 N 
HETATM    8  C7  UNL     1      -1.051  -0.293  -0.418  1.00  0.00     0.329 C 
HETATM    9  O1  UNL     1      -1.084   0.021  -1.626  1.00  0.00    -0.246 OA
HETATM   10  N2  UNL     1       0.039   0.572  -0.228  1.00  0.00    -0.325 N 
ENDROOT
BRANCH  10  11
HETATM   11  C8  UNL     1       0.552   1.383  -1.275  1.00  0.00     0.166 C 
BRANCH  11  12
HETATM   12  C9  UNL     1      -0.015   2.750  -1.356  1.00  0.00    -0.040 A 
HETATM   13  C10 UNL     1       0.605   3.811  -0.702  1.00  0.00     0.012 A 
HETATM   14  C11 UNL     1       0.151   5.106  -0.719  1.00  0.00     0.043 A 
HETATM   15  C12 UNL     1      -0.991   5.424  -1.418  1.00  0.00     0.116 A 
HETATM   16  F1  UNL     1      -1.470   6.687  -1.459  1.00  0.00    -0.206 F 
HETATM   17  C13 UNL     1      -1.634   4.417  -2.076  1.00  0.00     0.043 A 
HETATM   18  C14 UNL     1      -1.133   3.135  -2.023  1.00  0.00     0.012 A 
ENDBRANCH  11  12
ENDBRANCH  10  11
BRANCH  10  19
HETATM   19  C15 UNL     1       0.847   0.779   0.948  1.00  0.00     0.169 C 
BRANCH  19  20
HETATM   20  C16 UNL     1       2.046  -0.030   1.079  1.00  0.00    -0.006 A 
HETATM   21  C17 UNL     1       3.250   0.638   0.790  1.00  0.00     0.012 A 
HETATM   22  C18 UNL     1       4.511   0.084   0.841  1.00  0.00     0.001 A 
HETATM   23  C19 UNL     1       4.638  -1.240   1.203  1.00  0.00     0.009 A 
HETATM   24  C20 UNL     1       3.496  -1.949   1.498  1.00  0.00    -0.028 A 
HETATM   25  C21 UNL     1       3.560  -3.373   1.894  1.00  0.00     0.051 C 
HETATM   26  C22 UNL     1       2.263  -1.345   1.431  1.00  0.00     0.079 A 
BRANCH  26  27
HETATM   27  O2  UNL     1       1.135  -2.058   1.726  1.00  0.00    -0.360 OA
HETATM   28  H23 UNL     1       0.662  -2.717   1.153  1.00  0.00     0.217 HD
ENDBRANCH  26  27
ENDBRANCH  19  20
ENDBRANCH  10  19
TORSDOF 5
