REMARK  5 active torsions:
REMARK  status: ('A' for Active; 'I' for Inactive)
REMARK    1  A    between atoms: C6_6  and  O1_7 
REMARK    2  A    between atoms: C7_8  and  C8_9 
REMARK    3  A    between atoms: C8_9  and  N1_10 
REMARK       I    between atoms: N1_10  and  C9_11 
REMARK    4  A    between atoms: N1_10  and  C16_20 
REMARK       I    between atoms: C9_11  and  N2_13 
REMARK    5  A    between atoms: N2_13  and  C10_14 
ROOT
HETATM    1  N1  UNL     1      -0.003  -0.937   0.350  1.00  0.00    -0.302 N 
HETATM    2  C9  UNL     1       1.210  -0.152   0.297  1.00  0.00     0.327 C 
HETATM    3  O2  UNL     1       2.379  -0.483  -0.056  1.00  0.00    -0.246 OA
HETATM    4  N2  UNL     1       1.234   1.239   0.681  1.00  0.00    -0.309 N 
HETATM    5  H12 UNL     1       0.334   1.702   1.012  1.00  0.00     0.170 HD
ENDROOT
BRANCH   1   6
HETATM    6  C8  UNL     1      -1.347  -0.614   0.726  1.00  0.00     0.149 C 
BRANCH   6   7
HETATM    7  C7  UNL     1      -2.238  -0.161  -0.393  1.00  0.00     0.089 A 
HETATM    8  C2  UNL     1      -1.781   1.054  -1.096  1.00  0.00    -0.071 A 
HETATM    9  C1  UNL     1      -0.654   1.466  -1.987  1.00  0.00     0.044 C 
HETATM   10  C3  UNL     1      -2.630   2.070  -0.861  1.00  0.00     0.012 A 
HETATM   11  C4  UNL     1      -3.714   1.630   0.008  1.00  0.00    -0.032 A 
HETATM   12  C5  UNL     1      -4.902   2.275   0.591  1.00  0.00     0.050 C 
HETATM   13  C6  UNL     1      -3.490   0.354   0.275  1.00  0.00     0.059 A 
BRANCH  13  14
HETATM   14  O1  UNL     1      -4.174  -0.585   1.039  1.00  0.00    -0.364 OA
HETATM   15  H8  UNL     1      -4.836  -1.173   0.564  1.00  0.00     0.217 HD
ENDBRANCH  13  14
ENDBRANCH   6   7
ENDBRANCH   1   6
BRANCH   1  16
HETATM   16  C16 UNL     1       0.293  -2.284  -0.076  1.00  0.00     0.016 A 
HETATM   17  C17 UNL     1       0.766  -2.412  -1.306  1.00  0.00     0.028 A 
HETATM   18  C18 UNL     1       1.092  -3.743  -1.813  1.00  0.00     0.039 A 
HETATM   19  C19 UNL     1       0.873  -4.729  -0.959  1.00  0.00     0.094 A 
HETATM   20  F1  UNL     1       1.160  -6.008  -1.376  1.00  0.00    -0.211 F 
HETATM   21  C20 UNL     1       0.356  -4.733   0.433  1.00  0.00     0.076 A 
HETATM   22  C21 UNL     1       0.031  -3.345   0.913  1.00  0.00     0.064 A 
ENDBRANCH   1  16
BRANCH   4  23
HETATM   23  C10 UNL     1       2.469   1.930   0.600  1.00  0.00     0.036 A 
HETATM   24  C11 UNL     1       3.226   1.869   1.766  1.00  0.00     0.029 A 
HETATM   25  C12 UNL     1       4.445   2.502   1.809  1.00  0.00     0.002 A 
HETATM   26  C13 UNL     1       4.880   3.179   0.691  1.00  0.00     0.000 A 
HETATM   27  C14 UNL     1       4.162   3.268  -0.491  1.00  0.00     0.002 A 
HETATM   28  C15 UNL     1       2.939   2.616  -0.489  1.00  0.00     0.029 A 
ENDBRANCH   4  23
TORSDOF 5
