REMARK  2 active torsions:
REMARK  status: ('A' for Active; 'I' for Inactive)
REMARK    1  A    between atoms: N1_10  and  C9_11 
REMARK    2  A    between atoms: C9_11  and  C10_12 
ROOT
HETATM    1  C1  UNL     1       3.502   0.760  -2.555  1.00  0.00     0.043 C 
HETATM    2  C2  UNL     1       2.874   0.692  -1.188  1.00  0.00    -0.081 C 
HETATM    3  C3  UNL     1       3.645   0.566  -0.082  1.00  0.00     0.007 C 
HETATM    4  C4  UNL     1       3.508   0.456   1.393  1.00  0.00     0.140 C 
HETATM    5  C5  UNL     1       4.519  -0.649   1.870  1.00  0.00     0.044 C 
HETATM    6  O1  UNL     1       2.291  -0.073   1.659  1.00  0.00    -0.382 OA
HETATM    7  C6  UNL     1       1.565   0.333   2.717  1.00  0.00     0.170 C 
HETATM    8  C7  UNL     1       0.199  -0.311   2.759  1.00  0.00     0.046 C 
HETATM    9  C8  UNL     1      -0.800   0.183   1.795  1.00  0.00     0.120 C 
HETATM   10  N1  UNL     1      -0.713   0.091   0.438  1.00  0.00    -0.400 N 
HETATM   11  C16 UNL     1      -0.064  -0.933  -0.293  1.00  0.00     0.112 A 
HETATM   12  C17 UNL     1      -0.889  -2.071  -0.779  1.00  0.00     0.056 A 
HETATM   13  C18 UNL     1      -0.774  -2.182  -2.245  1.00  0.00    -0.024 A 
HETATM   14  C19 UNL     1      -0.165  -1.596  -3.257  1.00  0.00    -0.004 A 
HETATM   15  C20 UNL     1       0.659  -0.483  -2.801  1.00  0.00     0.005 A 
HETATM   16  C21 UNL     1       0.623  -0.295  -1.498  1.00  0.00    -0.053 A 
HETATM   17  C22 UNL     1       1.430   0.837  -0.959  1.00  0.00     0.069 C 
ENDROOT
BRANCH  10  18
HETATM   18  C9  UNL     1      -1.621   0.889  -0.335  1.00  0.00     0.156 C 
BRANCH  18  19
HETATM   19  C10 UNL     1      -3.046   0.707  -0.183  1.00  0.00    -0.041 A 
HETATM   20  C11 UNL     1      -3.645   1.416   0.867  1.00  0.00     0.012 A 
HETATM   21  C12 UNL     1      -5.017   1.340   1.089  1.00  0.00     0.043 A 
HETATM   22  C13 UNL     1      -5.841   0.572   0.294  1.00  0.00     0.116 A 
HETATM   23  F1  UNL     1      -7.183   0.462   0.465  1.00  0.00    -0.206 F 
HETATM   24  C14 UNL     1      -5.297  -0.153  -0.766  1.00  0.00     0.043 A 
HETATM   25  C15 UNL     1      -3.950  -0.029  -0.920  1.00  0.00     0.012 A 
ENDBRANCH  18  19
ENDBRANCH  10  18
TORSDOF 2
