REMARK  6 active torsions:
REMARK  status: ('A' for Active; 'I' for Inactive)
REMARK    1  A    between atoms: C2_2  and  C3_3 
REMARK    2  A    between atoms: C3_3  and  N1_4 
REMARK    3  A    between atoms: N1_4  and  C4_5 
REMARK       I    between atoms: N1_4  and  C11_15 
REMARK    4  A    between atoms: C4_5  and  C5_6 
REMARK    5  A    between atoms: C10_13  and  O1_14 
REMARK       I    between atoms: C11_15  and  N2_17 
REMARK    6  A    between atoms: N2_17  and  C12_18 
ROOT
HETATM    1  N1  UNL     1       0.665   1.021  -0.157  1.00  0.00    -0.326 N 
HETATM    2  C11 UNL     1      -0.658   0.570   0.211  1.00  0.00     0.323 C 
HETATM    3  O2  UNL     1      -1.118   1.372   1.073  1.00  0.00    -0.247 OA
HETATM    4  N2  UNL     1      -1.461  -0.526  -0.198  1.00  0.00    -0.309 N 
HETATM    5  H11 UNL     1      -0.949  -1.085  -0.911  1.00  0.00     0.170 HD
ENDROOT
BRANCH   1   6
HETATM    6  C3  UNL     1       0.966   2.229   0.582  1.00  0.00     0.154 C 
BRANCH   6   7
HETATM    7  C2  UNL     1       0.497   3.432  -0.197  1.00  0.00    -0.017 C 
HETATM    8  C1  UNL     1       0.575   4.587  -0.848  1.00  0.00     0.008 C 
ENDBRANCH   6   7
ENDBRANCH   1   6
BRANCH   1   9
HETATM    9  C4  UNL     1       1.421   0.280  -1.118  1.00  0.00     0.169 C 
BRANCH   9  10
HETATM   10  C5  UNL     1       2.281  -0.793  -0.571  1.00  0.00    -0.004 A 
HETATM   11  C6  UNL     1       1.873  -2.130  -0.664  1.00  0.00     0.030 A 
HETATM   12  C7  UNL     1       2.613  -3.203  -0.175  1.00  0.00     0.013 A 
HETATM   13 BR1  UNL     1       2.044  -5.001  -0.311  1.00  0.00    -0.051 Br
HETATM   14  C8  UNL     1       3.820  -2.967   0.441  1.00  0.00     0.041 A 
HETATM   15  C9  UNL     1       4.257  -1.666   0.552  1.00  0.00     0.045 A 
HETATM   16 BR2  UNL     1       5.933  -1.348   1.408  1.00  0.00    -0.048 Br
HETATM   17  C10 UNL     1       3.494  -0.657   0.056  1.00  0.00     0.091 A 
BRANCH  17  18
HETATM   18  O1  UNL     1       4.010   0.605   0.211  1.00  0.00    -0.359 OA
HETATM   19  H10 UNL     1       4.335   0.874   1.131  1.00  0.00     0.217 HD
ENDBRANCH  17  18
ENDBRANCH   9  10
ENDBRANCH   1   9
BRANCH   4  20
HETATM   20  C12 UNL     1      -2.741  -0.643   0.405  1.00  0.00     0.036 A 
HETATM   21  C13 UNL     1      -2.955  -1.362   1.574  1.00  0.00     0.029 A 
HETATM   22  C14 UNL     1      -4.231  -1.451   2.131  1.00  0.00     0.002 A 
HETATM   23  C15 UNL     1      -5.288  -0.805   1.495  1.00  0.00     0.000 A 
HETATM   24  C16 UNL     1      -5.095  -0.085   0.331  1.00  0.00     0.002 A 
HETATM   25  C17 UNL     1      -3.821  -0.018  -0.192  1.00  0.00     0.029 A 
ENDBRANCH   4  20
TORSDOF 6
