REMARK  4 active torsions:
REMARK  status: ('A' for Active; 'I' for Inactive)
REMARK    1  A    between atoms: S1_2  and  N1_5 
REMARK    2  A    between atoms: N1_5  and  C2_6 
REMARK    3  A    between atoms: C8_15  and  N4_16 
REMARK    4  A    between atoms: N4_16  and  C9_17 
ROOT
HETATM    1  C2  UNL     1       4.721  -1.052   0.256  1.00  0.00     0.055 A 
HETATM    2  C3  UNL     1       4.249  -2.059   1.084  1.00  0.00     0.034 A 
HETATM    3  C4  UNL     1       2.933  -2.384   1.252  1.00  0.00     0.040 A 
HETATM    4  C5  UNL     1       1.848  -1.799   0.656  1.00  0.00     0.087 A 
HETATM    5  O3  UNL     1       0.682  -2.446   1.114  1.00  0.00    -0.289 OA
HETATM    6  C6  UNL     1      -0.629  -1.943   1.021  1.00  0.00     0.202 A 
HETATM    7  N2  UNL     1      -1.446  -2.847   1.620  1.00  0.00    -0.215 NA
HETATM    8  C7  UNL     1      -2.749  -2.513   1.617  1.00  0.00     0.238 A 
HETATM    9  N3  UNL     1      -3.237  -1.392   1.077  1.00  0.00    -0.222 NA
HETATM   10  C8  UNL     1      -2.459  -0.484   0.481  1.00  0.00     0.160 A 
HETATM   11  C15 UNL     1      -1.135  -0.777   0.460  1.00  0.00     0.129 A 
HETATM   12  N5  UNL     1      -0.324   0.236  -0.174  1.00  0.00    -0.379 N 
HETATM   13  C16 UNL     1       0.865   0.015  -0.993  1.00  0.00     0.163 C 
HETATM   14  C17 UNL     1       1.879  -0.749  -0.248  1.00  0.00     0.009 A 
HETATM   15  P1  UNL     1       3.490  -0.159  -0.619  1.00  0.00     0.009 P 
HETATM   16  H12 UNL     1      -0.764   1.178   0.077  1.00  0.00     0.160 HD
ENDROOT
BRANCH  10  17
HETATM   17  N4  UNL     1      -2.959   0.698  -0.097  1.00  0.00    -0.339 N 
HETATM   18  H8  UNL     1      -2.465   1.450  -0.612  1.00  0.00     0.167 HD
BRANCH  17  19
HETATM   19  C9  UNL     1      -4.309   1.136  -0.130  1.00  0.00     0.035 A 
HETATM   20  C10 UNL     1      -4.790   2.432  -0.275  1.00  0.00     0.032 A 
HETATM   21  C11 UNL     1      -6.106   2.794  -0.313  1.00  0.00     0.046 A 
HETATM   22  C12 UNL     1      -7.069   1.827  -0.200  1.00  0.00     0.138 A 
HETATM   23  F1  UNL     1      -8.351   2.237  -0.243  1.00  0.00    -0.204 F 
HETATM   24  C13 UNL     1      -6.643   0.519  -0.054  1.00  0.00     0.074 A 
HETATM   25 CL1  UNL     1      -7.960  -0.642   0.082  1.00  0.00    -0.081 Cl
HETATM   26  C14 UNL     1      -5.314   0.199  -0.021  1.00  0.00     0.056 A 
ENDBRANCH  17  19
ENDBRANCH  10  17
BRANCH   1  27
HETATM   27  N1  UNL     1       6.094  -0.728   0.093  1.00  0.00    -0.284 N 
HETATM   28  H4  UNL     1       6.776  -1.296   0.641  1.00  0.00     0.178 HD
BRANCH  27  29
HETATM   29  S1  UNL     1       6.636   0.525  -0.940  1.00  0.00     0.227 S 
HETATM   30  C1  UNL     1       5.979   2.082  -0.396  1.00  0.00     0.186 C 
HETATM   31  O1  UNL     1       6.274   0.254  -2.383  1.00  0.00    -0.206 OA
HETATM   32  O2  UNL     1       8.121   0.618  -0.896  1.00  0.00    -0.206 OA
ENDBRANCH  27  29
ENDBRANCH   1  27
TORSDOF 4
