REMARK  2 active torsions:
REMARK  status: ('A' for Active; 'I' for Inactive)
REMARK    1  A    between atoms: C3_3  and  C5_5 
REMARK    2  A    between atoms: C6_6  and  C7_7 
ROOT
HETATM    1  C7  UNL     1      -1.669   0.397   0.126  1.00  0.00     0.004 C 
HETATM    2  C8  UNL     1      -0.407   0.060   0.106  1.00  0.00    -0.021 C 
HETATM    3  C9  UNL     1      -0.113  -1.351  -0.331  1.00  0.00     0.187 C 
HETATM    4  N1  UNL     1       0.710  -1.245  -1.421  1.00  0.00    -0.283 NA
HETATM    5  C10 UNL     1       1.288  -2.322  -1.860  1.00  0.00     0.085 C 
HETATM    6  C11 UNL     1       2.107  -2.824  -0.942  1.00  0.00     0.107 C 
HETATM    7  C12 UNL     1       2.265  -1.948   0.249  1.00  0.00     0.246 C 
HETATM    8  O1  UNL     1       2.029  -1.792   1.476  1.00  0.00    -0.268 OA
HETATM    9  N2  UNL     1       3.014  -0.747  -0.109  1.00  0.00    -0.336 N 
HETATM   10  C13 UNL     1       3.632  -0.717  -1.391  1.00  0.00     0.131 C 
HETATM   11  C14 UNL     1       5.068  -0.278  -1.394  1.00  0.00     0.047 C 
HETATM   12  C15 UNL     1       5.541   0.223  -0.089  1.00  0.00    -0.027 C 
HETATM   13  C16 UNL     1       4.694   0.570   0.844  1.00  0.00     0.000 C 
HETATM   14  C17 UNL     1       3.204   0.466   0.607  1.00  0.00     0.053 C 
HETATM   15  C18 UNL     1       2.858   1.671  -0.235  1.00  0.00     0.039 C 
HETATM   16  C19 UNL     1       1.396   1.638  -0.553  1.00  0.00     0.051 C 
HETATM   17  C20 UNL     1       0.475   1.213   0.533  1.00  0.00     0.129 C 
HETATM   18  F1  UNL     1      -0.386   2.325   0.700  1.00  0.00    -0.238 F 
HETATM   19  C21 UNL     1       1.066   0.988   1.874  1.00  0.00     0.051 C 
HETATM   20  C22 UNL     1       2.520   0.648   1.912  1.00  0.00     0.039 C 
ENDROOT
BRANCH   1  21
HETATM   21  C6  UNL     1      -2.989  -0.129  -0.138  1.00  0.00    -0.016 C 
HETATM   22  C5  UNL     1      -4.285  -0.112  -0.225  1.00  0.00     0.048 C 
BRANCH  22  23
HETATM   23  C3  UNL     1      -5.558   0.547  -0.102  1.00  0.00    -0.079 C 
HETATM   24  C2  UNL     1      -6.305  -0.509  -0.497  1.00  0.00    -0.028 C 
HETATM   25  C1  UNL     1      -6.188  -1.910  -0.941  1.00  0.00     0.036 C 
HETATM   26  C4  UNL     1      -6.346   1.782   0.240  1.00  0.00     0.044 C 
ENDBRANCH  22  23
ENDBRANCH   1  21
TORSDOF 2
