REMARK  5 active torsions:
REMARK  status: ('A' for Active; 'I' for Inactive)
REMARK    1  A    between atoms: C5_6  and  C6_7 
REMARK    2  A    between atoms: C6_7  and  N1_8 
REMARK    3  A    between atoms: N1_8  and  C7_9 
REMARK       I    between atoms: N1_8  and  C14_17 
REMARK    4  A    between atoms: C7_9  and  C8_10 
REMARK       I    between atoms: C14_17  and  N2_19 
REMARK    5  A    between atoms: N2_19  and  C15_20 
ROOT
HETATM    1  N1  UNL     1      -0.202   0.267   0.210  1.00  0.00    -0.324 N 
HETATM    2  C14 UNL     1      -0.942  -0.544  -0.728  1.00  0.00     0.323 C 
HETATM    3  O2  UNL     1      -0.651  -0.224  -1.916  1.00  0.00    -0.247 OA
HETATM    4  N2  UNL     1      -1.862  -1.552  -0.332  1.00  0.00    -0.309 N 
HETATM    5  H14 UNL     1      -2.019  -1.727   0.678  1.00  0.00     0.170 HD
ENDROOT
BRANCH   1   6
HETATM    6  C6  UNL     1       0.703   1.255  -0.343  1.00  0.00     0.193 C 
BRANCH   6   7
HETATM    7  C5  UNL     1       2.076   0.666  -0.544  1.00  0.00     0.071 A 
HETATM    8  O1  UNL     1       2.300  -0.425  -1.374  1.00  0.00    -0.349 OA
HETATM    9  C4  UNL     1       3.673  -0.769  -1.377  1.00  0.00     0.214 A 
HETATM   10  C3  UNL     1       4.245   0.244  -0.455  1.00  0.00    -0.023 A 
HETATM   11  C2  UNL     1       5.091   0.962   0.284  1.00  0.00    -0.070 A 
HETATM   12  C21 UNL     1       3.173   1.123   0.038  1.00  0.00    -0.015 A 
HETATM   13  C1  UNL     1       6.565   0.863   0.491  1.00  0.00     0.044 C 
HETATM   14  C22 UNL     1       4.111   1.903   0.847  1.00  0.00     0.076 A 
ENDBRANCH   6   7
ENDBRANCH   1   6
BRANCH   1  15
HETATM   15  C7  UNL     1      -0.252   0.218   1.635  1.00  0.00     0.166 C 
BRANCH  15  16
HETATM   16  C8  UNL     1      -1.237   1.090   2.278  1.00  0.00    -0.040 A 
HETATM   17  C9  UNL     1      -2.526   0.765   2.574  1.00  0.00     0.012 A 
HETATM   18  C10 UNL     1      -3.461   1.576   3.179  1.00  0.00     0.043 A 
HETATM   19  C11 UNL     1      -3.056   2.860   3.528  1.00  0.00     0.116 A 
HETATM   20  F1  UNL     1      -3.911   3.724   4.127  1.00  0.00    -0.206 F 
HETATM   21  C12 UNL     1      -1.756   3.263   3.258  1.00  0.00     0.043 A 
HETATM   22  C13 UNL     1      -0.882   2.392   2.650  1.00  0.00     0.012 A 
ENDBRANCH  15  16
ENDBRANCH   1  15
BRANCH   4  23
HETATM   23  C15 UNL     1      -2.574  -2.332  -1.286  1.00  0.00     0.036 A 
HETATM   24  C16 UNL     1      -3.797  -1.772  -1.657  1.00  0.00     0.029 A 
HETATM   25  C17 UNL     1      -4.599  -2.425  -2.582  1.00  0.00     0.002 A 
HETATM   26  C18 UNL     1      -4.203  -3.625  -3.142  1.00  0.00     0.000 A 
HETATM   27  C19 UNL     1      -2.981  -4.166  -2.760  1.00  0.00     0.002 A 
HETATM   28  C20 UNL     1      -2.157  -3.526  -1.830  1.00  0.00     0.029 A 
ENDBRANCH   4  23
TORSDOF 5
