REMARK  5 active torsions:
REMARK  status: ('A' for Active; 'I' for Inactive)
REMARK    1  A    between atoms: S1_2  and  N1_5 
REMARK    2  A    between atoms: N1_5  and  C2_6 
REMARK    3  A    between atoms: C8_13  and  N2_14 
REMARK    4  A    between atoms: C8_13  and  C9_16 
REMARK    5  A    between atoms: N2_14  and  N3_15 
ROOT
HETATM    1  C2  UNL     1       3.491  -0.464   0.273  1.00  0.00     0.043 A 
HETATM    2  C3  UNL     1       3.199   0.818   0.119  1.00  0.00     0.044 A 
HETATM    3  C4  UNL     1       1.740   0.848  -0.026  1.00  0.00    -0.005 A 
HETATM    4  C5  UNL     1       0.950   1.902  -0.218  1.00  0.00     0.147 C 
HETATM    5  O3  UNL     1      -0.458   1.823  -0.344  1.00  0.00    -0.358 OA
HETATM    6  C6  UNL     1      -1.235   1.040   0.534  1.00  0.00     0.211 C 
HETATM    7  C7  UNL     1      -1.246  -0.405   0.083  1.00  0.00    -0.023 C 
HETATM    8  C8  UNL     1      -2.067  -1.354  -0.329  1.00  0.00     0.057 C 
HETATM    9  C15 UNL     1      -0.052  -1.256   0.004  1.00  0.00     0.078 C 
HETATM   10  C16 UNL     1       1.248  -0.542   0.064  1.00  0.00    -0.040 A 
HETATM   11  C17 UNL     1       2.319  -1.320   0.244  1.00  0.00     0.038 A 
ENDROOT
BRANCH   8  12
HETATM   12  N2  UNL     1      -3.034  -2.344  -0.775  1.00  0.00    -0.323 N 
HETATM   13  H9  UNL     1      -3.381  -3.007  -0.017  1.00  0.00     0.180 HD
BRANCH  12  14
HETATM   14  N3  UNL     1      -3.436  -2.388  -2.113  1.00  0.00    -0.249 NA
HETATM   15  H10 UNL     1      -4.493  -2.429  -2.105  1.00  0.00     0.143 HD
HETATM   16  H11 UNL     1      -3.147  -3.331  -2.495  1.00  0.00     0.143 HD
ENDBRANCH  12  14
ENDBRANCH   8  12
BRANCH   8  17
HETATM   17  C9  UNL     1      -3.217  -0.414  -0.165  1.00  0.00    -0.006 A 
HETATM   18  C10 UNL     1      -3.745   0.390  -1.183  1.00  0.00     0.017 A 
HETATM   19  C11 UNL     1      -4.811   1.273  -1.075  1.00  0.00     0.045 A 
HETATM   20  C12 UNL     1      -5.386   1.342   0.175  1.00  0.00     0.138 A 
HETATM   21  F1  UNL     1      -6.431   2.185   0.341  1.00  0.00    -0.204 F 
HETATM   22  C13 UNL     1      -4.977   0.614   1.269  1.00  0.00     0.073 A 
HETATM   23 CL1  UNL     1      -5.707   0.708   2.853  1.00  0.00    -0.081 Cl
HETATM   24  C14 UNL     1      -3.893  -0.248   1.055  1.00  0.00     0.040 A 
ENDBRANCH   8  17
BRANCH   1  25
HETATM   25  N1  UNL     1       4.840  -0.882   0.446  1.00  0.00    -0.285 N 
HETATM   26  H4  UNL     1       5.066  -1.886   0.227  1.00  0.00     0.178 HD
BRANCH  25  27
HETATM   27  S1  UNL     1       6.092   0.172   0.988  1.00  0.00     0.227 S 
HETATM   28  C1  UNL     1       6.373   1.535  -0.097  1.00  0.00     0.186 C 
HETATM   29  O1  UNL     1       5.800   0.722   2.352  1.00  0.00    -0.206 OA
HETATM   30  O2  UNL     1       7.376  -0.600   1.092  1.00  0.00    -0.206 OA
ENDBRANCH  25  27
ENDBRANCH   1  25
TORSDOF 5
