REMARK  9 active torsions:
REMARK  status: ('A' for Active; 'I' for Inactive)
REMARK       I    between atoms: C1_2  and  N1_3 
REMARK       I    between atoms: C1_2  and  N2_10 
REMARK    1  A    between atoms: N1_3  and  C2_4 
REMARK    2  A    between atoms: N2_10  and  C8_11 
REMARK    3  A    between atoms: N2_10  and  C13_17 
REMARK    4  A    between atoms: C8_11  and  C9_12 
REMARK    5  A    between atoms: C9_12  and  C10_13 
REMARK    6  A    between atoms: C11_14  and  C12_15 
REMARK    7  A    between atoms: C13_17  and  C14_18 
REMARK    8  A    between atoms: C14_18  and  C15_19 
REMARK    9  A    between atoms: C15_19  and  O2_20 
ROOT
HETATM    1  O1  UNL     1       0.354  -1.356  -0.637  1.00  0.00    -0.247 OA
HETATM    2  C1  UNL     1       0.706  -0.205  -0.272  1.00  0.00     0.322 C 
HETATM    3  N1  UNL     1       1.958   0.452  -0.177  1.00  0.00    -0.309 N 
HETATM    4  N2  UNL     1      -0.538   0.382   0.066  1.00  0.00    -0.333 N 
HETATM    5  H1  UNL     1       1.897   1.438   0.174  1.00  0.00     0.170 HD
ENDROOT
BRANCH   4   6
HETATM    6  C8  UNL     1      -1.713  -0.464  -0.104  1.00  0.00     0.131 C 
BRANCH   6   7
HETATM    7  C9  UNL     1      -1.948  -1.215   1.205  1.00  0.00     0.047 C 
BRANCH   7   8
HETATM    8  C10 UNL     1      -3.156  -2.062   0.980  1.00  0.00    -0.027 C 
HETATM    9  C11 UNL     1      -3.353  -3.373   1.028  1.00  0.00     0.000 C 
BRANCH   9  10
HETATM   10  C12 UNL     1      -4.441  -4.357   0.841  1.00  0.00     0.249 C 
HETATM   11  F1  UNL     1      -5.633  -3.774   0.515  1.00  0.00    -0.251 F 
ENDBRANCH   9  10
ENDBRANCH   7   8
ENDBRANCH   6   7
ENDBRANCH   4   6
BRANCH   4  12
HETATM   12  C13 UNL     1      -0.769   1.728   0.560  1.00  0.00     0.134 C 
BRANCH  12  13
HETATM   13  C14 UNL     1      -0.988   2.623  -0.663  1.00  0.00     0.085 C 
BRANCH  13  14
HETATM   14  C15 UNL     1      -1.229   4.017  -0.208  1.00  0.00     0.055 C 
HETATM   15  C16 UNL     1      -0.598   5.160  -0.426  1.00  0.00     0.116 C 
HETATM   16 CL1  UNL     1      -0.857   6.811   0.092  1.00  0.00    -0.094 Cl
BRANCH  14  17
HETATM   17  O2  UNL     1      -2.323   4.248   0.618  1.00  0.00    -0.364 OA
HETATM   18  H19 UNL     1      -2.216   4.459   1.600  1.00  0.00     0.217 HD
ENDBRANCH  14  17
ENDBRANCH  13  14
ENDBRANCH  12  13
ENDBRANCH   4  12
BRANCH   3  19
HETATM   19  C2  UNL     1       3.195  -0.163  -0.524  1.00  0.00     0.036 A 
HETATM   20  C3  UNL     1       3.901  -0.853   0.457  1.00  0.00     0.029 A 
HETATM   21  C4  UNL     1       5.095  -1.437   0.086  1.00  0.00     0.002 A 
HETATM   22  C5  UNL     1       5.641  -1.383  -1.198  1.00  0.00     0.000 A 
HETATM   23  C6  UNL     1       4.889  -0.683  -2.124  1.00  0.00     0.002 A 
HETATM   24  C7  UNL     1       3.685  -0.076  -1.812  1.00  0.00     0.029 A 
ENDBRANCH   3  19
TORSDOF 9
