REMARK  6 active torsions:
REMARK  status: ('A' for Active; 'I' for Inactive)
REMARK    1  A    between atoms: C5_5  and  C6_6 
REMARK    2  A    between atoms: C6_6  and  N1_7 
REMARK    3  A    between atoms: N1_7  and  C7_8 
REMARK       I    between atoms: N1_7  and  C14_18 
REMARK    4  A    between atoms: C7_8  and  C8_9 
REMARK    5  A    between atoms: C13_16  and  O1_17 
REMARK       I    between atoms: C14_18  and  N2_20 
REMARK    6  A    between atoms: N2_20  and  C15_21 
ROOT
HETATM    1  N1  UNL     1       0.308   0.250   1.426  1.00  0.00    -0.325 N 
HETATM    2  C14 UNL     1       1.378  -0.617   1.087  1.00  0.00     0.323 C 
HETATM    3  O2  UNL     1       1.201  -1.773   1.540  1.00  0.00    -0.247 OA
HETATM    4  N2  UNL     1       2.534  -0.303   0.337  1.00  0.00    -0.310 N 
HETATM    5  H14 UNL     1       2.469   0.699   0.057  1.00  0.00     0.170 HD
ENDROOT
BRANCH   1   6
HETATM    6  C6  UNL     1      -0.773  -0.315   2.203  1.00  0.00     0.166 C 
BRANCH   6   7
HETATM    7  C5  UNL     1      -1.866  -0.909   1.404  1.00  0.00    -0.044 A 
HETATM    8  C4  UNL     1      -1.909  -2.000   0.448  1.00  0.00     0.005 A 
HETATM    9  C3  UNL     1      -3.110  -2.224  -0.044  1.00  0.00    -0.018 A 
HETATM   10  C2  UNL     1      -4.034  -1.265   0.559  1.00  0.00     0.027 A 
HETATM   11  C1  UNL     1      -4.713  -0.342  -0.402  1.00  0.00     0.018 C 
HETATM   12  C20 UNL     1      -3.130  -0.485   1.458  1.00  0.00    -0.010 A 
ENDBRANCH   6   7
ENDBRANCH   1   6
BRANCH   1  13
HETATM   13  C7  UNL     1       0.316   1.645   1.042  1.00  0.00     0.169 C 
BRANCH  13  14
HETATM   14  C8  UNL     1      -0.265   1.951  -0.259  1.00  0.00    -0.004 A 
HETATM   15  C9  UNL     1      -0.741   1.153  -1.275  1.00  0.00     0.035 A 
HETATM   16  C10 UNL     1      -1.245   1.680  -2.443  1.00  0.00     0.036 A 
HETATM   17 CL1  UNL     1      -1.814   0.555  -3.648  1.00  0.00    -0.084 Cl
HETATM   18  C11 UNL     1      -1.301   3.040  -2.657  1.00  0.00     0.050 A 
HETATM   19  C12 UNL     1      -0.828   3.855  -1.649  1.00  0.00     0.069 A 
HETATM   20 CL2  UNL     1      -0.924   5.577  -1.981  1.00  0.00    -0.081 Cl
HETATM   21  C13 UNL     1      -0.314   3.338  -0.459  1.00  0.00     0.095 A 
BRANCH  21  22
HETATM   22  O1  UNL     1       0.117   4.326   0.446  1.00  0.00    -0.358 OA
HETATM   23  H13 UNL     1       1.127   4.532   0.515  1.00  0.00     0.217 HD
ENDBRANCH  21  22
ENDBRANCH  13  14
ENDBRANCH   1  13
BRANCH   4  24
HETATM   24  C15 UNL     1       3.639  -1.101  -0.042  1.00  0.00     0.022 C 
HETATM   25  C16 UNL     1       4.686  -0.563  -0.748  1.00  0.00    -0.053 C 
HETATM   26  B1  UNL     1       6.355  -0.898  -0.291  1.00  0.00     0.200 B 
HETATM   27  C17 UNL     1       5.816  -3.330  -0.694  1.00  0.00    -0.082 C 
HETATM   28  C18 UNL     1       4.617  -3.347  -0.027  1.00  0.00    -0.013 C 
HETATM   29  C19 UNL     1       3.687  -2.427   0.259  1.00  0.00     0.027 C 
ENDBRANCH   4  24
TORSDOF 6
