REMARK  5 active torsions:
REMARK  status: ('A' for Active; 'I' for Inactive)
REMARK       I    between atoms: C1_2  and  N1_3 
REMARK       I    between atoms: C1_2  and  N2_10 
REMARK    1  A    between atoms: N1_3  and  C2_4 
REMARK    2  A    between atoms: N2_10  and  P1_11 
REMARK    3  A    between atoms: N2_10  and  C8_12 
REMARK    4  A    between atoms: C8_12  and  C9_13 
REMARK    5  A    between atoms: C14_20  and  O2_21 
ROOT
HETATM    1  O1  UNL     1       0.981   0.756   0.409  1.00  0.00    -0.247 OA
HETATM    2  C1  UNL     1       0.680  -0.478   0.560  1.00  0.00     0.326 C 
HETATM    3  N1  UNL     1       1.608  -1.328  -0.093  1.00  0.00    -0.309 N 
HETATM    4  N2  UNL     1      -0.467  -0.918   1.308  1.00  0.00    -0.309 N 
HETATM    5  H1  UNL     1       1.434  -2.373  -0.018  1.00  0.00     0.170 HD
ENDROOT
BRANCH   4   6
HETATM    6  P1  UNL     1      -0.935  -2.630   1.553  1.00  0.00    -0.034 P 
HETATM    7  H7  UNL     1      -0.055  -3.244   2.523  1.00  0.00     0.077 HD
HETATM    8  H8  UNL     1      -0.928  -3.388   0.337  1.00  0.00     0.077 HD
ENDBRANCH   4   6
BRANCH   4   9
HETATM    9  C8  UNL     1      -1.280   0.116   1.892  1.00  0.00     0.173 C 
BRANCH   9  10
HETATM   10  C9  UNL     1      -2.364   0.585   1.006  1.00  0.00    -0.003 A 
HETATM   11  C10 UNL     1      -2.200   1.812   0.368  1.00  0.00     0.035 A 
HETATM   12  C11 UNL     1      -3.210   2.253  -0.460  1.00  0.00     0.036 A 
HETATM   13 CL1  UNL     1      -2.963   3.812  -1.247  1.00  0.00    -0.084 Cl
HETATM   14  C12 UNL     1      -4.383   1.560  -0.704  1.00  0.00     0.050 A 
HETATM   15  C13 UNL     1      -4.542   0.328  -0.061  1.00  0.00     0.069 A 
HETATM   16 CL2  UNL     1      -5.999  -0.609  -0.320  1.00  0.00    -0.081 Cl
HETATM   17  C14 UNL     1      -3.531  -0.107   0.764  1.00  0.00     0.095 A 
BRANCH  17  18
HETATM   18  O2  UNL     1      -3.650  -1.335   1.427  1.00  0.00    -0.358 OA
HETATM   19  H13 UNL     1      -3.824  -1.330   2.440  1.00  0.00     0.217 HD
ENDBRANCH  17  18
ENDBRANCH   9  10
ENDBRANCH   4   9
BRANCH   3  20
HETATM   20  C2  UNL     1       2.701  -0.764  -0.799  1.00  0.00     0.036 A 
HETATM   21  C3  UNL     1       2.727  -0.398  -2.127  1.00  0.00     0.029 A 
HETATM   22  C4  UNL     1       3.859   0.145  -2.702  1.00  0.00     0.002 A 
HETATM   23  C5  UNL     1       4.976   0.314  -1.910  1.00  0.00     0.000 A 
HETATM   24  C6  UNL     1       5.001  -0.043  -0.557  1.00  0.00     0.002 A 
HETATM   25  C7  UNL     1       3.830  -0.588  -0.019  1.00  0.00     0.029 A 
ENDBRANCH   3  20
TORSDOF 5
