REMARK  8 active torsions:
REMARK  status: ('A' for Active; 'I' for Inactive)
REMARK    1  A    between atoms: C2_2  and  C3_3 
REMARK    2  A    between atoms: C3_3  and  N1_4 
REMARK    3  A    between atoms: N1_4  and  C4_5 
REMARK    4  A    between atoms: C4_5  and  N2_6 
REMARK    5  A    between atoms: N2_6  and  C5_7 
REMARK    6  A    between atoms: N2_6  and  C12_15 
REMARK    7  A    between atoms: C5_7  and  C6_8 
REMARK    8  A    between atoms: C12_15  and  C13_16 
ROOT
HETATM    1  N2  UNL     1      -0.293  -0.493  -0.384  1.00  0.00     0.110 N 
ENDROOT
BRANCH   1   2
HETATM    2  C4  UNL     1      -1.342  -1.568  -0.692  1.00  0.00     0.395 C 
BRANCH   2   3
HETATM    3  N1  UNL     1      -1.749  -2.042   0.601  1.00  0.00    -0.368 N 
HETATM    4  H4  UNL     1      -1.835  -2.173   1.630  1.00  0.00     0.161 HD
BRANCH   3   5
HETATM    5  C3  UNL     1      -2.703  -3.017   0.247  1.00  0.00     0.136 C 
BRANCH   5   6
HETATM    6  C2  UNL     1      -3.995  -2.814   0.348  1.00  0.00    -0.138 C 
HETATM    7  C1  UNL     1      -5.222  -2.465   0.673  1.00  0.00     0.098 C 
ENDBRANCH   5   6
ENDBRANCH   3   5
ENDBRANCH   2   3
ENDBRANCH   1   2
BRANCH   1   8
HETATM    8  C5  UNL     1       0.714  -1.325   0.241  1.00  0.00     0.313 C 
BRANCH   8   9
HETATM    9  C6  UNL     1       2.069  -0.808   0.337  1.00  0.00    -0.030 A 
HETATM   10  C7  UNL     1       2.910  -0.233   1.268  1.00  0.00     0.012 A 
HETATM   11  C8  UNL     1       4.191   0.194   1.029  1.00  0.00     0.043 A 
HETATM   12  C9  UNL     1       4.723   0.060  -0.219  1.00  0.00     0.116 A 
HETATM   13  F1  UNL     1       5.993   0.504  -0.371  1.00  0.00    -0.206 F 
HETATM   14  C10 UNL     1       3.967  -0.497  -1.203  1.00  0.00     0.043 A 
HETATM   15  C11 UNL     1       2.660  -0.925  -0.927  1.00  0.00     0.012 A 
ENDBRANCH   8   9
ENDBRANCH   1   8
BRANCH   1  16
HETATM   16  C12 UNL     1      -1.034   0.363   0.472  1.00  0.00     0.287 C 
BRANCH  16  17
HETATM   17  C13 UNL     1      -0.629   1.734   0.751  1.00  0.00     0.065 A 
HETATM   18  C14 UNL     1       0.616   2.076   1.374  1.00  0.00    -0.016 A 
HETATM   19  C15 UNL     1       1.312   2.986   0.661  1.00  0.00    -0.003 A 
HETATM   20  C16 UNL     1       0.531   3.316  -0.534  1.00  0.00     0.003 A 
HETATM   21  C17 UNL     1      -0.584   2.598  -0.483  1.00  0.00    -0.074 A 
HETATM   22  C18 UNL     1      -1.710   2.537  -1.426  1.00  0.00     0.044 C 
ENDBRANCH  16  17
ENDBRANCH   1  16
TORSDOF 8
