REMARK  5 active torsions:
REMARK  status: ('A' for Active; 'I' for Inactive)
REMARK    1  A    between atoms: C7_7  and  O1_8 
REMARK       I    between atoms: N1_10  and  C9_11 
REMARK       I    between atoms: C9_11  and  N2_13 
REMARK    2  A    between atoms: N3_14  and  C10_15 
REMARK    3  A    between atoms: C10_15  and  C11_16 
REMARK    4  A    between atoms: C12_17  and  C13_18 
REMARK    5  A    between atoms: C14_19  and  C15_20 
ROOT
HETATM    1  C1  UNL     1      -6.515   1.208   1.553  1.00  0.00     0.051 C 
HETATM    2  C2  UNL     1      -5.142   0.759   1.206  1.00  0.00    -0.028 A 
HETATM    3  C3  UNL     1      -4.169   0.885   2.177  1.00  0.00     0.012 A 
HETATM    4  C4  UNL     1      -2.880   0.483   1.902  1.00  0.00     0.031 A 
HETATM    5  C5  UNL     1      -2.471  -0.052   0.696  1.00  0.00     0.050 A 
HETATM    6  C6  UNL     1      -3.484  -0.153  -0.231  1.00  0.00     0.021 A 
HETATM    7  C7  UNL     1      -4.792   0.231  -0.019  1.00  0.00     0.081 A 
HETATM    8  C8  UNL     1      -2.657  -0.741  -1.310  1.00  0.00     0.178 A 
HETATM    9  N1  UNL     1      -1.589  -0.621  -0.298  1.00  0.00    -0.292 N 
HETATM   10  C9  UNL     1      -0.171  -0.927  -0.231  1.00  0.00     0.367 C 
HETATM   11  O2  UNL     1       0.290  -0.613   0.919  1.00  0.00    -0.243 OA
HETATM   12  N2  UNL     1       0.350  -1.482  -1.418  1.00  0.00    -0.095 NA
HETATM   13  N3  UNL     1       1.510  -1.895  -1.555  1.00  0.00    -0.184 NA
ENDROOT
BRANCH   7  14
HETATM   14  O1  UNL     1      -5.835   0.146  -0.921  1.00  0.00    -0.359 OA
HETATM   15  H6  UNL     1      -5.900   0.638  -1.796  1.00  0.00     0.217 HD
ENDBRANCH   7  14
BRANCH  13  16
HETATM   16  C10 UNL     1       2.472  -1.851  -0.494  1.00  0.00     0.201 C 
BRANCH  16  17
HETATM   17  C11 UNL     1       3.059  -0.473  -0.464  1.00  0.00    -0.004 C 
HETATM   18  C12 UNL     1       4.381  -0.307  -0.642  1.00  0.00    -0.003 C 
BRANCH  18  19
HETATM   19  C13 UNL     1       5.017   1.000  -0.625  1.00  0.00    -0.003 C 
HETATM   20  C14 UNL     1       6.312   1.179  -0.798  1.00  0.00    -0.016 C 
BRANCH  20  21
HETATM   21  C15 UNL     1       7.356   0.162  -1.035  1.00  0.00     0.112 C 
HETATM   22 BR1  UNL     1       8.641   0.283   0.404  1.00  0.00    -0.092 Br
ENDBRANCH  20  21
ENDBRANCH  18  19
ENDBRANCH  16  17
ENDBRANCH  13  16
TORSDOF 5
