REMARK  5 active torsions:
REMARK  status: ('A' for Active; 'I' for Inactive)
REMARK    1  A    between atoms: C6_6  and  C7_7 
REMARK    2  A    between atoms: C7_7  and  N1_8 
REMARK    3  A    between atoms: N1_8  and  C8_9 
REMARK       I    between atoms: N1_8  and  C15_17 
REMARK    4  A    between atoms: C8_9  and  C9_10 
REMARK       I    between atoms: C15_17  and  N2_19 
REMARK    5  A    between atoms: N2_19  and  C16_20 
ROOT
HETATM    1  N1  UNL     1      -0.335  -0.733  -0.158  1.00  0.00    -0.327 N 
HETATM    2  C15 UNL     1      -1.473   0.122  -0.401  1.00  0.00     0.323 C 
HETATM    3  O1  UNL     1      -2.265  -0.082  -1.355  1.00  0.00    -0.247 OA
HETATM    4  N2  UNL     1      -1.784   1.239   0.404  1.00  0.00    -0.309 N 
HETATM    5  H16 UNL     1      -1.073   1.348   1.189  1.00  0.00     0.170 HD
ENDROOT
BRANCH   1   6
HETATM    6  C7  UNL     1       0.697  -0.647   0.847  1.00  0.00     0.164 C 
BRANCH   6   7
HETATM    7  C6  UNL     1       1.936   0.091   0.415  1.00  0.00     0.162 C 
HETATM    8  C5  UNL     1       1.596   1.471   0.029  1.00  0.00     0.006 C 
HETATM    9  C4  UNL     1       2.617   2.340  -0.102  1.00  0.00    -0.001 C 
HETATM   10  C3  UNL     1       4.072   2.230   0.058  1.00  0.00     0.004 C 
HETATM   11  C2  UNL     1       4.723   1.171   0.561  1.00  0.00    -0.060 C 
HETATM   12  C1  UNL     1       6.202   1.271   0.633  1.00  0.00     0.045 C 
HETATM   13  C22 UNL     1       4.142  -0.109   1.064  1.00  0.00     0.202 C 
HETATM   14  O2  UNL     1       2.824   0.084   1.495  1.00  0.00    -0.376 OA
ENDBRANCH   6   7
ENDBRANCH   1   6
BRANCH   1  15
HETATM   15  C8  UNL     1      -0.193  -1.872  -1.075  1.00  0.00     0.166 C 
BRANCH  15  16
HETATM   16  C9  UNL     1      -0.873  -3.084  -0.610  1.00  0.00    -0.040 A 
HETATM   17  C10 UNL     1      -2.179  -3.419  -0.880  1.00  0.00     0.012 A 
HETATM   18  C11 UNL     1      -2.838  -4.554  -0.458  1.00  0.00     0.043 A 
HETATM   19  C12 UNL     1      -2.145  -5.460   0.311  1.00  0.00     0.116 A 
HETATM   20  F1  UNL     1      -2.756  -6.577   0.740  1.00  0.00    -0.206 F 
HETATM   21  C13 UNL     1      -0.841  -5.196   0.620  1.00  0.00     0.043 A 
HETATM   22  C14 UNL     1      -0.231  -4.047   0.172  1.00  0.00     0.012 A 
ENDBRANCH  15  16
ENDBRANCH   1  15
BRANCH   4  23
HETATM   23  C16 UNL     1      -2.822   2.194   0.357  1.00  0.00     0.036 A 
HETATM   24  C17 UNL     1      -2.874   3.196   1.295  1.00  0.00     0.029 A 
HETATM   25  C18 UNL     1      -3.854   4.153   1.306  1.00  0.00     0.002 A 
HETATM   26  C19 UNL     1      -4.847   4.144   0.353  1.00  0.00     0.000 A 
HETATM   27  C20 UNL     1      -4.852   3.171  -0.611  1.00  0.00     0.002 A 
HETATM   28  C21 UNL     1      -3.840   2.240  -0.566  1.00  0.00     0.029 A 
ENDBRANCH   4  23
TORSDOF 5
