REMARK  4 active torsions:
REMARK  status: ('A' for Active; 'I' for Inactive)
REMARK    1  A    between atoms: C6_6  and  C7_7 
REMARK    2  A    between atoms: C7_7  and  N1_8 
REMARK    3  A    between atoms: N1_8  and  C9_10 
REMARK    4  A    between atoms: C21_26  and  O2_27 
ROOT
HETATM    1  C9  UNL     1      -0.854  -0.242   0.153  1.00  0.00     0.027 C 
HETATM    2  B1  UNL     1      -0.510   1.307   0.928  1.00  0.00     0.234 B 
HETATM    3  C10 UNL     1      -1.679   2.458   1.289  1.00  0.00    -0.018 C 
HETATM    4  C11 UNL     1      -1.682   3.578   0.330  1.00  0.00     0.005 C 
HETATM    5  C12 UNL     1      -2.728   3.693  -0.457  1.00  0.00     0.113 C 
HETATM    6  F1  UNL     1      -2.632   4.778  -1.296  1.00  0.00    -0.206 F 
HETATM    7  C13 UNL     1      -3.881   2.865  -0.739  1.00  0.00     0.066 C 
HETATM    8  C14 UNL     1      -4.213   1.655  -0.254  1.00  0.00     0.147 C 
HETATM    9  O1  UNL     1      -4.253   0.457   0.419  1.00  0.00    -0.305 OA
HETATM   10  C15 UNL     1      -3.394  -0.593   0.025  1.00  0.00     0.153 C 
HETATM   11  C16 UNL     1      -4.373  -1.516   0.050  1.00  0.00     0.057 C 
HETATM   12  C17 UNL     1      -4.305  -2.963  -0.256  1.00  0.00     0.004 C 
HETATM   13  C18 UNL     1      -3.363  -3.637  -0.941  1.00  0.00     0.002 C 
HETATM   14  C19 UNL     1      -2.158  -3.087  -1.557  1.00  0.00     0.018 C 
HETATM   15  C20 UNL     1      -1.633  -1.880  -1.243  1.00  0.00     0.099 C 
HETATM   16  N2  UNL     1      -2.039  -0.872  -0.320  1.00  0.00    -0.303 N 
ENDROOT
BRANCH   1  17
HETATM   17  N1  UNL     1       0.415  -0.874   0.049  1.00  0.00    -0.381 N 
HETATM   18  C8  UNL     1       0.784  -1.722   1.168  1.00  0.00     0.150 C 
BRANCH  17  19
HETATM   19  C7  UNL     1       1.527  -0.979  -0.837  1.00  0.00     0.164 C 
BRANCH  19  20
HETATM   20  C6  UNL     1       2.826  -0.586  -0.297  1.00  0.00    -0.007 A 
HETATM   21  C5  UNL     1       3.697  -1.620   0.068  1.00  0.00     0.011 A 
HETATM   22  C4  UNL     1       4.960  -1.453   0.597  1.00  0.00     0.001 A 
HETATM   23  C3  UNL     1       5.411  -0.173   0.786  1.00  0.00     0.009 A 
HETATM   24  C2  UNL     1       4.592   0.898   0.443  1.00  0.00    -0.028 A 
HETATM   25  C1  UNL     1       5.108   2.251   0.660  1.00  0.00     0.051 C 
HETATM   26  C21 UNL     1       3.338   0.676  -0.083  1.00  0.00     0.079 A 
BRANCH  26  27
HETATM   27  O2  UNL     1       2.498   1.722  -0.436  1.00  0.00    -0.360 OA
HETATM   28  H22 UNL     1       2.812   2.344  -1.197  1.00  0.00     0.217 HD
ENDBRANCH  26  27
ENDBRANCH  19  20
ENDBRANCH  17  19
ENDBRANCH   1  17
TORSDOF 4
