REMARK  5 active torsions:
REMARK  status: ('A' for Active; 'I' for Inactive)
REMARK    1  A    between atoms: C5_5  and  C6_6 
REMARK    2  A    between atoms: C10_10  and  C11_11 
REMARK    3  A    between atoms: C11_11  and  C12_12 
REMARK       I    between atoms: C12_12  and  N1_14 
REMARK    4  A    between atoms: N1_14  and  C13_15 
REMARK    5  A    between atoms: C19_21  and  O2_22 
ROOT
HETATM    1  C6  UNL     1      -2.414   0.022  -1.079  1.00  0.00    -0.016 A 
HETATM    2  C7  UNL     1      -3.093  -1.177  -1.170  1.00  0.00     0.011 A 
HETATM    3  C8  UNL     1      -2.388  -2.362  -1.226  1.00  0.00     0.001 A 
HETATM    4  C9  UNL     1      -1.009  -2.373  -1.192  1.00  0.00     0.010 A 
HETATM    5  C10 UNL     1      -0.308  -1.178  -1.101  1.00  0.00    -0.016 A 
HETATM    6  C19 UNL     1      -1.020  -0.005  -1.045  1.00  0.00     0.079 A 
ENDROOT
BRANCH   5   7
HETATM    7  C11 UNL     1       1.157  -1.071  -1.062  1.00  0.00     0.144 C 
BRANCH   7   8
HETATM    8  C12 UNL     1       1.685  -0.784   0.288  1.00  0.00     0.226 C 
HETATM    9  O1  UNL     1       1.314  -0.586   1.473  1.00  0.00    -0.273 OA
HETATM   10  N1  UNL     1       3.092  -0.711   0.185  1.00  0.00    -0.327 N 
HETATM   11  H13 UNL     1       3.762  -0.818  -0.622  1.00  0.00     0.169 HD
BRANCH  10  12
HETATM   12  C13 UNL     1       4.097  -0.462   1.163  1.00  0.00     0.034 A 
HETATM   13  C14 UNL     1       4.455   0.875   1.363  1.00  0.00     0.029 A 
HETATM   14  C15 UNL     1       5.414   1.304   2.269  1.00  0.00     0.002 A 
HETATM   15  C16 UNL     1       6.065   0.347   3.033  1.00  0.00     0.000 A 
HETATM   16  C17 UNL     1       5.717  -0.975   2.842  1.00  0.00     0.002 A 
HETATM   17  C18 UNL     1       4.773  -1.402   1.949  1.00  0.00     0.029 A 
ENDBRANCH  10  12
ENDBRANCH   7   8
ENDBRANCH   5   7
BRANCH   6  18
HETATM   18  O2  UNL     1      -0.364   1.221  -0.953  1.00  0.00    -0.360 OA
HETATM   19  H19 UNL     1      -0.414   1.730  -0.058  1.00  0.00     0.217 HD
ENDBRANCH   6  18
BRANCH   1  20
HETATM   20  C5  UNL     1      -3.115   1.354  -1.014  1.00  0.00     0.053 A 
HETATM   21  C2  UNL     1      -4.537   1.312  -1.262  1.00  0.00    -0.079 A 
HETATM   22  C1  UNL     1      -5.532   0.984  -2.348  1.00  0.00     0.044 C 
HETATM   23  C3  UNL     1      -4.841   1.713  -0.064  1.00  0.00    -0.023 A 
HETATM   24  C4  UNL     1      -3.461   1.810   0.351  1.00  0.00     0.041 A 
ENDBRANCH   1  20
TORSDOF 5
