REMARK  5 active torsions:
REMARK  status: ('A' for Active; 'I' for Inactive)
REMARK    1  A    between atoms: C6_6  and  C7_7 
REMARK    2  A    between atoms: C7_7  and  N1_8 
REMARK    3  A    between atoms: N1_8  and  C8_9 
REMARK       I    between atoms: N1_8  and  C15_17 
REMARK    4  A    between atoms: C8_9  and  C9_10 
REMARK       I    between atoms: C15_17  and  N2_19 
REMARK    5  A    between atoms: C21_25  and  O2_26 
ROOT
HETATM    1  N1  UNL     1      -0.428   0.256   1.432  1.00  0.00    -0.325 N 
HETATM    2  C15 UNL     1      -1.425   1.148   0.895  1.00  0.00     0.325 C 
HETATM    3  O1  UNL     1      -2.505   0.465   0.949  1.00  0.00    -0.247 OA
HETATM    4  N2  UNL     1      -1.809   2.380   0.348  1.00  0.00    -0.306 N 
HETATM    5  C16 UNL     1      -1.016   3.516   0.057  1.00  0.00     0.096 A 
HETATM    6  C17 UNL     1      -1.312   4.700  -0.420  1.00  0.00     0.017 A 
HETATM    7  C18 UNL     1      -2.727   4.921  -0.721  1.00  0.00    -0.001 A 
HETATM    8  C19 UNL     1      -3.515   3.902  -0.477  1.00  0.00    -0.007 A 
HETATM    9  C20 UNL     1      -3.215   2.589   0.043  1.00  0.00     0.160 A 
ENDROOT
BRANCH   1  10
HETATM   10  C7  UNL     1       0.875   0.941   1.381  1.00  0.00     0.169 C 
BRANCH  10  11
HETATM   11  C6  UNL     1       1.572   0.576   0.145  1.00  0.00    -0.006 A 
HETATM   12  C5  UNL     1       1.386   1.033  -1.135  1.00  0.00     0.012 A 
HETATM   13  C4  UNL     1       2.026   0.584  -2.262  1.00  0.00     0.001 A 
HETATM   14  C3  UNL     1       2.957  -0.421  -2.166  1.00  0.00     0.009 A 
HETATM   15  C2  UNL     1       3.232  -0.962  -0.928  1.00  0.00    -0.028 A 
HETATM   16  C1  UNL     1       4.252  -2.054  -0.748  1.00  0.00     0.051 C 
HETATM   17  C21 UNL     1       2.536  -0.440   0.136  1.00  0.00     0.079 A 
BRANCH  17  18
HETATM   18  O2  UNL     1       2.878  -1.034   1.370  1.00  0.00    -0.360 OA
HETATM   19  H21 UNL     1       3.330  -0.504   2.104  1.00  0.00     0.217 HD
ENDBRANCH  17  18
ENDBRANCH  10  11
ENDBRANCH   1  10
BRANCH   1  20
HETATM   20  C8  UNL     1      -0.744  -1.046   1.937  1.00  0.00     0.166 C 
BRANCH  20  21
HETATM   21  C9  UNL     1      -0.782  -2.167   1.028  1.00  0.00    -0.040 A 
HETATM   22  C10 UNL     1       0.226  -3.047   0.635  1.00  0.00     0.012 A 
HETATM   23  C11 UNL     1       0.108  -4.087  -0.232  1.00  0.00     0.043 A 
HETATM   24  C12 UNL     1      -1.096  -4.378  -0.833  1.00  0.00     0.116 A 
HETATM   25  F1  UNL     1      -1.126  -5.421  -1.677  1.00  0.00    -0.206 F 
HETATM   26  C13 UNL     1      -2.161  -3.545  -0.493  1.00  0.00     0.043 A 
HETATM   27  C14 UNL     1      -1.958  -2.498   0.405  1.00  0.00     0.012 A 
ENDBRANCH  20  21
ENDBRANCH   1  20
TORSDOF 5
