REMARK  8 active torsions:
REMARK  status: ('A' for Active; 'I' for Inactive)
REMARK    1  A    between atoms: C3_3  and  C4_4 
REMARK    2  A    between atoms: C5_5  and  C6_6 
REMARK    3  A    between atoms: C6_6  and  N1_7 
REMARK       I    between atoms: N1_7  and  C7_8 
REMARK       I    between atoms: C7_8  and  N2_10 
REMARK    4  A    between atoms: N2_10  and  C8_11 
REMARK    5  A    between atoms: N2_10  and  C15_19 
REMARK    6  A    between atoms: C8_11  and  C9_12 
REMARK    7  A    between atoms: C15_19  and  C16_20 
REMARK    8  A    between atoms: C21_26  and  O2_27 
ROOT
HETATM    1  N1  UNL     1       0.725  -2.274  -0.428  1.00  0.00    -0.340 N 
HETATM    2  C7  UNL     1       0.149  -1.174   0.264  1.00  0.00     0.319 C 
HETATM    3  O1  UNL     1       0.698  -0.791   1.329  1.00  0.00    -0.247 OA
HETATM    4  N2  UNL     1      -0.992  -0.391  -0.049  1.00  0.00    -0.326 N 
HETATM    5  H10 UNL     1       0.218  -2.525  -1.301  1.00  0.00     0.164 HD
ENDROOT
BRANCH   4   6
HETATM    6  C8  UNL     1      -1.256   0.698   0.868  1.00  0.00     0.166 C 
BRANCH   6   7
HETATM    7  C9  UNL     1      -0.658   1.981   0.487  1.00  0.00    -0.040 A 
HETATM    8  C10 UNL     1      -1.421   2.848  -0.302  1.00  0.00     0.012 A 
HETATM    9  C11 UNL     1      -0.959   4.073  -0.717  1.00  0.00     0.043 A 
HETATM   10  C12 UNL     1       0.308   4.511  -0.365  1.00  0.00     0.116 A 
HETATM   11  F1  UNL     1       0.818   5.704  -0.743  1.00  0.00    -0.206 F 
HETATM   12  C13 UNL     1       1.084   3.682   0.410  1.00  0.00     0.043 A 
HETATM   13  C14 UNL     1       0.583   2.470   0.801  1.00  0.00     0.012 A 
ENDBRANCH   6   7
ENDBRANCH   4   6
BRANCH   4  14
HETATM   14  C15 UNL     1      -1.993  -0.470  -1.108  1.00  0.00     0.169 C 
BRANCH  14  15
HETATM   15  C16 UNL     1      -3.171  -1.271  -0.753  1.00  0.00    -0.006 A 
HETATM   16  C17 UNL     1      -4.268  -0.460  -0.428  1.00  0.00     0.012 A 
HETATM   17  C18 UNL     1      -5.498  -0.955  -0.055  1.00  0.00     0.002 A 
HETATM   18  C19 UNL     1      -5.679  -2.319   0.008  1.00  0.00     0.022 A 
HETATM   19  C20 UNL     1      -4.612  -3.156  -0.308  1.00  0.00     0.044 A 
HETATM   20 BR1  UNL     1      -4.761  -5.037  -0.251  1.00  0.00    -0.048 Br
HETATM   21  C21 UNL     1      -3.402  -2.617  -0.676  1.00  0.00     0.090 A 
BRANCH  21  22
HETATM   22  O2  UNL     1      -2.316  -3.390  -0.999  1.00  0.00    -0.359 OA
HETATM   23  H22 UNL     1      -1.709  -3.674  -0.232  1.00  0.00     0.217 HD
ENDBRANCH  21  22
ENDBRANCH  14  15
ENDBRANCH   4  14
BRANCH   1  24
HETATM   24  C6  UNL     1       1.907  -2.962   0.040  1.00  0.00     0.151 C 
BRANCH  24  25
HETATM   25  C5  UNL     1       3.039  -2.019   0.078  1.00  0.00    -0.007 C 
HETATM   26  C4  UNL     1       3.260  -0.749  -0.208  1.00  0.00    -0.003 C 
BRANCH  26  27
HETATM   27  C3  UNL     1       4.599  -0.207  -0.007  1.00  0.00    -0.005 C 
HETATM   28  C2  UNL     1       4.803   1.062  -0.296  1.00  0.00    -0.031 C 
HETATM   29  C1  UNL     1       6.151   1.646  -0.104  1.00  0.00     0.036 C 
ENDBRANCH  26  27
ENDBRANCH  24  25
ENDBRANCH   1  24
TORSDOF 8
