REMARK  1 active torsions:
REMARK  status: ('A' for Active; 'I' for Inactive)
REMARK    1  A    between atoms: C18_24  and  O3_25 
ROOT
HETATM    1  O1  UNL     1      -1.849   1.304  -0.733  1.00  0.00    -0.279 OA
HETATM    2  C1  UNL     1      -0.706   1.072  -0.920  1.00  0.00     0.225 C 
HETATM    3  N1  UNL     1       0.196   2.080  -1.019  1.00  0.00    -0.335 N 
HETATM    4  C2  UNL     1       1.116   3.110  -1.119  1.00  0.00     0.294 C 
HETATM    5  O2  UNL     1       2.412   2.478  -1.004  1.00  0.00    -0.368 OA
HETATM    6  C3  UNL     1       2.464   1.737   0.176  1.00  0.00     0.197 C 
HETATM    7  C4  UNL     1       3.609   0.955   0.560  1.00  0.00    -0.001 C 
HETATM    8  C5  UNL     1       3.842  -0.393   0.809  1.00  0.00     0.019 C 
HETATM    9  C6  UNL     1       2.666  -1.146   0.625  1.00  0.00     0.142 C 
HETATM   10  F1  UNL     1       1.754  -0.494   1.366  1.00  0.00    -0.234 F 
HETATM   11  C7  UNL     1       2.353  -2.564   0.851  1.00  0.00     0.021 C 
HETATM   12  C8  UNL     1       0.980  -2.592   0.787  1.00  0.00     0.008 C 
HETATM   13  C9  UNL     1      -0.038  -2.138  -0.193  1.00  0.00    -0.044 C 
HETATM   14  C10 UNL     1       0.989  -1.698  -1.011  1.00  0.00    -0.014 C 
HETATM   15  C11 UNL     1       2.319  -1.147  -0.930  1.00  0.00     0.079 C 
HETATM   16  C12 UNL     1      -1.004  -1.628  -1.271  1.00  0.00     0.168 C 
HETATM   17  N2  UNL     1      -1.188  -0.204  -0.888  1.00  0.00    -0.301 N 
HETATM   18  C13 UNL     1      -2.502   0.029  -0.300  1.00  0.00     0.218 A 
HETATM   19  C14 UNL     1      -3.740   0.254  -0.916  1.00  0.00     0.042 A 
HETATM   20  C15 UNL     1      -4.834   0.441  -0.113  1.00  0.00     0.003 A 
HETATM   21  C16 UNL     1      -4.771   0.418   1.263  1.00  0.00     0.021 A 
HETATM   22  C17 UNL     1      -3.565   0.198   1.894  1.00  0.00     0.045 A 
HETATM   23 BR1  UNL     1      -3.517   0.173   3.789  1.00  0.00    -0.048 Br
HETATM   24  C18 UNL     1      -2.443   0.006   1.078  1.00  0.00     0.121 A 
HETATM   25  H1  UNL     1       0.863   1.373  -1.323  1.00  0.00     0.165 HD
ENDROOT
BRANCH  24  26
HETATM   26  O3  UNL     1      -1.281  -0.207   1.830  1.00  0.00    -0.359 OA
HETATM   27  H18 UNL     1      -1.314  -1.043   2.434  1.00  0.00     0.217 HD
ENDBRANCH  24  26
TORSDOF 1
