REMARK  5 active torsions:
REMARK  status: ('A' for Active; 'I' for Inactive)
REMARK    1  A    between atoms: C2_2  and  N1_3 
REMARK    2  A    between atoms: N1_3  and  C3_4 
REMARK       I    between atoms: N1_3  and  C10_12 
REMARK    3  A    between atoms: C3_4  and  C4_5 
REMARK       I    between atoms: C10_12  and  N2_14 
REMARK    4  A    between atoms: N2_14  and  C11_15 
REMARK    5  A    between atoms: C20_25  and  O2_26 
ROOT
HETATM    1  N1  UNL     1      -0.601   0.871  -0.622  1.00  0.00    -0.311 N 
HETATM    2  C10 UNL     1       0.715   0.413  -0.475  1.00  0.00     0.324 C 
HETATM    3  O1  UNL     1       1.442   1.225   0.141  1.00  0.00    -0.247 OA
HETATM    4  N2  UNL     1       1.370  -0.769  -0.882  1.00  0.00    -0.309 N 
HETATM    5  H10 UNL     1       0.752  -1.411  -1.396  1.00  0.00     0.170 HD
ENDROOT
BRANCH   1   6
HETATM    6  C2  UNL     1      -0.859   2.168  -0.085  1.00  0.00     0.101 A 
HETATM    7  C1  UNL     1      -2.327   2.570  -0.286  1.00  0.00     0.051 C 
HETATM    8  C17 UNL     1       0.010   3.163  -0.806  1.00  0.00     0.012 A 
HETATM    9  C18 UNL     1       0.736   3.827   0.113  1.00  0.00     0.020 A 
HETATM   10  C19 UNL     1       0.411   3.330   1.466  1.00  0.00     0.042 A 
HETATM   11 BR1  UNL     1       1.164   3.941   3.106  1.00  0.00    -0.048 Br
HETATM   12  C20 UNL     1      -0.516   2.364   1.338  1.00  0.00     0.092 A 
BRANCH  12  13
HETATM   13  O2  UNL     1      -1.109   1.618   2.342  1.00  0.00    -0.361 OA
HETATM   14  H18 UNL     1      -1.927   1.901   2.861  1.00  0.00     0.217 HD
ENDBRANCH  12  13
ENDBRANCH   1   6
BRANCH   1  15
HETATM   15  C3  UNL     1      -1.492  -0.074  -1.297  1.00  0.00     0.167 C 
BRANCH  15  16
HETATM   16  C4  UNL     1      -2.228  -0.957  -0.375  1.00  0.00    -0.040 A 
HETATM   17  C5  UNL     1      -1.815  -2.150   0.170  1.00  0.00     0.012 A 
HETATM   18  C6  UNL     1      -2.526  -2.958   1.011  1.00  0.00     0.043 A 
HETATM   19  C7  UNL     1      -3.792  -2.575   1.375  1.00  0.00     0.116 A 
HETATM   20  F1  UNL     1      -4.515  -3.359   2.208  1.00  0.00    -0.206 F 
HETATM   21  C8  UNL     1      -4.290  -1.391   0.876  1.00  0.00     0.043 A 
HETATM   22  C9  UNL     1      -3.523  -0.618   0.031  1.00  0.00     0.012 A 
ENDBRANCH  15  16
ENDBRANCH   1  15
BRANCH   4  23
HETATM   23  C11 UNL     1       2.708  -1.172  -0.699  1.00  0.00     0.036 A 
HETATM   24  C12 UNL     1       3.725  -0.516  -0.072  1.00  0.00     0.029 A 
HETATM   25  C13 UNL     1       5.008  -0.961   0.075  1.00  0.00     0.002 A 
HETATM   26  C14 UNL     1       5.325  -2.187  -0.453  1.00  0.00     0.000 A 
HETATM   27  C15 UNL     1       4.359  -2.922  -1.104  1.00  0.00     0.002 A 
HETATM   28  C16 UNL     1       3.103  -2.407  -1.208  1.00  0.00     0.029 A 
ENDBRANCH   4  23
TORSDOF 5
