REMARK  5 active torsions:
REMARK  status: ('A' for Active; 'I' for Inactive)
REMARK    1  A    between atoms: C3_3  and  O1_4 
REMARK    2  A    between atoms: C3_3  and  N1_6 
REMARK    3  A    between atoms: N1_6  and  N2_8 
REMARK    4  A    between atoms: C8_14  and  N6_15 
REMARK    5  A    between atoms: N6_15  and  C9_16 
ROOT
HETATM    1  N2  UNL     1      -0.951  -1.140   1.064  1.00  0.00    -0.186 N 
HETATM    2  N3  UNL     1      -1.378  -2.410   0.659  1.00  0.00    -0.137 NA
HETATM    3  C6  UNL     1      -0.230  -3.016   0.667  1.00  0.00     0.183 C 
HETATM    4  N4  UNL     1       0.709  -4.107   0.507  1.00  0.00    -0.222 NA
HETATM    5  C7  UNL     1       1.979  -3.756   0.389  1.00  0.00     0.237 C 
HETATM    6  N5  UNL     1       2.318  -2.389   0.461  1.00  0.00    -0.226 NA
HETATM    7  C8  UNL     1       1.546  -1.396   0.668  1.00  0.00     0.140 C 
HETATM    8  C15 UNL     1       0.276  -1.785   1.258  1.00  0.00     0.271 C 
ENDROOT
BRANCH   7   9
HETATM    9  N6  UNL     1       1.777  -0.003   0.729  1.00  0.00    -0.342 N 
HETATM   10  H12 UNL     1       1.307   0.642   1.363  1.00  0.00     0.167 HD
BRANCH   9  11
HETATM   11  C9  UNL     1       2.754   0.442  -0.201  1.00  0.00     0.035 A 
HETATM   12  C10 UNL     1       3.430  -0.220  -1.185  1.00  0.00     0.029 A 
HETATM   13  C11 UNL     1       4.370   0.338  -2.008  1.00  0.00     0.004 A 
HETATM   14  C12 UNL     1       4.686   1.664  -1.864  1.00  0.00     0.024 A 
HETATM   15  C13 UNL     1       4.055   2.400  -0.902  1.00  0.00     0.036 A 
HETATM   16 CL1  UNL     1       4.439   4.093  -0.695  1.00  0.00    -0.084 Cl
HETATM   17  C14 UNL     1       3.125   1.782  -0.112  1.00  0.00     0.053 A 
ENDBRANCH   9  11
ENDBRANCH   7   9
BRANCH   1  18
HETATM   18  N1  UNL     1      -1.967  -0.179   0.998  1.00  0.00    -0.256 N 
HETATM   19  C5  UNL     1      -2.638   0.214   2.225  1.00  0.00     0.182 C 
BRANCH  18  20
HETATM   20  C3  UNL     1      -2.496   0.526  -0.119  1.00  0.00     0.155 C 
HETATM   21  C2  UNL     1      -3.643   0.230  -0.696  1.00  0.00     0.026 C 
HETATM   22  C1  UNL     1      -4.614  -0.818  -0.377  1.00  0.00     0.040 C 
BRANCH  20  23
HETATM   23  O1  UNL     1      -1.672   1.571  -0.546  1.00  0.00    -0.340 OA
HETATM   24  C4  UNL     1      -2.231   2.807  -0.952  1.00  0.00     0.211 C 
ENDBRANCH  20  23
ENDBRANCH  18  20
ENDBRANCH   1  18
TORSDOF 5
