REMARK  6 active torsions:
REMARK  status: ('A' for Active; 'I' for Inactive)
REMARK       I    between atoms: C1_2  and  N1_3 
REMARK       I    between atoms: C1_2  and  N2_10 
REMARK    1  A    between atoms: N1_3  and  C2_4 
REMARK    2  A    between atoms: N2_10  and  C8_11 
REMARK    3  A    between atoms: N2_10  and  C13_17 
REMARK    4  A    between atoms: C8_11  and  C9_12 
REMARK    5  A    between atoms: C13_17  and  C14_18 
REMARK    6  A    between atoms: C19_24  and  O2_25 
ROOT
HETATM    1  O1  UNL     1       0.821  -0.545  -1.158  1.00  0.00    -0.247 OA
HETATM    2  C1  UNL     1       0.470   0.213  -0.201  1.00  0.00     0.323 C 
HETATM    3  N1  UNL     1       1.649   0.493   0.549  1.00  0.00    -0.309 N 
HETATM    4  N2  UNL     1      -0.839   0.716   0.108  1.00  0.00    -0.325 N 
HETATM    5  H1  UNL     1       1.585   1.122   1.407  1.00  0.00     0.170 HD
ENDROOT
BRANCH   4   6
HETATM    6  C8  UNL     1      -0.898   1.546   1.265  1.00  0.00     0.169 C 
BRANCH   6   7
HETATM    7  C9  UNL     1      -0.652   2.984   0.888  1.00  0.00    -0.002 A 
HETATM    8  C10 UNL     1      -0.407   3.521  -0.312  1.00  0.00     0.015 A 
HETATM    9  C11 UNL     1      -0.335   4.806   0.367  1.00  0.00     0.043 A 
HETATM   10  C12 UNL     1      -0.577   4.277   1.553  1.00  0.00     0.124 A 
HETATM   11  F1  UNL     1      -0.715   4.642   2.844  1.00  0.00    -0.205 F 
ENDBRANCH   6   7
ENDBRANCH   4   6
BRANCH   4  12
HETATM   12  C13 UNL     1      -1.809   0.253  -0.861  1.00  0.00     0.169 C 
BRANCH  12  13
HETATM   13  C14 UNL     1      -2.448  -1.032  -0.522  1.00  0.00    -0.005 A 
HETATM   14  C15 UNL     1      -2.011  -2.174  -1.160  1.00  0.00     0.012 A 
HETATM   15  C16 UNL     1      -2.497  -3.447  -0.952  1.00  0.00     0.002 A 
HETATM   16  C17 UNL     1      -3.523  -3.612  -0.014  1.00  0.00     0.026 A 
HETATM   17  C18 UNL     1      -3.993  -2.499   0.650  1.00  0.00     0.067 A 
HETATM   18 CL1  UNL     1      -5.284  -2.654   1.840  1.00  0.00    -0.081 Cl
HETATM   19  C19 UNL     1      -3.454  -1.261   0.385  1.00  0.00     0.095 A 
BRANCH  19  20
HETATM   20  O2  UNL     1      -3.963  -0.175   1.078  1.00  0.00    -0.358 OA
HETATM   21  H16 UNL     1      -3.671  -0.100   2.064  1.00  0.00     0.217 HD
ENDBRANCH  19  20
ENDBRANCH  12  13
ENDBRANCH   4  12
BRANCH   3  22
HETATM   22  C2  UNL     1       2.881  -0.091   0.104  1.00  0.00     0.036 A 
HETATM   23  C3  UNL     1       3.736   0.526  -0.790  1.00  0.00     0.029 A 
HETATM   24  C4  UNL     1       4.897  -0.116  -1.158  1.00  0.00     0.002 A 
HETATM   25  C5  UNL     1       5.211  -1.351  -0.652  1.00  0.00     0.000 A 
HETATM   26  C6  UNL     1       4.382  -2.001   0.244  1.00  0.00     0.002 A 
HETATM   27  C7  UNL     1       3.225  -1.327   0.592  1.00  0.00     0.029 A 
ENDBRANCH   3  22
TORSDOF 6
