REMARK  6 active torsions:
REMARK  status: ('A' for Active; 'I' for Inactive)
REMARK       I    between atoms: C1_2  and  N1_3 
REMARK       I    between atoms: C1_2  and  N2_9 
REMARK    1  A    between atoms: N1_3  and  C2_4 
REMARK    2  A    between atoms: N2_9  and  C7_10 
REMARK    3  A    between atoms: N2_9  and  C14_18 
REMARK    4  A    between atoms: C7_10  and  C8_11 
REMARK    5  A    between atoms: C14_18  and  C15_19 
REMARK    6  A    between atoms: C20_25  and  O2_26 
ROOT
HETATM    1  O1  UNL     1       2.220   0.918   1.231  1.00  0.00    -0.247 OA
HETATM    2  C1  UNL     1       1.661   0.543   0.139  1.00  0.00     0.319 C 
HETATM    3  N1  UNL     1       2.275  -0.720  -0.047  1.00  0.00    -0.332 N 
HETATM    4  N2  UNL     1       0.676   1.170  -0.725  1.00  0.00    -0.326 N 
HETATM    5  H1  UNL     1       2.084  -1.330  -0.857  1.00  0.00     0.165 HD
ENDROOT
BRANCH   4   6
HETATM    6  C7  UNL     1       0.380   2.455  -0.137  1.00  0.00     0.166 C 
BRANCH   6   7
HETATM    7  C8  UNL     1      -0.738   2.519   0.803  1.00  0.00    -0.040 A 
HETATM    8  C9  UNL     1      -0.730   2.207   2.143  1.00  0.00     0.012 A 
HETATM    9  C10 UNL     1      -1.802   2.313   2.999  1.00  0.00     0.043 A 
HETATM   10  C11 UNL     1      -3.010   2.762   2.538  1.00  0.00     0.116 A 
HETATM   11  F1  UNL     1      -4.065   2.866   3.371  1.00  0.00    -0.206 F 
HETATM   12  C12 UNL     1      -3.112   3.100   1.206  1.00  0.00     0.043 A 
HETATM   13  C13 UNL     1      -1.997   2.968   0.412  1.00  0.00     0.012 A 
ENDBRANCH   6   7
ENDBRANCH   4   6
BRANCH   4  14
HETATM   14  C14 UNL     1       0.335   0.332  -1.860  1.00  0.00     0.169 C 
BRANCH  14  15
HETATM   15  C15 UNL     1      -0.792  -0.572  -1.685  1.00  0.00    -0.005 A 
HETATM   16  C16 UNL     1      -0.832  -1.880  -1.316  1.00  0.00     0.012 A 
HETATM   17  C17 UNL     1      -1.939  -2.679  -1.138  1.00  0.00     0.002 A 
HETATM   18  C18 UNL     1      -3.185  -2.120  -1.351  1.00  0.00     0.026 A 
HETATM   19  C19 UNL     1      -3.247  -0.793  -1.731  1.00  0.00     0.067 A 
HETATM   20 CL1  UNL     1      -4.858  -0.173  -1.978  1.00  0.00    -0.081 Cl
HETATM   21  C20 UNL     1      -2.079  -0.052  -1.891  1.00  0.00     0.095 A 
BRANCH  21  22
HETATM   22  O2  UNL     1      -2.366   1.243  -2.278  1.00  0.00    -0.358 OA
HETATM   23  H18 UNL     1      -1.721   1.946  -2.562  1.00  0.00     0.217 HD
ENDBRANCH  21  22
ENDBRANCH  14  15
ENDBRANCH   4  14
BRANCH   3  24
HETATM   24  C2  UNL     1       3.239  -1.407   0.746  1.00  0.00     0.132 A 
HETATM   25  C3  UNL     1       4.421  -1.771  -0.075  1.00  0.00     0.002 A 
HETATM   26  C4  UNL     1       4.567  -3.070  -0.170  1.00  0.00    -0.002 A 
HETATM   27  C5  UNL     1       3.487  -3.723   0.585  1.00  0.00    -0.002 A 
HETATM   28  C6  UNL     1       2.729  -2.766   1.107  1.00  0.00     0.002 A 
ENDBRANCH   3  24
TORSDOF 6
