REMARK  5 active torsions:
REMARK  status: ('A' for Active; 'I' for Inactive)
REMARK    1  A    between atoms: C3_4  and  C4_5 
REMARK    2  A    between atoms: C7_8  and  O1_9 
REMARK    3  A    between atoms: C9_11  and  C10_12 
REMARK    4  A    between atoms: C10_12  and  C11_13 
REMARK    5  A    between atoms: C16_19  and  O2_20 
ROOT
HETATM    1  C1  UNL     1       3.158  -3.004   0.534  1.00  0.00     0.063 C 
HETATM    2  C2  UNL     1       2.525  -1.859   0.354  1.00  0.00     0.095 A 
HETATM    3  N1  UNL     1       3.340  -0.700   0.312  1.00  0.00    -0.363 N 
HETATM    4  C3  UNL     1       2.737   0.598   0.122  1.00  0.00     0.165 A 
HETATM    5  C7  UNL     1       1.269   0.426  -0.009  1.00  0.00     0.097 A 
HETATM    6  C8  UNL     1       0.447  -0.604   0.018  1.00  0.00     0.074 A 
HETATM    7  C9  UNL     1      -0.963  -0.271  -0.160  1.00  0.00    -0.021 A 
HETATM    8  C17 UNL     1      -1.894  -1.213  -0.213  1.00  0.00     0.051 A 
HETATM    9  C18 UNL     1      -1.906  -2.670  -0.131  1.00  0.00     0.114 A 
HETATM   10  F1  UNL     1      -3.081  -3.324  -0.285  1.00  0.00    -0.206 F 
HETATM   11  C19 UNL     1      -0.807  -3.375   0.087  1.00  0.00     0.035 A 
HETATM   12  C20 UNL     1       0.639  -3.205   0.310  1.00  0.00     0.161 A 
HETATM   13  N2  UNL     1       1.109  -1.844   0.213  1.00  0.00    -0.328 N 
HETATM   14  H3  UNL     1       4.385  -0.711   0.412  1.00  0.00     0.162 HD
ENDROOT
BRANCH   7  15
HETATM   15  C10 UNL     1      -1.308   1.141  -0.260  1.00  0.00     0.082 C 
BRANCH  15  16
HETATM   16  C11 UNL     1      -2.833   1.141  -0.267  1.00  0.00    -0.019 A 
HETATM   17  C12 UNL     1      -3.605   1.275  -1.394  1.00  0.00     0.010 A 
HETATM   18  C13 UNL     1      -4.961   1.280  -1.481  1.00  0.00     0.002 A 
HETATM   19  C14 UNL     1      -5.606   1.131  -0.273  1.00  0.00     0.026 A 
HETATM   20  C15 UNL     1      -4.967   0.987   0.939  1.00  0.00     0.067 A 
HETATM   21 CL1  UNL     1      -5.817   0.798   2.458  1.00  0.00    -0.081 Cl
HETATM   22  C16 UNL     1      -3.593   0.996   0.909  1.00  0.00     0.093 A 
BRANCH  22  23
HETATM   23  O2  UNL     1      -2.909   0.852   2.115  1.00  0.00    -0.358 OA
HETATM   24  H16 UNL     1      -3.025   1.571   2.841  1.00  0.00     0.217 HD
ENDBRANCH  22  23
ENDBRANCH  15  16
ENDBRANCH   7  15
BRANCH   5  25
HETATM   25  O1  UNL     1       0.767   1.701  -0.196  1.00  0.00    -0.360 OA
HETATM   26  H10 UNL     1       1.081   2.362  -0.892  1.00  0.00     0.217 HD
ENDBRANCH   5  25
BRANCH   4  27
HETATM   27  C4  UNL     1       3.282   1.322  -1.060  1.00  0.00     0.000 C 
HETATM   28  C5  UNL     1       4.237   2.244  -0.996  1.00  0.00    -0.033 C 
HETATM   29  C6  UNL     1       4.778   2.553   0.353  1.00  0.00     0.036 C 
ENDBRANCH   4  27
TORSDOF 5
