REMARK  8 active torsions:
REMARK  status: ('A' for Active; 'I' for Inactive)
REMARK    1  A    between atoms: C2_2  and  C3_3 
REMARK    2  A    between atoms: C3_3  and  C4_4 
REMARK    3  A    between atoms: C4_4  and  N1_5 
REMARK    4  A    between atoms: N1_5  and  C5_6 
REMARK    5  A    between atoms: C5_6  and  C6_7 
REMARK    6  A    between atoms: C11_13  and  O1_14 
REMARK    7  A    between atoms: C12_15  and  N2_17 
REMARK    8  A    between atoms: N2_17  and  C13_18 
ROOT
HETATM    1  N1  UNL     1      -0.431  -0.386  -0.306  1.00  0.00     0.130 N 
HETATM    2  C12 UNL     1       0.857   0.042  -0.136  1.00  0.00     0.385 A 
HETATM    3  O2  UNL     1       0.350  -0.307   1.003  1.00  0.00    -0.102 OA
ENDROOT
BRANCH   1   4
HETATM    4  C4  UNL     1      -1.402  -0.854   0.655  1.00  0.00     0.286 C 
BRANCH   4   5
HETATM    5  C3  UNL     1      -1.240  -2.349   0.800  1.00  0.00     0.031 C 
BRANCH   5   6
HETATM    6  C2  UNL     1      -2.228  -2.921   1.796  1.00  0.00    -0.003 C 
HETATM    7  C1  UNL     1      -1.969  -4.424   1.858  1.00  0.00     0.005 C 
ENDBRANCH   5   6
ENDBRANCH   4   5
ENDBRANCH   1   4
BRANCH   1   8
HETATM    8  C5  UNL     1      -0.932  -0.372  -1.686  1.00  0.00     0.327 C 
BRANCH   8   9
HETATM    9  C6  UNL     1      -1.590   0.900  -2.046  1.00  0.00     0.006 A 
HETATM   10  C7  UNL     1      -2.993   0.932  -2.067  1.00  0.00     0.012 A 
HETATM   11  C8  UNL     1      -3.790   2.031  -2.373  1.00  0.00     0.002 A 
HETATM   12  C9  UNL     1      -3.125   3.199  -2.685  1.00  0.00     0.022 A 
HETATM   13  C10 UNL     1      -1.763   3.229  -2.681  1.00  0.00     0.044 A 
HETATM   14 BR1  UNL     1      -0.809   4.827  -3.107  1.00  0.00    -0.048 Br
HETATM   15  C11 UNL     1      -1.029   2.113  -2.371  1.00  0.00     0.091 A 
BRANCH  15  16
HETATM   16  O1  UNL     1       0.344   2.160  -2.371  1.00  0.00    -0.359 OA
HETATM   17  H15 UNL     1       0.782   2.596  -1.556  1.00  0.00     0.217 HD
ENDBRANCH  15  16
ENDBRANCH   8   9
ENDBRANCH   1   8
BRANCH   2  18
HETATM   18  N2  UNL     1       2.158   0.482  -0.007  1.00  0.00    -0.312 N 
HETATM   19  H16 UNL     1       2.154   0.628  -1.063  1.00  0.00     0.169 HD
BRANCH  18  20
HETATM   20  C13 UNL     1       3.102   0.668   0.994  1.00  0.00     0.035 A 
HETATM   21  C14 UNL     1       4.285   1.155   0.489  1.00  0.00     0.029 A 
HETATM   22  C15 UNL     1       5.316   1.387   1.410  1.00  0.00     0.002 A 
HETATM   23  C16 UNL     1       5.112   1.123   2.765  1.00  0.00     0.000 A 
HETATM   24  C17 UNL     1       3.879   0.629   3.197  1.00  0.00     0.002 A 
HETATM   25  C18 UNL     1       2.842   0.392   2.298  1.00  0.00     0.029 A 
ENDBRANCH  18  20
ENDBRANCH   2  18
TORSDOF 8
