REMARK  4 active torsions:
REMARK  status: ('A' for Active; 'I' for Inactive)
REMARK    1  A    between atoms: N2_8  and  C6_9 
REMARK    2  A    between atoms: C6_9  and  C7_10 
REMARK    3  A    between atoms: C12_16  and  O2_17 
REMARK    4  A    between atoms: C13_18  and  C14_19 
ROOT
HETATM    1  C1  UNL     1       0.633   1.176  -2.306  1.00  0.00     0.046 C 
HETATM    2  C2  UNL     1       0.967   1.433  -0.852  1.00  0.00    -0.059 C 
HETATM    3  C3  UNL     1       0.879   2.775  -0.617  1.00  0.00    -0.003 C 
HETATM    4  C4  UNL     1       1.103   3.562   0.631  1.00  0.00     0.151 C 
HETATM    5  N1  UNL     1       0.242   3.068   1.715  1.00  0.00    -0.340 N 
HETATM    6  C5  UNL     1      -0.132   1.685   1.914  1.00  0.00     0.319 C 
HETATM    7  O1  UNL     1      -0.879   1.625   2.934  1.00  0.00    -0.247 OA
HETATM    8  N2  UNL     1       0.209   0.483   1.169  1.00  0.00    -0.317 N 
HETATM    9  C13 UNL     1       1.336   0.516   0.227  1.00  0.00     0.151 C 
HETATM   10  H7  UNL     1      -0.113   3.789   2.374  1.00  0.00     0.164 HD
ENDROOT
BRANCH   8  11
HETATM   11  C6  UNL     1      -0.749  -0.521   1.607  1.00  0.00     0.170 C 
BRANCH  11  12
HETATM   12  C7  UNL     1      -1.983  -0.537   0.787  1.00  0.00    -0.005 A 
HETATM   13  C8  UNL     1      -3.167   0.067   1.191  1.00  0.00     0.012 A 
HETATM   14  C9  UNL     1      -4.335   0.089   0.460  1.00  0.00     0.002 A 
HETATM   15  C10 UNL     1      -4.362  -0.526  -0.768  1.00  0.00     0.026 A 
HETATM   16  C11 UNL     1      -3.233  -1.143  -1.233  1.00  0.00     0.067 A 
HETATM   17 CL1  UNL     1      -3.278  -1.923  -2.803  1.00  0.00    -0.081 Cl
HETATM   18  C12 UNL     1      -2.098  -1.128  -0.451  1.00  0.00     0.095 A 
BRANCH  18  19
HETATM   19  O2  UNL     1      -1.005  -1.778  -0.999  1.00  0.00    -0.358 OA
HETATM   20  H13 UNL     1      -0.873  -1.934  -1.995  1.00  0.00     0.217 HD
ENDBRANCH  18  19
ENDBRANCH  11  12
ENDBRANCH   8  11
BRANCH   9  21
HETATM   21  C14 UNL     1       1.908  -0.768  -0.085  1.00  0.00    -0.031 A 
HETATM   22  C15 UNL     1       2.258  -1.422  -1.238  1.00  0.00     0.012 A 
HETATM   23  C16 UNL     1       2.816  -2.670  -1.337  1.00  0.00     0.043 A 
HETATM   24  C17 UNL     1       3.058  -3.354  -0.159  1.00  0.00     0.116 A 
HETATM   25  F1  UNL     1       3.609  -4.583  -0.291  1.00  0.00    -0.206 F 
HETATM   26  C18 UNL     1       2.729  -2.752   1.047  1.00  0.00     0.043 A 
HETATM   27  C19 UNL     1       2.167  -1.489   1.095  1.00  0.00     0.012 A 
ENDBRANCH   9  21
TORSDOF 4
