REMARK  9 active torsions:
REMARK  status: ('A' for Active; 'I' for Inactive)
REMARK    1  A    between atoms: C2_2  and  C3_3 
REMARK    2  A    between atoms: C4_4  and  C5_5 
REMARK    3  A    between atoms: C5_5  and  C6_6 
REMARK       I    between atoms: C6_6  and  N1_8 
REMARK    4  A    between atoms: N1_8  and  C7_9 
REMARK    5  A    between atoms: N1_8  and  C11_13 
REMARK    6  A    between atoms: C7_9  and  C8_10 
REMARK    7  A    between atoms: C8_10  and  C9_11 
REMARK    8  A    between atoms: C11_13  and  C12_14 
REMARK    9  A    between atoms: C17_20  and  O2_21 
ROOT
HETATM    1  C6  UNL     1       0.687  -0.439   0.443  1.00  0.00     0.223 C 
HETATM    2  O1  UNL     1       1.613   0.387   0.133  1.00  0.00    -0.273 OA
HETATM    3  N1  UNL     1      -0.560   0.066   0.914  1.00  0.00    -0.348 N 
ENDROOT
BRANCH   3   4
HETATM    4  C7  UNL     1      -0.580   1.513   0.970  1.00  0.00     0.126 C 
BRANCH   4   5
HETATM    5  C8  UNL     1      -0.999   2.186  -0.293  1.00  0.00     0.020 C 
BRANCH   5   6
HETATM    6  C9  UNL     1      -0.955   3.689  -0.020  1.00  0.00    -0.003 C 
HETATM    7  C10 UNL     1       0.402   4.178   0.368  1.00  0.00     0.005 C 
ENDBRANCH   5   6
ENDBRANCH   4   5
ENDBRANCH   3   4
BRANCH   3   8
HETATM    8  C11 UNL     1      -1.423  -1.066   1.213  1.00  0.00     0.167 C 
BRANCH   8   9
HETATM    9  C12 UNL     1      -2.253  -1.510   0.067  1.00  0.00    -0.006 A 
HETATM   10  C13 UNL     1      -1.856  -2.595  -0.700  1.00  0.00     0.012 A 
HETATM   11  C14 UNL     1      -2.648  -2.961  -1.768  1.00  0.00     0.002 A 
HETATM   12  C15 UNL     1      -3.811  -2.292  -2.096  1.00  0.00     0.022 A 
HETATM   13  C16 UNL     1      -4.206  -1.226  -1.347  1.00  0.00     0.044 A 
HETATM   14 BR1  UNL     1      -5.813  -0.311  -1.812  1.00  0.00    -0.048 Br
HETATM   15  C17 UNL     1      -3.415  -0.837  -0.257  1.00  0.00     0.090 A 
BRANCH  15  16
HETATM   16  O2  UNL     1      -3.893   0.248   0.444  1.00  0.00    -0.359 OA
HETATM   17  H22 UNL     1      -3.916   0.312   1.449  1.00  0.00     0.217 HD
ENDBRANCH  15  16
ENDBRANCH   8   9
ENDBRANCH   3   8
BRANCH   1  18
HETATM   18  C5  UNL     1       1.573  -1.550   0.084  1.00  0.00     0.130 C 
BRANCH  18  19
HETATM   19  C4  UNL     1       2.880  -1.000  -0.369  1.00  0.00    -0.018 C 
HETATM   20  C3  UNL     1       4.003  -1.301   0.251  1.00  0.00    -0.004 C 
BRANCH  20  21
HETATM   21  C2  UNL     1       5.401  -0.962   0.092  1.00  0.00    -0.011 C 
HETATM   22  C1  UNL     1       6.470  -1.324   0.780  1.00  0.00     0.011 C 
ENDBRANCH  20  21
ENDBRANCH  18  19
ENDBRANCH   1  18
TORSDOF 9
