REMARK  9 active torsions:
REMARK  status: ('A' for Active; 'I' for Inactive)
REMARK    1  A    between atoms: C2_2  and  N1_3 
REMARK    2  A    between atoms: C2_2  and  N2_9 
REMARK    3  A    between atoms: N1_3  and  C3_4 
REMARK    4  A    between atoms: N2_9  and  C8_10 
REMARK    5  A    between atoms: N2_9  and  C11_14 
REMARK    6  A    between atoms: C8_10  and  C9_11 
REMARK    7  A    between atoms: C9_11  and  C10_12 
REMARK    8  A    between atoms: C11_14  and  C12_15 
REMARK    9  A    between atoms: C17_21  and  O2_22 
ROOT
HETATM    1  N2  UNL     1      -0.688  -1.201  -0.745  1.00  0.00    -0.388 N 
ENDROOT
BRANCH   1   2
HETATM    2  C2  UNL     1       0.623  -0.643  -0.845  1.00  0.00     0.174 C 
HETATM    3  C1  UNL     1       1.593  -1.810  -1.163  1.00  0.00     0.055 C 
BRANCH   2   4
HETATM    4  N1  UNL     1       1.090   0.041   0.333  1.00  0.00    -0.372 N 
HETATM    5  H5  UNL     1       0.497   0.111   1.199  1.00  0.00     0.161 HD
BRANCH   4   6
HETATM    6  C3  UNL     1       2.396   0.612   0.245  1.00  0.00     0.010 A 
HETATM    7  C4  UNL     1       2.892   1.306  -0.772  1.00  0.00     0.024 A 
HETATM    8  C5  UNL     1       4.271   1.708  -0.451  1.00  0.00    -0.002 A 
HETATM    9  C6  UNL     1       4.592   1.255   0.748  1.00  0.00    -0.021 A 
HETATM   10  C7  UNL     1       3.428   0.522   1.290  1.00  0.00     0.083 A 
ENDBRANCH   4   6
ENDBRANCH   2   4
ENDBRANCH   1   2
BRANCH   1  11
HETATM   11  C8  UNL     1      -0.793  -2.204   0.225  1.00  0.00     0.122 C 
BRANCH  11  12
HETATM   12  C9  UNL     1      -2.079  -2.918   0.418  1.00  0.00     0.056 C 
BRANCH  12  13
HETATM   13  C10 UNL     1      -2.540  -3.628  -0.807  1.00  0.00     0.392 C 
HETATM   14  O1  UNL     1      -2.480  -3.991  -1.963  1.00  0.00    -0.430 OA
ENDBRANCH  12  13
ENDBRANCH  11  12
ENDBRANCH   1  11
BRANCH   1  15
HETATM   15  C11 UNL     1      -1.727  -0.319  -1.017  1.00  0.00     0.160 C 
BRANCH  15  16
HETATM   16  C12 UNL     1      -1.902   0.887  -0.182  1.00  0.00    -0.006 A 
HETATM   17  C13 UNL     1      -2.848   0.793   0.850  1.00  0.00     0.012 A 
HETATM   18  C14 UNL     1      -3.130   1.799   1.739  1.00  0.00     0.002 A 
HETATM   19  C15 UNL     1      -2.465   3.004   1.651  1.00  0.00     0.022 A 
HETATM   20  C16 UNL     1      -1.528   3.141   0.652  1.00  0.00     0.044 A 
HETATM   21 BR1  UNL     1      -0.584   4.786   0.494  1.00  0.00    -0.048 Br
HETATM   22  C17 UNL     1      -1.278   2.112  -0.213  1.00  0.00     0.090 A 
BRANCH  22  23
HETATM   23  O2  UNL     1      -0.340   2.335  -1.173  1.00  0.00    -0.359 OA
HETATM   24  H21 UNL     1      -0.195   3.214  -1.627  1.00  0.00     0.217 HD
ENDBRANCH  22  23
ENDBRANCH  15  16
ENDBRANCH   1  15
TORSDOF 9
