REMARK  4 active torsions:
REMARK  status: ('A' for Active; 'I' for Inactive)
REMARK    1  A    between atoms: S1_2  and  N1_5 
REMARK    2  A    between atoms: N1_5  and  C2_6 
REMARK    3  A    between atoms: C10_15  and  N3_16 
REMARK    4  A    between atoms: N3_16  and  C11_17 
ROOT
HETATM    1  C2  UNL     1       2.986   0.144  -1.208  1.00  0.00     0.043 A 
HETATM    2  C3  UNL     1       2.582   0.280  -2.534  1.00  0.00     0.032 A 
HETATM    3  C4  UNL     1       1.390  -0.288  -2.899  1.00  0.00     0.034 A 
HETATM    4  C5  UNL     1       0.520  -0.993  -2.105  1.00  0.00     0.065 A 
HETATM    5  C6  UNL     1       0.931  -1.128  -0.772  1.00  0.00    -0.010 A 
HETATM    6  C7  UNL     1       2.148  -0.557  -0.367  1.00  0.00     0.041 A 
HETATM    7  C8  UNL     1       0.285  -1.803   0.396  1.00  0.00     0.160 C 
HETATM    8  N2  UNL     1      -0.152  -0.798   1.359  1.00  0.00    -0.392 N 
HETATM    9  C9  UNL     1      -0.739  -0.083   0.291  1.00  0.00     0.125 C 
HETATM   10  C10 UNL     1      -1.641   0.300  -0.578  1.00  0.00     0.093 C 
HETATM   11  N5  UNL     1      -1.474   1.267  -1.615  1.00  0.00    -0.269 NA
HETATM   12  C16 UNL     1      -1.319   0.802  -2.854  1.00  0.00     0.221 C 
HETATM   13  C17 UNL     1      -1.188  -0.082  -4.005  1.00  0.00     0.047 C 
HETATM   14  C18 UNL     1      -1.195  -1.325  -3.614  1.00  0.00     0.087 C 
HETATM   15  N6  UNL     1      -0.695  -1.607  -2.482  1.00  0.00    -0.246 NA
HETATM   16  H10 UNL     1      -0.279  -0.331   2.281  1.00  0.00     0.159 HD
ENDROOT
BRANCH  10  17
HETATM   17  N3  UNL     1      -2.526  -0.630  -0.003  1.00  0.00    -0.328 N 
HETATM   18  H12 UNL     1      -2.710  -1.635  -0.300  1.00  0.00     0.168 HD
BRANCH  17  19
HETATM   19  C11 UNL     1      -3.354  -0.303   1.132  1.00  0.00     0.167 A 
HETATM   20  N4  UNL     1      -4.232  -1.127   1.752  1.00  0.00    -0.240 NA
HETATM   21  C12 UNL     1      -4.927  -0.647   2.804  1.00  0.00     0.119 A 
HETATM   22  C13 UNL     1      -4.846   0.616   3.337  1.00  0.00     0.022 A 
HETATM   23  C14 UNL     1      -3.955   1.470   2.718  1.00  0.00     0.047 A 
HETATM   24  C15 UNL     1      -3.237   0.991   1.638  1.00  0.00     0.162 A 
HETATM   25  F1  UNL     1      -2.390   1.914   1.104  1.00  0.00    -0.202 F 
ENDBRANCH  17  19
ENDBRANCH  10  17
BRANCH   1  26
HETATM   26  N1  UNL     1       4.209   0.726  -0.814  1.00  0.00    -0.285 N 
HETATM   27  H4  UNL     1       4.997   0.529  -1.500  1.00  0.00     0.178 HD
BRANCH  26  28
HETATM   28  S1  UNL     1       4.480   1.655   0.589  1.00  0.00     0.227 S 
HETATM   29  C1  UNL     1       4.183   0.770   2.096  1.00  0.00     0.186 C 
HETATM   30  O1  UNL     1       5.920   2.081   0.621  1.00  0.00    -0.206 OA
HETATM   31  O2  UNL     1       3.574   2.869   0.512  1.00  0.00    -0.206 OA
ENDBRANCH  26  28
ENDBRANCH   1  26
TORSDOF 4
