REMARK  6 active torsions:
REMARK  status: ('A' for Active; 'I' for Inactive)
REMARK    1  A    between atoms: C2_2  and  C3_3 
REMARK    2  A    between atoms: C3_3  and  N1_4 
REMARK    3  A    between atoms: N1_4  and  C4_5 
REMARK       I    between atoms: N1_4  and  C11_14 
REMARK    4  A    between atoms: C4_5  and  C5_6 
REMARK    5  A    between atoms: C10_12  and  O1_13 
REMARK       I    between atoms: C11_14  and  N2_16 
REMARK    6  A    between atoms: N2_16  and  C12_17 
ROOT
HETATM    1  N1  UNL     1       0.490   0.883   0.041  1.00  0.00    -0.330 N 
HETATM    2  C11 UNL     1      -0.768   0.222  -0.035  1.00  0.00     0.323 C 
HETATM    3  O2  UNL     1      -1.341   0.901  -0.929  1.00  0.00    -0.247 OA
HETATM    4  N2  UNL     1      -1.302  -0.877   0.652  1.00  0.00    -0.309 N 
HETATM    5  H14 UNL     1      -0.622  -1.249   1.332  1.00  0.00     0.170 HD
ENDROOT
BRANCH   1   6
HETATM    6  C3  UNL     1       0.636   2.003  -0.867  1.00  0.00     0.127 C 
BRANCH   6   7
HETATM    7  C2  UNL     1       0.187   3.311  -0.260  1.00  0.00     0.015 C 
HETATM    8  C1  UNL     1       0.387   4.396  -1.297  1.00  0.00     0.006 C 
ENDBRANCH   6   7
ENDBRANCH   1   6
BRANCH   1   9
HETATM    9  C4  UNL     1       1.471   0.391   0.983  1.00  0.00     0.169 C 
BRANCH   9  10
HETATM   10  C5  UNL     1       2.361  -0.647   0.398  1.00  0.00    -0.006 A 
HETATM   11  C6  UNL     1       2.371  -1.178  -0.873  1.00  0.00     0.012 A 
HETATM   12  C7  UNL     1       3.278  -2.134  -1.222  1.00  0.00     0.002 A 
HETATM   13  C8  UNL     1       4.201  -2.587  -0.311  1.00  0.00     0.022 A 
HETATM   14  C9  UNL     1       4.221  -2.082   0.965  1.00  0.00     0.044 A 
HETATM   15 BR1  UNL     1       5.520  -2.737   2.205  1.00  0.00    -0.048 Br
HETATM   16  C10 UNL     1       3.297  -1.105   1.326  1.00  0.00     0.090 A 
BRANCH  16  17
HETATM   17  O1  UNL     1       3.400  -0.652   2.655  1.00  0.00    -0.359 OA
HETATM   18  H13 UNL     1       2.696  -0.899   3.337  1.00  0.00     0.217 HD
ENDBRANCH  16  17
ENDBRANCH   9  10
ENDBRANCH   1   9
BRANCH   4  19
HETATM   19  C12 UNL     1      -2.645  -1.212   0.246  1.00  0.00     0.036 A 
HETATM   20  C13 UNL     1      -3.052  -2.065  -0.741  1.00  0.00     0.029 A 
HETATM   21  C14 UNL     1      -4.402  -2.235  -0.958  1.00  0.00     0.002 A 
HETATM   22  C15 UNL     1      -5.329  -1.564  -0.203  1.00  0.00     0.000 A 
HETATM   23  C16 UNL     1      -4.923  -0.693   0.805  1.00  0.00     0.002 A 
HETATM   24  C17 UNL     1      -3.560  -0.521   1.024  1.00  0.00     0.029 A 
ENDBRANCH   4  19
TORSDOF 6
