REMARK  8 active torsions:
REMARK  status: ('A' for Active; 'I' for Inactive)
REMARK    1  A    between atoms: C3_3  and  O1_4 
REMARK    2  A    between atoms: C4_6  and  C5_7 
REMARK    3  A    between atoms: C5_7  and  N1_8 
REMARK    4  A    between atoms: N1_8  and  C6_9 
REMARK    5  A    between atoms: C6_9  and  C7_10 
REMARK    6  A    between atoms: C7_10  and  C8_11 
REMARK    7  A    between atoms: C8_11  and  C9_12 
REMARK    8  A    between atoms: C9_12  and  C10_13 
ROOT
HETATM    1  N1  UNL     1      -0.091  -1.563  -0.977  1.00  0.00     0.089 N 
HETATM    2  H7  UNL     1      -0.356  -1.903  -1.925  1.00  0.00     0.316 HD
ENDROOT
BRANCH   1   3
HETATM    3  C5  UNL     1      -1.057  -1.830   0.033  1.00  0.00     0.334 C 
BRANCH   3   4
HETATM    4  C4  UNL     1      -2.348  -1.113  -0.119  1.00  0.00     0.084 C 
HETATM    5  O2  UNL     1      -2.329   0.272  -0.117  1.00  0.00    -0.290 OA
HETATM    6  C3  UNL     1      -3.279   1.184   0.367  1.00  0.00     0.189 C 
HETATM    7  C2  UNL     1      -4.602   0.973   0.357  1.00  0.00    -0.004 C 
HETATM    8  C1  UNL     1      -5.543   2.006   0.897  1.00  0.00     0.053 C 
HETATM    9  C17 UNL     1      -5.326  -0.211  -0.144  1.00  0.00     0.012 C 
HETATM   10  C16 UNL     1      -4.866  -1.437  -0.416  1.00  0.00     0.003 C 
HETATM   11  C15 UNL     1      -3.458  -1.838  -0.250  1.00  0.00     0.035 C 
BRANCH   6  12
HETATM   12  O1  UNL     1      -2.935   2.423   0.918  1.00  0.00    -0.340 OA
HETATM   13  H4  UNL     1      -3.208   3.232   0.389  1.00  0.00     0.220 HD
ENDBRANCH   6  12
ENDBRANCH   3   4
ENDBRANCH   1   3
BRANCH   1  14
HETATM   14  C6  UNL     1       0.463  -0.244  -0.993  1.00  0.00     0.270 C 
BRANCH  14  15
HETATM   15  C7  UNL     1       1.472  -0.194  -2.131  1.00  0.00     0.030 C 
BRANCH  15  16
HETATM   16  C8  UNL     1       2.536  -1.208  -1.895  1.00  0.00     0.004 C 
BRANCH  16  17
HETATM   17  C9  UNL     1       3.314  -1.122  -0.646  1.00  0.00     0.029 C 
BRANCH  17  18
HETATM   18  C10 UNL     1       4.129   0.071  -0.334  1.00  0.00     0.104 A 
HETATM   19  C11 UNL     1       4.833  -0.189   1.000  1.00  0.00    -0.002 A 
HETATM   20  C12 UNL     1       4.898   0.429   2.163  1.00  0.00    -0.001 A 
HETATM   21  C13 UNL     1       4.109   1.669   2.186  1.00  0.00     0.016 A 
HETATM   22  C14 UNL     1       3.435   2.037   1.078  1.00  0.00     0.083 A 
HETATM   23  N2  UNL     1       3.414   1.313  -0.169  1.00  0.00    -0.391 N 
HETATM   24  H21 UNL     1       2.818   1.947  -0.731  1.00  0.00     0.159 HD
ENDBRANCH  17  18
ENDBRANCH  16  17
ENDBRANCH  15  16
ENDBRANCH  14  15
ENDBRANCH   1  14
TORSDOF 8
