REMARK  6 active torsions:
REMARK  status: ('A' for Active; 'I' for Inactive)
REMARK    1  A    between atoms: O1_2  and  C2_3 
REMARK    2  A    between atoms: C8_9  and  C9_10 
REMARK    3  A    between atoms: C9_10  and  N1_11 
REMARK    4  A    between atoms: N1_11  and  C10_12 
REMARK       I    between atoms: N1_11  and  C11_14 
REMARK    5  A    between atoms: C10_12  and  P1_13 
REMARK       I    between atoms: C11_14  and  N2_16 
REMARK    6  A    between atoms: N2_16  and  C12_17 
ROOT
HETATM    1  N1  UNL     1       0.247  -1.123   0.344  1.00  0.00    -0.326 N 
HETATM    2  C11 UNL     1       1.558  -0.605   0.131  1.00  0.00     0.323 C 
HETATM    3  O2  UNL     1       2.529  -0.800   0.948  1.00  0.00    -0.247 OA
HETATM    4  N2  UNL     1       2.052   0.194  -0.965  1.00  0.00    -0.309 N 
HETATM    5  H16 UNL     1       1.321   0.401  -1.686  1.00  0.00     0.170 HD
ENDROOT
BRANCH   1   6
HETATM    6  C9  UNL     1      -0.931  -0.985  -0.484  1.00  0.00     0.169 C 
BRANCH   6   7
HETATM    7  C8  UNL     1      -1.659   0.226  -0.070  1.00  0.00    -0.006 A 
HETATM    8  C2  UNL     1      -2.890   0.549  -0.596  1.00  0.00     0.082 A 
HETATM    9  C3  UNL     1      -3.610   1.693  -0.239  1.00  0.00    -0.028 A 
HETATM   10  C4  UNL     1      -4.948   1.965  -0.860  1.00  0.00     0.051 C 
HETATM   11  C5  UNL     1      -3.014   2.507   0.689  1.00  0.00     0.009 A 
HETATM   12  C6  UNL     1      -1.790   2.237   1.247  1.00  0.00     0.001 A 
HETATM   13  C7  UNL     1      -1.143   1.090   0.844  1.00  0.00     0.012 A 
BRANCH   8  14
HETATM   14  O1  UNL     1      -3.487  -0.276  -1.531  1.00  0.00    -0.355 OA
HETATM   15  C1  UNL     1      -4.349  -1.325  -1.153  1.00  0.00     0.210 C 
ENDBRANCH   8  14
ENDBRANCH   6   7
ENDBRANCH   1   6
BRANCH   1  16
HETATM   16  C10 UNL     1       0.095  -1.897   1.561  1.00  0.00     0.155 C 
BRANCH  16  17
HETATM   17  P1  UNL     1       0.491  -3.672   1.109  1.00  0.00    -0.122 P 
HETATM   18  H14 UNL     1       1.608  -4.151   1.924  1.00  0.00     0.056 HD
HETATM   19  H15 UNL     1       0.873  -3.795  -0.292  1.00  0.00     0.056 HD
ENDBRANCH  16  17
ENDBRANCH   1  16
BRANCH   4  20
HETATM   20  C12 UNL     1       3.429   0.360  -0.551  1.00  0.00     0.036 A 
HETATM   21  C13 UNL     1       3.750   1.444   0.242  1.00  0.00     0.029 A 
HETATM   22  C14 UNL     1       5.070   1.563   0.629  1.00  0.00     0.002 A 
HETATM   23  C15 UNL     1       5.960   0.599   0.199  1.00  0.00     0.000 A 
HETATM   24  C16 UNL     1       5.649  -0.487  -0.594  1.00  0.00     0.002 A 
HETATM   25  C17 UNL     1       4.324  -0.597  -0.976  1.00  0.00     0.029 A 
ENDBRANCH   4  20
TORSDOF 6
