REMARK  7 active torsions:
REMARK  status: ('A' for Active; 'I' for Inactive)
REMARK    1  A    between atoms: C2_2  and  C3_3 
REMARK    2  A    between atoms: C3_3  and  C4_4 
REMARK    3  A    between atoms: C4_4  and  N1_5 
REMARK    4  A    between atoms: N1_5  and  C5_6 
REMARK       I    between atoms: N1_5  and  C13_15 
REMARK    5  A    between atoms: C5_6  and  C6_7 
REMARK    6  A    between atoms: C12_13  and  O1_14 
REMARK       I    between atoms: C13_15  and  N2_17 
REMARK    7  A    between atoms: N2_17  and  C14_18 
ROOT
HETATM    1  N1  UNL     1      -0.263   0.612  -0.403  1.00  0.00    -0.330 N 
HETATM    2  C13 UNL     1      -1.182  -0.421  -0.076  1.00  0.00     0.323 C 
HETATM    3  O2  UNL     1      -1.753  -0.033   1.002  1.00  0.00    -0.247 OA
HETATM    4  N2  UNL     1      -1.583  -1.661  -0.604  1.00  0.00    -0.309 N 
HETATM    5  H19 UNL     1      -1.044  -1.835  -1.480  1.00  0.00     0.170 HD
ENDROOT
BRANCH   1   6
HETATM    6  C4  UNL     1      -0.282   1.724   0.501  1.00  0.00     0.128 C 
BRANCH   6   7
HETATM    7  C3  UNL     1      -1.285   2.797   0.065  1.00  0.00     0.020 C 
BRANCH   7   8
HETATM    8  C2  UNL     1      -1.153   3.883   1.143  1.00  0.00    -0.003 C 
HETATM    9  C1  UNL     1      -2.069   5.030   0.887  1.00  0.00     0.005 C 
ENDBRANCH   7   8
ENDBRANCH   6   7
ENDBRANCH   1   6
BRANCH   1  10
HETATM   10  C5  UNL     1       0.725   0.752  -1.482  1.00  0.00     0.169 C 
BRANCH  10  11
HETATM   11  C6  UNL     1       2.065   0.247  -1.113  1.00  0.00    -0.006 A 
HETATM   12  C7  UNL     1       3.050   1.186  -0.776  1.00  0.00     0.012 A 
HETATM   13  C8  UNL     1       4.353   0.936  -0.398  1.00  0.00     0.001 A 
HETATM   14  C9  UNL     1       4.729  -0.390  -0.346  1.00  0.00     0.009 A 
HETATM   15  C10 UNL     1       3.819  -1.374  -0.664  1.00  0.00    -0.028 A 
HETATM   16  C11 UNL     1       4.187  -2.814  -0.619  1.00  0.00     0.051 C 
HETATM   17  C12 UNL     1       2.538  -1.042  -1.031  1.00  0.00     0.079 A 
BRANCH  17  18
HETATM   18  O1  UNL     1       1.635  -2.041  -1.348  1.00  0.00    -0.360 OA
HETATM   19  H18 UNL     1       1.769  -2.522  -2.231  1.00  0.00     0.217 HD
ENDBRANCH  17  18
ENDBRANCH  10  11
ENDBRANCH   1  10
BRANCH   4  20
HETATM   20  C14 UNL     1      -2.583  -2.385   0.101  1.00  0.00     0.039 A 
HETATM   21  C15 UNL     1      -3.948  -2.317  -0.067  1.00  0.00     0.049 A 
HETATM   22  C16 UNL     1      -4.772  -3.103   0.715  1.00  0.00     0.118 A 
HETATM   23  N3  UNL     1      -4.266  -3.934   1.638  1.00  0.00    -0.273 NA
HETATM   24  C17 UNL     1      -2.925  -4.033   1.837  1.00  0.00     0.118 A 
HETATM   25  C18 UNL     1      -2.093  -3.254   1.063  1.00  0.00     0.049 A 
ENDBRANCH   4  20
TORSDOF 7
