REMARK  7 active torsions:
REMARK  status: ('A' for Active; 'I' for Inactive)
REMARK    1  A    between atoms: C2_2  and  C3_3 
REMARK    2  A    between atoms: C3_3  and  C4_4 
REMARK    3  A    between atoms: C4_4  and  N1_5 
REMARK    4  A    between atoms: N1_5  and  C5_6 
REMARK       I    between atoms: N1_5  and  C11_13 
REMARK    5  A    between atoms: C5_6  and  C6_7 
REMARK       I    between atoms: C11_13  and  N2_15 
REMARK    6  A    between atoms: N2_15  and  C12_16 
REMARK    7  A    between atoms: C17_21  and  O2_22 
ROOT
HETATM    1  N1  UNL     1      -0.646   0.531  -0.934  1.00  0.00    -0.330 N 
HETATM    2  C11 UNL     1       0.726   0.587  -0.564  1.00  0.00     0.323 C 
HETATM    3  O1  UNL     1       0.998   1.662   0.007  1.00  0.00    -0.247 OA
HETATM    4  N2  UNL     1       1.629  -0.475  -0.834  1.00  0.00    -0.306 N 
HETATM    5  H16 UNL     1       1.242  -1.318  -1.325  1.00  0.00     0.171 HD
ENDROOT
BRANCH   1   6
HETATM    6  C4  UNL     1      -1.458   1.695  -0.592  1.00  0.00     0.128 C 
BRANCH   6   7
HETATM    7  C3  UNL     1      -2.045   1.500   0.778  1.00  0.00     0.020 C 
BRANCH   7   8
HETATM    8  C2  UNL     1      -2.901   2.662   1.206  1.00  0.00    -0.003 C 
HETATM    9  C1  UNL     1      -2.168   3.962   1.265  1.00  0.00     0.005 C 
ENDBRANCH   7   8
ENDBRANCH   6   7
ENDBRANCH   1   6
BRANCH   1  10
HETATM   10  C5  UNL     1      -1.312  -0.576  -1.618  1.00  0.00     0.165 C 
BRANCH  10  11
HETATM   11  C6  UNL     1      -1.874  -1.572  -0.673  1.00  0.00    -0.043 A 
HETATM   12  C7  UNL     1      -3.143  -1.978  -0.502  1.00  0.00    -0.013 A 
HETATM   13  C8  UNL     1      -3.203  -3.013   0.589  1.00  0.00     0.074 A 
HETATM   14  C9  UNL     1      -1.781  -3.113   0.989  1.00  0.00    -0.007 A 
HETATM   15 BR1  UNL     1      -1.358  -4.354   2.400  1.00  0.00    -0.055 Br
HETATM   16  C10 UNL     1      -1.048  -2.289   0.262  1.00  0.00     0.023 A 
ENDBRANCH  10  11
ENDBRANCH   1  10
BRANCH   4  17
HETATM   17  C12 UNL     1       2.999  -0.542  -0.523  1.00  0.00     0.069 A 
HETATM   18  C13 UNL     1       3.346  -1.079   0.703  1.00  0.00     0.032 A 
HETATM   19  C14 UNL     1       4.654  -1.179   1.081  1.00  0.00     0.002 A 
HETATM   20  C15 UNL     1       5.622  -0.738   0.224  1.00  0.00     0.003 A 
HETATM   21  C16 UNL     1       5.357  -0.190  -1.015  1.00  0.00     0.039 A 
HETATM   22  C17 UNL     1       4.009  -0.110  -1.353  1.00  0.00     0.092 A 
BRANCH  22  23
HETATM   23  O2  UNL     1       3.681   0.429  -2.579  1.00  0.00    -0.358 OA
HETATM   24  H21 UNL     1       2.771   0.314  -2.970  1.00  0.00     0.217 HD
ENDBRANCH  22  23
ENDBRANCH   4  17
TORSDOF 7
