REMARK  5 active torsions:
REMARK  status: ('A' for Active; 'I' for Inactive)
REMARK    1  A    between atoms: C2_2  and  C3_3 
REMARK    2  A    between atoms: C3_3  and  N1_4 
REMARK       I    between atoms: N1_4  and  C4_5 
REMARK    3  A    between atoms: N1_4  and  C11_14 
REMARK       I    between atoms: C4_5  and  N2_7 
REMARK    4  A    between atoms: N2_7  and  C5_8 
REMARK    5  A    between atoms: C16_21  and  O2_22 
ROOT
HETATM    1  N1  UNL     1      -0.948   0.614   0.505  1.00  0.00    -0.297 N 
HETATM    2  C4  UNL     1       0.465   0.759   0.495  1.00  0.00     0.327 C 
HETATM    3  O1  UNL     1       0.966   1.893   0.697  1.00  0.00    -0.246 OA
HETATM    4  N2  UNL     1       1.366  -0.313   0.269  1.00  0.00    -0.309 N 
HETATM    5  H8  UNL     1       0.841  -1.217   0.111  1.00  0.00     0.170 HD
ENDROOT
BRANCH   1   6
HETATM    6  C3  UNL     1      -1.797   1.733   0.741  1.00  0.00     0.134 C 
BRANCH   6   7
HETATM    7  C2  UNL     1      -2.214   2.492  -0.489  1.00  0.00     0.016 C 
HETATM    8  C1  UNL     1      -3.110   3.643  -0.032  1.00  0.00     0.006 C 
ENDBRANCH   6   7
ENDBRANCH   1   6
BRANCH   1   9
HETATM    9  C11 UNL     1      -1.501  -0.676   0.275  1.00  0.00     0.075 A 
HETATM   10  C12 UNL     1      -1.655  -1.345   1.487  1.00  0.00     0.056 A 
HETATM   11  C13 UNL     1      -2.183  -2.640   1.535  1.00  0.00     0.038 A 
HETATM   12 CL1  UNL     1      -2.404  -3.537   3.015  1.00  0.00    -0.084 Cl
HETATM   13  C14 UNL     1      -2.548  -3.242   0.348  1.00  0.00     0.050 A 
HETATM   14  C15 UNL     1      -2.393  -2.574  -0.848  1.00  0.00     0.071 A 
HETATM   15 CL2  UNL     1      -2.833  -3.274  -2.382  1.00  0.00    -0.081 Cl
HETATM   16  C16 UNL     1      -1.874  -1.300  -0.891  1.00  0.00     0.114 A 
BRANCH  16  17
HETATM   17  O2  UNL     1      -1.660  -0.510  -2.012  1.00  0.00    -0.357 OA
HETATM   18  H16 UNL     1      -2.509  -0.292  -2.546  1.00  0.00     0.218 HD
ENDBRANCH  16  17
ENDBRANCH   1   9
BRANCH   4  19
HETATM   19  C5  UNL     1       2.766  -0.351   0.225  1.00  0.00     0.036 A 
HETATM   20  C6  UNL     1       3.408  -1.537  -0.016  1.00  0.00     0.029 A 
HETATM   21  C7  UNL     1       4.764  -1.658  -0.075  1.00  0.00     0.002 A 
HETATM   22  C8  UNL     1       5.583  -0.569   0.110  1.00  0.00     0.000 A 
HETATM   23  C9  UNL     1       4.988   0.650   0.357  1.00  0.00     0.002 A 
HETATM   24  C10 UNL     1       3.622   0.708   0.403  1.00  0.00     0.029 A 
ENDBRANCH   4  19
TORSDOF 5
