REMARK  7 active torsions:
REMARK  status: ('A' for Active; 'I' for Inactive)
REMARK    1  A    between atoms: C2_2  and  C3_3 
REMARK    2  A    between atoms: C3_3  and  C4_4 
REMARK    3  A    between atoms: C4_4  and  N1_5 
REMARK    4  A    between atoms: N1_5  and  C5_6 
REMARK       I    between atoms: N1_5  and  C11_16 
REMARK    5  A    between atoms: C5_6  and  C6_7 
REMARK    6  A    between atoms: C10_13  and  O1_14 
REMARK       I    between atoms: C11_16  and  N2_18 
REMARK    7  A    between atoms: N2_18  and  C12_19 
ROOT
HETATM    1  N1  UNL     1      -0.927   0.173  -0.430  1.00  0.00    -0.330 N 
HETATM    2  C11 UNL     1       0.431  -0.045  -0.898  1.00  0.00     0.323 C 
HETATM    3  O2  UNL     1       0.758  -0.965  -1.729  1.00  0.00    -0.247 OA
HETATM    4  N2  UNL     1       1.573   0.701  -0.523  1.00  0.00    -0.309 N 
HETATM    5  H15 UNL     1       1.446   1.488   0.151  1.00  0.00     0.170 HD
ENDROOT
BRANCH   1   6
HETATM    6  C4  UNL     1      -1.092   1.238   0.498  1.00  0.00     0.128 C 
BRANCH   6   7
HETATM    7  C3  UNL     1      -1.361   2.582  -0.046  1.00  0.00     0.020 C 
BRANCH   7   8
HETATM    8  C2  UNL     1      -1.505   3.577   1.109  1.00  0.00    -0.003 C 
HETATM    9  C1  UNL     1      -0.237   3.632   1.941  1.00  0.00     0.005 C 
ENDBRANCH   7   8
ENDBRANCH   6   7
ENDBRANCH   1   6
BRANCH   1  10
HETATM   10  C5  UNL     1      -1.899  -0.724  -1.000  1.00  0.00     0.165 C 
BRANCH  10  11
HETATM   11  C6  UNL     1      -2.078  -2.003  -0.246  1.00  0.00    -0.021 C 
HETATM   12  C7  UNL     1      -1.795  -3.088  -0.968  1.00  0.00     0.058 C 
HETATM   13  S1  UNL     1      -1.977  -4.669  -0.167  1.00  0.00    -0.100 SA
HETATM   14  C8  UNL     1      -3.396  -4.458   0.901  1.00  0.00     0.021 A 
HETATM   15  C9  UNL     1      -3.483  -3.240   1.411  1.00  0.00     0.002 A 
HETATM   16  P1  UNL     1      -4.821  -4.310   1.949  1.00  0.00    -0.052 P 
HETATM   17  C10 UNL     1      -2.500  -2.180   1.116  1.00  0.00     0.211 C 
HETATM   18  H13 UNL     1      -4.748  -4.921   3.273  1.00  0.00     0.068 HD
BRANCH  17  19
HETATM   19  O1  UNL     1      -1.304  -2.502   1.822  1.00  0.00    -0.269 OA
HETATM   20 CL1  UNL     1      -1.094  -1.243   2.947  1.00  0.00     0.062 Cl
ENDBRANCH  17  19
ENDBRANCH  10  11
ENDBRANCH   1  10
BRANCH   4  21
HETATM   21  C12 UNL     1       2.838   0.391  -1.046  1.00  0.00     0.036 A 
HETATM   22  C13 UNL     1       3.628  -0.519  -0.366  1.00  0.00     0.029 A 
HETATM   23  C14 UNL     1       4.880  -0.878  -0.810  1.00  0.00     0.002 A 
HETATM   24  C15 UNL     1       5.370  -0.313  -1.974  1.00  0.00     0.000 A 
HETATM   25  C16 UNL     1       4.604   0.601  -2.678  1.00  0.00     0.002 A 
HETATM   26  C17 UNL     1       3.343   0.947  -2.210  1.00  0.00     0.029 A 
ENDBRANCH   4  21
TORSDOF 7
