REMARK  9 active torsions:
REMARK  status: ('A' for Active; 'I' for Inactive)
REMARK    1  A    between atoms: C2_2  and  O1_3 
REMARK    2  A    between atoms: O1_3  and  C3_4 
REMARK    3  A    between atoms: C3_4  and  C4_5 
REMARK    4  A    between atoms: C4_5  and  C5_6 
REMARK    5  A    between atoms: C5_6  and  P1_7 
REMARK    6  A    between atoms: C6_9  and  C7_10 
REMARK    7  A    between atoms: C7_10  and  C8_11 
REMARK    8  A    between atoms: C13_17  and  N2_19 
REMARK    9  A    between atoms: N2_19  and  C14_20 
ROOT
HETATM    1  P1  UNL     1       0.074  -0.032   0.590  1.00  0.00     0.070 P 
HETATM    2  N1  UNL     1      -0.417   0.146   1.065  1.00  0.00    -0.300 N 
HETATM    3  C6  UNL     1      -0.246  -1.046   2.008  1.00  0.00     0.177 A 
HETATM    4  C13 UNL     1      -0.684   1.373   0.234  1.00  0.00     0.269 A 
HETATM    5  O2  UNL     1      -0.003   1.493  -0.789  1.00  0.00    -0.252 OA
HETATM    6  H10 UNL     1      -1.543   0.618   2.097  1.00  0.00     0.092 HD
ENDROOT
BRANCH   4   7
HETATM    7  N2  UNL     1      -1.682   2.240   0.727  1.00  0.00    -0.313 N 
HETATM    8  H20 UNL     1      -2.301   2.236   1.554  1.00  0.00     0.170 HD
BRANCH   7   9
HETATM    9  C14 UNL     1      -2.201   3.458   0.242  1.00  0.00     0.036 A 
HETATM   10  C15 UNL     1      -1.620   4.664   0.632  1.00  0.00     0.029 A 
HETATM   11  C16 UNL     1      -2.111   5.885   0.157  1.00  0.00     0.002 A 
HETATM   12  C17 UNL     1      -3.183   5.757  -0.697  1.00  0.00     0.000 A 
HETATM   13  C18 UNL     1      -3.828   4.624  -1.142  1.00  0.00     0.002 A 
HETATM   14  C19 UNL     1      -3.292   3.440  -0.634  1.00  0.00     0.029 A 
ENDBRANCH   7   9
ENDBRANCH   4   7
BRANCH   1  15
HETATM   15  C5  UNL     1       1.014  -0.385  -0.294  1.00  0.00    -0.131 C 
BRANCH  15  16
HETATM   16  C4  UNL     1       2.008  -0.734  -1.207  1.00  0.00     0.112 C 
BRANCH  16  17
HETATM   17  C3  UNL     1       3.207   0.146  -0.771  1.00  0.00     0.179 C 
BRANCH  17  18
HETATM   18  O1  UNL     1       3.630  -0.129   0.498  1.00  0.00    -0.391 OA
BRANCH  18  19
HETATM   19  C2  UNL     1       4.058  -1.413   0.728  1.00  0.00     0.163 C 
HETATM   20  C1  UNL     1       5.237  -1.784  -0.158  1.00  0.00     0.033 C 
ENDBRANCH  18  19
ENDBRANCH  17  18
ENDBRANCH  16  17
ENDBRANCH  15  16
ENDBRANCH   1  15
BRANCH   3  21
HETATM   21  C7  UNL     1      -1.234  -2.118   1.674  1.00  0.00     0.060 C 
BRANCH  21  22
HETATM   22  C8  UNL     1      -1.109  -2.760   0.372  1.00  0.00    -0.069 C 
HETATM   23  C9  UNL     1      -2.075  -2.630  -0.493  1.00  0.00     0.004 C 
HETATM   24  C10 UNL     1      -2.153  -3.171  -1.818  1.00  0.00     0.007 C 
HETATM   25  C11 UNL     1      -1.163  -3.892  -2.277  1.00  0.00     0.045 C 
HETATM   26  S1  UNL     1       0.329  -4.281  -1.384  1.00  0.00    -0.137 SA
HETATM   27  C12 UNL     1       0.143  -3.574   0.273  1.00  0.00     0.112 C 
ENDBRANCH  21  22
ENDBRANCH   3  21
TORSDOF 9
