REMARK  3 active torsions:
REMARK  status: ('A' for Active; 'I' for Inactive)
REMARK    1  A    between atoms: C3_3  and  O1_4 
REMARK    2  A    between atoms: C12_15  and  C13_16 
REMARK    3  A    between atoms: C14_17  and  S1_18 
ROOT
HETATM    1  C1  UNL     1       0.122  -2.272  -1.204  1.00  0.00     0.046 C 
HETATM    2  C2  UNL     1      -0.643  -1.415  -0.224  1.00  0.00    -0.054 C 
HETATM    3  C3  UNL     1      -1.946  -1.691  -0.498  1.00  0.00     0.045 C 
HETATM    4  C4  UNL     1      -3.375  -1.354  -0.100  1.00  0.00     0.065 C 
HETATM    5  C5  UNL     1      -3.293  -0.148   0.870  1.00  0.00     0.009 C 
HETATM    6  C6  UNL     1      -2.626   0.973   0.097  1.00  0.00     0.029 C 
HETATM    7  C7  UNL     1      -2.225   2.067   1.010  1.00  0.00     0.201 C 
HETATM    8  O2  UNL     1      -1.372   2.983   0.314  1.00  0.00    -0.276 OA
HETATM    9  N1  UNL     1      -0.091   2.428   0.428  1.00  0.00    -0.235 N 
HETATM   10  C8  UNL     1       0.937   2.484   1.444  1.00  0.00     0.116 C 
HETATM   11  C9  UNL     1       1.590   1.300   1.437  1.00  0.00     0.009 C 
HETATM   12  C10 UNL     1       1.027   0.448   0.289  1.00  0.00     0.067 C 
HETATM   13  C11 UNL     1       0.205  -0.649   0.712  1.00  0.00     0.056 C 
HETATM   14  C12 UNL     1       2.054   0.367  -0.792  1.00  0.00     0.263 C 
HETATM   15  N2  UNL     1       1.938   1.864  -0.798  1.00  0.00     0.119 N 
HETATM   16  C15 UNL     1       0.493   1.560  -0.559  1.00  0.00     0.362 C 
HETATM   17  H21 UNL     1       2.120   2.220  -1.745  1.00  0.00     0.319 HD
ENDROOT
BRANCH  14  18
HETATM   18  C13 UNL     1       3.357  -0.139  -0.361  1.00  0.00     0.016 C 
HETATM   19  C14 UNL     1       4.296  -0.930  -0.869  1.00  0.00     0.040 C 
BRANCH  19  20
HETATM   20  S1  UNL     1       5.868  -1.429  -0.134  1.00  0.00    -0.155 SA
HETATM   21  H20 UNL     1       6.329  -0.278   0.568  1.00  0.00     0.106 HD
ENDBRANCH  19  20
ENDBRANCH  14  18
BRANCH   3  22
HETATM   22  O1  UNL     1      -2.071  -2.622  -1.527  1.00  0.00    -0.365 OA
HETATM   23  H4  UNL     1      -2.391  -3.550  -1.268  1.00  0.00     0.217 HD
ENDBRANCH   3  22
TORSDOF 3
