REMARK  5 active torsions:
REMARK  status: ('A' for Active; 'I' for Inactive)
REMARK    1  A    between atoms: C2_2  and  C3_3 
REMARK    2  A    between atoms: C3_3  and  N1_4 
REMARK    3  A    between atoms: C4_5  and  O1_6 
REMARK    4  A    between atoms: C9_11  and  C10_12 
REMARK       I    between atoms: C10_12  and  N2_14 
REMARK    5  A    between atoms: N2_14  and  C11_15 
ROOT
HETATM    1  N1  UNL     1      -1.900   0.332  -0.057  1.00  0.00    -0.345 N 
HETATM    2  C4  UNL     1      -2.752   1.154  -0.839  1.00  0.00     0.145 A 
HETATM    3  C5  UNL     1      -2.432   2.417  -1.057  1.00  0.00    -0.011 A 
HETATM    4  C6  UNL     1      -3.418   3.173  -1.897  1.00  0.00     0.052 C 
HETATM    5  C7  UNL     1      -1.214   3.006  -0.517  1.00  0.00     0.009 A 
HETATM    6  C8  UNL     1      -0.415   2.244   0.210  1.00  0.00     0.008 A 
HETATM    7  C9  UNL     1      -0.662   0.817   0.525  1.00  0.00     0.202 A 
ENDROOT
BRANCH   7   8
HETATM    8  C10 UNL     1       0.532   0.055   0.010  1.00  0.00     0.248 C 
HETATM    9  O2  UNL     1       0.962  -0.877  -0.751  1.00  0.00    -0.271 OA
HETATM   10  N2  UNL     1       1.730   0.575   0.620  1.00  0.00    -0.325 N 
HETATM   11  H15 UNL     1       1.929   1.348   1.323  1.00  0.00     0.169 HD
BRANCH  10  12
HETATM   12  C11 UNL     1       3.015   0.051   0.325  1.00  0.00     0.040 A 
HETATM   13  C12 UNL     1       3.674   0.652  -0.735  1.00  0.00     0.030 A 
HETATM   14  C13 UNL     1       4.939   0.139  -1.028  1.00  0.00     0.002 A 
HETATM   15  C14 UNL     1       5.458  -0.897  -0.287  1.00  0.00     0.001 A 
HETATM   16  C15 UNL     1       4.774  -1.473   0.763  1.00  0.00     0.009 A 
HETATM   17  C16 UNL     1       3.529  -0.991   1.076  1.00  0.00    -0.035 A 
HETATM   18  C17 UNL     1       2.763  -1.587   2.201  1.00  0.00     0.050 C 
ENDBRANCH  10  12
ENDBRANCH   7   8
BRANCH   1  19
HETATM   19  C3  UNL     1      -1.975  -1.052   0.354  1.00  0.00     0.126 C 
BRANCH  19  20
HETATM   20  C2  UNL     1      -3.204  -1.752  -0.149  1.00  0.00     0.015 C 
HETATM   21  C1  UNL     1      -3.130  -3.183   0.366  1.00  0.00     0.006 C 
ENDBRANCH  19  20
ENDBRANCH   1  19
BRANCH   2  22
HETATM   22  O1  UNL     1      -3.865   0.457  -1.283  1.00  0.00    -0.346 OA
HETATM   23  H8  UNL     1      -4.768   0.903  -1.337  1.00  0.00     0.219 HD
ENDBRANCH   2  22
TORSDOF 5
