REMARK  7 active torsions:
REMARK  status: ('A' for Active; 'I' for Inactive)
REMARK    1  A    between atoms: C2_2  and  C3_3 
REMARK    2  A    between atoms: C3_3  and  N1_4 
REMARK    3  A    between atoms: N1_4  and  C4_5 
REMARK       I    between atoms: N1_4  and  C11_16 
REMARK    4  A    between atoms: C4_5  and  C5_6 
REMARK    5  A    between atoms: C9_11  and  P1_12 
REMARK    6  A    between atoms: C10_14  and  O1_15 
REMARK       I    between atoms: C11_16  and  N2_18 
REMARK    7  A    between atoms: N2_18  and  C12_19 
ROOT
HETATM    1  N1  UNL     1      -0.097   0.961  -0.392  1.00  0.00    -0.330 N 
HETATM    2  C11 UNL     1       1.147   0.322  -0.034  1.00  0.00     0.323 C 
HETATM    3  O2  UNL     1       1.699   1.084   0.806  1.00  0.00    -0.247 OA
HETATM    4  N2  UNL     1       1.780  -0.884  -0.428  1.00  0.00    -0.309 N 
HETATM    5  H14 UNL     1       1.202  -1.376  -1.121  1.00  0.00     0.170 HD
ENDROOT
BRANCH   1   6
HETATM    6  C3  UNL     1      -0.316   2.229   0.262  1.00  0.00     0.127 C 
BRANCH   6   7
HETATM    7  C2  UNL     1       0.267   3.347  -0.583  1.00  0.00     0.015 C 
HETATM    8  C1  UNL     1       0.034   4.679   0.109  1.00  0.00     0.006 C 
ENDBRANCH   6   7
ENDBRANCH   1   6
BRANCH   1   9
HETATM    9  C4  UNL     1      -1.200   0.591  -1.262  1.00  0.00     0.169 C 
BRANCH   9  10
HETATM   10  C5  UNL     1      -2.281  -0.145  -0.600  1.00  0.00    -0.004 A 
HETATM   11  C6  UNL     1      -3.408   0.639  -0.325  1.00  0.00     0.035 A 
HETATM   12  C7  UNL     1      -4.542   0.157   0.296  1.00  0.00     0.035 A 
HETATM   13 CL1  UNL     1      -5.932   1.171   0.623  1.00  0.00    -0.084 Cl
HETATM   14  C8  UNL     1      -4.612  -1.141   0.679  1.00  0.00     0.040 A 
HETATM   15  C9  UNL     1      -3.521  -1.938   0.422  1.00  0.00     0.017 A 
HETATM   16  C10 UNL     1      -2.394  -1.451  -0.197  1.00  0.00     0.085 A 
BRANCH  15  17
HETATM   17  P1  UNL     1      -3.479  -3.703   0.883  1.00  0.00     0.009 P 
HETATM   18 CL2  UNL     1      -3.398  -4.984  -0.781  1.00  0.00    -0.094 Cl
HETATM   19  H12 UNL     1      -4.508  -4.039   1.828  1.00  0.00     0.079 HD
ENDBRANCH  15  17
BRANCH  16  20
HETATM   20  O1  UNL     1      -1.278  -2.227  -0.470  1.00  0.00    -0.359 OA
HETATM   21  H13 UNL     1      -1.448  -3.222  -0.554  1.00  0.00     0.217 HD
ENDBRANCH  16  20
ENDBRANCH   9  10
ENDBRANCH   1   9
BRANCH   4  22
HETATM   22  C12 UNL     1       3.027  -1.170   0.168  1.00  0.00     0.036 A 
HETATM   23  C13 UNL     1       2.905  -1.904   1.351  1.00  0.00     0.029 A 
HETATM   24  C14 UNL     1       4.023  -2.271   2.066  1.00  0.00     0.002 A 
HETATM   25  C15 UNL     1       5.264  -1.912   1.612  1.00  0.00     0.000 A 
HETATM   26  C16 UNL     1       5.406  -1.186   0.444  1.00  0.00     0.002 A 
HETATM   27  C17 UNL     1       4.285  -0.818  -0.273  1.00  0.00     0.029 A 
ENDBRANCH   4  22
TORSDOF 7
