REMARK  6 active torsions:
REMARK  status: ('A' for Active; 'I' for Inactive)
REMARK    1  A    between atoms: C2_2  and  C3_3 
REMARK    2  A    between atoms: C3_3  and  C4_4 
REMARK    3  A    between atoms: C4_4  and  N1_5 
REMARK    4  A    between atoms: N1_5  and  C5_6 
REMARK       I    between atoms: N1_5  and  C13_14 
REMARK    5  A    between atoms: C5_6  and  C6_7 
REMARK       I    between atoms: C13_14  and  N2_16 
REMARK    6  A    between atoms: N2_16  and  C14_17 
ROOT
HETATM    1  N1  UNL     1       0.155   0.250  -0.615  1.00  0.00    -0.330 N 
HETATM    2  C13 UNL     1       1.314  -0.574  -0.418  1.00  0.00     0.323 C 
HETATM    3  O1  UNL     1       1.610  -1.725  -0.881  1.00  0.00    -0.247 OA
HETATM    4  N2  UNL     1       2.379  -0.130   0.416  1.00  0.00    -0.309 N 
HETATM    5  H19 UNL     1       2.355   0.809   0.914  1.00  0.00     0.170 HD
ENDROOT
BRANCH   1   6
HETATM    6  C4  UNL     1       0.017   1.546   0.014  1.00  0.00     0.128 C 
BRANCH   6   7
HETATM    7  C3  UNL     1       0.590   2.660  -0.869  1.00  0.00     0.020 C 
BRANCH   7   8
HETATM    8  C2  UNL     1       0.401   3.978  -0.131  1.00  0.00    -0.003 C 
HETATM    9  C1  UNL     1      -1.083   4.221   0.125  1.00  0.00     0.005 C 
ENDBRANCH   7   8
ENDBRANCH   6   7
ENDBRANCH   1   6
BRANCH   1  10
HETATM   10  C5  UNL     1      -0.873  -0.283  -1.477  1.00  0.00     0.166 C 
BRANCH  10  11
HETATM   11  C6  UNL     1      -1.825  -1.059  -0.648  1.00  0.00    -0.040 A 
HETATM   12  C7  UNL     1      -1.690  -2.401  -0.385  1.00  0.00     0.009 A 
HETATM   13  C8  UNL     1      -2.560  -3.147   0.382  1.00  0.00     0.001 A 
HETATM   14  C9  UNL     1      -3.653  -2.517   0.935  1.00  0.00     0.007 A 
HETATM   15  C10 UNL     1      -3.865  -1.154   0.717  1.00  0.00    -0.061 A 
HETATM   16  C11 UNL     1      -5.038  -0.467   1.307  1.00  0.00     0.048 C 
HETATM   17  C12 UNL     1      -2.945  -0.486  -0.063  1.00  0.00     0.015 A 
ENDBRANCH  10  11
ENDBRANCH   1  10
BRANCH   4  18
HETATM   18  C14 UNL     1       3.478  -1.025   0.541  1.00  0.00     0.034 C 
HETATM   19  C15 UNL     1       4.567  -1.001  -0.306  1.00  0.00     0.014 C 
HETATM   20  C16 UNL     1       5.717  -1.745  -0.383  1.00  0.00    -0.079 C 
HETATM   21  B1  UNL     1       5.400  -3.366   0.304  1.00  0.00     0.197 B 
HETATM   22  C17 UNL     1       4.336  -2.943   1.938  1.00  0.00    -0.079 C 
HETATM   23  C18 UNL     1       3.456  -1.959   1.552  1.00  0.00     0.014 C 
ENDBRANCH   4  18
TORSDOF 6
