REMARK  9 active torsions:
REMARK  status: ('A' for Active; 'I' for Inactive)
REMARK    1  A    between atoms: C4_4  and  C5_5 
REMARK    2  A    between atoms: C5_5  and  N1_6 
REMARK    3  A    between atoms: N1_6  and  C6_7 
REMARK    4  A    between atoms: C6_7  and  N2_9 
REMARK    5  A    between atoms: N2_9  and  C8_10 
REMARK    6  A    between atoms: N2_9  and  C11_13 
REMARK    7  A    between atoms: C8_10  and  C9_11 
REMARK    8  A    between atoms: C11_13  and  C12_14 
REMARK    9  A    between atoms: C17_21  and  O1_22 
ROOT
HETATM    1  C1  UNL     1       4.315  -1.853  -2.318  1.00  0.00     0.017 C 
HETATM    2  C2  UNL     1       4.443  -1.690  -1.113  1.00  0.00    -0.090 C 
HETATM    3  C3  UNL     1       4.598  -1.487   0.298  1.00  0.00     0.061 C 
HETATM    4  C4  UNL     1       4.085  -0.357   0.761  1.00  0.00     0.011 C 
ENDROOT
BRANCH   4   5
HETATM    5  C5  UNL     1       3.426   0.571  -0.143  1.00  0.00     0.300 C 
BRANCH   5   6
HETATM    6  N1  UNL     1       2.052   0.884   0.135  1.00  0.00     0.120 N 
HETATM    7  H6  UNL     1       1.788   1.591  -0.617  1.00  0.00     0.319 HD
BRANCH   6   8
HETATM    8  C6  UNL     1       1.176  -0.223  -0.073  1.00  0.00     0.450 C 
HETATM    9  C7  UNL     1       1.358  -1.408   0.792  1.00  0.00     0.077 C 
BRANCH   8  10
HETATM   10  N2  UNL     1      -0.228   0.194  -0.107  1.00  0.00     0.126 N 
BRANCH  10  11
HETATM   11  C8  UNL     1      -0.721   0.493   1.186  1.00  0.00     0.275 C 
BRANCH  11  12
HETATM   12  C9  UNL     1      -0.151   1.703   1.844  1.00  0.00     0.026 C 
HETATM   13  C10 UNL     1      -0.840   1.809   3.207  1.00  0.00     0.007 C 
ENDBRANCH  11  12
ENDBRANCH  10  11
BRANCH  10  14
HETATM   14  C11 UNL     1      -0.936  -0.786  -0.836  1.00  0.00     0.317 C 
BRANCH  14  15
HETATM   15  C12 UNL     1      -2.379  -0.505  -1.027  1.00  0.00     0.006 A 
HETATM   16  C13 UNL     1      -3.462  -1.076  -0.366  1.00  0.00     0.035 A 
HETATM   17  C14 UNL     1      -4.748  -0.681  -0.684  1.00  0.00     0.036 A 
HETATM   18 CL1  UNL     1      -5.976  -1.517   0.258  1.00  0.00    -0.084 Cl
HETATM   19  C15 UNL     1      -5.006   0.279  -1.651  1.00  0.00     0.050 A 
HETATM   20  C16 UNL     1      -3.940   0.851  -2.312  1.00  0.00     0.069 A 
HETATM   21 CL2  UNL     1      -4.281   2.057  -3.530  1.00  0.00    -0.081 Cl
HETATM   22  C17 UNL     1      -2.656   0.461  -2.000  1.00  0.00     0.095 A 
BRANCH  22  23
HETATM   23  O1  UNL     1      -1.650   1.093  -2.718  1.00  0.00    -0.358 OA
HETATM   24  H22 UNL     1      -1.393   2.019  -2.341  1.00  0.00     0.217 HD
ENDBRANCH  22  23
ENDBRANCH  14  15
ENDBRANCH  10  14
ENDBRANCH   8  10
ENDBRANCH   6   8
ENDBRANCH   5   6
ENDBRANCH   4   5
TORSDOF 9
