REMARK  7 active torsions:
REMARK  status: ('A' for Active; 'I' for Inactive)
REMARK    1  A    between atoms: C2_2  and  C3_3 
REMARK    2  A    between atoms: C3_3  and  C4_4 
REMARK    3  A    between atoms: C4_4  and  N1_5 
REMARK    4  A    between atoms: N1_5  and  C5_6 
REMARK       I    between atoms: N1_5  and  C12_16 
REMARK    5  A    between atoms: C5_6  and  C6_7 
REMARK    6  A    between atoms: C11_14  and  O1_15 
REMARK       I    between atoms: C12_16  and  N2_18 
REMARK    7  A    between atoms: N2_18  and  C13_19 
ROOT
HETATM    1  N1  UNL     1       0.108   0.159  -1.200  1.00  0.00    -0.330 N 
HETATM    2  C12 UNL     1      -1.180  -0.445  -1.147  1.00  0.00     0.323 C 
HETATM    3  O2  UNL     1      -1.984   0.519  -0.890  1.00  0.00    -0.247 OA
HETATM    4  N2  UNL     1      -1.688  -1.736  -1.303  1.00  0.00    -0.309 N 
HETATM    5  H15 UNL     1      -0.911  -2.396  -1.518  1.00  0.00     0.170 HD
ENDROOT
BRANCH   1   6
HETATM    6  C4  UNL     1      -0.039   1.601  -0.980  1.00  0.00     0.128 C 
BRANCH   6   7
HETATM    7  C3  UNL     1       0.002   1.979   0.475  1.00  0.00     0.020 C 
BRANCH   7   8
HETATM    8  C2  UNL     1      -0.161   3.495   0.558  1.00  0.00    -0.003 C 
HETATM    9  C1  UNL     1      -0.134   3.980   1.977  1.00  0.00     0.005 C 
ENDBRANCH   7   8
ENDBRANCH   6   7
ENDBRANCH   1   6
BRANCH   1  10
HETATM   10  C5  UNL     1       1.449  -0.329  -1.415  1.00  0.00     0.169 C 
BRANCH  10  11
HETATM   11  C6  UNL     1       2.193  -0.714  -0.204  1.00  0.00    -0.004 A 
HETATM   12  C7  UNL     1       3.193   0.173   0.224  1.00  0.00     0.035 A 
HETATM   13  C8  UNL     1       3.999  -0.011   1.320  1.00  0.00     0.036 A 
HETATM   14 CL1  UNL     1       5.217   1.143   1.780  1.00  0.00    -0.084 Cl
HETATM   15  C9  UNL     1       3.818  -1.161   2.070  1.00  0.00     0.050 A 
HETATM   16  C10 UNL     1       2.853  -2.063   1.696  1.00  0.00     0.069 A 
HETATM   17 CL2  UNL     1       2.580  -3.539   2.611  1.00  0.00    -0.081 Cl
HETATM   18  C11 UNL     1       2.075  -1.826   0.588  1.00  0.00     0.095 A 
BRANCH  18  19
HETATM   19  O1  UNL     1       1.120  -2.733   0.229  1.00  0.00    -0.358 OA
HETATM   20  H14 UNL     1       1.225  -3.189  -0.686  1.00  0.00     0.217 HD
ENDBRANCH  18  19
ENDBRANCH  10  11
ENDBRANCH   1  10
BRANCH   4  21
HETATM   21  C13 UNL     1      -3.030  -2.100  -1.199  1.00  0.00     0.037 A 
HETATM   22  C14 UNL     1      -4.079  -1.375  -0.948  1.00  0.00     0.030 A 
HETATM   23  C15 UNL     1      -5.272  -2.229  -0.945  1.00  0.00     0.014 A 
HETATM   24  C16 UNL     1      -4.809  -3.448  -1.170  1.00  0.00    -0.024 A 
HETATM   25  C17 UNL     1      -3.501  -3.468  -1.373  1.00  0.00     0.042 A 
ENDBRANCH   4  21
TORSDOF 7
