REMARK  10 active torsions:
REMARK  status: ('A' for Active; 'I' for Inactive)
REMARK    1  A    between atoms: C2_2  and  C3_3 
REMARK    2  A    between atoms: C3_3  and  C4_4 
REMARK    3  A    between atoms: C4_4  and  N1_5 
REMARK    4  A    between atoms: N1_5  and  C5_6 
REMARK       I    between atoms: N1_5  and  C11_15 
REMARK    5  A    between atoms: C5_6  and  C6_7 
REMARK    6  A    between atoms: C6_7  and  C10_13 
REMARK    7  A    between atoms: C7_8  and  C8_9 
REMARK    8  A    between atoms: C8_9  and  C9_11 
REMARK    9  A    between atoms: C10_13  and  O1_14 
REMARK       I    between atoms: C11_15  and  N2_17 
REMARK   10  A    between atoms: N2_17  and  C12_18 
ROOT
HETATM    1  N1  UNL     1      -0.115   0.526   0.167  1.00  0.00    -0.330 N 
HETATM    2  C11 UNL     1       1.124  -0.090  -0.144  1.00  0.00     0.323 C 
HETATM    3  O2  UNL     1       1.524   0.472  -1.185  1.00  0.00    -0.247 OA
HETATM    4  N2  UNL     1       1.878  -1.111   0.469  1.00  0.00    -0.309 N 
HETATM    5  H19 UNL     1       1.389  -1.452   1.315  1.00  0.00     0.170 HD
ENDROOT
BRANCH   1   6
HETATM    6  C4  UNL     1      -0.426   1.566  -0.825  1.00  0.00     0.128 C 
BRANCH   6   7
HETATM    7  C3  UNL     1       0.139   2.892  -0.387  1.00  0.00     0.020 C 
BRANCH   7   8
HETATM    8  C2  UNL     1      -0.170   3.966  -1.389  1.00  0.00    -0.003 C 
HETATM    9  C1  UNL     1       0.431   5.249  -0.870  1.00  0.00     0.005 C 
ENDBRANCH   7   8
ENDBRANCH   6   7
ENDBRANCH   1   6
BRANCH   1  10
HETATM   10  C5  UNL     1      -1.070   0.329   1.206  1.00  0.00     0.163 C 
BRANCH  10  11
HETATM   11  C6  UNL     1      -2.160  -0.640   0.902  1.00  0.00    -0.041 C 
HETATM   12  C7  UNL     1      -3.466  -0.279   0.914  1.00  0.00     0.001 C 
BRANCH  12  13
HETATM   13  C8  UNL     1      -4.771  -0.951   0.671  1.00  0.00     0.119 C 
HETATM   14 CL1  UNL     1      -4.918  -2.477   1.545  1.00  0.00    -0.120 Cl
BRANCH  13  15
HETATM   15  C9  UNL     1      -4.984  -1.098  -0.806  1.00  0.00     0.138 C 
HETATM   16 CL2  UNL     1      -6.559  -1.911  -1.113  1.00  0.00    -0.129 Cl
ENDBRANCH  13  15
ENDBRANCH  12  13
BRANCH  11  17
HETATM   17  C10 UNL     1      -1.474  -1.908   0.629  1.00  0.00     0.200 C 
BRANCH  17  18
HETATM   18  O1  UNL     1      -2.424  -2.879   0.334  1.00  0.00    -0.397 OA
HETATM   19  H18 UNL     1      -1.985  -3.776   0.213  1.00  0.00     0.209 HD
ENDBRANCH  17  18
ENDBRANCH  11  17
ENDBRANCH  10  11
ENDBRANCH   1  10
BRANCH   4  20
HETATM   20  C12 UNL     1       3.115  -1.643   0.058  1.00  0.00     0.036 A 
HETATM   21  C13 UNL     1       3.862  -1.284  -1.034  1.00  0.00     0.029 A 
HETATM   22  C14 UNL     1       5.070  -1.843  -1.386  1.00  0.00     0.002 A 
HETATM   23  C15 UNL     1       5.576  -2.841  -0.588  1.00  0.00     0.000 A 
HETATM   24  C16 UNL     1       4.861  -3.234   0.518  1.00  0.00     0.002 A 
HETATM   25  C17 UNL     1       3.657  -2.644   0.829  1.00  0.00     0.029 A 
ENDBRANCH   4  20
TORSDOF 10
