REMARK  2 active torsions:
REMARK  status: ('A' for Active; 'I' for Inactive)
REMARK       I    between atoms: C1_2  and  N1_3 
REMARK       I    between atoms: C1_2  and  N2_10 
REMARK    1  A    between atoms: N1_3  and  C2_4 
REMARK    2  A    between atoms: C16_20  and  O2_21 
ROOT
HETATM    1  O1  UNL     1      -1.390  -1.332  -1.019  1.00  0.00    -0.247 OA
HETATM    2  C1  UNL     1      -1.011  -0.155  -1.013  1.00  0.00     0.323 C 
HETATM    3  N1  UNL     1      -1.688   0.729  -0.145  1.00  0.00    -0.309 N 
HETATM    4  N2  UNL     1       0.096   0.034  -1.948  1.00  0.00    -0.332 N 
HETATM    5  C8  UNL     1       0.214  -1.290  -2.367  1.00  0.00     0.127 C 
HETATM    6  C9  UNL     1       0.977  -2.321  -1.609  1.00  0.00     0.020 C 
HETATM    7  C10 UNL     1       2.439  -2.127  -1.419  1.00  0.00     0.007 C 
HETATM    8  C11 UNL     1       2.975  -1.233  -0.441  1.00  0.00     0.030 C 
HETATM    9  C12 UNL     1       3.824  -1.221   0.643  1.00  0.00     0.020 C 
HETATM   10  C13 UNL     1       3.951   0.134   1.244  1.00  0.00     0.009 C 
HETATM   11 CL1  UNL     1       4.978   0.644   2.574  1.00  0.00    -0.089 Cl
HETATM   12  C14 UNL     1       3.220   1.172   0.764  1.00  0.00     0.001 C 
HETATM   13  C15 UNL     1       2.297   2.022   0.022  1.00  0.00     0.128 C 
HETATM   14  C16 UNL     1       1.379   1.873  -0.915  1.00  0.00     0.064 C 
HETATM   15  C17 UNL     1       0.397   1.454  -1.943  1.00  0.00     0.160 C 
HETATM   16  H1  UNL     1      -1.301   1.692  -0.181  1.00  0.00     0.170 HD
ENDROOT
BRANCH   3  17
HETATM   17  C2  UNL     1      -2.757   0.468   0.729  1.00  0.00     0.036 A 
HETATM   18  C3  UNL     1      -3.412  -0.719   0.957  1.00  0.00     0.029 A 
HETATM   19  C4  UNL     1      -4.443  -0.896   1.821  1.00  0.00     0.002 A 
HETATM   20  C5  UNL     1      -4.865   0.196   2.523  1.00  0.00     0.000 A 
HETATM   21  C6  UNL     1      -4.278   1.409   2.362  1.00  0.00     0.002 A 
HETATM   22  C7  UNL     1      -3.237   1.532   1.473  1.00  0.00     0.029 A 
ENDBRANCH   3  17
BRANCH  14  23
HETATM   23  O2  UNL     1       1.358   3.276  -0.699  1.00  0.00    -0.393 OA
HETATM   24  H17 UNL     1       0.451   3.688  -0.526  1.00  0.00     0.210 HD
ENDBRANCH  14  23
TORSDOF 2
