REMARK  9 active torsions:
REMARK  status: ('A' for Active; 'I' for Inactive)
REMARK    1  A    between atoms: C2_2  and  C3_3 
REMARK    2  A    between atoms: C3_3  and  C4_4 
REMARK    3  A    between atoms: C4_4  and  N1_5 
REMARK    4  A    between atoms: N1_5  and  C5_6 
REMARK    5  A    between atoms: N1_5  and  N2_16 
REMARK    6  A    between atoms: C5_6  and  C6_7 
REMARK    7  A    between atoms: C11_14  and  O1_15 
REMARK    8  A    between atoms: N2_16  and  O2_17 
REMARK    9  A    between atoms: N2_16  and  C13_19 
ROOT
HETATM    1  N1  UNL     1      -0.052   0.517   0.587  1.00  0.00    -0.301 N 
ENDROOT
BRANCH   1   2
HETATM    2  C4  UNL     1      -0.912   1.445   1.178  1.00  0.00     0.145 C 
BRANCH   2   3
HETATM    3  C3  UNL     1      -1.932   2.206   0.462  1.00  0.00     0.021 C 
BRANCH   3   4
HETATM    4  C2  UNL     1      -1.448   3.148  -0.595  1.00  0.00    -0.003 C 
HETATM    5  C1  UNL     1      -2.638   3.889  -1.217  1.00  0.00     0.005 C 
ENDBRANCH   3   4
ENDBRANCH   2   3
ENDBRANCH   1   2
BRANCH   1   6
HETATM    6  C5  UNL     1       0.945   0.918  -0.329  1.00  0.00     0.156 C 
BRANCH   6   7
HETATM    7  C6  UNL     1       1.961  -0.221  -0.414  1.00  0.00     0.068 A 
HETATM    8  C7  UNL     1       3.058   0.050  -1.364  1.00  0.00     0.064 A 
HETATM    9  C8  UNL     1       4.380  -0.011  -0.724  1.00  0.00     0.014 A 
HETATM   10 CL1  UNL     1       5.651   0.306  -1.923  1.00  0.00    -0.089 Cl
HETATM   11  C9  UNL     1       4.827  -0.241   0.497  1.00  0.00     0.046 A 
HETATM   12  C10 UNL     1       3.765  -0.499   1.447  1.00  0.00     0.064 A 
HETATM   13 CL2  UNL     1       4.093  -0.820   3.107  1.00  0.00    -0.082 Cl
HETATM   14  C11 UNL     1       2.540  -0.469   0.954  1.00  0.00     0.071 A 
BRANCH  14  15
HETATM   15  O1  UNL     1       1.540  -0.715   1.885  1.00  0.00    -0.363 OA
HETATM   16  H16 UNL     1       1.344  -0.139   2.668  1.00  0.00     0.217 HD
ENDBRANCH  14  15
ENDBRANCH   6   7
ENDBRANCH   1   6
BRANCH   1  17
HETATM   17  N2  UNL     1      -0.749  -0.637   0.149  1.00  0.00    -0.168 N 
BRANCH  17  18
HETATM   18  O2  UNL     1      -1.142  -0.316  -1.102  1.00  0.00    -0.263 OA
HETATM   19  C12 UNL     1      -1.159  -1.362  -1.990  1.00  0.00     0.240 C 
ENDBRANCH  17  18
BRANCH  17  20
HETATM   20  C13 UNL     1      -1.145  -1.930   0.577  1.00  0.00     0.062 A 
HETATM   21  C14 UNL     1      -0.475  -3.026   0.893  1.00  0.00     0.029 A 
HETATM   22  C15 UNL     1      -1.474  -4.018   1.255  1.00  0.00    -0.002 A 
HETATM   23  C16 UNL     1      -2.702  -3.535   1.158  1.00  0.00    -0.021 A 
HETATM   24  C17 UNL     1      -2.639  -2.122   0.706  1.00  0.00     0.088 A 
ENDBRANCH  17  20
ENDBRANCH   1  17
TORSDOF 9
