REMARK  7 active torsions:
REMARK  status: ('A' for Active; 'I' for Inactive)
REMARK    1  A    between atoms: C2_2  and  C3_3 
REMARK    2  A    between atoms: C3_3  and  C4_4 
REMARK    3  A    between atoms: C4_4  and  N1_5 
REMARK    4  A    between atoms: N1_5  and  C5_6 
REMARK       I    between atoms: N1_5  and  C11_16 
REMARK    5  A    between atoms: C5_6  and  C6_7 
REMARK    6  A    between atoms: C10_14  and  O1_15 
REMARK       I    between atoms: C11_16  and  N2_18 
REMARK    7  A    between atoms: N2_18  and  C12_19 
ROOT
HETATM    1  N1  UNL     1      -0.320   0.489   0.153  1.00  0.00    -0.333 N 
HETATM    2  C11 UNL     1       1.075   0.312   0.000  1.00  0.00     0.322 C 
HETATM    3  O2  UNL     1       1.671   1.263  -0.539  1.00  0.00    -0.247 OA
HETATM    4  N2  UNL     1       1.814  -0.828   0.402  1.00  0.00    -0.309 N 
HETATM    5  H16 UNL     1       1.186  -1.537   0.834  1.00  0.00     0.170 HD
ENDROOT
BRANCH   1   6
HETATM    6  C4  UNL     1      -0.796   1.755  -0.354  1.00  0.00     0.127 C 
BRANCH   6   7
HETATM    7  C3  UNL     1      -0.754   2.828   0.736  1.00  0.00     0.020 C 
BRANCH   7   8
HETATM    8  C2  UNL     1      -1.263   4.131   0.147  1.00  0.00    -0.003 C 
HETATM    9  C1  UNL     1      -0.423   4.582  -1.011  1.00  0.00     0.005 C 
ENDBRANCH   7   8
ENDBRANCH   6   7
ENDBRANCH   1   6
BRANCH   1  10
HETATM   10  C5  UNL     1      -1.202  -0.478   0.757  1.00  0.00     0.143 C 
BRANCH  10  11
HETATM   11  C6  UNL     1      -1.778  -1.474  -0.197  1.00  0.00     0.093 A 
HETATM   12  P1  UNL     1      -2.784  -0.675  -1.539  1.00  0.00    -0.070 P 
HETATM   13  C7  UNL     1      -4.463  -1.393  -1.404  1.00  0.00     0.037 A 
HETATM   14  H13 UNL     1      -2.174  -0.910  -2.821  1.00  0.00     0.064 HD
HETATM   15 CL1  UNL     1      -5.487  -0.695  -2.637  1.00  0.00    -0.084 Cl
HETATM   16  C8  UNL     1      -4.894  -2.288  -0.546  1.00  0.00     0.050 A 
HETATM   17  C9  UNL     1      -3.940  -2.792   0.433  1.00  0.00     0.065 A 
HETATM   18 CL2  UNL     1      -4.535  -3.986   1.569  1.00  0.00    -0.082 Cl
HETATM   19  C10 UNL     1      -2.675  -2.415   0.522  1.00  0.00     0.075 A 
BRANCH  19  20
HETATM   20  O1  UNL     1      -1.868  -2.991   1.523  1.00  0.00    -0.362 OA
HETATM   21  H15 UNL     1      -2.020  -2.835   2.500  1.00  0.00     0.217 HD
ENDBRANCH  19  20
ENDBRANCH  10  11
ENDBRANCH   1  10
BRANCH   4  22
HETATM   22  C12 UNL     1       3.199  -1.100   0.295  1.00  0.00     0.036 A 
HETATM   23  C13 UNL     1       3.680  -2.284   0.760  1.00  0.00     0.029 A 
HETATM   24  C14 UNL     1       4.996  -2.627   0.697  1.00  0.00     0.002 A 
HETATM   25  C15 UNL     1       5.919  -1.787   0.155  1.00  0.00     0.000 A 
HETATM   26  C16 UNL     1       5.480  -0.574  -0.331  1.00  0.00     0.002 A 
HETATM   27  C17 UNL     1       4.155  -0.275  -0.246  1.00  0.00     0.029 A 
ENDBRANCH   4  22
TORSDOF 7
