REMARK  2 active torsions:
REMARK  status: ('A' for Active; 'I' for Inactive)
REMARK    1  A    between atoms: O1_2  and  C2_3 
REMARK    2  A    between atoms: C10_14  and  N3_15 
ROOT
HETATM    1  C2  UNL     1       4.403  -0.774   0.190  1.00  0.00     0.070 A 
HETATM    2  C3  UNL     1       4.163   0.582   0.209  1.00  0.00     0.037 A 
HETATM    3  C4  UNL     1       2.872   1.068   0.184  1.00  0.00     0.014 A 
HETATM    4  C5  UNL     1       1.758   0.254   0.140  1.00  0.00    -0.006 A 
HETATM    5  C6  UNL     1       2.007  -1.101   0.122  1.00  0.00     0.088 A 
HETATM    6  C7  UNL     1       3.291  -1.605   0.146  1.00  0.00     0.074 A 
HETATM    7  O2  UNL     1       1.057  -2.107   0.078  1.00  0.00    -0.289 OA
HETATM    8  C8  UNL     1      -0.321  -1.982   0.142  1.00  0.00     0.202 A 
HETATM    9  N1  UNL     1      -0.961  -3.162   0.374  1.00  0.00    -0.215 NA
HETATM   10  C9  UNL     1      -2.323  -3.130   0.453  1.00  0.00     0.238 A 
HETATM   11  N2  UNL     1      -3.088  -2.023   0.319  1.00  0.00    -0.222 NA
HETATM   12  C10 UNL     1      -2.465  -0.843   0.089  1.00  0.00     0.162 A 
HETATM   13  C16 UNL     1      -1.089  -0.822  -0.000  1.00  0.00     0.129 A 
HETATM   14  N4  UNL     1      -0.630   0.505  -0.268  1.00  0.00    -0.379 N 
HETATM   15  C17 UNL     1       0.595   1.136   0.126  1.00  0.00     0.161 C 
HETATM   16  H13 UNL     1      -1.374   1.000  -0.850  1.00  0.00     0.160 HD
ENDROOT
BRANCH  12  17
HETATM   17  N3  UNL     1      -3.304   0.295  -0.014  1.00  0.00    -0.335 N 
HETATM   18  C11 UNL     1      -4.066   0.238  -1.239  1.00  0.00     0.116 A 
HETATM   19  C12 UNL     1      -4.917   1.183  -1.615  1.00  0.00     0.049 A 
HETATM   20 CL1  UNL     1      -5.858   1.145  -3.097  1.00  0.00    -0.083 Cl
HETATM   21  C13 UNL     1      -5.138   2.363  -0.775  1.00  0.00     0.023 A 
HETATM   22  C14 UNL     1      -4.439   2.388   0.343  1.00  0.00    -0.005 A 
HETATM   23  C15 UNL     1      -3.465   1.417   0.891  1.00  0.00     0.157 A 
ENDBRANCH  12  17
BRANCH   1  24
HETATM   24  O1  UNL     1       5.622  -1.434   0.210  1.00  0.00    -0.356 OA
HETATM   25  C1  UNL     1       6.881  -0.835   0.254  1.00  0.00     0.210 C 
ENDBRANCH   1  24
TORSDOF 2
