REMARK  7 active torsions:
REMARK  status: ('A' for Active; 'I' for Inactive)
REMARK    1  A    between atoms: N1_2  and  C2_3 
REMARK    2  A    between atoms: N1_2  and  C11_14 
REMARK    3  A    between atoms: C2_3  and  C3_4 
REMARK    4  A    between atoms: C3_4  and  C4_5 
REMARK       I    between atoms: C4_5  and  N2_7 
REMARK    5  A    between atoms: N2_7  and  C5_8 
REMARK    6  A    between atoms: C11_14  and  C12_15 
REMARK    7  A    between atoms: C17_22  and  O2_23 
ROOT
HETATM    1  C1  UNL     1      -1.785   0.162  -1.651  1.00  0.00     0.310 C 
HETATM    2  N1  UNL     1      -1.582   0.136  -0.240  1.00  0.00     0.088 N 
ENDROOT
BRANCH   2   3
HETATM    3  C2  UNL     1      -0.210  -0.213   0.101  1.00  0.00     0.281 C 
BRANCH   3   4
HETATM    4  C3  UNL     1       0.738   0.901  -0.285  1.00  0.00     0.133 C 
BRANCH   4   5
HETATM    5  C4  UNL     1       2.109   0.486   0.038  1.00  0.00     0.223 C 
HETATM    6  O1  UNL     1       2.078  -0.723   0.454  1.00  0.00    -0.273 OA
HETATM    7  N2  UNL     1       3.346   1.152  -0.036  1.00  0.00    -0.327 N 
HETATM    8  H8  UNL     1       3.157   2.123  -0.389  1.00  0.00     0.169 HD
BRANCH   7   9
HETATM    9  C5  UNL     1       4.633   0.714   0.271  1.00  0.00     0.034 A 
HETATM   10  C6  UNL     1       5.659   1.617   0.135  1.00  0.00     0.029 A 
HETATM   11  C7  UNL     1       6.969   1.228   0.414  1.00  0.00     0.002 A 
HETATM   12  C8  UNL     1       7.290  -0.044   0.828  1.00  0.00     0.000 A 
HETATM   13  C9  UNL     1       6.266  -0.989   0.977  1.00  0.00     0.002 A 
HETATM   14  C10 UNL     1       4.971  -0.542   0.683  1.00  0.00     0.029 A 
ENDBRANCH   7   9
ENDBRANCH   4   5
ENDBRANCH   3   4
ENDBRANCH   2   3
BRANCH   2  15
HETATM   15  C11 UNL     1      -2.460  -0.737   0.469  1.00  0.00     0.313 C 
BRANCH  15  16
HETATM   16  C12 UNL     1      -3.890  -0.569   0.219  1.00  0.00     0.006 A 
HETATM   17  C13 UNL     1      -4.622   0.253   1.054  1.00  0.00     0.030 A 
HETATM   18  C14 UNL     1      -5.964   0.503   0.863  1.00  0.00     0.013 A 
HETATM   19 BR1  UNL     1      -6.988   1.649   2.022  1.00  0.00    -0.051 Br
HETATM   20  C15 UNL     1      -6.672  -0.069  -0.200  1.00  0.00     0.041 A 
HETATM   21  C16 UNL     1      -5.910  -0.896  -1.028  1.00  0.00     0.045 A 
HETATM   22 BR2  UNL     1      -6.800  -1.722  -2.505  1.00  0.00    -0.048 Br
HETATM   23  C17 UNL     1      -4.570  -1.156  -0.850  1.00  0.00     0.091 A 
BRANCH  23  24
HETATM   24  O2  UNL     1      -3.917  -1.998  -1.733  1.00  0.00    -0.359 OA
HETATM   25  H18 UNL     1      -3.399  -2.830  -1.472  1.00  0.00     0.217 HD
ENDBRANCH  23  24
ENDBRANCH  15  16
ENDBRANCH   2  15
TORSDOF 7
