REMARK  7 active torsions:
REMARK  status: ('A' for Active; 'I' for Inactive)
REMARK    1  A    between atoms: C2_2  and  C3_3 
REMARK    2  A    between atoms: C3_3  and  C4_4 
REMARK    3  A    between atoms: C4_4  and  N1_5 
REMARK    4  A    between atoms: N1_5  and  C5_6 
REMARK       I    between atoms: N1_5  and  C12_16 
REMARK    5  A    between atoms: C5_6  and  C6_7 
REMARK    6  A    between atoms: C11_14  and  O1_15 
REMARK       I    between atoms: C12_16  and  N2_18 
REMARK    7  A    between atoms: N2_18  and  C13_19 
ROOT
HETATM    1  N1  UNL     1      -0.553   0.490   0.349  1.00  0.00    -0.330 N 
HETATM    2  C12 UNL     1       0.710  -0.162   0.468  1.00  0.00     0.322 C 
HETATM    3  O2  UNL     1       1.605   0.542  -0.059  1.00  0.00    -0.247 OA
HETATM    4  N2  UNL     1       0.983  -1.407   1.075  1.00  0.00    -0.316 N 
HETATM    5  H15 UNL     1       0.083  -1.783   1.431  1.00  0.00     0.170 HD
ENDROOT
BRANCH   1   6
HETATM    6  C4  UNL     1      -0.578   1.755  -0.312  1.00  0.00     0.128 C 
BRANCH   6   7
HETATM    7  C3  UNL     1      -0.384   2.951   0.549  1.00  0.00     0.020 C 
BRANCH   7   8
HETATM    8  C2  UNL     1      -0.445   4.179  -0.338  1.00  0.00    -0.003 C 
HETATM    9  C1  UNL     1      -1.737   4.340  -1.067  1.00  0.00     0.005 C 
ENDBRANCH   7   8
ENDBRANCH   6   7
ENDBRANCH   1   6
BRANCH   1  10
HETATM   10  C5  UNL     1      -1.792  -0.052   0.853  1.00  0.00     0.169 C 
BRANCH  10  11
HETATM   11  C6  UNL     1      -2.506  -0.901  -0.140  1.00  0.00    -0.004 A 
HETATM   12  C7  UNL     1      -2.006  -1.129  -1.413  1.00  0.00     0.030 A 
HETATM   13  C8  UNL     1      -2.731  -1.931  -2.275  1.00  0.00     0.013 A 
HETATM   14 BR1  UNL     1      -1.994  -2.203  -4.000  1.00  0.00    -0.051 Br
HETATM   15  C9  UNL     1      -3.918  -2.477  -1.855  1.00  0.00     0.041 A 
HETATM   16  C10 UNL     1      -4.443  -2.269  -0.594  1.00  0.00     0.045 A 
HETATM   17 BR2  UNL     1      -6.094  -3.048  -0.054  1.00  0.00    -0.048 Br
HETATM   18  C11 UNL     1      -3.705  -1.459   0.269  1.00  0.00     0.091 A 
BRANCH  18  19
HETATM   19  O1  UNL     1      -4.216  -1.242   1.533  1.00  0.00    -0.359 OA
HETATM   20  H14 UNL     1      -4.885  -0.525   1.763  1.00  0.00     0.217 HD
ENDBRANCH  18  19
ENDBRANCH  10  11
ENDBRANCH   1  10
BRANCH   4  21
HETATM   21  C13 UNL     1       2.201  -2.075   1.211  1.00  0.00     0.130 C 
HETATM   22  C14 UNL     1       3.447  -1.890   0.894  1.00  0.00     0.090 A 
HETATM   23  C15 UNL     1       4.570  -2.807   1.178  1.00  0.00     0.039 A 
HETATM   24  O3  UNL     1       3.815  -0.737   0.223  1.00  0.00    -0.321 OA
HETATM   25  C16 UNL     1       5.776  -2.455   0.780  1.00  0.00     0.005 A 
HETATM   26  C17 UNL     1       6.097  -1.236   0.083  1.00  0.00     0.025 A 
HETATM   27  C18 UNL     1       5.101  -0.420  -0.170  1.00  0.00     0.142 A 
ENDBRANCH   4  21
TORSDOF 7
