REMARK  7 active torsions:
REMARK  status: ('A' for Active; 'I' for Inactive)
REMARK    1  A    between atoms: O1_1  and  C1_2 
REMARK    2  A    between atoms: C2_3  and  N1_4 
REMARK    3  A    between atoms: N1_4  and  C3_5 
REMARK    4  A    between atoms: C4_6  and  N2_7 
REMARK    5  A    between atoms: N2_7  and  C5_8 
REMARK    6  A    between atoms: C5_8  and  C6_9 
REMARK    7  A    between atoms: C6_9  and  N3_10 
ROOT
HETATM    1  C3  UNL     1       1.596  -0.671   0.177  1.00  0.00     0.034 A 
HETATM    2  C4  UNL     1       2.941  -0.861  -0.027  1.00  0.00     0.141 A 
HETATM    3  N4  UNL     1       3.819  -1.081   0.955  1.00  0.00    -0.225 NA
HETATM    4  C7  UNL     1       3.549  -1.153   2.261  1.00  0.00     0.210 A 
HETATM    5  N5  UNL     1       2.380  -1.034   2.972  1.00  0.00    -0.348 NA
HETATM    6  B1  UNL     1       1.008  -0.684   2.067  1.00  0.00     0.370 B 
ENDROOT
BRANCH   1   7
HETATM    7  N1  UNL     1       0.486  -0.464  -0.631  1.00  0.00    -0.366 N 
HETATM    8  H2  UNL     1       0.839  -0.464  -1.610  1.00  0.00     0.165 HD
BRANCH   7   9
HETATM    9  C2  UNL     1      -0.875  -0.282  -0.255  1.00  0.00     0.045 C 
HETATM   10  C1  UNL     1      -1.167   0.998  -0.396  1.00  0.00     0.088 C 
HETATM   11  C13 UNL     1      -2.367   1.828  -0.184  1.00  0.00     0.035 C 
HETATM   12  C12 UNL     1      -3.671   1.568   0.003  1.00  0.00    -0.020 C 
HETATM   13  C11 UNL     1      -4.654   0.505   0.110  1.00  0.00     0.054 C 
HETATM   14  C10 UNL     1      -4.138  -0.876   0.136  1.00  0.00    -0.027 C 
HETATM   15  C9  UNL     1      -2.974  -1.554   0.154  1.00  0.00    -0.024 C 
HETATM   16  C8  UNL     1      -1.529  -1.513   0.162  1.00  0.00     0.086 C 
BRANCH  10  17
HETATM   17  O1  UNL     1      -0.168   1.848  -0.849  1.00  0.00    -0.359 OA
HETATM   18  H1  UNL     1       0.324   2.518  -0.273  1.00  0.00     0.217 HD
ENDBRANCH  10  17
ENDBRANCH   7   9
ENDBRANCH   1   7
BRANCH   2  19
HETATM   19  N2  UNL     1       3.205  -0.781  -1.417  1.00  0.00    -0.342 N 
HETATM   20  H3  UNL     1       3.129  -1.718  -1.896  1.00  0.00     0.167 HD
BRANCH  19  21
HETATM   21  C5  UNL     1       3.515   0.556  -1.856  1.00  0.00     0.169 C 
BRANCH  21  22
HETATM   22  C6  UNL     1       4.559   1.067  -1.222  1.00  0.00     0.035 C 
BRANCH  22  23
HETATM   23  N3  UNL     1       5.398   1.683  -0.472  1.00  0.00    -0.040 NA
HETATM   24  F1  UNL     1       4.936   2.221   0.685  1.00  0.00    -0.065 F 
ENDBRANCH  22  23
ENDBRANCH  21  22
ENDBRANCH  19  21
ENDBRANCH   2  19
TORSDOF 7
