REMARK  5 active torsions:
REMARK  status: ('A' for Active; 'I' for Inactive)
REMARK    1  A    between atoms: C2_2  and  C3_3 
REMARK    2  A    between atoms: C3_3  and  C4_4 
REMARK    3  A    between atoms: C4_4  and  C5_5 
REMARK    4  A    between atoms: C9_11  and  C10_12 
REMARK    5  A    between atoms: C10_12  and  S1_13 
ROOT
HETATM    1  C10 UNL     1       0.943   0.847  -0.313  1.00  0.00     0.129 C 
ENDROOT
BRANCH   1   2
HETATM    2  C9  UNL     1      -0.129   0.048  -0.944  1.00  0.00    -0.045 C 
HETATM    3  C8  UNL     1       0.197  -0.482  -2.283  1.00  0.00     0.205 C 
HETATM    4  O1  UNL     1      -0.900  -0.920  -3.000  1.00  0.00    -0.367 OA
HETATM    5  C7  UNL     1      -1.452  -2.102  -2.544  1.00  0.00     0.216 C 
HETATM    6  C6  UNL     1      -2.553  -1.690  -1.605  1.00  0.00     0.023 C 
HETATM    7 BR1  UNL     1      -0.175  -3.233  -1.630  1.00  0.00    -0.057 Br
HETATM    8  C5  UNL     1      -2.423  -0.806  -0.601  1.00  0.00    -0.058 C 
HETATM    9  C18 UNL     1      -1.228  -0.073  -0.210  1.00  0.00     0.012 C 
BRANCH   8  10
HETATM   10  C4  UNL     1      -3.607  -0.516   0.226  1.00  0.00     0.038 C 
BRANCH  10  11
HETATM   11  C3  UNL     1      -4.031   0.918   0.211  1.00  0.00     0.004 C 
BRANCH  11  12
HETATM   12  C2  UNL     1      -5.265   1.023   1.119  1.00  0.00    -0.004 C 
HETATM   13  C1  UNL     1      -6.400   0.172   0.662  1.00  0.00     0.005 C 
ENDBRANCH  11  12
ENDBRANCH  10  11
ENDBRANCH   8  10
ENDBRANCH   1   2
BRANCH   1  14
HETATM   14  S1  UNL     1       2.473  -0.099  -0.079  1.00  0.00    -0.056 SA
HETATM   15  N1  UNL     1       2.729  -1.640  -0.481  1.00  0.00    -0.166 NA
HETATM   16  C11 UNL     1       4.032  -2.126  -0.180  1.00  0.00     0.352 A 
HETATM   17  O2  UNL     1       4.254  -3.346  -0.492  1.00  0.00    -0.244 OA
HETATM   18  N2  UNL     1       5.110  -1.413   0.426  1.00  0.00    -0.305 N 
HETATM   19  C12 UNL     1       5.057  -0.046   0.844  1.00  0.00     0.054 A 
HETATM   20  H16 UNL     1       6.016  -1.904   0.587  1.00  0.00     0.171 HD
HETATM   21  C13 UNL     1       6.180   0.540   1.425  1.00  0.00     0.031 A 
HETATM   22  C17 UNL     1       3.910   0.702   0.681  1.00  0.00     0.039 A 
HETATM   23  C14 UNL     1       6.132   1.858   1.830  1.00  0.00     0.002 A 
HETATM   24  C15 UNL     1       4.989   2.612   1.670  1.00  0.00     0.002 A 
HETATM   25  C16 UNL     1       3.877   2.008   1.087  1.00  0.00     0.022 A 
ENDBRANCH   1  14
TORSDOF 5
