REMARK  10 active torsions:
REMARK  status: ('A' for Active; 'I' for Inactive)
REMARK       I    between atoms: C1_2  and  N1_3 
REMARK       I    between atoms: C1_2  and  N2_10 
REMARK    1  A    between atoms: N1_3  and  C2_4 
REMARK    2  A    between atoms: C3_5  and  C4_6 
REMARK    3  A    between atoms: C4_6  and  C5_7 
REMARK    4  A    between atoms: N2_10  and  C8_11 
REMARK    5  A    between atoms: N2_10  and  C11_15 
REMARK    6  A    between atoms: C8_11  and  C9_12 
REMARK    7  A    between atoms: C9_12  and  C10_13 
REMARK    8  A    between atoms: C10_13  and  P1_14 
REMARK    9  A    between atoms: C11_15  and  C12_16 
REMARK   10  A    between atoms: C17_23  and  O2_24 
ROOT
HETATM    1  O1  UNL     1       1.978  -1.360  -0.489  1.00  0.00    -0.247 OA
HETATM    2  C1  UNL     1       0.920  -0.983   0.052  1.00  0.00     0.322 C 
HETATM    3  N1  UNL     1       1.490   0.301  -0.352  1.00  0.00    -0.319 N 
HETATM    4  N2  UNL     1      -0.295  -0.438   0.665  1.00  0.00    -0.330 N 
HETATM    5  H1  UNL     1       1.342   1.390  -0.361  1.00  0.00     0.170 HD
ENDROOT
BRANCH   4   6
HETATM    6  C8  UNL     1      -0.912   0.894   0.862  1.00  0.00     0.128 C 
BRANCH   6   7
HETATM    7  C9  UNL     1      -1.813   1.272  -0.274  1.00  0.00     0.024 C 
BRANCH   7   8
HETATM    8  C10 UNL     1      -2.413   2.654  -0.032  1.00  0.00     0.030 C 
BRANCH   8   9
HETATM    9  P1  UNL     1      -3.381   2.718   1.528  1.00  0.00    -0.141 P 
HETATM   10  H13 UNL     1      -4.579   3.528   1.389  1.00  0.00     0.054 HD
HETATM   11  H14 UNL     1      -2.577   3.175   2.656  1.00  0.00     0.054 HD
ENDBRANCH   8   9
ENDBRANCH   7   8
ENDBRANCH   6   7
ENDBRANCH   4   6
BRANCH   4  12
HETATM   12  C11 UNL     1      -0.999  -1.557   1.216  1.00  0.00     0.169 C 
BRANCH  12  13
HETATM   13  C12 UNL     1      -1.959  -2.232   0.350  1.00  0.00    -0.004 A 
HETATM   14  C13 UNL     1      -3.324  -2.059   0.532  1.00  0.00     0.030 A 
HETATM   15  C14 UNL     1      -4.371  -2.600  -0.154  1.00  0.00     0.013 A 
HETATM   16 BR1  UNL     1      -6.190  -2.238   0.252  1.00  0.00    -0.051 Br
HETATM   17  C15 UNL     1      -3.975  -3.448  -1.183  1.00  0.00     0.041 A 
HETATM   18  C16 UNL     1      -2.643  -3.717  -1.482  1.00  0.00     0.045 A 
HETATM   19 BR2  UNL     1      -2.177  -4.881  -2.904  1.00  0.00    -0.048 Br
HETATM   20  C17 UNL     1      -1.677  -3.085  -0.687  1.00  0.00     0.091 A 
BRANCH  20  21
HETATM   21  O2  UNL     1      -0.338  -3.326  -0.950  1.00  0.00    -0.359 OA
HETATM   22  H19 UNL     1      -0.089  -3.874  -1.754  1.00  0.00     0.217 HD
ENDBRANCH  20  21
ENDBRANCH  12  13
ENDBRANCH   4  12
BRANCH   3  23
HETATM   23  C2  UNL     1       2.758   0.433  -1.051  1.00  0.00     0.092 C 
HETATM   24  C3  UNL     1       3.892   1.020  -0.581  1.00  0.00     0.018 C 
BRANCH  24  25
HETATM   25  C4  UNL     1       5.266   1.336  -0.931  1.00  0.00     0.013 C 
BRANCH  25  26
HETATM   26  C5  UNL     1       5.993   1.948  -0.020  1.00  0.00    -0.036 A 
HETATM   27  C6  UNL     1       7.326   2.456   0.122  1.00  0.00     0.012 A 
HETATM   28  C7  UNL     1       6.468   2.584   1.180  1.00  0.00     0.012 A 
ENDBRANCH  25  26
ENDBRANCH  24  25
ENDBRANCH   3  23
TORSDOF 10
