REMARK  6 active torsions:
REMARK  status: ('A' for Active; 'I' for Inactive)
REMARK    1  A    between atoms: C2_2  and  C3_3 
REMARK    2  A    between atoms: C7_7  and  O1_8 
REMARK    3  A    between atoms: C8_9  and  C9_10 
REMARK    4  A    between atoms: C9_10  and  C10_11 
REMARK    5  A    between atoms: C10_11  and  C11_12 
REMARK    6  A    between atoms: C11_12  and  N1_13 
ROOT
HETATM    1  C9  UNL     1       0.726  -0.234  -0.324  1.00  0.00     0.043 C 
ENDROOT
BRANCH   1   2
HETATM    2  C8  UNL     1       2.213  -0.012  -0.287  1.00  0.00    -0.024 A 
HETATM    3  C7  UNL     1       3.066  -0.912  -0.850  1.00  0.00     0.077 A 
HETATM    4  C5  UNL     1       4.448  -0.803  -0.848  1.00  0.00    -0.028 A 
HETATM    5  C4  UNL     1       5.007   0.320  -0.217  1.00  0.00     0.021 A 
HETATM    6  C6  UNL     1       5.395  -1.766  -1.458  1.00  0.00     0.051 C 
HETATM    7  C3  UNL     1       4.157   1.235   0.356  1.00  0.00    -0.036 A 
HETATM    8  C19 UNL     1       2.782   1.103   0.339  1.00  0.00     0.021 A 
BRANCH   3   9
HETATM    9  O1  UNL     1       2.589  -2.037  -1.485  1.00  0.00    -0.360 OA
HETATM   10  H8  UNL     1       3.039  -2.429  -2.289  1.00  0.00     0.217 HD
ENDBRANCH   3   9
BRANCH   7  11
HETATM   11  C2  UNL     1       4.593   2.431   1.056  1.00  0.00     0.001 C 
HETATM   12  C1  UNL     1       5.848   2.755   1.230  1.00  0.00     0.012 C 
ENDBRANCH   7  11
ENDBRANCH   1   2
BRANCH   1  13
HETATM   13  C10 UNL     1       0.307  -1.238   0.685  1.00  0.00     0.035 C 
BRANCH  13  14
HETATM   14  C11 UNL     1      -1.138  -1.537   0.656  1.00  0.00     0.275 C 
BRANCH  14  15
HETATM   15  N1  UNL     1      -2.047  -0.426   0.878  1.00  0.00     0.119 NA
HETATM   16  C12 UNL     1      -3.363  -0.954   1.187  1.00  0.00     0.302 C 
HETATM   17  C13 UNL     1      -4.349  -0.179   1.870  1.00  0.00     0.003 C 
HETATM   18  C14 UNL     1      -5.385   0.619   1.562  1.00  0.00    -0.003 C 
HETATM   19  C15 UNL     1      -6.036   1.162   0.349  1.00  0.00    -0.003 C 
HETATM   20  C16 UNL     1      -5.849   1.215  -0.992  1.00  0.00     0.003 C 
HETATM   21  C17 UNL     1      -4.588   0.604  -1.639  1.00  0.00     0.299 C 
HETATM   22  N2  UNL     1      -3.743   0.386  -0.530  1.00  0.00     0.115 N 
HETATM   23  C18 UNL     1      -2.383   0.022  -0.618  1.00  0.00     0.540 C 
HETATM   24  H23 UNL     1      -3.749   1.326   0.039  1.00  0.00     0.318 HD
ENDBRANCH  14  15
ENDBRANCH  13  14
ENDBRANCH   1  13
TORSDOF 6
