REMARK  7 active torsions:
REMARK  status: ('A' for Active; 'I' for Inactive)
REMARK    1  A    between atoms: N1_7  and  C7_8 
REMARK    2  A    between atoms: C7_8  and  N2_10 
REMARK    3  A    between atoms: N2_10  and  C8_11 
REMARK    4  A    between atoms: N2_10  and  C14_18 
REMARK    5  A    between atoms: C8_11  and  C9_12 
REMARK    6  A    between atoms: C14_18  and  C15_19 
REMARK    7  A    between atoms: C20_25  and  O1_26 
ROOT
HETATM    1  N2  UNL     1      -0.581   0.595   0.218  1.00  0.00    -0.350 N 
ENDROOT
BRANCH   1   2
HETATM    2  C7  UNL     1       0.557   0.337   1.067  1.00  0.00     0.177 C 
HETATM    3  S1  UNL     1       0.533   1.255   2.439  1.00  0.00    -0.040 SA
BRANCH   2   4
HETATM    4  N1  UNL     1       1.647  -0.571   0.987  1.00  0.00    -0.326 N 
HETATM    5  C2  UNL     1       1.899  -1.530  -0.098  1.00  0.00     0.110 A 
HETATM    6  C1  UNL     1       2.193  -0.768  -1.391  1.00  0.00     0.037 C 
HETATM    7  C3  UNL     1       3.131  -2.311   0.171  1.00  0.00    -0.002 A 
HETATM    8  C4  UNL     1       4.008  -2.305   1.139  1.00  0.00    -0.001 A 
HETATM    9  C5  UNL     1       3.699  -1.326   2.161  1.00  0.00     0.017 A 
HETATM   10  C6  UNL     1       2.633  -0.605   2.006  1.00  0.00     0.094 A 
ENDBRANCH   2   4
ENDBRANCH   1   2
BRANCH   1  11
HETATM   11  C8  UNL     1      -1.448   1.704   0.696  1.00  0.00     0.160 C 
BRANCH  11  12
HETATM   12  C9  UNL     1      -0.777   3.035   0.478  1.00  0.00    -0.056 A 
HETATM   13  C10 UNL     1      -1.489   3.844  -0.344  1.00  0.00     0.007 A 
HETATM   14  C11 UNL     1      -0.904   5.149  -0.605  1.00  0.00     0.038 A 
HETATM   15  C12 UNL     1       0.210   5.122   0.093  1.00  0.00     0.098 A 
HETATM   16  F1  UNL     1       1.193   6.074   0.243  1.00  0.00    -0.211 F 
HETATM   17  C13 UNL     1       0.414   3.833   0.841  1.00  0.00     0.105 A 
ENDBRANCH  11  12
ENDBRANCH   1  11
BRANCH   1  18
HETATM   18  C14 UNL     1      -1.206   0.121  -0.983  1.00  0.00     0.167 C 
BRANCH  18  19
HETATM   19  C15 UNL     1      -1.725  -1.240  -1.000  1.00  0.00    -0.005 A 
HETATM   20  C16 UNL     1      -1.237  -2.302  -1.746  1.00  0.00     0.012 A 
HETATM   21  C17 UNL     1      -1.706  -3.593  -1.841  1.00  0.00     0.002 A 
HETATM   22  C18 UNL     1      -2.824  -3.890  -1.092  1.00  0.00     0.026 A 
HETATM   23  C19 UNL     1      -3.405  -2.912  -0.304  1.00  0.00     0.067 A 
HETATM   24 CL1  UNL     1      -4.809  -3.392   0.598  1.00  0.00    -0.081 Cl
HETATM   25  C20 UNL     1      -2.851  -1.658  -0.287  1.00  0.00     0.095 A 
BRANCH  25  26
HETATM   26  O1  UNL     1      -3.533  -0.792   0.539  1.00  0.00    -0.358 OA
HETATM   27  H20 UNL     1      -3.448  -0.984   1.547  1.00  0.00     0.217 HD
ENDBRANCH  25  26
ENDBRANCH  18  19
ENDBRANCH   1  18
TORSDOF 7
