REMARK  8 active torsions:
REMARK  status: ('A' for Active; 'I' for Inactive)
REMARK    1  A    between atoms: C2_2  and  C3_3 
REMARK    2  A    between atoms: C3_3  and  C4_4 
REMARK    3  A    between atoms: C4_4  and  N1_5 
REMARK    4  A    between atoms: N1_5  and  C5_6 
REMARK       I    between atoms: N1_5  and  C13_16 
REMARK    5  A    between atoms: C5_6  and  C6_7 
REMARK    6  A    between atoms: C11_12  and  S1_13 
REMARK    7  A    between atoms: C12_14  and  O1_15 
REMARK       I    between atoms: C13_16  and  N2_18 
REMARK    8  A    between atoms: N2_18  and  C14_19 
ROOT
HETATM    1  N1  UNL     1      -0.198   0.653   0.506  1.00  0.00    -0.330 N 
HETATM    2  C13 UNL     1       1.118   0.135   0.341  1.00  0.00     0.323 C 
HETATM    3  O2  UNL     1       1.761  -0.818   0.903  1.00  0.00    -0.247 OA
HETATM    4  N2  UNL     1       2.060   0.642  -0.587  1.00  0.00    -0.309 N 
HETATM    5  H19 UNL     1       1.817   1.449  -1.237  1.00  0.00     0.170 HD
ENDROOT
BRANCH   1   6
HETATM    6  C4  UNL     1      -0.890   1.798  -0.099  1.00  0.00     0.128 C 
BRANCH   6   7
HETATM    7  C3  UNL     1      -0.779   3.012   0.750  1.00  0.00     0.020 C 
BRANCH   7   8
HETATM    8  C2  UNL     1       0.578   3.547   1.023  1.00  0.00    -0.003 C 
HETATM    9  C1  UNL     1       1.352   4.003  -0.171  1.00  0.00     0.005 C 
ENDBRANCH   7   8
ENDBRANCH   6   7
ENDBRANCH   1   6
BRANCH   1  10
HETATM   10  C5  UNL     1      -1.108  -0.023   1.406  1.00  0.00     0.169 C 
BRANCH  10  11
HETATM   11  C6  UNL     1      -1.957  -1.054   0.773  1.00  0.00    -0.005 A 
HETATM   12  C7  UNL     1      -3.264  -0.603   0.535  1.00  0.00     0.018 A 
HETATM   13  C8  UNL     1      -4.260  -1.353  -0.051  1.00  0.00    -0.060 A 
HETATM   14  C9  UNL     1      -5.638  -0.861  -0.296  1.00  0.00     0.048 C 
HETATM   15  C10 UNL     1      -3.996  -2.646  -0.447  1.00  0.00     0.027 A 
HETATM   16  C11 UNL     1      -2.720  -3.116  -0.225  1.00  0.00     0.032 A 
HETATM   17  C12 UNL     1      -1.747  -2.342   0.363  1.00  0.00     0.090 A 
BRANCH  16  18
HETATM   18  S1  UNL     1      -2.226  -4.771  -0.683  1.00  0.00    -0.140 SA
HETATM   19  H17 UNL     1      -2.570  -5.119  -1.979  1.00  0.00     0.107 HD
ENDBRANCH  16  18
BRANCH  17  20
HETATM   20  O1  UNL     1      -0.467  -2.811   0.588  1.00  0.00    -0.359 OA
HETATM   21  H18 UNL     1       0.161  -2.750  -0.224  1.00  0.00     0.217 HD
ENDBRANCH  17  20
ENDBRANCH  10  11
ENDBRANCH   1  10
BRANCH   4  22
HETATM   22  C14 UNL     1       3.282  -0.087  -0.505  1.00  0.00     0.036 A 
HETATM   23  C15 UNL     1       3.272  -1.181  -1.378  1.00  0.00     0.029 A 
HETATM   24  C16 UNL     1       4.360  -2.027  -1.461  1.00  0.00     0.002 A 
HETATM   25  C17 UNL     1       5.440  -1.744  -0.653  1.00  0.00     0.000 A 
HETATM   26  C18 UNL     1       5.482  -0.667   0.224  1.00  0.00     0.002 A 
HETATM   27  C19 UNL     1       4.381   0.162   0.287  1.00  0.00     0.029 A 
ENDBRANCH   4  22
TORSDOF 8
