REMARK  8 active torsions:
REMARK  status: ('A' for Active; 'I' for Inactive)
REMARK    1  A    between atoms: C7_8  and  C8_9 
REMARK    2  A    between atoms: C8_9  and  N1_10 
REMARK    3  A    between atoms: N1_10  and  C9_11 
REMARK    4  A    between atoms: N1_10  and  C17_20 
REMARK    5  A    between atoms: C9_11  and  C10_12 
REMARK    6  A    between atoms: C16_18  and  O1_19 
REMARK    7  A    between atoms: C17_20  and  N2_22 
REMARK    8  A    between atoms: N2_22  and  C18_23 
ROOT
HETATM    1  N1  UNL     1      -0.116   0.024  -0.317  1.00  0.00    -0.349 N 
ENDROOT
BRANCH   1   2
HETATM    2  C8  UNL     1       0.359   1.211   0.369  1.00  0.00     0.164 C 
BRANCH   2   3
HETATM    3  C7  UNL     1       0.670   2.347  -0.532  1.00  0.00    -0.031 C 
HETATM    4  C2  UNL     1       1.643   2.306  -1.612  1.00  0.00    -0.010 C 
HETATM    5  C1  UNL     1       2.338   1.231  -1.860  1.00  0.00     0.047 C 
HETATM    6  C3  UNL     1       1.924   3.437  -2.487  1.00  0.00     0.134 C 
HETATM    7  F1  UNL     1       2.669   3.305  -3.614  1.00  0.00    -0.205 F 
HETATM    8  C4  UNL     1       1.429   4.593  -2.147  1.00  0.00     0.016 C 
HETATM    9  C5  UNL     1       0.391   4.634  -1.344  1.00  0.00     0.016 C 
HETATM   10  C6  UNL     1       0.070   3.537  -0.440  1.00  0.00     0.010 C 
ENDBRANCH   2   3
ENDBRANCH   1   2
BRANCH   1  11
HETATM   11  C9  UNL     1      -1.355  -0.135  -1.014  1.00  0.00     0.167 C 
BRANCH  11  12
HETATM   12  C10 UNL     1      -2.581  -0.100  -0.219  1.00  0.00    -0.007 A 
HETATM   13  C11 UNL     1      -3.078  -1.366   0.110  1.00  0.00     0.011 A 
HETATM   14  C12 UNL     1      -4.221  -1.564   0.883  1.00  0.00     0.001 A 
HETATM   15  C13 UNL     1      -4.888  -0.434   1.340  1.00  0.00     0.009 A 
HETATM   16  C14 UNL     1      -4.465   0.852   1.060  1.00  0.00    -0.028 A 
HETATM   17  C15 UNL     1      -5.134   2.092   1.520  1.00  0.00     0.051 C 
HETATM   18  C16 UNL     1      -3.329   0.920   0.292  1.00  0.00     0.079 A 
BRANCH  18  19
HETATM   19  O1  UNL     1      -2.861   2.189  -0.024  1.00  0.00    -0.360 OA
HETATM   20  H15 UNL     1      -2.924   2.984   0.593  1.00  0.00     0.217 HD
ENDBRANCH  18  19
ENDBRANCH  11  12
ENDBRANCH   1  11
BRANCH   1  21
HETATM   21  C17 UNL     1       0.719  -1.156  -0.302  1.00  0.00     0.174 C 
HETATM   22  S1  UNL     1       0.195  -2.501  -1.080  1.00  0.00    -0.041 SA
BRANCH  21  23
HETATM   23  N2  UNL     1       1.964  -1.545   0.216  1.00  0.00    -0.333 N 
HETATM   24  H16 UNL     1       2.156  -0.615   0.637  1.00  0.00     0.168 HD
BRANCH  23  25
HETATM   25  C18 UNL     1       2.924  -2.551   0.369  1.00  0.00     0.034 A 
HETATM   26  C19 UNL     1       2.759  -3.832  -0.103  1.00  0.00     0.029 A 
HETATM   27  C20 UNL     1       3.723  -4.799   0.063  1.00  0.00     0.002 A 
HETATM   28  C21 UNL     1       4.831  -4.357   0.730  1.00  0.00     0.000 A 
HETATM   29  C22 UNL     1       5.074  -3.100   1.232  1.00  0.00     0.002 A 
HETATM   30  C23 UNL     1       4.079  -2.190   1.034  1.00  0.00     0.029 A 
ENDBRANCH  23  25
ENDBRANCH  21  23
ENDBRANCH   1  21
TORSDOF 8
