REMARK  10 active torsions:
REMARK  status: ('A' for Active; 'I' for Inactive)
REMARK    1  A    between atoms: C2_2  and  C3_3 
REMARK    2  A    between atoms: C3_3  and  C4_4 
REMARK    3  A    between atoms: C4_4  and  N1_5 
REMARK    4  A    between atoms: N1_5  and  C5_6 
REMARK    5  A    between atoms: N1_5  and  C13_16 
REMARK    6  A    between atoms: C5_6  and  C6_7 
REMARK    7  A    between atoms: C6_7  and  N2_8 
REMARK    8  A    between atoms: N2_8  and  C7_9 
REMARK    9  A    between atoms: C13_16  and  C14_17 
REMARK   10  A    between atoms: C21_24  and  O2_25 
ROOT
HETATM    1  N1  UNL     1      -0.251   0.773  -0.209  1.00  0.00     0.094 N 
ENDROOT
BRANCH   1   2
HETATM    2  C4  UNL     1      -0.879   1.951  -0.812  1.00  0.00     0.273 C 
BRANCH   2   3
HETATM    3  C3  UNL     1      -2.138   2.392  -0.132  1.00  0.00     0.030 C 
BRANCH   3   4
HETATM    4  C2  UNL     1      -1.838   2.746   1.334  1.00  0.00    -0.003 C 
HETATM    5  C1  UNL     1      -0.837   3.869   1.435  1.00  0.00     0.005 C 
ENDBRANCH   3   4
ENDBRANCH   2   3
ENDBRANCH   1   2
BRANCH   1   6
HETATM    6  C5  UNL     1       1.101   0.794  -0.804  1.00  0.00     0.292 C 
BRANCH   6   7
HETATM    7  C6  UNL     1       2.018  -0.236  -0.276  1.00  0.00     0.152 C 
BRANCH   7   8
HETATM    8  N2  UNL     1       3.304  -0.050  -0.969  1.00  0.00    -0.369 N 
HETATM    9  H14 UNL     1       3.507   0.667  -1.712  1.00  0.00     0.161 HD
BRANCH   8  10
HETATM   10  C7  UNL     1       4.401  -0.884  -0.650  1.00  0.00     0.145 A 
HETATM   11  C8  UNL     1       5.235  -0.801   0.392  1.00  0.00    -0.029 A 
HETATM   12  C9  UNL     1       5.213   0.213   1.500  1.00  0.00     0.048 C 
HETATM   13  C10 UNL     1       6.358  -1.688   0.680  1.00  0.00     0.067 A 
HETATM   14  C11 UNL     1       6.433  -2.726  -0.392  1.00  0.00     0.002 A 
HETATM   15  C12 UNL     1       5.612  -2.820  -1.431  1.00  0.00     0.140 A 
HETATM   16  O1  UNL     1       4.585  -1.902  -1.576  1.00  0.00    -0.306 OA
ENDBRANCH   8  10
ENDBRANCH   7   8
ENDBRANCH   6   7
ENDBRANCH   1   6
BRANCH   1  17
HETATM   17  C13 UNL     1      -0.818  -0.475  -0.684  1.00  0.00     0.314 C 
BRANCH  17  18
HETATM   18  C14 UNL     1      -2.249  -0.677  -0.484  1.00  0.00     0.004 A 
HETATM   19  C15 UNL     1      -3.160  -0.610  -1.550  1.00  0.00     0.018 A 
HETATM   20  C16 UNL     1      -4.528  -0.822  -1.403  1.00  0.00    -0.061 A 
HETATM   21  C17 UNL     1      -5.402  -0.713  -2.616  1.00  0.00     0.048 C 
HETATM   22  C18 UNL     1      -5.003  -1.112  -0.140  1.00  0.00     0.016 A 
HETATM   23  C19 UNL     1      -4.131  -1.187   0.939  1.00  0.00    -0.028 A 
HETATM   24  C20 UNL     1      -4.749  -1.513   2.256  1.00  0.00     0.051 C 
HETATM   25  C21 UNL     1      -2.777  -0.972   0.767  1.00  0.00     0.079 A 
BRANCH  25  26
HETATM   26  O2  UNL     1      -1.933  -1.059   1.887  1.00  0.00    -0.360 OA
HETATM   27  H32 UNL     1      -1.744  -2.030   2.186  1.00  0.00     0.217 HD
ENDBRANCH  25  26
ENDBRANCH  17  18
ENDBRANCH   1  17
TORSDOF 10
