REMARK  7 active torsions:
REMARK  status: ('A' for Active; 'I' for Inactive)
REMARK    1  A    between atoms: C2_3  and  C3_4 
REMARK    2  A    between atoms: C3_4  and  N1_5 
REMARK    3  A    between atoms: N1_5  and  C4_6 
REMARK    4  A    between atoms: N1_5  and  C11_15 
REMARK    5  A    between atoms: C4_6  and  C5_7 
REMARK    6  A    between atoms: C10_13  and  O1_14 
REMARK    7  A    between atoms: C11_15  and  N2_17 
ROOT
HETATM    1  B1  UNL     1      -0.249   3.273   2.935  1.00  0.00     0.189 B 
HETATM    2  C1  UNL     1      -0.536   3.292   1.208  1.00  0.00    -0.260 C 
HETATM    3  C2  UNL     1      -0.799   3.300  -0.223  1.00  0.00     0.082 C 
ENDROOT
BRANCH   3   4
HETATM    4  C3  UNL     1      -1.107   1.968  -0.805  1.00  0.00     0.135 C 
BRANCH   4   5
HETATM    5  N1  UNL     1      -0.128   0.934  -0.753  1.00  0.00    -0.353 N 
BRANCH   5   6
HETATM    6  C4  UNL     1      -0.862  -0.218  -1.317  1.00  0.00     0.166 C 
BRANCH   6   7
HETATM    7  C5  UNL     1      -2.029  -0.602  -0.504  1.00  0.00    -0.005 A 
HETATM    8  C6  UNL     1      -3.359  -0.371  -0.804  1.00  0.00     0.012 A 
HETATM    9  C7  UNL     1      -4.441  -0.744  -0.039  1.00  0.00     0.002 A 
HETATM   10  C8  UNL     1      -4.185  -1.416   1.143  1.00  0.00     0.026 A 
HETATM   11  C9  UNL     1      -2.879  -1.679   1.502  1.00  0.00     0.067 A 
HETATM   12 CL1  UNL     1      -2.634  -2.532   3.012  1.00  0.00    -0.081 Cl
HETATM   13  C10 UNL     1      -1.805  -1.284   0.699  1.00  0.00     0.095 A 
BRANCH  13  14
HETATM   14  O1  UNL     1      -0.524  -1.588   1.135  1.00  0.00    -0.358 OA
HETATM   15  H10 UNL     1      -0.355  -1.611   2.132  1.00  0.00     0.217 HD
ENDBRANCH  13  14
ENDBRANCH   6   7
ENDBRANCH   5   6
BRANCH   5  16
HETATM   16  C11 UNL     1       1.216   0.663  -0.432  1.00  0.00     0.176 C 
HETATM   17  S1  UNL     1       1.684   2.223  -0.118  1.00  0.00    -0.040 SA
BRANCH  16  18
HETATM   18  N2  UNL     1       2.302  -0.214  -0.290  1.00  0.00    -0.331 N 
HETATM   19  C12 UNL     1       2.308  -1.594  -0.519  1.00  0.00     0.093 A 
HETATM   20  C13 UNL     1       3.304  -2.439  -0.423  1.00  0.00     0.017 A 
HETATM   21  C14 UNL     1       4.568  -1.855  -0.021  1.00  0.00    -0.001 A 
HETATM   22  C15 UNL     1       4.639  -0.565   0.218  1.00  0.00    -0.007 A 
HETATM   23  C16 UNL     1       3.549   0.396   0.125  1.00  0.00     0.158 A 
ENDBRANCH  16  18
ENDBRANCH   5  16
ENDBRANCH   4   5
ENDBRANCH   3   4
TORSDOF 7
