REMARK  5 active torsions:
REMARK  status: ('A' for Active; 'I' for Inactive)
REMARK    1  A    between atoms: C2_3  and  N2_11 
REMARK    2  A    between atoms: N1_4  and  C3_5 
REMARK    3  A    between atoms: N2_11  and  C9_12 
REMARK    4  A    between atoms: N2_11  and  C16_20 
REMARK    5  A    between atoms: C9_12  and  C10_13 
ROOT
HETATM    1  N2  UNL     1       0.747   0.821  -0.307  1.00  0.00    -0.332 N 
ENDROOT
BRANCH   1   2
HETATM    2  C2  UNL     1      -0.573   0.520  -0.184  1.00  0.00     0.331 A 
HETATM    3  S1  UNL     1      -0.307  -0.819  -1.179  1.00  0.00    -0.042 SA
HETATM    4  C1  UNL     1      -0.382  -0.349  -2.778  1.00  0.00     0.236 C 
HETATM    5  N1  UNL     1      -1.842   0.019  -0.205  1.00  0.00     0.032 N 
HETATM    6  H3  UNL     1      -1.782   0.917   0.371  1.00  0.00     0.304 HD
BRANCH   5   7
HETATM    7  C3  UNL     1      -3.000  -0.725  -0.413  1.00  0.00     0.149 A 
HETATM    8  C4  UNL     1      -4.089  -0.172   0.203  1.00  0.00     0.038 A 
HETATM    9  C5  UNL     1      -5.288  -0.827   0.063  1.00  0.00     0.002 A 
HETATM   10  C6  UNL     1      -5.291  -1.981  -0.683  1.00  0.00     0.000 A 
HETATM   11  C7  UNL     1      -4.204  -2.548  -1.307  1.00  0.00     0.002 A 
HETATM   12  C8  UNL     1      -3.018  -1.864  -1.146  1.00  0.00     0.038 A 
ENDBRANCH   5   7
ENDBRANCH   1   2
BRANCH   1  13
HETATM   13  C9  UNL     1       2.060   0.509  -0.827  1.00  0.00     0.165 C 
BRANCH  13  14
HETATM   14  C10 UNL     1       2.685  -0.695  -0.277  1.00  0.00    -0.040 A 
HETATM   15  C11 UNL     1       2.756  -2.011  -0.674  1.00  0.00     0.012 A 
HETATM   16  C12 UNL     1       3.416  -2.952   0.071  1.00  0.00     0.043 A 
HETATM   17  C13 UNL     1       4.049  -2.649   1.257  1.00  0.00     0.116 A 
HETATM   18  F1  UNL     1       4.673  -3.654   1.915  1.00  0.00    -0.206 F 
HETATM   19  C14 UNL     1       3.998  -1.339   1.685  1.00  0.00     0.043 A 
HETATM   20  C15 UNL     1       3.324  -0.372   0.928  1.00  0.00     0.012 A 
ENDBRANCH  13  14
ENDBRANCH   1  13
BRANCH   1  21
HETATM   21  C16 UNL     1       0.693   1.985   0.470  1.00  0.00     0.034 C 
HETATM   22  C17 UNL     1       1.062   3.160  -0.083  1.00  0.00     0.043 C 
HETATM   23  C18 UNL     1       0.950   4.319   0.883  1.00  0.00     0.218 C 
HETATM   24 BR1  UNL     1       2.450   5.474   0.585  1.00  0.00    -0.057 Br
HETATM   25  O1  UNL     1       1.068   3.596   2.070  1.00  0.00    -0.365 OA
HETATM   26  C19 UNL     1       0.335   2.454   1.859  1.00  0.00     0.226 C 
ENDBRANCH   1  21
TORSDOF 5
