REMARK  3 active torsions:
REMARK  status: ('A' for Active; 'I' for Inactive)
REMARK    1  A    between atoms: O1_2  and  C2_3 
REMARK    2  A    between atoms: C6_8  and  N2_9 
REMARK    3  A    between atoms: N2_9  and  C7_10 
ROOT
HETATM    1  C2  UNL     1      -2.914   0.451   0.387  1.00  0.00     0.168 C 
HETATM    2  C3  UNL     1      -3.091  -1.041   0.038  1.00  0.00     0.088 C 
HETATM    3  C4  UNL     1      -1.683  -1.655   0.054  1.00  0.00     0.131 C 
HETATM    4  N1  UNL     1      -0.767  -0.469   0.227  1.00  0.00    -0.349 N 
HETATM    5  C5  UNL     1      -0.085   0.304  -0.748  1.00  0.00     0.075 C 
HETATM    6  C6  UNL     1       1.090   0.345  -1.417  1.00  0.00     0.151 C 
HETATM    7  N3  UNL     1       1.250   1.395  -2.337  1.00  0.00    -0.246 NA
HETATM    8  C13 UNL     1       0.491   1.435  -3.387  1.00  0.00    -0.000 C 
HETATM    9  B1  UNL     1      -1.243   1.527  -2.838  1.00  0.00     0.255 B 
HETATM   10  C14 UNL     1      -1.160   1.353  -0.958  1.00  0.00     0.133 C 
HETATM   11  O2  UNL     1      -2.419   1.082  -0.679  1.00  0.00    -0.354 OA
HETATM   12  C15 UNL     1      -0.873  -0.187   1.707  1.00  0.00     0.276 C 
HETATM   13  F1  UNL     1      -0.898  -1.327   2.451  1.00  0.00    -0.227 F 
HETATM   14  C16 UNL     1      -2.196   0.588   1.714  1.00  0.00     0.127 C 
ENDROOT
BRANCH   6  15
HETATM   15  N2  UNL     1       1.907  -0.763  -0.988  1.00  0.00    -0.339 N 
HETATM   16  H8  UNL     1       1.530  -1.737  -1.024  1.00  0.00     0.167 HD
BRANCH  15  17
HETATM   17  C7  UNL     1       3.205  -0.541  -0.523  1.00  0.00     0.035 A 
HETATM   18  C8  UNL     1       4.058  -1.553  -0.091  1.00  0.00     0.029 A 
HETATM   19  C9  UNL     1       5.340  -1.339   0.368  1.00  0.00     0.004 A 
HETATM   20  C10 UNL     1       5.830  -0.055   0.413  1.00  0.00     0.024 A 
HETATM   21  C11 UNL     1       5.032   1.010  -0.004  1.00  0.00     0.036 A 
HETATM   22 CL1  UNL     1       5.637   2.660   0.044  1.00  0.00    -0.084 Cl
HETATM   23  C12 UNL     1       3.746   0.726  -0.458  1.00  0.00     0.053 A 
ENDBRANCH  15  17
ENDBRANCH   6  15
BRANCH   1  24
HETATM   24  O1  UNL     1      -4.202   0.928   0.621  1.00  0.00    -0.360 OA
HETATM   25  C1  UNL     1      -5.025   0.695  -0.471  1.00  0.00     0.205 C 
ENDBRANCH   1  24
TORSDOF 3
