REMARK  5 active torsions:
REMARK  status: ('A' for Active; 'I' for Inactive)
REMARK    1  A    between atoms: C2_2  and  C3_3 
REMARK    2  A    between atoms: C3_3  and  C4_4 
REMARK    3  A    between atoms: C4_4  and  N1_5 
REMARK    4  A    between atoms: N1_5  and  C5_6 
REMARK    5  A    between atoms: C5_6  and  N2_7 
ROOT
HETATM    1  N2  UNL     1       0.855   0.441   0.196  1.00  0.00    -0.383 N 
HETATM    2  C6  UNL     1       0.148  -0.343  -0.785  1.00  0.00     0.235 C 
HETATM    3  C7  UNL     1      -0.802  -1.237  -0.727  1.00  0.00     0.126 C 
HETATM    4  F1  UNL     1      -1.160  -1.715  -1.966  1.00  0.00    -0.242 F 
HETATM    5  C8  UNL     1      -1.821  -2.120  -0.193  1.00  0.00     0.037 C 
HETATM    6  C9  UNL     1      -1.674  -1.755   1.102  1.00  0.00     0.141 C 
HETATM    7  O1  UNL     1      -1.151  -1.061   2.204  1.00  0.00    -0.321 OA
HETATM    8  C10 UNL     1      -1.371   0.337   2.201  1.00  0.00     0.104 A 
HETATM    9  C11 UNL     1      -2.685   0.569   2.616  1.00  0.00     0.069 A 
HETATM   10 CL1  UNL     1      -3.884  -0.613   3.082  1.00  0.00    -0.081 Cl
HETATM   11  C12 UNL     1      -3.197   1.873   2.710  1.00  0.00     0.033 A 
HETATM   12  C13 UNL     1      -2.403   2.959   2.391  1.00  0.00    -0.060 A 
HETATM   13  C14 UNL     1      -2.848   4.376   2.459  1.00  0.00     0.048 C 
HETATM   14  C15 UNL     1      -1.115   2.649   1.989  1.00  0.00     0.018 A 
HETATM   15  C16 UNL     1      -0.568   1.401   1.880  1.00  0.00    -0.005 A 
HETATM   16  C17 UNL     1       0.817   1.263   1.434  1.00  0.00     0.160 C 
ENDROOT
BRANCH   1  17
HETATM   17  C5  UNL     1       2.210   0.311  -0.370  1.00  0.00     0.241 C 
BRANCH  17  18
HETATM   18  N1  UNL     1       2.470  -1.109  -0.462  1.00  0.00    -0.377 N 
HETATM   19  H6  UNL     1       3.282  -1.541   0.066  1.00  0.00     0.161 HD
BRANCH  18  20
HETATM   20  C4  UNL     1       1.903  -2.214  -1.114  1.00  0.00     0.136 C 
BRANCH  20  21
HETATM   21  C3  UNL     1       1.973  -2.166  -2.438  1.00  0.00    -0.134 C 
BRANCH  21  22
HETATM   22  C2  UNL     1       2.448  -2.286  -3.673  1.00  0.00     0.068 C 
HETATM   23  C1  UNL     1       3.741  -2.923  -4.001  1.00  0.00     0.024 C 
ENDBRANCH  21  22
ENDBRANCH  20  21
ENDBRANCH  18  20
ENDBRANCH  17  18
ENDBRANCH   1  17
TORSDOF 5
