REMARK  6 active torsions:
REMARK  status: ('A' for Active; 'I' for Inactive)
REMARK    1  A    between atoms: C6_6  and  C7_7 
REMARK    2  A    between atoms: C7_7  and  N1_8 
REMARK    3  A    between atoms: N1_8  and  C8_9 
REMARK    4  A    between atoms: N1_8  and  C15_17 
REMARK    5  A    between atoms: C8_9  and  C9_10 
REMARK    6  A    between atoms: C18_20  and  O1_21 
ROOT
HETATM    1  N1  UNL     1       0.466   0.792  -0.469  1.00  0.00    -0.376 N 
ENDROOT
BRANCH   1   2
HETATM    2  C7  UNL     1      -0.746   1.500  -0.838  1.00  0.00     0.164 C 
BRANCH   2   3
HETATM    3  C6  UNL     1      -1.978   0.918  -0.310  1.00  0.00    -0.007 A 
HETATM    4  C5  UNL     1      -2.571   1.510   0.802  1.00  0.00     0.011 A 
HETATM    5  C4  UNL     1      -3.729   1.054   1.403  1.00  0.00     0.001 A 
HETATM    6  C3  UNL     1      -4.354  -0.060   0.885  1.00  0.00     0.009 A 
HETATM    7  C2  UNL     1      -3.796  -0.667  -0.209  1.00  0.00    -0.028 A 
HETATM    8  C1  UNL     1      -4.497  -1.870  -0.745  1.00  0.00     0.051 C 
HETATM    9  C18 UNL     1      -2.641  -0.188  -0.786  1.00  0.00     0.079 A 
BRANCH   9  10
HETATM   10  O1  UNL     1      -2.115  -0.828  -1.886  1.00  0.00    -0.360 OA
HETATM   11  H18 UNL     1      -1.717  -0.386  -2.683  1.00  0.00     0.217 HD
ENDBRANCH   9  10
ENDBRANCH   2   3
ENDBRANCH   1   2
BRANCH   1  12
HETATM   12  C8  UNL     1       0.721  -0.598  -0.784  1.00  0.00     0.161 C 
BRANCH  12  13
HETATM   13  C9  UNL     1       2.081  -0.941  -0.275  1.00  0.00    -0.040 A 
HETATM   14  C10 UNL     1       2.353  -1.430   0.990  1.00  0.00     0.012 A 
HETATM   15  C11 UNL     1       3.665  -1.706   1.326  1.00  0.00     0.043 A 
HETATM   16  C12 UNL     1       4.701  -1.497   0.410  1.00  0.00     0.116 A 
HETATM   17  F1  UNL     1       5.988  -1.780   0.771  1.00  0.00    -0.206 F 
HETATM   18  C13 UNL     1       4.427  -1.008  -0.855  1.00  0.00     0.043 A 
HETATM   19  C14 UNL     1       3.100  -0.728  -1.198  1.00  0.00     0.012 A 
ENDBRANCH  12  13
ENDBRANCH   1  12
BRANCH   1  20
HETATM   20  C15 UNL     1       1.453   1.558   0.257  1.00  0.00     0.007 A 
HETATM   21  C16 UNL     1       2.257   1.621   1.314  1.00  0.00     0.004 A 
HETATM   22  C17 UNL     1       2.316   2.772   0.441  1.00  0.00     0.085 A 
ENDBRANCH   1  20
TORSDOF 6
