REMARK  5 active torsions:
REMARK  status: ('A' for Active; 'I' for Inactive)
REMARK    1  A    between atoms: B1_1  and  C1_2 
REMARK    2  A    between atoms: C6_9  and  N1_10 
REMARK    3  A    between atoms: N1_10  and  C7_11 
REMARK    4  A    between atoms: N1_10  and  C14_18 
REMARK    5  A    between atoms: C19_24  and  S1_25 
ROOT
HETATM    1  N1  UNL     1       0.010   0.129   0.098  1.00  0.00    -0.338 N 
ENDROOT
BRANCH   1   2
HETATM    2  C6  UNL     1       1.371  -0.161   0.394  1.00  0.00     0.133 C 
HETATM    3  C1  UNL     1       1.973  -1.155  -0.573  1.00  0.00    -0.086 C 
HETATM    4  C2  UNL     1       3.290  -1.336  -0.466  1.00  0.00     0.010 C 
HETATM    5 CL1  UNL     1       4.148  -2.457  -1.514  1.00  0.00    -0.089 Cl
HETATM    6  C3  UNL     1       3.999  -0.531   0.597  1.00  0.00     0.101 C 
HETATM    7  C4  UNL     1       3.568   0.889   0.337  1.00  0.00     0.015 C 
HETATM    8 CL2  UNL     1       4.625   2.305   0.157  1.00  0.00    -0.089 Cl
HETATM    9  C5  UNL     1       2.252   1.055   0.238  1.00  0.00     0.022 C 
BRANCH   3  10
HETATM   10  B1  UNL     1       1.181  -1.973  -1.669  1.00  0.00     0.174 B 
HETATM   11  H1  UNL     1       1.074  -1.478  -2.750  1.00  0.00    -0.026 HD
HETATM   12  H2  UNL     1       1.164  -3.151  -1.665  1.00  0.00    -0.026 HD
ENDBRANCH   3  10
ENDBRANCH   1   2
BRANCH   1  13
HETATM   13  C7  UNL     1      -0.958  -0.899   0.095  1.00  0.00     0.016 C 
HETATM   14  C8  UNL     1      -0.671  -2.030   0.719  1.00  0.00     0.025 C 
HETATM   15  C9  UNL     1      -1.506  -3.241   0.858  1.00  0.00     0.002 C 
HETATM   16  C10 UNL     1      -2.848  -3.294   0.814  1.00  0.00    -0.000 C 
HETATM   17  C11 UNL     1      -3.780  -2.163   0.619  1.00  0.00    -0.004 C 
HETATM   18  C12 UNL     1      -3.434  -1.041   0.002  1.00  0.00    -0.021 C 
HETATM   19  C13 UNL     1      -2.194  -0.548  -0.632  1.00  0.00     0.084 C 
ENDBRANCH   1  13
BRANCH   1  20
HETATM   20  C14 UNL     1      -0.342   1.476  -0.193  1.00  0.00     0.052 A 
HETATM   21  C15 UNL     1      -0.322   1.999  -1.487  1.00  0.00     0.034 A 
HETATM   22  C16 UNL     1      -0.681   3.318  -1.654  1.00  0.00     0.044 A 
HETATM   23  C17 UNL     1      -1.053   4.105  -0.574  1.00  0.00     0.117 A 
HETATM   24  F1  UNL     1      -1.400   5.398  -0.778  1.00  0.00    -0.206 F 
HETATM   25  C18 UNL     1      -1.072   3.586   0.704  1.00  0.00     0.062 A 
HETATM   26  C19 UNL     1      -0.714   2.265   0.888  1.00  0.00     0.027 A 
BRANCH  26  27
HETATM   27  S1  UNL     1      -0.737   1.584   2.548  1.00  0.00    -0.141 SA
HETATM   28  H17 UNL     1       0.591   1.724   3.031  1.00  0.00     0.107 HD
ENDBRANCH  26  27
ENDBRANCH   1  20
TORSDOF 5
