REMARK  7 active torsions:
REMARK  status: ('A' for Active; 'I' for Inactive)
REMARK    1  A    between atoms: N1_7  and  C7_8 
REMARK    2  A    between atoms: C7_8  and  N2_10 
REMARK    3  A    between atoms: N2_10  and  C8_11 
REMARK    4  A    between atoms: N2_10  and  C16_20 
REMARK    5  A    between atoms: C8_11  and  C9_12 
REMARK    6  A    between atoms: C13_16  and  O1_17 
REMARK    7  A    between atoms: C16_20  and  C17_21 
ROOT
HETATM    1  N2  UNL     1       0.431   0.759   0.526  1.00  0.00    -0.350 N 
ENDROOT
BRANCH   1   2
HETATM    2  C7  UNL     1       1.777   0.444   0.087  1.00  0.00     0.177 C 
HETATM    3  S1  UNL     1       2.477   1.862  -0.358  1.00  0.00    -0.040 SA
BRANCH   2   4
HETATM    4  N1  UNL     1       2.727  -0.566  -0.103  1.00  0.00    -0.326 N 
HETATM    5  C2  UNL     1       4.026  -0.206  -0.653  1.00  0.00     0.110 A 
HETATM    6  C1  UNL     1       4.738   0.738   0.326  1.00  0.00     0.037 C 
HETATM    7  C3  UNL     1       4.912  -1.349  -0.868  1.00  0.00    -0.002 A 
HETATM    8  C4  UNL     1       4.738  -2.625  -0.623  1.00  0.00    -0.001 A 
HETATM    9  C5  UNL     1       3.444  -2.948  -0.045  1.00  0.00     0.017 A 
HETATM   10  C6  UNL     1       2.611  -1.949   0.151  1.00  0.00     0.094 A 
ENDBRANCH   2   4
ENDBRANCH   1   2
BRANCH   1  11
HETATM   11  C8  UNL     1      -0.156  -0.482   0.936  1.00  0.00     0.159 C 
BRANCH  11  12
HETATM   12  C9  UNL     1      -1.507  -0.622   1.408  1.00  0.00    -0.065 C 
HETATM   13  C10 UNL     1      -2.555   0.119   1.608  1.00  0.00    -0.018 C 
HETATM   14  C11 UNL     1      -3.959   0.034   2.088  1.00  0.00     0.057 C 
HETATM   15  C12 UNL     1      -4.652  -1.128   1.518  1.00  0.00     0.009 C 
HETATM   16  C13 UNL     1      -4.088  -2.195   1.008  1.00  0.00     0.040 C 
HETATM   17  C14 UNL     1      -2.714  -2.648   0.804  1.00  0.00     0.068 C 
HETATM   18  C15 UNL     1      -1.698  -2.096   1.750  1.00  0.00     0.042 C 
BRANCH  16  19
HETATM   19  O1  UNL     1      -5.062  -3.108   0.556  1.00  0.00    -0.365 OA
HETATM   20  H15 UNL     1      -4.871  -3.767  -0.208  1.00  0.00     0.217 HD
ENDBRANCH  16  19
ENDBRANCH  11  12
ENDBRANCH   1  11
BRANCH   1  21
HETATM   21  C16 UNL     1      -0.106   2.104   0.492  1.00  0.00     0.164 C 
BRANCH  21  22
HETATM   22  C17 UNL     1      -0.505   2.628  -0.807  1.00  0.00    -0.040 A 
HETATM   23  C18 UNL     1       0.100   3.567  -1.609  1.00  0.00     0.012 A 
HETATM   24  C19 UNL     1      -0.308   3.988  -2.852  1.00  0.00     0.043 A 
HETATM   25  C20 UNL     1      -1.447   3.435  -3.395  1.00  0.00     0.116 A 
HETATM   26  F1  UNL     1      -1.861   3.840  -4.618  1.00  0.00    -0.206 F 
HETATM   27  C21 UNL     1      -2.116   2.492  -2.666  1.00  0.00     0.043 A 
HETATM   28  C22 UNL     1      -1.644   2.112  -1.411  1.00  0.00     0.012 A 
ENDBRANCH  21  22
ENDBRANCH   1  21
TORSDOF 7
