REMARK  4 active torsions:
REMARK  status: ('A' for Active; 'I' for Inactive)
REMARK    1  A    between atoms: C2_2  and  C3_3 
REMARK    2  A    between atoms: C8_9  and  C9_10 
REMARK    3  A    between atoms: C9_10  and  C10_11 
REMARK    4  A    between atoms: N2_17  and  C16_18 
ROOT
HETATM    1  C3  UNL     1      -2.626   1.764  -0.283  1.00  0.00     0.047 C 
HETATM    2  C4  UNL     1      -1.620   1.129   0.280  1.00  0.00     0.100 C 
HETATM    3  N1  UNL     1      -0.607   1.905   0.898  1.00  0.00    -0.365 N 
HETATM    4  C5  UNL     1       0.801   1.673   1.239  1.00  0.00     0.136 A 
HETATM    5  C6  UNL     1       1.755   2.177   0.270  1.00  0.00     0.008 A 
HETATM    6  C7  UNL     1       1.424   0.890   0.202  1.00  0.00    -0.051 A 
HETATM    7  C8  UNL     1       1.425  -0.528  -0.315  1.00  0.00     0.021 C 
HETATM    8  C14 UNL     1       0.417  -1.295   0.512  1.00  0.00     0.029 C 
HETATM    9  C15 UNL     1      -0.920  -1.431  -0.145  1.00  0.00     0.126 C 
HETATM   10  N2  UNL     1      -1.781  -0.275   0.139  1.00  0.00    -0.354 N 
HETATM   11  H5  UNL     1      -0.961   2.841   1.160  1.00  0.00     0.162 HD
ENDROOT
BRANCH  10  12
HETATM   12  C16 UNL     1      -3.163  -0.736   0.327  1.00  0.00     0.156 A 
HETATM   13  C17 UNL     1      -3.703  -1.366  -0.875  1.00  0.00     0.004 A 
HETATM   14  C18 UNL     1      -4.151  -2.596  -1.058  1.00  0.00     0.001 A 
HETATM   15  C19 UNL     1      -4.134  -3.524   0.065  1.00  0.00     0.043 A 
HETATM   16  C20 UNL     1      -3.671  -3.104   1.229  1.00  0.00     0.135 A 
HETATM   17  F1  UNL     1      -3.612  -3.894   2.348  1.00  0.00    -0.205 F 
HETATM   18  C21 UNL     1      -3.172  -1.758   1.445  1.00  0.00     0.074 A 
HETATM   19  S1  UNL     1      -2.587  -1.223   2.875  1.00  0.00    -0.079 SA
ENDBRANCH  10  12
BRANCH   1  20
HETATM   20  C2  UNL     1      -3.123   3.113  -0.521  1.00  0.00    -0.007 C 
HETATM   21  C1  UNL     1      -4.169   3.724  -1.106  1.00  0.00     0.011 C 
ENDBRANCH   1  20
BRANCH   7  22
HETATM   22  C9  UNL     1       2.818  -1.111  -0.040  1.00  0.00     0.036 C 
BRANCH  22  23
HETATM   23  C10 UNL     1       3.867  -0.332  -0.721  1.00  0.00    -0.024 C 
HETATM   24  C11 UNL     1       4.901   0.320  -0.211  1.00  0.00    -0.091 C 
HETATM   25  C12 UNL     1       5.138   0.338   1.244  1.00  0.00     0.042 C 
HETATM   26  C13 UNL     1       5.783   1.015  -1.187  1.00  0.00     0.042 C 
ENDBRANCH  22  23
ENDBRANCH   7  22
TORSDOF 4
