REMARK  8 active torsions:
REMARK  status: ('A' for Active; 'I' for Inactive)
REMARK    1  A    between atoms: C4_4  and  O1_5 
REMARK    2  A    between atoms: C6_7  and  C7_8 
REMARK    3  A    between atoms: C7_8  and  N1_9 
REMARK    4  A    between atoms: N1_9  and  C8_10 
REMARK    5  A    between atoms: N1_9  and  C15_18 
REMARK    6  A    between atoms: C8_10  and  C9_11 
REMARK    7  A    between atoms: C15_18  and  N2_20 
REMARK    8  A    between atoms: N2_20  and  C16_21 
ROOT
HETATM    1  N1  UNL     1      -0.337   1.156   0.994  1.00  0.00    -0.350 N 
ENDROOT
BRANCH   1   2
HETATM    2  C7  UNL     1       1.084   1.209   1.006  1.00  0.00     0.164 C 
BRANCH   2   3
HETATM    3  C6  UNL     1       1.760  -0.085   0.688  1.00  0.00    -0.037 A 
HETATM    4  C5  UNL     1       2.060  -1.010   1.688  1.00  0.00     0.045 A 
HETATM    5  C4  UNL     1       2.695  -2.199   1.377  1.00  0.00     0.066 A 
HETATM    6  C3  UNL     1       3.045  -2.486   0.052  1.00  0.00     0.043 A 
HETATM    7  C2  UNL     1       2.731  -1.548  -0.906  1.00  0.00    -0.059 A 
HETATM    8  C1  UNL     1       3.085  -1.815  -2.320  1.00  0.00     0.048 C 
HETATM    9  C22 UNL     1       2.106  -0.373  -0.621  1.00  0.00     0.015 A 
BRANCH   5  10
HETATM   10  O1  UNL     1       2.962  -3.075   2.437  1.00  0.00    -0.361 OA
HETATM   11  H5  UNL     1       3.665  -2.763   3.108  1.00  0.00     0.217 HD
ENDBRANCH   5  10
ENDBRANCH   2   3
ENDBRANCH   1   2
BRANCH   1  12
HETATM   12  C8  UNL     1      -0.835   2.471   1.349  1.00  0.00     0.164 C 
BRANCH  12  13
HETATM   13  C9  UNL     1      -0.412   3.530   0.400  1.00  0.00    -0.040 A 
HETATM   14  C10 UNL     1      -1.271   3.737  -0.653  1.00  0.00     0.012 A 
HETATM   15  C11 UNL     1      -1.008   4.693  -1.618  1.00  0.00     0.043 A 
HETATM   16  C12 UNL     1       0.138   5.472  -1.547  1.00  0.00     0.116 A 
HETATM   17  F1  UNL     1       0.447   6.421  -2.462  1.00  0.00    -0.206 F 
HETATM   18  C13 UNL     1       1.006   5.264  -0.485  1.00  0.00     0.043 A 
HETATM   19  C14 UNL     1       0.721   4.311   0.457  1.00  0.00     0.012 A 
ENDBRANCH  12  13
ENDBRANCH   1  12
BRANCH   1  20
HETATM   20  C15 UNL     1      -1.261   0.139   0.717  1.00  0.00     0.174 C 
HETATM   21  S1  UNL     1      -2.877   0.468   0.815  1.00  0.00    -0.041 SA
BRANCH  20  22
HETATM   22  N2  UNL     1      -1.130  -1.223   0.339  1.00  0.00    -0.333 N 
HETATM   23  H15 UNL     1      -0.271  -1.799   0.170  1.00  0.00     0.168 HD
BRANCH  22  24
HETATM   24  C16 UNL     1      -2.084  -2.245   0.066  1.00  0.00     0.034 A 
HETATM   25  C17 UNL     1      -2.421  -3.078   1.135  1.00  0.00     0.029 A 
HETATM   26  C18 UNL     1      -3.350  -4.091   0.941  1.00  0.00     0.002 A 
HETATM   27  C19 UNL     1      -3.901  -4.226  -0.314  1.00  0.00     0.000 A 
HETATM   28  C20 UNL     1      -3.610  -3.440  -1.400  1.00  0.00     0.002 A 
HETATM   29  C21 UNL     1      -2.680  -2.438  -1.177  1.00  0.00     0.029 A 
ENDBRANCH  22  24
ENDBRANCH  20  22
ENDBRANCH   1  20
TORSDOF 8
