REMARK  9 active torsions:
REMARK  status: ('A' for Active; 'I' for Inactive)
REMARK    1  A    between atoms: C2_2  and  N1_3 
REMARK    2  A    between atoms: N1_3  and  C4_5 
REMARK    3  A    between atoms: C4_5  and  N2_6 
REMARK    4  A    between atoms: N2_6  and  C5_7 
REMARK    5  A    between atoms: N2_6  and  S1_15 
REMARK    6  A    between atoms: C5_7  and  C6_8 
REMARK    7  A    between atoms: C10_13  and  O1_14 
REMARK    8  A    between atoms: S1_15  and  C11_16 
REMARK    9  A    between atoms: C11_16  and  C12_17 
ROOT
HETATM    1  N2  UNL     1      -1.015  -0.161   0.048  1.00  0.00    -0.240 NA
ENDROOT
BRANCH   1   2
HETATM    2  C4  UNL     1      -0.870  -1.574   0.071  1.00  0.00     0.225 C 
BRANCH   2   3
HETATM    3  N1  UNL     1      -2.002  -2.404   0.068  1.00  0.00    -0.382 N 
HETATM    4  C3  UNL     1      -2.215  -3.358  -1.040  1.00  0.00     0.150 C 
BRANCH   3   5
HETATM    5  C2  UNL     1      -3.032  -2.462   1.035  1.00  0.00     0.076 C 
HETATM    6  C1  UNL     1      -4.269  -2.384   0.569  1.00  0.00     0.029 C 
ENDBRANCH   3   5
ENDBRANCH   2   3
ENDBRANCH   1   2
BRANCH   1   7
HETATM    7  C5  UNL     1      -1.710   0.405   1.173  1.00  0.00     0.119 C 
BRANCH   7   8
HETATM    8  C6  UNL     1      -1.873   1.856   0.949  1.00  0.00     0.038 A 
HETATM    9  C7  UNL     1      -2.669   2.895   0.823  1.00  0.00     0.058 A 
HETATM   10  C8  UNL     1      -3.141   4.257   0.632  1.00  0.00     0.002 A 
HETATM   11  C10 UNL     1      -1.180   3.137   0.640  1.00  0.00     0.102 A 
HETATM   12 BR1  UNL     1      -4.898   4.968   0.642  1.00  0.00    -0.055 Br
HETATM   13  C9  UNL     1      -1.857   4.483   0.499  1.00  0.00     0.028 A 
BRANCH  11  14
HETATM   14  O1  UNL     1      -0.682   2.964  -0.744  1.00  0.00    -0.384 OA
HETATM   15  H12 UNL     1      -1.493   2.885  -1.318  1.00  0.00     0.211 HD
ENDBRANCH  11  14
ENDBRANCH   7   8
ENDBRANCH   1   7
BRANCH   1  16
HETATM   16  S1  UNL     1       0.611   0.571  -0.066  1.00  0.00    -0.076 SA
BRANCH  16  17
HETATM   17  C11 UNL     1       1.820  -0.741  -0.198  1.00  0.00     0.130 C 
BRANCH  17  18
HETATM   18  C12 UNL     1       3.237  -0.237  -0.261  1.00  0.00    -0.048 A 
HETATM   19  C13 UNL     1       3.943   0.091  -1.404  1.00  0.00     0.011 A 
HETATM   20  C14 UNL     1       5.247   0.537  -1.266  1.00  0.00     0.043 A 
HETATM   21  C15 UNL     1       5.890   0.675  -0.041  1.00  0.00     0.116 A 
HETATM   22  F1  UNL     1       7.165   1.113   0.045  1.00  0.00    -0.206 F 
HETATM   23  C16 UNL     1       5.182   0.346   1.104  1.00  0.00     0.043 A 
HETATM   24  C17 UNL     1       3.905  -0.090   0.960  1.00  0.00     0.011 A 
ENDBRANCH  17  18
ENDBRANCH  16  17
ENDBRANCH   1  16
TORSDOF 9
