REMARK  7 active torsions:
REMARK  status: ('A' for Active; 'I' for Inactive)
REMARK    1  A    between atoms: C6_6  and  O1_7 
REMARK    2  A    between atoms: C7_8  and  N1_9 
REMARK    3  A    between atoms: N1_9  and  C8_10 
REMARK    4  A    between atoms: N1_9  and  C15_18 
REMARK    5  A    between atoms: C8_10  and  C9_11 
REMARK    6  A    between atoms: C15_18  and  N2_19 
REMARK    7  A    between atoms: C15_18  and  C16_20 
ROOT
HETATM    1  N1  UNL     1      -0.348   0.441   0.005  1.00  0.00    -0.341 N 
ENDROOT
BRANCH   1   2
HETATM    2  C7  UNL     1      -1.181  -0.713  -0.061  1.00  0.00     0.067 A 
HETATM    3  C6  UNL     1      -2.395  -0.560   0.624  1.00  0.00     0.098 A 
HETATM    4  C4  UNL     1      -3.337  -1.592   0.657  1.00  0.00    -0.026 A 
HETATM    5  C3  UNL     1      -3.108  -2.793   0.021  1.00  0.00     0.016 A 
HETATM    6  C5  UNL     1      -4.653  -1.537   1.350  1.00  0.00     0.051 C 
HETATM    7  C2  UNL     1      -1.924  -2.959  -0.654  1.00  0.00    -0.059 A 
HETATM    8  C1  UNL     1      -1.558  -4.197  -1.375  1.00  0.00     0.048 C 
HETATM    9  C23 UNL     1      -1.015  -1.933  -0.673  1.00  0.00     0.039 A 
BRANCH   3  10
HETATM   10  O1  UNL     1      -2.872   0.547   1.347  1.00  0.00    -0.358 OA
HETATM   11  H8  UNL     1      -3.745   0.948   1.039  1.00  0.00     0.217 HD
ENDBRANCH   3  10
ENDBRANCH   1   2
BRANCH   1  12
HETATM   12  C8  UNL     1      -0.993   1.505  -0.739  1.00  0.00     0.164 C 
BRANCH  12  13
HETATM   13  C9  UNL     1      -0.242   2.790  -0.708  1.00  0.00    -0.040 A 
HETATM   14  C10 UNL     1       0.757   3.214  -1.593  1.00  0.00     0.012 A 
HETATM   15  C11 UNL     1       1.340   4.442  -1.418  1.00  0.00     0.043 A 
HETATM   16  C12 UNL     1       1.013   5.309  -0.420  1.00  0.00     0.116 A 
HETATM   17  F1  UNL     1       1.632   6.509  -0.307  1.00  0.00    -0.206 F 
HETATM   18  C13 UNL     1       0.034   4.941   0.480  1.00  0.00     0.043 A 
HETATM   19  C14 UNL     1      -0.554   3.706   0.306  1.00  0.00     0.012 A 
ENDBRANCH  12  13
ENDBRANCH   1  12
BRANCH   1  20
HETATM   20  C15 UNL     1       0.930   0.435   0.736  1.00  0.00     0.354 C 
BRANCH  20  21
HETATM   21  N2  UNL     1       1.447   1.813   0.732  1.00  0.00     0.106 N 
HETATM   22  H16 UNL     1       1.460   2.189   1.719  1.00  0.00     0.316 HD
HETATM   23  H17 UNL     1       2.453   1.753   0.471  1.00  0.00     0.316 HD
ENDBRANCH  20  21
BRANCH  20  24
HETATM   24  C16 UNL     1       1.949  -0.422   0.063  1.00  0.00    -0.000 A 
HETATM   25  C17 UNL     1       2.244  -0.409  -1.281  1.00  0.00     0.011 A 
HETATM   26  C18 UNL     1       3.216  -1.224  -1.823  1.00  0.00     0.001 A 
HETATM   27  C19 UNL     1       3.942  -2.092  -1.041  1.00  0.00     0.001 A 
HETATM   28  C20 UNL     1       3.637  -2.095   0.304  1.00  0.00     0.007 A 
HETATM   29  C21 UNL     1       2.662  -1.290   0.899  1.00  0.00    -0.052 A 
HETATM   30  C22 UNL     1       2.382  -1.341   2.350  1.00  0.00     0.049 C 
ENDBRANCH  20  24
ENDBRANCH   1  20
TORSDOF 7
