REMARK  6 active torsions:
REMARK  status: ('A' for Active; 'I' for Inactive)
REMARK    1  A    between atoms: C6_7  and  B1_8 
REMARK    2  A    between atoms: B1_8  and  C7_9 
REMARK    3  A    between atoms: C10_14  and  N4_15 
REMARK    4  A    between atoms: N4_15  and  C11_16 
REMARK    5  A    between atoms: C12_17  and  C13_18 
REMARK    6  A    between atoms: C13_18  and  C14_19 
ROOT
HETATM    1  C7  UNL     1       0.693  -1.809   0.082  1.00  0.00    -0.061 A 
HETATM    2  C8  UNL     1       0.457  -3.244  -0.296  1.00  0.00     0.175 A 
HETATM    3  N2  UNL     1       1.702  -3.984  -0.301  1.00  0.00    -0.279 NA
HETATM    4  C9  UNL     1       2.827  -3.403  -0.005  1.00  0.00     0.229 A 
HETATM    5  N3  UNL     1       3.038  -2.024   0.356  1.00  0.00    -0.226 NA
HETATM    6  C10 UNL     1       1.993  -1.267   0.393  1.00  0.00     0.121 A 
ENDROOT
BRANCH   1   7
HETATM    7  B1  UNL     1      -0.811  -0.833   0.108  1.00  0.00     0.214 B 
BRANCH   7   8
HETATM    8  C6  UNL     1      -2.210   0.211   0.165  1.00  0.00     0.054 C 
HETATM    9  C5  UNL     1      -1.808   1.586  -0.248  1.00  0.00    -0.016 C 
HETATM   10  C4  UNL     1      -2.649   2.578  -0.499  1.00  0.00    -0.002 C 
HETATM   11  C3  UNL     1      -4.115   2.546  -0.428  1.00  0.00     0.018 C 
HETATM   12  C2  UNL     1      -4.926   1.479  -0.385  1.00  0.00     0.104 C 
HETATM   13  N1  UNL     1      -4.500   0.102  -0.402  1.00  0.00    -0.328 N 
HETATM   14  C1  UNL     1      -5.483  -0.888  -0.050  1.00  0.00     0.170 C 
HETATM   15  N5  UNL     1      -3.203  -0.357  -0.732  1.00  0.00    -0.240 NA
HETATM   16  H19 UNL     1      -3.192  -1.390  -0.568  1.00  0.00     0.146 HD
ENDBRANCH   7   8
ENDBRANCH   1   7
BRANCH   6  17
HETATM   17  N4  UNL     1       2.086   0.129   0.741  1.00  0.00    -0.352 N 
HETATM   18  H12 UNL     1       1.314   0.750   0.367  1.00  0.00     0.166 HD
BRANCH  17  19
HETATM   19  C11 UNL     1       3.209   0.528   1.555  1.00  0.00     0.085 C 
HETATM   20  C12 UNL     1       4.307   0.781   0.860  1.00  0.00    -0.009 C 
BRANCH  20  21
HETATM   21  C13 UNL     1       4.365   0.662  -0.631  1.00  0.00     0.043 C 
BRANCH  21  22
HETATM   22  C14 UNL     1       4.735   2.050  -1.144  1.00  0.00     0.118 C 
HETATM   23 CL1  UNL     1       6.323   2.539  -0.471  1.00  0.00    -0.130 Cl
ENDBRANCH  21  22
ENDBRANCH  20  21
ENDBRANCH  17  19
ENDBRANCH   6  17
TORSDOF 6
