REMARK  7 active torsions:
REMARK  status: ('A' for Active; 'I' for Inactive)
REMARK    1  A    between atoms: S1_1  and  N1_2 
REMARK    2  A    between atoms: C4_6  and  O1_7 
REMARK    3  A    between atoms: O1_7  and  C5_8 
REMARK    4  A    between atoms: C5_8  and  N2_9 
REMARK    5  A    between atoms: N2_9  and  C6_10 
REMARK    6  A    between atoms: C12_16  and  O2_17 
REMARK    7  A    between atoms: O2_17  and  C13_18 
ROOT
HETATM    1  N1  UNL     1       2.391  -1.807  -0.943  1.00  0.00    -0.301 N 
HETATM    2  C1  UNL     1       2.606  -3.110  -0.336  1.00  0.00     0.139 C 
HETATM    3  C2  UNL     1       1.730  -3.220   0.905  1.00  0.00     0.027 C 
HETATM    4  C3  UNL     1       0.339  -2.800   0.458  1.00  0.00     0.071 C 
HETATM    5  C4  UNL     1       0.369  -1.323   0.273  1.00  0.00     0.100 C 
HETATM    6  C12 UNL     1       1.423  -0.886  -0.438  1.00  0.00     0.185 C 
ENDROOT
BRANCH   5   7
HETATM    7  O1  UNL     1      -0.465  -0.312   0.683  1.00  0.00    -0.332 OA
BRANCH   7   8
HETATM    8  C5  UNL     1      -1.850  -0.413   0.482  1.00  0.00     0.298 C 
BRANCH   8   9
HETATM    9  N2  UNL     1      -2.535   0.765   0.992  1.00  0.00    -0.368 N 
HETATM   10  H10 UNL     1      -1.964   1.530   1.434  1.00  0.00     0.161 HD
BRANCH   9  11
HETATM   11  C6  UNL     1      -3.945   0.879   0.895  1.00  0.00     0.029 A 
HETATM   12  C7  UNL     1      -4.685  -0.113   0.322  1.00  0.00     0.029 A 
HETATM   13  C8  UNL     1      -6.067   0.026   0.240  1.00  0.00     0.002 A 
HETATM   14  C9  UNL     1      -6.697   1.171   0.740  1.00  0.00     0.000 A 
HETATM   15  C10 UNL     1      -5.952   2.176   1.319  1.00  0.00     0.002 A 
HETATM   16  C11 UNL     1      -4.571   2.002   1.384  1.00  0.00     0.029 A 
ENDBRANCH   9  11
ENDBRANCH   8   9
ENDBRANCH   7   8
ENDBRANCH   5   7
BRANCH   6  17
HETATM   17  O2  UNL     1       1.640   0.468  -0.727  1.00  0.00    -0.291 OA
BRANCH  17  18
HETATM   18  C13 UNL     1       2.814   1.120  -0.397  1.00  0.00     0.079 A 
HETATM   19  C14 UNL     1       3.914   0.570   0.242  1.00  0.00     0.037 A 
HETATM   20  C15 UNL     1       5.024   1.357   0.505  1.00  0.00     0.004 A 
HETATM   21  C16 UNL     1       5.069   2.700   0.144  1.00  0.00     0.024 A 
HETATM   22  C17 UNL     1       3.956   3.252  -0.501  1.00  0.00     0.036 A 
HETATM   23 CL1  UNL     1       3.988   4.959  -0.971  1.00  0.00    -0.084 Cl
HETATM   24  C18 UNL     1       2.851   2.469  -0.764  1.00  0.00     0.061 A 
ENDBRANCH  17  18
ENDBRANCH   6  17
BRANCH   1  25
HETATM   25  S1  UNL     1       3.393  -1.409  -2.350  1.00  0.00    -0.064 SA
HETATM   26  H1  UNL     1       3.304  -0.027  -2.556  1.00  0.00     0.126 HD
ENDBRANCH   1  25
TORSDOF 7
