REMARK  10 active torsions:
REMARK  status: ('A' for Active; 'I' for Inactive)
REMARK    1  A    between atoms: N1_1  and  C1_2 
REMARK    2  A    between atoms: C1_2  and  N2_8 
REMARK    3  A    between atoms: C2_3  and  C3_4 
REMARK    4  A    between atoms: C3_4  and  C4_5 
REMARK    5  A    between atoms: N2_8  and  C6_9 
REMARK    6  A    between atoms: N2_8  and  C13_18 
REMARK    7  A    between atoms: C6_9  and  C7_10 
REMARK    8  A    between atoms: C10_13  and  O2_14 
REMARK    9  A    between atoms: C13_18  and  N3_20 
REMARK   10  A    between atoms: N3_20  and  C14_21 
ROOT
HETATM    1  N2  UNL     1      -0.159   0.219  -0.491  1.00  0.00    -0.306 N 
ENDROOT
BRANCH   1   2
HETATM    2  C1  UNL     1      -0.879   1.325   0.030  1.00  0.00     0.099 C 
HETATM    3  C2  UNL     1      -0.364   2.541  -0.228  1.00  0.00     0.028 C 
BRANCH   2   4
HETATM    4  N1  UNL     1      -2.091   1.336   0.801  1.00  0.00    -0.386 N 
HETATM    5  H1  UNL     1      -2.939   1.565   0.267  1.00  0.00     0.157 HD
HETATM    6  H2  UNL     1      -2.522   1.200   1.752  1.00  0.00     0.157 HD
ENDBRANCH   2   4
BRANCH   3   7
HETATM    7  C3  UNL     1      -0.671   3.960   0.049  1.00  0.00     0.098 C 
BRANCH   7   8
HETATM    8  C4  UNL     1      -1.904   4.135   0.868  1.00  0.00     0.078 A 
HETATM    9  C5  UNL     1      -3.145   4.688   0.937  1.00  0.00     0.175 A 
HETATM   10  O1  UNL     1      -2.707   3.943   2.007  1.00  0.00    -0.322 OA
ENDBRANCH   7   8
ENDBRANCH   3   7
ENDBRANCH   1   2
BRANCH   1  11
HETATM   11  C6  UNL     1      -0.723  -0.821  -1.309  1.00  0.00     0.173 C 
BRANCH  11  12
HETATM   12  C7  UNL     1      -1.868  -1.528  -0.657  1.00  0.00    -0.018 A 
HETATM   13  C8  UNL     1      -3.156  -1.206  -1.086  1.00  0.00     0.013 A 
HETATM   14  C9  UNL     1      -4.307  -1.766  -0.583  1.00  0.00     0.037 A 
HETATM   15  C10 UNL     1      -4.188  -2.721   0.426  1.00  0.00     0.067 A 
HETATM   16  C11 UNL     1      -2.920  -3.068   0.878  1.00  0.00     0.060 A 
HETATM   17  C12 UNL     1      -1.777  -2.478   0.343  1.00  0.00     0.044 A 
HETATM   18 CL1  UNL     1      -0.160  -2.886   0.886  1.00  0.00    -0.084 Cl
BRANCH  15  19
HETATM   19  O2  UNL     1      -5.307  -3.331   0.984  1.00  0.00    -0.361 OA
HETATM   20  H11 UNL     1      -6.138  -3.405   0.377  1.00  0.00     0.217 HD
ENDBRANCH  15  19
ENDBRANCH  11  12
ENDBRANCH   1  11
BRANCH   1  21
HETATM   21  C13 UNL     1       1.223   0.205  -0.131  1.00  0.00     0.180 C 
HETATM   22  S1  UNL     1       1.960   1.315   0.823  1.00  0.00    -0.040 SA
BRANCH  21  23
HETATM   23  N3  UNL     1       2.212  -0.765  -0.513  1.00  0.00    -0.333 N 
HETATM   24  H13 UNL     1       2.099  -1.617  -1.100  1.00  0.00     0.168 HD
BRANCH  23  25
HETATM   25  C14 UNL     1       3.615  -0.875  -0.215  1.00  0.00     0.034 A 
HETATM   26  C15 UNL     1       4.376   0.106  -0.855  1.00  0.00     0.029 A 
HETATM   27  C16 UNL     1       5.723   0.062  -0.634  1.00  0.00     0.002 A 
HETATM   28  C17 UNL     1       6.315  -0.878   0.162  1.00  0.00     0.000 A 
HETATM   29  C18 UNL     1       5.546  -1.854   0.798  1.00  0.00     0.002 A 
HETATM   30  C19 UNL     1       4.184  -1.838   0.596  1.00  0.00     0.029 A 
ENDBRANCH  23  25
ENDBRANCH  21  23
ENDBRANCH   1  21
TORSDOF 10
