REMARK  3 active torsions:
REMARK  status: ('A' for Active; 'I' for Inactive)
REMARK    1  A    between atoms: O1_1  and  C1_2 
REMARK    2  A    between atoms: C10_14  and  N3_15 
REMARK    3  A    between atoms: N3_15  and  C11_16 
ROOT
HETATM    1  C1  UNL     1      -5.008   0.241   1.108  1.00  0.00     0.068 A 
HETATM    2  C2  UNL     1      -4.407   0.714   2.259  1.00  0.00     0.037 A 
HETATM    3  C3  UNL     1      -3.066   0.411   2.380  1.00  0.00     0.014 A 
HETATM    4  C4  UNL     1      -2.319  -0.306   1.458  1.00  0.00    -0.007 A 
HETATM    5  C5  UNL     1      -2.961  -0.758   0.324  1.00  0.00     0.080 A 
HETATM    6  C6  UNL     1      -4.302  -0.475   0.168  1.00  0.00     0.073 A 
HETATM    7  O2  UNL     1      -2.328  -1.478  -0.658  1.00  0.00    -0.334 OA
HETATM    8  C7  UNL     1      -1.072  -1.426  -1.265  1.00  0.00     0.222 C 
HETATM    9  C8  UNL     1      -1.296  -1.093  -2.696  1.00  0.00     0.129 C 
HETATM   10  N1  UNL     1      -0.693  -0.445  -3.638  1.00  0.00    -0.255 NA
HETATM   11  C9  UNL     1       0.560   0.226  -3.501  1.00  0.00     0.234 C 
HETATM   12  N2  UNL     1       1.179   0.535  -2.412  1.00  0.00    -0.222 NA
HETATM   13  C10 UNL     1       0.815   0.309  -1.056  1.00  0.00     0.154 C 
HETATM   14  C17 UNL     1      -0.125  -0.513  -0.621  1.00  0.00     0.087 C 
HETATM   15  N4  UNL     1       0.013  -0.281   0.785  1.00  0.00    -0.383 N 
HETATM   16  C18 UNL     1      -0.892  -0.454   1.903  1.00  0.00     0.161 C 
HETATM   17  H12 UNL     1       0.943   0.083   1.065  1.00  0.00     0.160 HD
ENDROOT
BRANCH  13  18
HETATM   18  N3  UNL     1       1.611   1.104  -0.184  1.00  0.00    -0.339 N 
HETATM   19  H8  UNL     1       1.367   1.943   0.425  1.00  0.00     0.167 HD
BRANCH  18  20
HETATM   20  C11 UNL     1       2.986   0.714  -0.115  1.00  0.00     0.035 A 
HETATM   21  C12 UNL     1       3.457  -0.360  -0.857  1.00  0.00     0.032 A 
HETATM   22  C13 UNL     1       4.779  -0.794  -0.838  1.00  0.00     0.046 A 
HETATM   23  C14 UNL     1       5.680  -0.122  -0.038  1.00  0.00     0.138 A 
HETATM   24  F1  UNL     1       6.972  -0.463   0.047  1.00  0.00    -0.204 F 
HETATM   25  C15 UNL     1       5.252   0.952   0.715  1.00  0.00     0.074 A 
HETATM   26 CL1  UNL     1       6.294   1.902   1.780  1.00  0.00    -0.081 Cl
HETATM   27  C16 UNL     1       3.936   1.364   0.680  1.00  0.00     0.056 A 
ENDBRANCH  18  20
ENDBRANCH  13  18
BRANCH   1  28
HETATM   28  O1  UNL     1      -6.360   0.504   0.911  1.00  0.00    -0.361 OA
HETATM   29  H1  UNL     1      -6.974   0.644   1.716  1.00  0.00     0.217 HD
ENDBRANCH   1  28
TORSDOF 3
