REMARK  4 active torsions:
REMARK  status: ('A' for Active; 'I' for Inactive)
REMARK    1  A    between atoms: O1_1  and  C1_2 
REMARK    2  A    between atoms: N1_4  and  C3_5 
REMARK    3  A    between atoms: C3_5  and  C4_6 
REMARK    4  A    between atoms: C17_22  and  O2_23 
ROOT
HETATM    1  C1  UNL     1       0.749  -1.236   1.250  1.00  0.00     0.169 C 
HETATM    2  C2  UNL     1       0.260  -0.463   0.092  1.00  0.00     0.160 C 
HETATM    3  N1  UNL     1      -0.358   0.797   0.152  1.00  0.00    -0.351 N 
HETATM    4  C10 UNL     1       0.053   2.152  -0.109  1.00  0.00     0.174 C 
HETATM    5  S1  UNL     1      -0.902   3.464  -0.027  1.00  0.00    -0.041 SA
HETATM    6  N2  UNL     1       1.285   2.828  -0.494  1.00  0.00    -0.333 N 
HETATM    7  C11 UNL     1       2.333   1.872  -0.576  1.00  0.00     0.034 A 
HETATM    8  C12 UNL     1       3.411   1.511  -1.342  1.00  0.00     0.029 A 
HETATM    9  C13 UNL     1       4.153   0.402  -1.059  1.00  0.00     0.003 A 
HETATM   10  C14 UNL     1       3.959  -0.483  -0.034  1.00  0.00     0.010 A 
HETATM   11  C15 UNL     1       2.906  -0.229   0.802  1.00  0.00    -0.025 A 
HETATM   12  C16 UNL     1       2.179   0.933   0.469  1.00  0.00     0.039 A 
HETATM   13  C17 UNL     1       2.012  -0.699   1.935  1.00  0.00     0.181 C 
HETATM   14  H11 UNL     1       1.878   3.603  -0.753  1.00  0.00     0.168 HD
ENDROOT
BRANCH   3  15
HETATM   15  C3  UNL     1      -1.696   0.792   0.672  1.00  0.00     0.164 C 
BRANCH  15  16
HETATM   16  C4  UNL     1      -2.651  -0.037  -0.106  1.00  0.00    -0.039 A 
HETATM   17  C5  UNL     1      -2.947  -1.376   0.141  1.00  0.00     0.009 A 
HETATM   18  C6  UNL     1      -3.825  -2.156  -0.573  1.00  0.00     0.002 A 
HETATM   19  C7  UNL     1      -4.485  -1.543  -1.653  1.00  0.00     0.019 A 
HETATM   20  C8  UNL     1      -4.223  -0.219  -1.936  1.00  0.00     0.011 A 
HETATM   21 BR1  UNL     1      -5.177   0.507  -3.424  1.00  0.00    -0.051 Br
HETATM   22  C9  UNL     1      -3.331   0.525  -1.189  1.00  0.00     0.027 A 
ENDBRANCH  15  16
ENDBRANCH   3  15
BRANCH   1  23
HETATM   23  O1  UNL     1       1.242  -2.459   0.657  1.00  0.00    -0.391 OA
HETATM   24  H1  UNL     1       0.524  -3.136   0.778  1.00  0.00     0.210 HD
ENDBRANCH   1  23
BRANCH  13  25
HETATM   25  O2  UNL     1       1.747   0.366   2.780  1.00  0.00    -0.388 OA
HETATM   26  H17 UNL     1       2.306   0.241   3.587  1.00  0.00     0.210 HD
ENDBRANCH  13  25
TORSDOF 4
