REMARK  9 active torsions:
REMARK  status: ('A' for Active; 'I' for Inactive)
REMARK    1  A    between atoms: C6_6  and  C7_7 
REMARK    2  A    between atoms: C7_7  and  N1_8 
REMARK    3  A    between atoms: N1_8  and  C8_9 
REMARK    4  A    between atoms: N1_8  and  C15_17 
REMARK    5  A    between atoms: C8_9  and  C9_10 
REMARK    6  A    between atoms: C12_13  and  O1_14 
REMARK    7  A    between atoms: C15_17  and  N2_19 
REMARK    8  A    between atoms: N2_19  and  C16_20 
REMARK    9  A    between atoms: C22_26  and  O2_27 
ROOT
HETATM    1  N1  UNL     1      -0.012  -0.062   1.138  1.00  0.00    -0.349 N 
ENDROOT
BRANCH   1   2
HETATM    2  C7  UNL     1       0.950  -1.035   1.687  1.00  0.00     0.167 C 
BRANCH   2   3
HETATM    3  C6  UNL     1       2.324  -0.792   1.217  1.00  0.00    -0.007 A 
HETATM    4  C5  UNL     1       3.306  -0.214   2.012  1.00  0.00     0.011 A 
HETATM    5  C4  UNL     1       4.608   0.038   1.634  1.00  0.00     0.001 A 
HETATM    6  C3  UNL     1       4.948  -0.324   0.347  1.00  0.00     0.009 A 
HETATM    7  C2  UNL     1       4.022  -0.905  -0.502  1.00  0.00    -0.028 A 
HETATM    8  C1  UNL     1       4.409  -1.286  -1.883  1.00  0.00     0.051 C 
HETATM    9  C22 UNL     1       2.719  -1.139  -0.074  1.00  0.00     0.079 A 
BRANCH   9  10
HETATM   10  O2  UNL     1       1.765  -1.713  -0.878  1.00  0.00    -0.360 OA
HETATM   11  H22 UNL     1       1.447  -1.326  -1.759  1.00  0.00     0.217 HD
ENDBRANCH   9  10
ENDBRANCH   2   3
ENDBRANCH   1   2
BRANCH   1  12
HETATM   12  C8  UNL     1       0.457   1.209   1.600  1.00  0.00     0.164 C 
BRANCH  12  13
HETATM   13  C9  UNL     1      -0.325   2.391   1.205  1.00  0.00    -0.040 A 
HETATM   14  C10 UNL     1       0.031   3.037   0.012  1.00  0.00     0.011 A 
HETATM   15  C11 UNL     1      -0.664   4.178  -0.404  1.00  0.00     0.037 A 
HETATM   16  C12 UNL     1      -1.688   4.633   0.385  1.00  0.00     0.065 A 
HETATM   17  C13 UNL     1      -2.088   4.034   1.581  1.00  0.00     0.037 A 
HETATM   18  C14 UNL     1      -1.382   2.902   1.973  1.00  0.00     0.011 A 
BRANCH  16  19
HETATM   19  O1  UNL     1      -2.422   5.767   0.029  1.00  0.00    -0.361 OA
HETATM   20  H13 UNL     1      -3.105   5.666  -0.711  1.00  0.00     0.217 HD
ENDBRANCH  16  19
ENDBRANCH  12  13
ENDBRANCH   1  12
BRANCH   1  21
HETATM   21  C15 UNL     1      -1.148  -0.339   0.329  1.00  0.00     0.174 C 
HETATM   22  S1  UNL     1      -2.007   0.968  -0.106  1.00  0.00    -0.041 SA
BRANCH  21  23
HETATM   23  N2  UNL     1      -1.484  -1.652  -0.051  1.00  0.00    -0.333 N 
HETATM   24  H16 UNL     1      -0.834  -2.384   0.308  1.00  0.00     0.168 HD
BRANCH  23  25
HETATM   25  C16 UNL     1      -2.535  -2.177  -0.828  1.00  0.00     0.034 A 
HETATM   26  C17 UNL     1      -2.632  -3.554  -1.044  1.00  0.00     0.029 A 
HETATM   27  C18 UNL     1      -3.630  -4.120  -1.791  1.00  0.00     0.002 A 
HETATM   28  C19 UNL     1      -4.593  -3.330  -2.365  1.00  0.00     0.000 A 
HETATM   29  C20 UNL     1      -4.564  -1.971  -2.197  1.00  0.00     0.002 A 
HETATM   30  C21 UNL     1      -3.540  -1.463  -1.440  1.00  0.00     0.029 A 
ENDBRANCH  23  25
ENDBRANCH  21  23
ENDBRANCH   1  21
TORSDOF 9
