REMARK  8 active torsions:
REMARK  status: ('A' for Active; 'I' for Inactive)
REMARK    1  A    between atoms: C2_2  and  C3_3 
REMARK    2  A    between atoms: C3_3  and  C4_4 
REMARK    3  A    between atoms: C6_6  and  O1_7 
REMARK    4  A    between atoms: C9_10  and  C10_11 
REMARK    5  A    between atoms: C10_11  and  C11_12 
REMARK    6  A    between atoms: N1_17  and  C16_18 
REMARK    7  A    between atoms: C16_18  and  C17_19 
REMARK    8  A    between atoms: C17_19  and  C18_20 
ROOT
HETATM    1  C10 UNL     1       0.034   0.985   0.200  1.00  0.00     0.096 C 
ENDROOT
BRANCH   1   2
HETATM    2  C9  UNL     1      -1.338   1.113   0.724  1.00  0.00    -0.046 A 
HETATM    3  C4  UNL     1      -2.479   0.958  -0.022  1.00  0.00    -0.045 A 
HETATM    4  C5  UNL     1      -3.663   1.091   0.674  1.00  0.00     0.044 A 
HETATM    5  C6  UNL     1      -3.774   1.361   2.023  1.00  0.00     0.066 A 
HETATM    6  C7  UNL     1      -2.609   1.512   2.746  1.00  0.00     0.037 A 
HETATM    7  C8  UNL     1      -1.378   1.387   2.089  1.00  0.00     0.011 A 
BRANCH   3   8
HETATM    8  C3  UNL     1      -2.404   0.685  -1.471  1.00  0.00     0.065 C 
BRANCH   8   9
HETATM    9  C2  UNL     1      -3.813   0.541  -2.001  1.00  0.00    -0.032 C 
HETATM   10  C1  UNL     1      -4.277  -0.594  -2.578  1.00  0.00     0.007 C 
ENDBRANCH   8   9
ENDBRANCH   3   8
BRANCH   5  11
HETATM   11  O1  UNL     1      -4.980   1.489   2.690  1.00  0.00    -0.361 OA
HETATM   12  H7  UNL     1      -5.665   2.182   2.369  1.00  0.00     0.217 HD
ENDBRANCH   5  11
ENDBRANCH   1   2
BRANCH   1  13
HETATM   13  C11 UNL     1       0.506  -0.393   0.063  1.00  0.00     0.011 A 
HETATM   14  C12 UNL     1      -0.359  -1.323   0.426  1.00  0.00     0.025 A 
HETATM   15  C13 UNL     1      -0.072  -2.749   0.359  1.00  0.00    -0.001 A 
HETATM   16  C14 UNL     1       1.139  -3.000  -0.105  1.00  0.00    -0.007 A 
HETATM   17  C15 UNL     1       2.210  -2.092  -0.552  1.00  0.00     0.150 A 
HETATM   18  N1  UNL     1       1.832  -0.703  -0.409  1.00  0.00    -0.380 N 
BRANCH  18  19
HETATM   19  C16 UNL     1       2.661   0.444  -0.675  1.00  0.00     0.127 C 
BRANCH  19  20
HETATM   20  C17 UNL     1       3.759   0.597   0.345  1.00  0.00     0.047 C 
BRANCH  20  21
HETATM   21  C18 UNL     1       4.691  -0.530   0.398  1.00  0.00    -0.018 C 
HETATM   22  C19 UNL     1       6.000  -0.270   0.167  1.00  0.00     0.160 C 
HETATM   23 BR1  UNL     1       7.904  -0.566  -0.055  1.00  0.00    -0.172 Br
ENDBRANCH  20  21
ENDBRANCH  19  20
ENDBRANCH  18  19
ENDBRANCH   1  13
TORSDOF 8
