REMARK  7 active torsions:
REMARK  status: ('A' for Active; 'I' for Inactive)
REMARK    1  A    between atoms: C2_3  and  N1_4 
REMARK    2  A    between atoms: N1_4  and  C3_5 
REMARK    3  A    between atoms: N1_4  and  C10_14 
REMARK    4  A    between atoms: C3_5  and  C4_6 
REMARK    5  A    between atoms: C9_12  and  O1_13 
REMARK    6  A    between atoms: C10_14  and  N2_16 
REMARK    7  A    between atoms: N2_16  and  C11_17 
ROOT
HETATM    1  B1  UNL     1      -1.520   0.349   4.830  1.00  0.00     0.191 B 
HETATM    2  C1  UNL     1      -1.275   0.875   3.149  1.00  0.00    -0.243 C 
HETATM    3  C2  UNL     1      -1.065   1.307   1.772  1.00  0.00     0.189 C 
ENDROOT
BRANCH   3   4
HETATM    4  N1  UNL     1      -0.394   0.261   1.028  1.00  0.00    -0.345 N 
BRANCH   4   5
HETATM    5  C3  UNL     1      -1.356  -0.794   0.936  1.00  0.00     0.167 C 
BRANCH   5   6
HETATM    6  C4  UNL     1      -2.621  -0.393   0.253  1.00  0.00    -0.006 A 
HETATM    7  C5  UNL     1      -3.770  -0.151   0.995  1.00  0.00     0.012 A 
HETATM    8  C6  UNL     1      -4.996   0.223   0.491  1.00  0.00     0.002 A 
HETATM    9  C7  UNL     1      -5.095   0.373  -0.876  1.00  0.00     0.022 A 
HETATM   10  C8  UNL     1      -3.978   0.144  -1.658  1.00  0.00     0.044 A 
HETATM   11 BR1  UNL     1      -4.130   0.356  -3.545  1.00  0.00    -0.048 Br
HETATM   12  C9  UNL     1      -2.768  -0.230  -1.113  1.00  0.00     0.090 A 
BRANCH  12  13
HETATM   13  O1  UNL     1      -1.654  -0.457  -1.909  1.00  0.00    -0.359 OA
HETATM   14  H8  UNL     1      -1.751  -1.064  -2.738  1.00  0.00     0.217 HD
ENDBRANCH  12  13
ENDBRANCH   5   6
ENDBRANCH   4   5
BRANCH   4  15
HETATM   15  C10 UNL     1       0.937   0.377   0.544  1.00  0.00     0.175 C 
HETATM   16  S1  UNL     1       1.706   1.779   0.869  1.00  0.00    -0.041 SA
BRANCH  15  17
HETATM   17  N2  UNL     1       1.707  -0.565  -0.191  1.00  0.00    -0.333 N 
HETATM   18  H9  UNL     1       1.553  -1.527  -0.565  1.00  0.00     0.168 HD
BRANCH  17  19
HETATM   19  C11 UNL     1       3.040  -0.370  -0.640  1.00  0.00     0.034 A 
HETATM   20  C12 UNL     1       3.977  -0.763   0.320  1.00  0.00     0.029 A 
HETATM   21  C13 UNL     1       5.344  -0.650   0.067  1.00  0.00     0.002 A 
HETATM   22  C14 UNL     1       5.781  -0.148  -1.142  1.00  0.00     0.000 A 
HETATM   23  C15 UNL     1       4.850   0.236  -2.080  1.00  0.00     0.002 A 
HETATM   24  C16 UNL     1       3.497   0.129  -1.840  1.00  0.00     0.029 A 
ENDBRANCH  17  19
ENDBRANCH  15  17
ENDBRANCH   4  15
ENDBRANCH   3   4
TORSDOF 7
