REMARK  8 active torsions:
REMARK  status: ('A' for Active; 'I' for Inactive)
REMARK    1  A    between atoms: O1_1  and  C1_2 
REMARK    2  A    between atoms: C4_5  and  C5_6 
REMARK    3  A    between atoms: C5_6  and  C6_7 
REMARK    4  A    between atoms: C6_7  and  C7_8 
REMARK    5  A    between atoms: C6_7  and  N1_17 
REMARK    6  A    between atoms: C7_8  and  C8_9 
REMARK    7  A    between atoms: C13_15  and  O2_16 
REMARK    8  A    between atoms: N1_17  and  C14_18 
ROOT
HETATM    1  C6  UNL     1      -0.162   0.721   0.167  1.00  0.00     0.086 C 
ENDROOT
BRANCH   1   2
HETATM    2  C5  UNL     1      -0.948  -0.064   1.172  1.00  0.00     0.063 C 
BRANCH   2   3
HETATM    3  C4  UNL     1      -2.030  -0.879   0.544  1.00  0.00    -0.056 A 
HETATM    4  C3  UNL     1      -3.203  -0.107   0.427  1.00  0.00     0.010 A 
HETATM    5  C2  UNL     1      -4.376  -0.584  -0.120  1.00  0.00     0.037 A 
HETATM    6  C1  UNL     1      -4.375  -1.894  -0.571  1.00  0.00     0.065 A 
HETATM    7  C20 UNL     1      -3.251  -2.663  -0.469  1.00  0.00     0.037 A 
HETATM    8  C19 UNL     1      -2.091  -2.168   0.079  1.00  0.00     0.010 A 
BRANCH   6   9
HETATM    9  O1  UNL     1      -5.543  -2.403  -1.126  1.00  0.00    -0.361 OA
HETATM   10  H1  UNL     1      -6.386  -2.529  -0.579  1.00  0.00     0.217 HD
ENDBRANCH   6   9
ENDBRANCH   2   3
ENDBRANCH   1   2
BRANCH   1  11
HETATM   11  C7  UNL     1       0.562  -0.059  -0.861  1.00  0.00     0.066 C 
BRANCH  11  12
HETATM   12  C8  UNL     1       1.582  -1.001  -0.353  1.00  0.00    -0.022 A 
HETATM   13  C9  UNL     1       2.208  -0.838   0.867  1.00  0.00     0.010 A 
HETATM   14  C10 UNL     1       3.176  -1.688   1.382  1.00  0.00     0.002 A 
HETATM   15  C11 UNL     1       3.557  -2.776   0.648  1.00  0.00     0.022 A 
HETATM   16  C12 UNL     1       2.960  -2.993  -0.589  1.00  0.00     0.044 A 
HETATM   17 BR1  UNL     1       3.496  -4.518  -1.604  1.00  0.00    -0.048 Br
HETATM   18  C13 UNL     1       2.002  -2.116  -1.054  1.00  0.00     0.089 A 
BRANCH  18  19
HETATM   19  O2  UNL     1       1.429  -2.377  -2.310  1.00  0.00    -0.359 OA
HETATM   20  H12 UNL     1       2.093  -2.346  -3.098  1.00  0.00     0.217 HD
ENDBRANCH  18  19
ENDBRANCH  11  12
ENDBRANCH   1  11
BRANCH   1  21
HETATM   21  N1  UNL     1       0.580   1.743   0.807  1.00  0.00    -0.406 N 
HETATM   22  H13 UNL     1       0.293   2.054   1.732  1.00  0.00     0.154 HD
BRANCH  21  23
HETATM   23  C14 UNL     1       1.366   2.594  -0.000  1.00  0.00     0.123 A 
HETATM   24  C15 UNL     1       1.964   3.663   0.852  1.00  0.00     0.002 A 
HETATM   25  C16 UNL     1       1.581   4.826   0.332  1.00  0.00    -0.002 A 
HETATM   26  C17 UNL     1       0.734   4.633  -0.855  1.00  0.00    -0.002 A 
HETATM   27  C18 UNL     1       0.610   3.338  -1.047  1.00  0.00     0.002 A 
ENDBRANCH  21  23
ENDBRANCH   1  21
TORSDOF 8
