REMARK  9 active torsions:
REMARK  status: ('A' for Active; 'I' for Inactive)
REMARK    1  A    between atoms: O1_1  and  C1_2 
REMARK    2  A    between atoms: C2_3  and  C3_4 
REMARK    3  A    between atoms: C3_4  and  N1_5 
REMARK    4  A    between atoms: N1_5  and  C4_6 
REMARK    5  A    between atoms: N1_5  and  C11_14 
REMARK    6  A    between atoms: C4_6  and  C5_7 
REMARK    7  A    between atoms: C8_10  and  O2_11 
REMARK    8  A    between atoms: C11_14  and  N2_16 
REMARK    9  A    between atoms: N2_16  and  C12_17 
ROOT
HETATM    1  N1  UNL     1       0.104   0.662  -0.233  1.00  0.00    -0.349 N 
ENDROOT
BRANCH   1   2
HETATM    2  C3  UNL     1      -0.588  -0.257   0.599  1.00  0.00     0.166 C 
BRANCH   2   3
HETATM    3  C2  UNL     1      -1.680  -1.043   0.040  1.00  0.00    -0.011 A 
HETATM    4  C1  UNL     1      -2.257  -1.217  -1.122  1.00  0.00     0.054 A 
HETATM    5  C22 UNL     1      -3.306  -1.923  -1.817  1.00  0.00     0.092 A 
HETATM    6  C21 UNL     1      -4.219  -2.750  -1.010  1.00  0.00    -0.020 A 
HETATM    7  C20 UNL     1      -4.182  -3.052   0.271  1.00  0.00    -0.004 A 
HETATM    8  C19 UNL     1      -3.255  -2.692   1.327  1.00  0.00     0.000 A 
HETATM    9  C18 UNL     1      -2.224  -1.842   1.168  1.00  0.00     0.011 A 
BRANCH   4  10
HETATM   10  O1  UNL     1      -1.702  -0.461  -2.145  1.00  0.00    -0.364 OA
HETATM   11  H1  UNL     1      -0.883  -0.713  -2.674  1.00  0.00     0.217 HD
ENDBRANCH   4  10
ENDBRANCH   2   3
ENDBRANCH   1   2
BRANCH   1  12
HETATM   12  C4  UNL     1      -0.343   1.939  -0.733  1.00  0.00     0.164 C 
BRANCH  12  13
HETATM   13  C5  UNL     1      -0.641   2.876   0.417  1.00  0.00    -0.040 A 
HETATM   14  C6  UNL     1       0.358   3.713   0.927  1.00  0.00     0.011 A 
HETATM   15  C7  UNL     1       0.209   4.597   1.958  1.00  0.00     0.037 A 
HETATM   16  C8  UNL     1      -1.061   4.656   2.541  1.00  0.00     0.065 A 
HETATM   17  C9  UNL     1      -2.059   3.855   2.070  1.00  0.00     0.037 A 
HETATM   18  C10 UNL     1      -1.894   2.963   1.025  1.00  0.00     0.011 A 
BRANCH  16  19
HETATM   19  O2  UNL     1      -1.318   5.519   3.594  1.00  0.00    -0.361 OA
HETATM   20  H8  UNL     1      -2.004   6.253   3.429  1.00  0.00     0.217 HD
ENDBRANCH  16  19
ENDBRANCH  12  13
ENDBRANCH   1  12
BRANCH   1  21
HETATM   21  C11 UNL     1       1.428   0.218  -0.618  1.00  0.00     0.174 C 
HETATM   22  S1  UNL     1       2.383   1.126  -1.569  1.00  0.00    -0.041 SA
BRANCH  21  23
HETATM   23  N2  UNL     1       2.045  -1.002  -0.240  1.00  0.00    -0.333 N 
HETATM   24  H11 UNL     1       1.784  -1.846   0.352  1.00  0.00     0.168 HD
BRANCH  23  25
HETATM   25  C12 UNL     1       3.342  -1.490  -0.593  1.00  0.00     0.034 A 
HETATM   26  C13 UNL     1       4.480  -1.225   0.155  1.00  0.00     0.029 A 
HETATM   27  C14 UNL     1       5.684  -1.744  -0.274  1.00  0.00     0.002 A 
HETATM   28  C15 UNL     1       5.752  -2.511  -1.423  1.00  0.00     0.000 A 
HETATM   29  C16 UNL     1       4.635  -2.789  -2.185  1.00  0.00     0.002 A 
HETATM   30  C17 UNL     1       3.433  -2.259  -1.739  1.00  0.00     0.029 A 
ENDBRANCH  23  25
ENDBRANCH  21  23
ENDBRANCH   1  21
TORSDOF 9
