REMARK  5 active torsions:
REMARK  status: ('A' for Active; 'I' for Inactive)
REMARK    1  A    between atoms: C9_9  and  C10_10 
REMARK    2  A    between atoms: C10_10  and  O1_11 
REMARK    3  A    between atoms: N1_16  and  C15_17 
REMARK    4  A    between atoms: C15_17  and  N2_19 
REMARK    5  A    between atoms: N2_19  and  C16_20 
ROOT
HETATM    1  C1  UNL     1      -3.476   1.553   2.150  1.00  0.00     0.044 C 
HETATM    2  C2  UNL     1      -2.480   0.450   2.108  1.00  0.00    -0.077 C 
HETATM    3  C3  UNL     1      -2.357  -0.728   2.744  1.00  0.00     0.003 C 
HETATM    4  C4  UNL     1      -1.323  -1.742   2.654  1.00  0.00    -0.002 C 
HETATM    5  C5  UNL     1      -0.353  -1.400   1.831  1.00  0.00    -0.001 C 
HETATM    6  C6  UNL     1      -0.299  -0.132   1.099  1.00  0.00     0.122 C 
HETATM    7  C7  UNL     1      -1.559   0.638   0.938  1.00  0.00     0.045 C 
HETATM    8  C8  UNL     1      -2.211   0.605  -0.386  1.00  0.00     0.047 C 
HETATM    9  C9  UNL     1      -3.196  -0.371  -0.819  1.00  0.00    -0.060 C 
HETATM   10  C11 UNL     1      -2.960  -1.279  -1.836  1.00  0.00    -0.021 C 
HETATM   11  C12 UNL     1      -1.812  -1.590  -2.736  1.00  0.00     0.038 C 
HETATM   12  C13 UNL     1      -0.525  -1.076  -2.241  1.00  0.00     0.037 C 
HETATM   13  C14 UNL     1       0.358  -0.604  -1.371  1.00  0.00     0.073 C 
HETATM   14  N1  UNL     1       0.599  -0.222  -0.012  1.00  0.00    -0.328 N 
ENDROOT
BRANCH  14  15
HETATM   15  C15 UNL     1       1.979   0.089   0.114  1.00  0.00     0.178 C 
HETATM   16  S1  UNL     1       2.517   0.554   1.565  1.00  0.00    -0.040 SA
BRANCH  15  17
HETATM   17  N2  UNL     1       2.970   0.041  -0.900  1.00  0.00    -0.333 N 
HETATM   18  H19 UNL     1       3.029  -0.198  -1.917  1.00  0.00     0.168 HD
BRANCH  17  19
HETATM   19  C16 UNL     1       4.357   0.366  -0.731  1.00  0.00     0.034 A 
HETATM   20  C17 UNL     1       4.634   1.711  -0.961  1.00  0.00     0.029 A 
HETATM   21  C18 UNL     1       5.906   2.268  -0.858  1.00  0.00     0.002 A 
HETATM   22  C19 UNL     1       6.906   1.389  -0.505  1.00  0.00     0.000 A 
HETATM   23  C20 UNL     1       6.673   0.052  -0.269  1.00  0.00     0.002 A 
HETATM   24  C21 UNL     1       5.408  -0.481  -0.376  1.00  0.00     0.029 A 
ENDBRANCH  17  19
ENDBRANCH  15  17
ENDBRANCH  14  15
BRANCH   9  25
HETATM   25  C10 UNL     1      -4.610  -0.568  -0.398  1.00  0.00     0.198 C 
BRANCH  25  26
HETATM   26  O1  UNL     1      -4.844  -0.934   0.886  1.00  0.00    -0.397 OA
HETATM   27  H13 UNL     1      -5.602  -0.475   1.326  1.00  0.00     0.209 HD
ENDBRANCH  25  26
ENDBRANCH   9  25
TORSDOF 5
