REMARK  7 active torsions:
REMARK  status: ('A' for Active; 'I' for Inactive)
REMARK    1  A    between atoms: N1_6  and  C6_7 
REMARK    2  A    between atoms: C6_7  and  C7_9 
REMARK    3  A    between atoms: C8_10  and  C9_11 
REMARK    4  A    between atoms: C9_11  and  N2_12 
REMARK    5  A    between atoms: N2_12  and  C10_13 
REMARK    6  A    between atoms: C10_13  and  C11_14 
REMARK    7  A    between atoms: C17_20  and  O1_21 
ROOT
HETATM    1  C7  UNL     1      -1.920  -1.106   0.574  1.00  0.00     0.006 A 
HETATM    2  C8  UNL     1      -0.725  -1.574   0.354  1.00  0.00    -0.039 A 
HETATM    3  C18 UNL     1       0.108  -2.312   1.324  1.00  0.00     0.040 A 
HETATM    4  C19 UNL     1      -0.471  -2.587   2.660  1.00  0.00     0.031 A 
HETATM    5  C20 UNL     1      -1.817  -2.051   2.895  1.00  0.00    -0.025 A 
HETATM    6  C21 UNL     1      -2.382  -1.407   1.907  1.00  0.00     0.011 A 
ENDROOT
BRANCH   2   7
HETATM    7  C9  UNL     1       0.109  -1.506  -0.851  1.00  0.00     0.305 C 
BRANCH   7   8
HETATM    8  N2  UNL     1       1.330  -0.780  -0.423  1.00  0.00     0.091 N 
HETATM    9  H9  UNL     1       0.992   0.150  -0.141  1.00  0.00     0.316 HD
BRANCH   8  10
HETATM   10  C10 UNL     1       2.262  -0.656  -1.516  1.00  0.00     0.311 C 
BRANCH  10  11
HETATM   11  C11 UNL     1       3.453   0.086  -1.029  1.00  0.00     0.003 A 
HETATM   12  C12 UNL     1       4.570  -0.702  -0.771  1.00  0.00     0.012 A 
HETATM   13  C13 UNL     1       5.756  -0.127  -0.306  1.00  0.00     0.001 A 
HETATM   14  C14 UNL     1       5.807   1.230  -0.106  1.00  0.00     0.009 A 
HETATM   15  C15 UNL     1       4.683   2.023  -0.366  1.00  0.00    -0.028 A 
HETATM   16  C16 UNL     1       4.768   3.483  -0.142  1.00  0.00     0.051 C 
HETATM   17  C17 UNL     1       3.517   1.447  -0.825  1.00  0.00     0.079 A 
BRANCH  17  18
HETATM   18  O1  UNL     1       2.383   2.180  -1.096  1.00  0.00    -0.360 OA
HETATM   19  H18 UNL     1       2.517   3.151  -1.346  1.00  0.00     0.217 HD
ENDBRANCH  17  18
ENDBRANCH  10  11
ENDBRANCH   8  10
ENDBRANCH   7   8
ENDBRANCH   2   7
BRANCH   1  20
HETATM   20  C6  UNL     1      -2.675  -0.385  -0.415  1.00  0.00     0.114 C 
HETATM   21  S1  UNL     1      -2.063  -0.101  -1.882  1.00  0.00    -0.059 SA
BRANCH  20  22
HETATM   22  N1  UNL     1      -3.973   0.161  -0.338  1.00  0.00    -0.337 N 
HETATM   23  C2  UNL     1      -4.698   0.868  -1.331  1.00  0.00     0.013 A 
HETATM   24  C1  UNL     1      -4.307   1.173  -2.560  1.00  0.00     0.063 C 
HETATM   25  C3  UNL     1      -6.000   1.270  -0.893  1.00  0.00     0.023 A 
HETATM   26  C4  UNL     1      -6.098   0.838   0.328  1.00  0.00    -0.005 A 
HETATM   27  C5  UNL     1      -4.873   0.125   0.777  1.00  0.00     0.157 A 
ENDBRANCH  20  22
ENDBRANCH   1  20
TORSDOF 7
