REMARK  11 active torsions:
REMARK  status: ('A' for Active; 'I' for Inactive)
REMARK    1  A    between atoms: C4_4  and  N1_5 
REMARK    2  A    between atoms: N1_5  and  C5_6 
REMARK    3  A    between atoms: C5_6  and  N2_8 
REMARK    4  A    between atoms: N2_8  and  C6_9 
REMARK    5  A    between atoms: N2_8  and  O1_17 
REMARK    6  A    between atoms: C6_9  and  C7_10 
REMARK    7  A    between atoms: C7_10  and  C8_11 
REMARK    8  A    between atoms: C9_12  and  C10_13 
REMARK    9  A    between atoms: O1_17  and  C14_18 
REMARK   10  A    between atoms: C14_18  and  C15_19 
REMARK   11  A    between atoms: C18_22  and  O2_23 
ROOT
HETATM    1  N2  UNL     1      -0.164   0.190   0.931  1.00  0.00    -0.232 N 
ENDROOT
BRANCH   1   2
HETATM    2  C5  UNL     1      -0.344   1.450   0.256  1.00  0.00     0.198 C 
HETATM    3  S1  UNL     1       1.056   2.215  -0.180  1.00  0.00    -0.039 SA
BRANCH   2   4
HETATM    4  N1  UNL     1      -1.576   2.113  -0.079  1.00  0.00    -0.335 N 
HETATM    5  H6  UNL     1      -2.430   1.606   0.215  1.00  0.00     0.168 HD
BRANCH   4   6
HETATM    6  C4  UNL     1      -1.592   3.366  -0.754  1.00  0.00     0.016 A 
HETATM    7  C2  UNL     1      -1.067   4.482  -1.580  1.00  0.00     0.055 A 
HETATM    8  C1  UNL     1       0.061   5.243  -0.935  1.00  0.00     0.020 C 
HETATM    9  C3  UNL     1      -2.373   4.408  -0.994  1.00  0.00     0.009 A 
ENDBRANCH   4   6
ENDBRANCH   2   4
ENDBRANCH   1   2
BRANCH   1  10
HETATM   10  C6  UNL     1       1.144  -0.384   1.220  1.00  0.00     0.162 C 
BRANCH  10  11
HETATM   11  C7  UNL     1       1.891  -0.828   0.009  1.00  0.00     0.049 C 
BRANCH  11  12
HETATM   12  C8  UNL     1       3.236  -1.417   0.315  1.00  0.00    -0.025 C 
HETATM   13  C9  UNL     1       4.432  -0.998  -0.101  1.00  0.00    -0.003 C 
BRANCH  13  14
HETATM   14  C10 UNL     1       5.687  -1.678   0.279  1.00  0.00     0.011 C 
HETATM   15  C11 UNL     1       6.757  -1.102  -0.241  1.00  0.00    -0.036 A 
HETATM   16  C12 UNL     1       7.730  -0.283  -0.930  1.00  0.00     0.012 A 
HETATM   17  C13 UNL     1       8.214  -1.346  -0.212  1.00  0.00     0.012 A 
ENDBRANCH  13  14
ENDBRANCH  11  12
ENDBRANCH  10  11
ENDBRANCH   1  10
BRANCH   1  18
HETATM   18  O1  UNL     1      -1.394  -0.340   1.230  1.00  0.00    -0.271 OA
BRANCH  18  19
HETATM   19  C14 UNL     1      -1.760  -1.084   0.127  1.00  0.00     0.240 C 
BRANCH  19  20
HETATM   20  C15 UNL     1      -3.108  -1.708   0.330  1.00  0.00    -0.032 A 
HETATM   21  C16 UNL     1      -4.247  -1.000  -0.035  1.00  0.00     0.012 A 
HETATM   22  C17 UNL     1      -5.520  -1.547   0.138  1.00  0.00     0.037 A 
HETATM   23  C18 UNL     1      -5.584  -2.821   0.687  1.00  0.00     0.065 A 
HETATM   24  C19 UNL     1      -4.466  -3.546   1.058  1.00  0.00     0.037 A 
HETATM   25  C20 UNL     1      -3.214  -2.974   0.873  1.00  0.00     0.012 A 
BRANCH  23  26
HETATM   26  O2  UNL     1      -6.832  -3.416   0.882  1.00  0.00    -0.361 OA
HETATM   27  H20 UNL     1      -7.277  -3.976   0.140  1.00  0.00     0.217 HD
ENDBRANCH  23  26
ENDBRANCH  19  20
ENDBRANCH  18  19
ENDBRANCH   1  18
TORSDOF 11
