REMARK  3 active torsions:
REMARK  status: ('A' for Active; 'I' for Inactive)
REMARK    1  A    between atoms: O1_2  and  C2_3 
REMARK    2  A    between atoms: C8_11  and  N2_12 
REMARK    3  A    between atoms: N2_12  and  C9_13 
ROOT
HETATM    1  C2  UNL     1      -3.344   0.572  -0.296  1.00  0.00     0.080 C 
HETATM    2  C3  UNL     1      -4.235  -0.408  -0.192  1.00  0.00     0.038 C 
HETATM    3  C4  UNL     1      -4.156  -1.735  -0.803  1.00  0.00     0.015 C 
HETATM    4  C5  UNL     1      -3.618  -1.753  -2.013  1.00  0.00    -0.021 C 
HETATM    5  P1  UNL     1      -2.190  -1.032  -2.230  1.00  0.00    -0.065 P 
HETATM    6  C6  UNL     1      -0.841  -2.183  -2.109  1.00  0.00     0.155 C 
HETATM    7  N1  UNL     1      -0.278  -2.378  -0.814  1.00  0.00    -0.393 N 
HETATM    8  C7  UNL     1       0.282  -1.391  -0.026  1.00  0.00     0.117 C 
HETATM    9  C8  UNL     1       0.901  -0.386   0.444  1.00  0.00     0.095 C 
HETATM   10  C15 UNL     1       1.464   0.369  -0.692  1.00  0.00     0.172 C 
HETATM   11  N3  UNL     1       2.207   1.463  -0.830  1.00  0.00    -0.280 NA
HETATM   12  N4  UNL     1       1.467   0.345  -2.113  1.00  0.00    -0.215 NA
HETATM   13  C16 UNL     1       0.533   0.918  -2.816  1.00  0.00     0.260 C 
HETATM   14  O2  UNL     1       0.173   1.163  -1.530  1.00  0.00    -0.315 OA
HETATM   15  C17 UNL     1      -1.082   1.101  -0.961  1.00  0.00     0.158 C 
HETATM   16  C18 UNL     1      -2.146   0.321  -1.103  1.00  0.00     0.023 C 
HETATM   17  H6  UNL     1      -2.295  -0.458  -3.533  1.00  0.00     0.064 HD
HETATM   18  H9  UNL     1      -0.293  -3.374  -0.434  1.00  0.00     0.159 HD
HETATM   19  H15 UNL     1       2.517   1.981   0.001  1.00  0.00     0.188 HD
ENDROOT
BRANCH   9  20
HETATM   20  N2  UNL     1       1.354   0.485   1.447  1.00  0.00    -0.352 N 
HETATM   21  H11 UNL     1       0.817   1.319   1.748  1.00  0.00     0.166 HD
BRANCH  20  22
HETATM   22  C9  UNL     1       2.594   0.158   2.029  1.00  0.00     0.034 A 
HETATM   23  C10 UNL     1       3.122   0.946   3.022  1.00  0.00     0.032 A 
HETATM   24  C11 UNL     1       4.324   0.760   3.687  1.00  0.00     0.046 A 
HETATM   25  C12 UNL     1       5.016  -0.374   3.243  1.00  0.00     0.138 A 
HETATM   26  F1  UNL     1       6.211  -0.651   3.829  1.00  0.00    -0.204 F 
HETATM   27  C13 UNL     1       4.590  -1.253   2.246  1.00  0.00     0.074 A 
HETATM   28 CL1  UNL     1       5.536  -2.620   1.791  1.00  0.00    -0.081 Cl
HETATM   29  C14 UNL     1       3.386  -0.909   1.707  1.00  0.00     0.056 A 
ENDBRANCH  20  22
ENDBRANCH   9  20
BRANCH   1  30
HETATM   30  O1  UNL     1      -3.532   1.793   0.334  1.00  0.00    -0.355 OA
HETATM   31  C1  UNL     1      -4.206   2.844  -0.381  1.00  0.00     0.210 C 
ENDBRANCH   1  30
TORSDOF 3
