REMARK  9 active torsions:
REMARK  status: ('A' for Active; 'I' for Inactive)
REMARK    1  A    between atoms: C5_5  and  O1_6 
REMARK    2  A    between atoms: C6_7  and  C7_8 
REMARK    3  A    between atoms: C7_8  and  N1_9 
REMARK    4  A    between atoms: N1_9  and  C8_10 
REMARK    5  A    between atoms: N1_9  and  C15_18 
REMARK    6  A    between atoms: C8_10  and  C9_11 
REMARK    7  A    between atoms: C12_14  and  O2_15 
REMARK    8  A    between atoms: C15_18  and  N2_20 
REMARK    9  A    between atoms: N2_20  and  C16_21 
ROOT
HETATM    1  N1  UNL     1      -0.025  -0.268   0.098  1.00  0.00    -0.349 N 
ENDROOT
BRANCH   1   2
HETATM    2  C7  UNL     1      -1.288  -0.778   0.520  1.00  0.00     0.167 C 
BRANCH   2   3
HETATM    3  C6  UNL     1      -2.232  -1.150  -0.531  1.00  0.00    -0.007 A 
HETATM    4  C5  UNL     1      -2.054  -2.302  -1.309  1.00  0.00     0.073 A 
HETATM    5  C4  UNL     1      -2.921  -2.696  -2.294  1.00  0.00     0.037 A 
HETATM    6  C3  UNL     1      -4.048  -1.952  -2.575  1.00  0.00     0.009 A 
HETATM    7  C2  UNL     1      -4.288  -0.805  -1.848  1.00  0.00    -0.061 A 
HETATM    8  C1  UNL     1      -5.486   0.012  -2.125  1.00  0.00     0.048 C 
HETATM    9  C22 UNL     1      -3.380  -0.468  -0.876  1.00  0.00     0.018 A 
BRANCH   4  10
HETATM   10  O1  UNL     1      -0.982  -3.135  -1.142  1.00  0.00    -0.360 OA
HETATM   11  H6  UNL     1      -0.256  -3.334  -1.815  1.00  0.00     0.217 HD
ENDBRANCH   4  10
ENDBRANCH   2   3
ENDBRANCH   1   2
BRANCH   1  12
HETATM   12  C8  UNL     1       0.048   0.930  -0.709  1.00  0.00     0.164 C 
BRANCH  12  13
HETATM   13  C9  UNL     1      -0.365   2.163  -0.010  1.00  0.00    -0.040 A 
HETATM   14  C10 UNL     1      -1.552   2.845   0.079  1.00  0.00     0.011 A 
HETATM   15  C11 UNL     1      -1.646   3.992   0.837  1.00  0.00     0.037 A 
HETATM   16  C12 UNL     1      -0.589   4.524   1.539  1.00  0.00     0.065 A 
HETATM   17  C13 UNL     1       0.617   3.853   1.463  1.00  0.00     0.037 A 
HETATM   18  C14 UNL     1       0.725   2.690   0.698  1.00  0.00     0.011 A 
BRANCH  16  19
HETATM   19  O2  UNL     1      -0.822   5.686   2.263  1.00  0.00    -0.361 OA
HETATM   20  H13 UNL     1      -1.410   6.431   1.945  1.00  0.00     0.217 HD
ENDBRANCH  16  19
ENDBRANCH  12  13
ENDBRANCH   1  12
BRANCH   1  21
HETATM   21  C15 UNL     1       1.140  -1.007   0.540  1.00  0.00     0.174 C 
HETATM   22  S1  UNL     1       0.883  -2.326   1.483  1.00  0.00    -0.041 SA
BRANCH  21  23
HETATM   23  N2  UNL     1       2.523  -0.809   0.322  1.00  0.00    -0.333 N 
HETATM   24  H16 UNL     1       2.487   0.052  -0.262  1.00  0.00     0.168 HD
BRANCH  23  25
HETATM   25  C16 UNL     1       3.785  -1.360   0.626  1.00  0.00     0.034 A 
HETATM   26  C17 UNL     1       3.989  -2.486   1.385  1.00  0.00     0.029 A 
HETATM   27  C18 UNL     1       5.240  -2.992   1.659  1.00  0.00     0.002 A 
HETATM   28  C19 UNL     1       6.255  -2.258   1.097  1.00  0.00     0.000 A 
HETATM   29  C20 UNL     1       6.139  -1.137   0.337  1.00  0.00     0.002 A 
HETATM   30  C21 UNL     1       4.870  -0.677   0.096  1.00  0.00     0.029 A 
ENDBRANCH  23  25
ENDBRANCH  21  23
ENDBRANCH   1  21
TORSDOF 9
