REMARK  4 active torsions:
REMARK  status: ('A' for Active; 'I' for Inactive)
REMARK    1  A    between atoms: C3_3  and  O1_4 
REMARK    2  A    between atoms: N2_14  and  C11_15 
REMARK    3  A    between atoms: C11_15  and  C12_16 
REMARK    4  A    between atoms: C15_19  and  O2_20 
ROOT
HETATM    1  C1  UNL     1      -3.549  -1.091   0.257  1.00  0.00     0.047 C 
HETATM    2  C2  UNL     1      -2.343  -0.179   0.168  1.00  0.00    -0.044 C 
HETATM    3  C3  UNL     1      -2.157   0.225   1.410  1.00  0.00     0.080 C 
HETATM    4  C4  UNL     1      -1.377   1.051   2.369  1.00  0.00     0.024 A 
HETATM    5  C5  UNL     1      -2.226   1.686   3.293  1.00  0.00     0.016 A 
HETATM    6  C6  UNL     1      -1.864   2.553   4.292  1.00  0.00     0.001 A 
HETATM    7  C7  UNL     1      -0.526   2.797   4.361  1.00  0.00     0.002 A 
HETATM    8  C8  UNL     1       0.406   2.243   3.524  1.00  0.00     0.030 A 
HETATM    9  C9  UNL     1      -0.018   1.398   2.561  1.00  0.00     0.047 A 
HETATM   10  N1  UNL     1       0.595   0.681   1.529  1.00  0.00    -0.332 N 
HETATM   11  C10 UNL     1       0.182   1.257   0.370  1.00  0.00     0.174 C 
HETATM   12  S1  UNL     1      -0.547   2.590   0.100  1.00  0.00    -0.041 SA
HETATM   13  N2  UNL     1       0.484   0.790  -0.858  1.00  0.00    -0.353 N 
HETATM   14  C18 UNL     1       0.266   0.749  -2.286  1.00  0.00     0.131 C 
HETATM   15  C19 UNL     1      -1.091   0.026  -2.358  1.00  0.00     0.019 C 
HETATM   16  C20 UNL     1      -1.492   0.055  -1.048  1.00  0.00     0.032 C 
HETATM   17  H9  UNL     1       1.067   0.068   2.119  1.00  0.00     0.168 HD
ENDROOT
BRANCH  13  18
HETATM   18  C11 UNL     1       1.319  -0.243  -0.371  1.00  0.00     0.163 C 
BRANCH  18  19
HETATM   19  C12 UNL     1       1.970  -1.014  -1.488  1.00  0.00    -0.040 A 
HETATM   20  C13 UNL     1       3.205  -0.556  -1.920  1.00  0.00     0.011 A 
HETATM   21  C14 UNL     1       3.944  -1.141  -2.935  1.00  0.00     0.037 A 
HETATM   22  C15 UNL     1       3.347  -2.245  -3.505  1.00  0.00     0.065 A 
HETATM   23  C16 UNL     1       2.131  -2.727  -3.106  1.00  0.00     0.037 A 
HETATM   24  C17 UNL     1       1.430  -2.121  -2.098  1.00  0.00     0.011 A 
BRANCH  22  25
HETATM   25  O2  UNL     1       4.041  -2.881  -4.535  1.00  0.00    -0.361 OA
HETATM   26  H14 UNL     1       4.871  -3.402  -4.240  1.00  0.00     0.217 HD
ENDBRANCH  22  25
ENDBRANCH  18  19
ENDBRANCH  13  18
BRANCH   3  27
HETATM   27  O1  UNL     1      -3.182  -0.454   2.051  1.00  0.00    -0.360 OA
HETATM   28  H4  UNL     1      -4.023  -0.087   2.415  1.00  0.00     0.217 HD
ENDBRANCH   3  27
TORSDOF 4
