REMARK  7 active torsions:
REMARK  status: ('A' for Active; 'I' for Inactive)
REMARK    1  A    between atoms: O1_2  and  C2_3 
REMARK    2  A    between atoms: C5_6  and  N1_7 
REMARK    3  A    between atoms: N1_7  and  C6_8 
REMARK    4  A    between atoms: N1_7  and  C12_15 
REMARK    5  A    between atoms: C6_8  and  C7_9 
REMARK    6  A    between atoms: C12_15  and  N2_17 
REMARK    7  A    between atoms: N2_17  and  C13_18 
ROOT
HETATM    1  N1  UNL     1      -0.306   0.133   0.741  1.00  0.00    -0.324 N 
ENDROOT
BRANCH   1   2
HETATM    2  C5  UNL     1       1.094   0.397   0.765  1.00  0.00     0.014 C 
HETATM    3  C4  UNL     1       2.166   1.381   0.517  1.00  0.00     0.086 C 
HETATM    4  C3  UNL     1       3.210   0.776  -0.392  1.00  0.00     0.012 C 
HETATM    5  C2  UNL     1       3.747  -0.349   0.015  1.00  0.00     0.045 C 
HETATM    6  C20 UNL     1       3.185  -0.783   1.321  1.00  0.00     0.093 C 
HETATM    7  C19 UNL     1       1.680  -0.746   1.193  1.00  0.00     0.005 C 
BRANCH   5   8
HETATM    8  O1  UNL     1       4.717  -1.056  -0.673  1.00  0.00    -0.360 OA
HETATM    9  C1  UNL     1       6.092  -0.774  -0.393  1.00  0.00     0.209 C 
ENDBRANCH   5   8
ENDBRANCH   1   2
BRANCH   1  10
HETATM   10  C6  UNL     1      -0.869   1.069   1.684  1.00  0.00     0.167 C 
BRANCH  10  11
HETATM   11  C7  UNL     1      -0.756   2.469   1.228  1.00  0.00    -0.040 A 
HETATM   12  C8  UNL     1      -0.154   3.448   1.833  1.00  0.00     0.006 A 
HETATM   13  C9  UNL     1      -0.352   4.571   0.942  1.00  0.00    -0.002 A 
HETATM   14  C10 UNL     1      -1.036   4.317  -0.151  1.00  0.00    -0.002 A 
HETATM   15  C11 UNL     1      -1.401   2.864  -0.072  1.00  0.00     0.135 A 
HETATM   16 CL1  UNL     1      -0.734   1.906  -1.404  1.00  0.00    -0.116 Cl
ENDBRANCH  10  11
ENDBRANCH   1  10
BRANCH   1  17
HETATM   17  C12 UNL     1      -0.845  -0.874  -0.162  1.00  0.00     0.179 C 
HETATM   18  S1  UNL     1       0.279  -1.564  -1.094  1.00  0.00    -0.040 SA
BRANCH  17  19
HETATM   19  N2  UNL     1      -2.268  -1.067  -0.053  1.00  0.00    -0.333 N 
HETATM   20  H13 UNL     1      -2.809  -0.553   0.634  1.00  0.00     0.168 HD
BRANCH  19  21
HETATM   21  C13 UNL     1      -2.998  -1.983  -0.889  1.00  0.00     0.034 A 
HETATM   22  C14 UNL     1      -2.561  -2.741  -1.933  1.00  0.00     0.029 A 
HETATM   23  C15 UNL     1      -3.346  -3.597  -2.653  1.00  0.00     0.002 A 
HETATM   24  C16 UNL     1      -4.674  -3.734  -2.341  1.00  0.00     0.000 A 
HETATM   25  C17 UNL     1      -5.191  -3.006  -1.304  1.00  0.00     0.002 A 
HETATM   26  C18 UNL     1      -4.361  -2.169  -0.622  1.00  0.00     0.029 A 
ENDBRANCH  19  21
ENDBRANCH  17  19
ENDBRANCH   1  17
TORSDOF 7
