REMARK  9 active torsions:
REMARK  status: ('A' for Active; 'I' for Inactive)
REMARK    1  A    between atoms: C3_3  and  S1_4 
REMARK    2  A    between atoms: C5_6  and  O1_7 
REMARK    3  A    between atoms: O1_7  and  C6_8 
REMARK    4  A    between atoms: N1_13  and  C11_14 
REMARK    5  A    between atoms: C11_14  and  C12_15 
REMARK    6  A    between atoms: C12_15  and  N2_16 
REMARK    7  A    between atoms: N2_16  and  C13_17 
REMARK    8  A    between atoms: C20_24  and  C21_25 
REMARK    9  A    between atoms: C21_25  and  O2_26 
ROOT
HETATM    1  C6  UNL     1       0.591  -1.923   0.443  1.00  0.00     0.249 C 
HETATM    2  C7  UNL     1       0.306  -3.007   1.458  1.00  0.00     0.022 C 
HETATM    3  C8  UNL     1      -0.369  -3.986   0.821  1.00  0.00    -0.025 C 
HETATM    4  C9  UNL     1      -0.820  -4.118  -0.613  1.00  0.00     0.046 C 
HETATM    5  C10 UNL     1      -0.933  -2.721  -1.217  1.00  0.00     0.123 C 
HETATM    6  N1  UNL     1      -0.619  -1.710  -0.270  1.00  0.00    -0.382 N 
ENDROOT
BRANCH   1   7
HETATM    7  O1  UNL     1       0.985  -0.733   1.082  1.00  0.00    -0.327 OA
BRANCH   7   8
HETATM    8  C5  UNL     1       1.881   0.166   0.452  1.00  0.00     0.051 C 
HETATM    9  C4  UNL     1       1.722   1.584   0.054  1.00  0.00     0.110 C 
HETATM   10  C3  UNL     1       3.042   2.248   0.169  1.00  0.00    -0.016 C 
HETATM   11  C2  UNL     1       4.191   1.623  -0.057  1.00  0.00    -0.061 C 
HETATM   12  C1  UNL     1       5.427   2.427   0.097  1.00  0.00     0.045 C 
HETATM   13  C20 UNL     1       4.214   0.201  -0.439  1.00  0.00     0.064 C 
HETATM   14  C19 UNL     1       3.051  -0.464   0.214  1.00  0.00     0.017 C 
BRANCH  10  15
HETATM   15  S1  UNL     1       3.219   3.979   0.625  1.00  0.00    -0.147 SA
HETATM   16  H4  UNL     1       2.685   4.172   1.912  1.00  0.00     0.107 HD
ENDBRANCH  10  15
BRANCH  13  17
HETATM   17  C21 UNL     1       5.501  -0.490  -0.067  1.00  0.00     0.177 C 
BRANCH  17  18
HETATM   18  O2  UNL     1       5.396  -1.837  -0.482  1.00  0.00    -0.400 OA
HETATM   19  H28 UNL     1       5.205  -2.428   0.279  1.00  0.00     0.209 HD
ENDBRANCH  17  18
ENDBRANCH  13  17
ENDBRANCH   7   8
ENDBRANCH   1   7
BRANCH   6  20
HETATM   20  C11 UNL     1      -1.149  -0.433  -0.366  1.00  0.00     0.139 C 
BRANCH  20  21
HETATM   21  C12 UNL     1      -2.637  -0.303  -0.157  1.00  0.00     0.139 C 
BRANCH  21  22
HETATM   22  N2  UNL     1      -2.942   1.128  -0.301  1.00  0.00    -0.388 N 
HETATM   23  H18 UNL     1      -2.220   1.860  -0.502  1.00  0.00     0.159 HD
BRANCH  22  24
HETATM   24  C13 UNL     1      -4.313   1.502  -0.153  1.00  0.00     0.028 A 
HETATM   25  C14 UNL     1      -5.246   0.511   0.107  1.00  0.00     0.029 A 
HETATM   26  C15 UNL     1      -6.579   0.857   0.255  1.00  0.00     0.002 A 
HETATM   27  C16 UNL     1      -6.880   2.189   0.129  1.00  0.00     0.000 A 
HETATM   28  C17 UNL     1      -6.010   3.227  -0.128  1.00  0.00     0.002 A 
HETATM   29  C18 UNL     1      -4.678   2.819  -0.268  1.00  0.00     0.029 A 
ENDBRANCH  22  24
ENDBRANCH  21  22
ENDBRANCH  20  21
ENDBRANCH   6  20
TORSDOF 9
