REMARK  4 active torsions:
REMARK  status: ('A' for Active; 'I' for Inactive)
REMARK    1  A    between atoms: O1_2  and  C2_3 
REMARK    2  A    between atoms: C4_5  and  C5_6 
REMARK    3  A    between atoms: C8_10  and  N2_11 
REMARK    4  A    between atoms: N2_11  and  C9_12 
ROOT
HETATM    1  C5  UNL     1      -1.845  -0.480  -0.534  1.00  0.00     0.053 C 
HETATM    2  C6  UNL     1      -0.814   0.495  -0.129  1.00  0.00     0.131 C 
HETATM    3  N1  UNL     1       0.429  -0.016   0.335  1.00  0.00    -0.383 N 
HETATM    4  C7  UNL     1       0.945  -1.327   0.539  1.00  0.00     0.128 A 
HETATM    5  C8  UNL     1       2.113  -1.331   1.269  1.00  0.00     0.160 A 
HETATM    6  N3  UNL     1       2.661  -2.558   1.501  1.00  0.00    -0.222 NA
HETATM    7  C15 UNL     1       2.112  -3.698   1.055  1.00  0.00     0.238 A 
HETATM    8  N4  UNL     1       0.963  -3.637   0.343  1.00  0.00    -0.216 NA
HETATM    9  C16 UNL     1       0.346  -2.481   0.061  1.00  0.00     0.196 A 
HETATM   10  O2  UNL     1      -0.818  -2.657  -0.681  1.00  0.00    -0.332 OA
HETATM   11  C17 UNL     1      -1.418  -1.601  -1.416  1.00  0.00     0.187 C 
HETATM   12  H11 UNL     1       1.098   0.749   0.574  1.00  0.00     0.160 HD
ENDROOT
BRANCH   5  13
HETATM   13  N2  UNL     1       2.698  -0.121   1.742  1.00  0.00    -0.339 N 
HETATM   14  H12 UNL     1       2.371   0.169   2.686  1.00  0.00     0.167 HD
BRANCH  13  15
HETATM   15  C9  UNL     1       3.646   0.620   0.981  1.00  0.00     0.035 A 
HETATM   16  C10 UNL     1       4.000   0.132  -0.260  1.00  0.00     0.032 A 
HETATM   17  C11 UNL     1       4.923   0.840  -1.016  1.00  0.00     0.046 A 
HETATM   18  C12 UNL     1       5.467   2.023  -0.503  1.00  0.00     0.138 A 
HETATM   19  F1  UNL     1       6.371   2.732  -1.226  1.00  0.00    -0.204 F 
HETATM   20  C13 UNL     1       5.064   2.448   0.745  1.00  0.00     0.074 A 
HETATM   21 CL1  UNL     1       5.747   3.931   1.387  1.00  0.00    -0.081 Cl
HETATM   22  C14 UNL     1       4.142   1.777   1.547  1.00  0.00     0.056 A 
ENDBRANCH  13  15
ENDBRANCH   5  13
BRANCH   1  23
HETATM   23  C4  UNL     1      -2.898   0.266  -1.275  1.00  0.00     0.013 C 
HETATM   24  C2  UNL     1      -4.120   0.423  -0.834  1.00  0.00     0.038 C 
HETATM   25  C3  UNL     1      -5.079   1.188  -1.664  1.00  0.00     0.076 C 
BRANCH  24  26
HETATM   26  O1  UNL     1      -4.481  -0.127   0.388  1.00  0.00    -0.361 OA
HETATM   27  C1  UNL     1      -5.526   0.472   1.163  1.00  0.00     0.209 C 
ENDBRANCH  24  26
ENDBRANCH   1  23
TORSDOF 4
