REMARK  3 active torsions:
REMARK  status: ('A' for Active; 'I' for Inactive)
REMARK    1  A    between atoms: C2_3  and  C3_4 
REMARK    2  A    between atoms: C3_4  and  C4_5 
REMARK    3  A    between atoms: C11_12  and  C12_13 
ROOT
HETATM    1  B1  UNL     1      -0.018   3.092  -2.672  1.00  0.00     0.189 B 
HETATM    2  C1  UNL     1      -1.095   2.912  -1.266  1.00  0.00    -0.261 C 
HETATM    3  C2  UNL     1      -1.976   2.790  -0.108  1.00  0.00     0.067 C 
ENDROOT
BRANCH   3   4
HETATM    4  C3  UNL     1      -1.475   1.728   0.846  1.00  0.00     0.050 C 
BRANCH   4   5
HETATM    5  C4  UNL     1      -1.379   0.384   0.265  1.00  0.00    -0.039 A 
HETATM    6  C5  UNL     1      -2.547  -0.326   0.078  1.00  0.00    -0.054 A 
HETATM    7  C6  UNL     1      -3.908   0.158   0.421  1.00  0.00     0.049 C 
HETATM    8  C7  UNL     1      -2.552  -1.612  -0.470  1.00  0.00     0.014 A 
HETATM    9  C8  UNL     1      -1.359  -2.193  -0.836  1.00  0.00    -0.061 A 
HETATM   10  C9  UNL     1      -1.276  -3.560  -1.427  1.00  0.00     0.048 C 
HETATM   11  C10 UNL     1      -0.223  -1.462  -0.636  1.00  0.00     0.021 A 
HETATM   12  C11 UNL     1      -0.181  -0.191  -0.099  1.00  0.00     0.001 A 
BRANCH  12  13
HETATM   13  C12 UNL     1       1.089   0.504   0.077  1.00  0.00     0.081 A 
HETATM   14  N1  UNL     1       1.596   1.686   0.168  1.00  0.00    -0.246 NA
HETATM   15  C13 UNL     1       2.947   1.277   0.327  1.00  0.00     0.070 A 
HETATM   16  C14 UNL     1       4.292   1.590   0.502  1.00  0.00     0.032 A 
HETATM   17  C18 UNL     1       2.460  -0.010   0.236  1.00  0.00     0.022 A 
HETATM   18  C15 UNL     1       5.148   0.505   0.582  1.00  0.00     0.002 A 
HETATM   19  C16 UNL     1       4.713  -0.786   0.497  1.00  0.00     0.001 A 
HETATM   20  C17 UNL     1       3.354  -1.067   0.322  1.00  0.00     0.016 A 
ENDBRANCH  12  13
ENDBRANCH   4   5
ENDBRANCH   3   4
TORSDOF 3
