REMARK  8 active torsions:
REMARK  status: ('A' for Active; 'I' for Inactive)
REMARK    1  A    between atoms: O1_1  and  C1_2 
REMARK    2  A    between atoms: C4_5  and  C5_6 
REMARK    3  A    between atoms: C5_6  and  N1_7 
REMARK    4  A    between atoms: N1_7  and  C6_8 
REMARK    5  A    between atoms: N1_7  and  C8_11 
REMARK    6  A    between atoms: C6_8  and  C7_9 
REMARK    7  A    between atoms: C8_11  and  N2_13 
REMARK    8  A    between atoms: N2_13  and  C9_14 
ROOT
HETATM    1  N1  UNL     1      -0.444  -1.090   0.236  1.00  0.00    -0.353 N 
ENDROOT
BRANCH   1   2
HETATM    2  C5  UNL     1      -1.463  -0.748   1.136  1.00  0.00     0.164 C 
BRANCH   2   3
HETATM    3  C4  UNL     1      -2.596   0.057   0.727  1.00  0.00    -0.040 A 
HETATM    4  C3  UNL     1      -3.814  -0.350   0.205  1.00  0.00     0.011 A 
HETATM    5  C2  UNL     1      -4.863   0.457  -0.169  1.00  0.00     0.037 A 
HETATM    6  C1  UNL     1      -4.665   1.840   0.002  1.00  0.00     0.065 A 
HETATM    7  C16 UNL     1      -3.495   2.359   0.513  1.00  0.00     0.037 A 
HETATM    8  C15 UNL     1      -2.540   1.442   0.841  1.00  0.00     0.011 A 
BRANCH   6   9
HETATM    9  O1  UNL     1      -5.700   2.704  -0.361  1.00  0.00    -0.361 OA
HETATM   10  H1  UNL     1      -5.533   3.690  -0.516  1.00  0.00     0.217 HD
ENDBRANCH   6   9
ENDBRANCH   2   3
ENDBRANCH   1   2
BRANCH   1  11
HETATM   11  C6  UNL     1      -0.614  -1.983  -0.867  1.00  0.00     0.140 C 
BRANCH  11  12
HETATM   12  C7  UNL     1      -0.828  -3.424  -0.549  1.00  0.00     0.134 C 
HETATM   13 CL1  UNL     1      -2.204  -3.860   0.411  1.00  0.00    -0.129 Cl
ENDBRANCH  11  12
ENDBRANCH   1  11
BRANCH   1  14
HETATM   14  C8  UNL     1       0.878  -0.485   0.417  1.00  0.00     0.174 C 
HETATM   15  S1  UNL     1       1.080   0.559   1.692  1.00  0.00    -0.041 SA
BRANCH  14  16
HETATM   16  N2  UNL     1       2.118  -0.542  -0.231  1.00  0.00    -0.333 N 
HETATM   17  H10 UNL     1       2.350  -1.093  -1.079  1.00  0.00     0.168 HD
BRANCH  16  18
HETATM   18  C9  UNL     1       3.387   0.065  -0.014  1.00  0.00     0.034 A 
HETATM   19  C10 UNL     1       3.413   1.366  -0.485  1.00  0.00     0.029 A 
HETATM   20  C11 UNL     1       4.580   2.118  -0.365  1.00  0.00     0.002 A 
HETATM   21  C12 UNL     1       5.640   1.484   0.231  1.00  0.00     0.000 A 
HETATM   22  C13 UNL     1       5.618   0.183   0.706  1.00  0.00     0.002 A 
HETATM   23  C14 UNL     1       4.458  -0.551   0.580  1.00  0.00     0.029 A 
ENDBRANCH  16  18
ENDBRANCH  14  16
ENDBRANCH   1  14
TORSDOF 8
