REMARK  6 active torsions:
REMARK  status: ('A' for Active; 'I' for Inactive)
REMARK    1  A    between atoms: N1_7  and  C7_8 
REMARK    2  A    between atoms: C7_8  and  C8_9 
REMARK    3  A    between atoms: C11_12  and  O1_13 
REMARK    4  A    between atoms: C14_16  and  N2_17 
REMARK    5  A    between atoms: C19_22  and  S1_23 
REMARK    6  A    between atoms: C20_24  and  O2_25 
ROOT
HETATM    1  C1  UNL     1      -4.314  -1.808   1.083  1.00  0.00     0.051 C 
HETATM    2  C2  UNL     1      -3.020  -1.743   0.383  1.00  0.00    -0.025 C 
HETATM    3  C3  UNL     1      -2.670  -2.938  -0.125  1.00  0.00     0.009 C 
HETATM    4  C4  UNL     1      -1.496  -3.403  -0.897  1.00  0.00    -0.002 C 
HETATM    5  C5  UNL     1      -0.239  -3.004  -0.818  1.00  0.00    -0.007 C 
HETATM    6  C6  UNL     1       0.571  -2.029  -0.043  1.00  0.00     0.152 C 
HETATM    7  N1  UNL     1       0.140  -0.669  -0.287  1.00  0.00    -0.357 N 
HETATM    8  C14 UNL     1      -1.083  -0.041   0.077  1.00  0.00     0.145 C 
HETATM    9  C20 UNL     1      -2.344  -0.425   0.350  1.00  0.00     0.116 C 
ENDROOT
BRANCH   7  10
HETATM   10  C7  UNL     1       1.003   0.232  -1.008  1.00  0.00     0.163 C 
BRANCH  10  11
HETATM   11  C8  UNL     1       2.374   0.339  -0.470  1.00  0.00    -0.040 A 
HETATM   12  C9  UNL     1       2.862   1.182   0.503  1.00  0.00     0.011 A 
HETATM   13  C10 UNL     1       4.176   1.188   0.914  1.00  0.00     0.037 A 
HETATM   14  C11 UNL     1       5.096   0.326   0.357  1.00  0.00     0.065 A 
HETATM   15  C12 UNL     1       4.682  -0.546  -0.621  1.00  0.00     0.037 A 
HETATM   16  C13 UNL     1       3.356  -0.512  -0.998  1.00  0.00     0.011 A 
BRANCH  14  17
HETATM   17  O1  UNL     1       6.413   0.331   0.768  1.00  0.00    -0.361 OA
HETATM   18  H13 UNL     1       7.188   0.171   0.129  1.00  0.00     0.217 HD
ENDBRANCH  14  17
ENDBRANCH  10  11
ENDBRANCH   7  10
BRANCH   8  19
HETATM   19  N2  UNL     1      -1.119   1.372   0.209  1.00  0.00    -0.300 N 
HETATM   20  C15 UNL     1      -0.668   2.075   1.379  1.00  0.00     0.112 C 
HETATM   21  C16 UNL     1      -0.889   3.337   1.607  1.00  0.00    -0.008 C 
HETATM   22  C17 UNL     1      -1.139   4.169   0.652  1.00  0.00     0.016 C 
HETATM   23  C18 UNL     1      -1.623   3.593  -0.573  1.00  0.00     0.038 C 
HETATM   24  C19 UNL     1      -1.617   2.294  -0.786  1.00  0.00     0.074 C 
BRANCH  24  25
HETATM   25  S1  UNL     1      -2.221   1.587  -2.313  1.00  0.00    -0.125 SA
HETATM   26  H19 UNL     1      -3.627   1.700  -2.350  1.00  0.00     0.108 HD
ENDBRANCH  24  25
ENDBRANCH   8  19
BRANCH   9  27
HETATM   27  O2  UNL     1      -3.255   0.556   0.674  1.00  0.00    -0.357 OA
HETATM   28  H20 UNL     1      -3.412   0.863   1.621  1.00  0.00     0.218 HD
ENDBRANCH   9  27
TORSDOF 6
