REMARK  8 active torsions:
REMARK  status: ('A' for Active; 'I' for Inactive)
REMARK    1  A    between atoms: O1_1  and  C1_2 
REMARK    2  A    between atoms: C4_5  and  C5_6 
REMARK    3  A    between atoms: C5_6  and  N1_7 
REMARK    4  A    between atoms: N1_7  and  C6_8 
REMARK    5  A    between atoms: N1_7  and  C13_17 
REMARK    6  A    between atoms: C6_8  and  C7_9 
REMARK    7  A    between atoms: C13_17  and  N2_19 
REMARK    8  A    between atoms: N2_19  and  C14_20 
ROOT
HETATM    1  N1  UNL     1      -0.071  -0.068  -0.241  1.00  0.00    -0.350 N 
ENDROOT
BRANCH   1   2
HETATM    2  C5  UNL     1      -0.979   0.587  -1.155  1.00  0.00     0.164 C 
BRANCH   2   3
HETATM    3  C4  UNL     1      -1.921   1.527  -0.485  1.00  0.00    -0.042 A 
HETATM    4  C3  UNL     1      -1.495   2.679   0.299  1.00  0.00     0.007 A 
HETATM    5  C2  UNL     1      -2.605   3.261   0.730  1.00  0.00     0.009 A 
HETATM    6  C1  UNL     1      -3.802   2.524   0.251  1.00  0.00     0.164 A 
HETATM    7  C20 UNL     1      -3.238   1.417  -0.529  1.00  0.00     0.017 A 
BRANCH   6   8
HETATM    8  O1  UNL     1      -4.626   3.325  -0.549  1.00  0.00    -0.388 OA
HETATM    9  H1  UNL     1      -5.542   3.259  -0.171  1.00  0.00     0.210 HD
ENDBRANCH   6   8
ENDBRANCH   2   3
ENDBRANCH   1   2
BRANCH   1  10
HETATM   10  C6  UNL     1      -0.641  -1.009   0.674  1.00  0.00     0.166 C 
BRANCH  10  11
HETATM   11  C7  UNL     1      -1.465  -2.072   0.122  1.00  0.00    -0.017 A 
HETATM   12  C8  UNL     1      -2.852  -1.994   0.279  1.00  0.00     0.011 A 
HETATM   13  C9  UNL     1      -3.867  -2.869  -0.135  1.00  0.00     0.002 A 
HETATM   14  C10 UNL     1      -3.341  -3.977  -0.806  1.00  0.00     0.026 A 
HETATM   15  C11 UNL     1      -2.011  -4.140  -1.008  1.00  0.00     0.056 A 
HETATM   16 CL1  UNL     1      -1.444  -5.573  -1.868  1.00  0.00    -0.083 Cl
HETATM   17  C12 UNL     1      -1.069  -3.222  -0.564  1.00  0.00     0.063 A 
HETATM   18 CL2  UNL     1       0.645  -3.397  -0.806  1.00  0.00    -0.082 Cl
ENDBRANCH  10  11
ENDBRANCH   1  10
BRANCH   1  19
HETATM   19  C13 UNL     1       1.312   0.233  -0.214  1.00  0.00     0.174 C 
HETATM   20  S1  UNL     1       1.823   1.382  -1.297  1.00  0.00    -0.041 SA
BRANCH  19  21
HETATM   21  N2  UNL     1       2.522  -0.108   0.436  1.00  0.00    -0.333 N 
HETATM   22  H12 UNL     1       2.348  -0.834   1.173  1.00  0.00     0.168 HD
BRANCH  21  23
HETATM   23  C14 UNL     1       3.892   0.253   0.392  1.00  0.00     0.034 A 
HETATM   24  C15 UNL     1       4.137   1.423   1.053  1.00  0.00     0.029 A 
HETATM   25  C16 UNL     1       5.401   1.932   1.139  1.00  0.00     0.002 A 
HETATM   26  C17 UNL     1       6.397   1.189   0.516  1.00  0.00     0.000 A 
HETATM   27  C18 UNL     1       6.095   0.027  -0.132  1.00  0.00     0.002 A 
HETATM   28  C19 UNL     1       4.847  -0.539  -0.255  1.00  0.00     0.029 A 
ENDBRANCH  21  23
ENDBRANCH  19  21
ENDBRANCH   1  19
TORSDOF 8
