REMARK  7 active torsions:
REMARK  status: ('A' for Active; 'I' for Inactive)
REMARK    1  A    between atoms: O1_1  and  C1_2 
REMARK    2  A    between atoms: C4_5  and  C5_6 
REMARK    3  A    between atoms: C5_6  and  N1_7 
REMARK    4  A    between atoms: N1_7  and  C6_8 
REMARK    5  A    between atoms: N1_7  and  C7_10 
REMARK    6  A    between atoms: C7_10  and  N2_12 
REMARK    7  A    between atoms: N2_12  and  C8_13 
ROOT
HETATM    1  N1  UNL     1       0.480  -1.725  -0.165  1.00  0.00    -0.328 N 
ENDROOT
BRANCH   1   2
HETATM    2  C5  UNL     1       1.350  -1.103  -1.132  1.00  0.00     0.166 C 
BRANCH   2   3
HETATM    3  C4  UNL     1       2.459  -0.353  -0.478  1.00  0.00    -0.040 A 
HETATM    4  C3  UNL     1       2.102   0.983  -0.256  1.00  0.00     0.011 A 
HETATM    5  C2  UNL     1       2.962   1.881   0.338  1.00  0.00     0.037 A 
HETATM    6  C1  UNL     1       4.204   1.420   0.713  1.00  0.00     0.065 A 
HETATM    7  C15 UNL     1       4.567   0.104   0.499  1.00  0.00     0.037 A 
HETATM    8  C14 UNL     1       3.697  -0.797  -0.100  1.00  0.00     0.011 A 
BRANCH   6   9
HETATM    9  O1  UNL     1       5.091   2.302   1.313  1.00  0.00    -0.361 OA
HETATM   10  H1  UNL     1       5.188   3.244   0.949  1.00  0.00     0.217 HD
ENDBRANCH   6   9
ENDBRANCH   2   3
ENDBRANCH   1   2
BRANCH   1  11
HETATM   11  C6  UNL     1       0.976  -2.742   0.715  1.00  0.00     0.350 C 
HETATM   12  F1  UNL     1      -0.011  -3.221   1.541  1.00  0.00    -0.234 F 
ENDBRANCH   1  11
BRANCH   1  13
HETATM   13  C7  UNL     1      -0.879  -1.329  -0.055  1.00  0.00     0.176 C 
HETATM   14  S1  UNL     1      -1.901  -1.997   1.004  1.00  0.00    -0.041 SA
BRANCH  13  15
HETATM   15  N2  UNL     1      -1.495  -0.324  -0.844  1.00  0.00    -0.333 N 
HETATM   16  H8  UNL     1      -1.119   0.285  -1.605  1.00  0.00     0.168 HD
BRANCH  15  17
HETATM   17  C8  UNL     1      -2.843   0.141  -0.809  1.00  0.00     0.034 A 
HETATM   18  C9  UNL     1      -2.956   1.088   0.187  1.00  0.00     0.029 A 
HETATM   19  C10 UNL     1      -4.171   1.725   0.448  1.00  0.00     0.002 A 
HETATM   20  C11 UNL     1      -5.276   1.370  -0.333  1.00  0.00     0.000 A 
HETATM   21  C12 UNL     1      -5.152   0.421  -1.325  1.00  0.00     0.002 A 
HETATM   22  C13 UNL     1      -3.941  -0.198  -1.570  1.00  0.00     0.029 A 
ENDBRANCH  15  17
ENDBRANCH  13  15
ENDBRANCH   1  13
TORSDOF 7
