REMARK  7 active torsions:
REMARK  status: ('A' for Active; 'I' for Inactive)
REMARK    1  A    between atoms: C7_7  and  C8_8 
REMARK    2  A    between atoms: C8_8  and  C9_9 
REMARK    3  A    between atoms: C9_9  and  O1_10 
REMARK    4  A    between atoms: O1_10  and  C10_11 
REMARK    5  A    between atoms: C10_11  and  P1_12 
REMARK    6  A    between atoms: P1_12  and  C11_13 
REMARK    7  A    between atoms: C14_16  and  O2_17 
ROOT
HETATM    1  C9  UNL     1      -0.390  -0.629   1.363  1.00  0.00     0.170 C 
HETATM    2  N1  UNL     1      -1.518  -1.388   1.998  1.00  0.00    -0.348 N 
HETATM    3  C17 UNL     1      -1.083  -2.499   1.226  1.00  0.00     0.083 C 
HETATM    4  S1  UNL     1      -1.033  -4.149   1.040  1.00  0.00    -0.084 SA
HETATM    5  C18 UNL     1      -0.881  -4.921  -0.425  1.00  0.00     0.052 C 
HETATM    6  C19 UNL     1      -0.641  -4.196  -1.700  1.00  0.00     0.007 C 
HETATM    7  C20 UNL     1      -0.354  -2.922  -1.902  1.00  0.00     0.001 C 
HETATM    8  C21 UNL     1      -0.175  -1.819  -1.012  1.00  0.00     0.015 C 
HETATM    9  C22 UNL     1      -0.445  -1.580   0.251  1.00  0.00     0.031 C 
HETATM   10  H19 UNL     1      -2.303  -1.321   2.664  1.00  0.00     0.163 HD
ENDROOT
BRANCH   1  11
HETATM   11  C8  UNL     1      -0.786   0.800   1.156  1.00  0.00     0.105 C 
BRANCH  11  12
HETATM   12  C7  UNL     1      -1.958   1.010   0.319  1.00  0.00    -0.053 C 
HETATM   13  C6  UNL     1      -2.107   0.687  -1.094  1.00  0.00     0.003 C 
HETATM   14  C5  UNL     1      -3.177   0.336  -1.794  1.00  0.00    -0.022 C 
HETATM   15  C4  UNL     1      -4.565   0.175  -1.293  1.00  0.00     0.054 C 
HETATM   16  C3  UNL     1      -4.965   1.344  -0.442  1.00  0.00    -0.016 C 
HETATM   17  C2  UNL     1      -4.357   2.023   0.554  1.00  0.00    -0.065 C 
HETATM   18  C1  UNL     1      -4.973   3.192   1.277  1.00  0.00     0.048 C 
HETATM   19  C23 UNL     1      -2.998   1.599   0.971  1.00  0.00     0.013 C 
ENDBRANCH  11  12
ENDBRANCH   1  11
BRANCH   1  20
HETATM   20  O1  UNL     1       0.693  -0.849   2.159  1.00  0.00    -0.351 OA
BRANCH  20  21
HETATM   21  C10 UNL     1       1.902  -0.343   1.894  1.00  0.00     0.206 C 
BRANCH  21  22
HETATM   22  P1  UNL     1       2.691  -0.904   0.314  1.00  0.00    -0.070 P 
HETATM   23  H13 UNL     1       3.163  -2.251   0.467  1.00  0.00     0.064 HD
BRANCH  22  24
HETATM   24  C11 UNL     1       4.029   0.259  -0.098  1.00  0.00    -0.032 A 
HETATM   25  C12 UNL     1       5.145  -0.267  -0.725  1.00  0.00     0.015 A 
HETATM   26  C13 UNL     1       6.239   0.494  -1.098  1.00  0.00     0.037 A 
HETATM   27  C14 UNL     1       6.210   1.856  -0.828  1.00  0.00     0.065 A 
HETATM   28  C15 UNL     1       5.087   2.360  -0.202  1.00  0.00     0.037 A 
HETATM   29  C16 UNL     1       4.009   1.594   0.162  1.00  0.00     0.015 A 
BRANCH  27  30
HETATM   30  O2  UNL     1       7.315   2.596  -1.210  1.00  0.00    -0.361 OA
HETATM   31  H16 UNL     1       7.778   3.296  -0.679  1.00  0.00     0.217 HD
ENDBRANCH  27  30
ENDBRANCH  22  24
ENDBRANCH  21  22
ENDBRANCH  20  21
ENDBRANCH   1  20
TORSDOF 7
