REMARK  9 active torsions:
REMARK  status: ('A' for Active; 'I' for Inactive)
REMARK    1  A    between atoms: C2_2  and  C3_3 
REMARK    2  A    between atoms: C3_3  and  C5_5 
REMARK    3  A    between atoms: C5_5  and  N1_6 
REMARK    4  A    between atoms: N1_6  and  C6_7 
REMARK    5  A    between atoms: N1_6  and  C15_18 
REMARK    6  A    between atoms: C6_7  and  C7_8 
REMARK    7  A    between atoms: C13_15  and  O2_16 
REMARK    8  A    between atoms: C15_18  and  N2_20 
REMARK    9  A    between atoms: N2_20  and  C16_21 
ROOT
HETATM    1  N1  UNL     1      -0.852  -0.033   0.441  1.00  0.00    -0.351 N 
ENDROOT
BRANCH   1   2
HETATM    2  C5  UNL     1      -0.605   1.183  -0.312  1.00  0.00     0.159 C 
BRANCH   2   3
HETATM    3  C3  UNL     1      -0.755   2.352   0.587  1.00  0.00    -0.070 C 
HETATM    4  C4  UNL     1      -1.070   2.206   1.892  1.00  0.00     0.044 C 
BRANCH   3   5
HETATM    5  C2  UNL     1      -0.781   3.731   0.998  1.00  0.00     0.023 C 
HETATM    6  C1  UNL     1      -0.595   4.887   0.438  1.00  0.00    -0.013 C 
ENDBRANCH   3   5
ENDBRANCH   2   3
ENDBRANCH   1   2
BRANCH   1   7
HETATM    7  C6  UNL     1       0.175  -0.365   1.373  1.00  0.00     0.153 C 
BRANCH   7   8
HETATM    8  C7  UNL     1       1.441  -0.789   0.670  1.00  0.00     0.005 C 
HETATM    9  C8  UNL     1       2.621  -0.251   0.723  1.00  0.00    -0.003 C 
HETATM   10  C9  UNL     1       3.009   0.924   1.497  1.00  0.00     0.209 C 
HETATM   11  C13 UNL     1       3.656  -0.893  -0.075  1.00  0.00     0.080 C 
HETATM   12  O1  UNL     1       4.353   1.015   1.782  1.00  0.00    -0.382 OA
HETATM   13  C10 UNL     1       5.098  -0.119   1.654  1.00  0.00     0.204 C 
HETATM   14  C11 UNL     1       4.929  -0.845   0.370  1.00  0.00    -0.026 C 
HETATM   15  C12 UNL     1       6.117  -1.440  -0.293  1.00  0.00     0.048 C 
BRANCH  11  16
HETATM   16  O2  UNL     1       3.492  -1.560  -1.257  1.00  0.00    -0.355 OA
HETATM   17  C14 UNL     1       2.784  -1.160  -2.385  1.00  0.00     0.210 C 
ENDBRANCH  11  16
ENDBRANCH   7   8
ENDBRANCH   1   7
BRANCH   1  18
HETATM   18  C15 UNL     1      -2.021  -0.876   0.303  1.00  0.00     0.174 C 
HETATM   19  S1  UNL     1      -2.026  -2.197   1.301  1.00  0.00    -0.041 SA
BRANCH  18  20
HETATM   20  N2  UNL     1      -3.069  -0.617  -0.595  1.00  0.00    -0.333 N 
HETATM   21  H21 UNL     1      -2.877   0.267  -1.137  1.00  0.00     0.168 HD
BRANCH  20  22
HETATM   22  C16 UNL     1      -4.289  -1.174  -0.979  1.00  0.00     0.034 A 
HETATM   23  C17 UNL     1      -5.075  -0.678  -2.006  1.00  0.00     0.029 A 
HETATM   24  C18 UNL     1      -6.269  -1.241  -2.350  1.00  0.00     0.002 A 
HETATM   25  C19 UNL     1      -6.684  -2.342  -1.633  1.00  0.00     0.000 A 
HETATM   26  C20 UNL     1      -5.953  -2.877  -0.610  1.00  0.00     0.002 A 
HETATM   27  C21 UNL     1      -4.741  -2.286  -0.280  1.00  0.00     0.029 A 
ENDBRANCH  20  22
ENDBRANCH  18  20
ENDBRANCH   1  18
TORSDOF 9
