REMARK  7 active torsions:
REMARK  status: ('A' for Active; 'I' for Inactive)
REMARK    1  A    between atoms: C6_8  and  C7_9 
REMARK    2  A    between atoms: C14_18  and  O1_19 
REMARK    3  A    between atoms: O1_19  and  C15_20 
REMARK    4  A    between atoms: C15_20  and  C16_21 
REMARK    5  A    between atoms: C16_21  and  C17_22 
REMARK    6  A    between atoms: C17_22  and  N3_23 
REMARK    7  A    between atoms: C21_28  and  N4_29 
ROOT
HETATM    1  C1  UNL     1       0.080   3.309  -1.588  1.00  0.00     0.046 C 
HETATM    2  C2  UNL     1       1.254   2.916  -0.747  1.00  0.00    -0.048 A 
HETATM    3  C3  UNL     1       1.981   3.705   0.021  1.00  0.00     0.037 A 
HETATM    4  C4  UNL     1       2.975   2.839   0.605  1.00  0.00     0.070 A 
HETATM    5  N1  UNL     1       3.942   3.273   1.463  1.00  0.00    -0.241 NA
HETATM    6  C5  UNL     1       4.829   2.382   1.938  1.00  0.00     0.234 A 
HETATM    7  N2  UNL     1       4.720   1.103   1.543  1.00  0.00    -0.241 NA
HETATM    8  C6  UNL     1       3.770   0.670   0.699  1.00  0.00     0.080 A 
HETATM    9  C13 UNL     1       2.831   1.518   0.173  1.00  0.00     0.033 A 
HETATM   10  C14 UNL     1       1.688   1.468  -0.734  1.00  0.00     0.188 A 
ENDROOT
BRANCH  10  11
HETATM   11  O1  UNL     1       0.576   0.772  -0.230  1.00  0.00    -0.377 OA
BRANCH  11  12
HETATM   12  C15 UNL     1       0.117  -0.062  -1.245  1.00  0.00     0.170 C 
BRANCH  12  13
HETATM   13  C16 UNL     1      -1.087  -0.866  -0.808  1.00  0.00     0.046 C 
BRANCH  13  14
HETATM   14  C17 UNL     1      -2.242   0.030  -0.414  1.00  0.00     0.121 C 
BRANCH  14  15
HETATM   15  N3  UNL     1      -3.328  -0.768  -0.014  1.00  0.00    -0.381 N 
HETATM   16  C18 UNL     1      -3.985  -1.555  -1.006  1.00  0.00     0.145 C 
HETATM   17  C19 UNL     1      -4.752  -2.597  -0.177  1.00  0.00     0.187 C 
HETATM   18  O2  UNL     1      -5.799  -1.942   0.387  1.00  0.00    -0.386 OA
HETATM   19  C20 UNL     1      -5.600  -0.715   0.928  1.00  0.00     0.224 C 
HETATM   20  C21 UNL     1      -4.215  -0.186   0.950  1.00  0.00     0.338 C 
BRANCH  20  21
HETATM   21  N4  UNL     1      -4.319   1.273   0.830  1.00  0.00     0.103 N 
HETATM   22  H23 UNL     1      -3.557   1.699   0.283  1.00  0.00     0.315 HD
HETATM   23  H24 UNL     1      -5.203   1.516   0.289  1.00  0.00     0.315 HD
ENDBRANCH  20  21
ENDBRANCH  14  15
ENDBRANCH  13  14
ENDBRANCH  12  13
ENDBRANCH  11  12
ENDBRANCH  10  11
BRANCH   8  24
HETATM   24  C7  UNL     1       3.824  -0.739   0.370  1.00  0.00    -0.005 A 
HETATM   25  C8  UNL     1       5.106  -1.181   0.007  1.00  0.00     0.017 A 
HETATM   26  C9  UNL     1       5.420  -2.476  -0.339  1.00  0.00     0.045 A 
HETATM   27  C10 UNL     1       4.432  -3.437  -0.340  1.00  0.00     0.138 A 
HETATM   28  F1  UNL     1       4.572  -4.737  -0.650  1.00  0.00    -0.204 F 
HETATM   29  C11 UNL     1       3.168  -3.034   0.012  1.00  0.00     0.073 A 
HETATM   30 CL1  UNL     1       1.814  -4.153   0.054  1.00  0.00    -0.081 Cl
HETATM   31  C12 UNL     1       2.889  -1.730   0.352  1.00  0.00     0.041 A 
ENDBRANCH   8  24
TORSDOF 7
