REMARK  7 active torsions:
REMARK  status: ('A' for Active; 'I' for Inactive)
REMARK    1  A    between atoms: C6_6  and  O1_7 
REMARK    2  A    between atoms: C7_8  and  C8_9 
REMARK    3  A    between atoms: C8_9  and  N1_10 
REMARK    4  A    between atoms: N1_10  and  C9_11 
REMARK    5  A    between atoms: N1_10  and  C16_18 
REMARK    6  A    between atoms: C19_21  and  O2_22 
REMARK    7  A    between atoms: C21_24  and  S1_25 
ROOT
HETATM    1  N1  UNL     1      -0.772   0.688   0.732  1.00  0.00    -0.345 N 
ENDROOT
BRANCH   1   2
HETATM    2  C8  UNL     1       0.457   0.828   1.471  1.00  0.00     0.170 C 
BRANCH   2   3
HETATM    3  C7  UNL     1       1.635   0.212   0.836  1.00  0.00    -0.006 A 
HETATM    4  C6  UNL     1       2.268   0.767  -0.251  1.00  0.00     0.079 A 
HETATM    5  C4  UNL     1       3.377   0.215  -0.852  1.00  0.00    -0.028 A 
HETATM    6  C3  UNL     1       3.861  -0.962  -0.316  1.00  0.00     0.016 A 
HETATM    7  C5  UNL     1       4.065   0.811  -2.028  1.00  0.00     0.051 C 
HETATM    8  C2  UNL     1       3.282  -1.578   0.771  1.00  0.00    -0.061 A 
HETATM    9  C1  UNL     1       3.845  -2.853   1.315  1.00  0.00     0.048 C 
HETATM   10  C22 UNL     1       2.164  -0.975   1.339  1.00  0.00     0.018 A 
BRANCH   4  11
HETATM   11  O1  UNL     1       1.783   1.944  -0.786  1.00  0.00    -0.360 OA
HETATM   12  H8  UNL     1       0.977   1.834  -1.416  1.00  0.00     0.217 HD
ENDBRANCH   4  11
ENDBRANCH   2   3
ENDBRANCH   1   2
BRANCH   1  13
HETATM   13  C9  UNL     1      -1.093  -0.684   0.550  1.00  0.00     0.015 C 
HETATM   14  C10 UNL     1      -1.710  -1.061   1.662  1.00  0.00     0.025 C 
HETATM   15  C11 UNL     1      -2.250  -2.376   2.000  1.00  0.00     0.002 C 
HETATM   16  C12 UNL     1      -2.433  -3.428   1.182  1.00  0.00    -0.000 C 
HETATM   17  C13 UNL     1      -2.144  -3.542  -0.258  1.00  0.00    -0.004 C 
HETATM   18  C14 UNL     1      -1.437  -2.640  -0.916  1.00  0.00    -0.021 C 
HETATM   19  C15 UNL     1      -0.743  -1.389  -0.675  1.00  0.00     0.084 C 
ENDBRANCH   1  13
BRANCH   1  20
HETATM   20  C16 UNL     1      -1.550   1.762   0.244  1.00  0.00     0.051 A 
HETATM   21  C17 UNL     1      -1.087   3.054   0.267  1.00  0.00     0.034 A 
HETATM   22  C18 UNL     1      -1.791   4.133  -0.206  1.00  0.00     0.039 A 
HETATM   23  C19 UNL     1      -3.040   3.977  -0.748  1.00  0.00     0.067 A 
HETATM   24  C20 UNL     1      -3.554   2.699  -0.795  1.00  0.00     0.057 A 
HETATM   25  C21 UNL     1      -2.807   1.650  -0.307  1.00  0.00     0.027 A 
BRANCH  23  26
HETATM   26  O2  UNL     1      -3.781   5.033  -1.234  1.00  0.00    -0.361 OA
HETATM   27  H20 UNL     1      -4.732   5.242  -0.955  1.00  0.00     0.217 HD
ENDBRANCH  23  26
BRANCH  25  28
HETATM   28  S1  UNL     1      -3.583   0.046  -0.406  1.00  0.00    -0.141 SA
HETATM   29  H22 UNL     1      -3.574  -0.297  -1.787  1.00  0.00     0.107 HD
ENDBRANCH  25  28
ENDBRANCH   1  20
TORSDOF 7
