REMARK  6 active torsions:
REMARK  status: ('A' for Active; 'I' for Inactive)
REMARK    1  A    between atoms: C2_2  and  C3_3 
REMARK    2  A    between atoms: C7_9  and  N3_10 
REMARK    3  A    between atoms: N3_10  and  C8_11 
REMARK    4  A    between atoms: C16_20  and  O1_21 
REMARK    5  A    between atoms: O1_21  and  C17_22 
REMARK    6  A    between atoms: C17_22  and  C18_23 
ROOT
HETATM    1  C3  UNL     1      -0.566  -0.162  -2.993  1.00  0.00    -0.023 A 
HETATM    2  C4  UNL     1       0.670  -0.265  -3.596  1.00  0.00     0.042 A 
HETATM    3  C5  UNL     1       1.809  -0.204  -2.826  1.00  0.00     0.072 A 
HETATM    4  N1  UNL     1       3.008  -0.311  -3.467  1.00  0.00    -0.241 NA
HETATM    5  C6  UNL     1       4.155  -0.257  -2.763  1.00  0.00     0.236 A 
HETATM    6  N2  UNL     1       4.119  -0.099  -1.443  1.00  0.00    -0.224 NA
HETATM    7  C7  UNL     1       3.000   0.011  -0.753  1.00  0.00     0.142 A 
HETATM    8  C14 UNL     1       1.825  -0.042  -1.459  1.00  0.00     0.041 A 
HETATM    9  C15 UNL     1       0.562   0.054  -0.925  1.00  0.00     0.055 A 
HETATM   10  C16 UNL     1      -0.623   0.002  -1.625  1.00  0.00     0.076 A 
ENDROOT
BRANCH   7  11
HETATM   11  N3  UNL     1       2.936   0.179   0.642  1.00  0.00    -0.340 N 
HETATM   12  H8  UNL     1       2.040   0.247   1.151  1.00  0.00     0.167 HD
BRANCH  11  13
HETATM   13  C8  UNL     1       3.981   0.285   1.587  1.00  0.00     0.035 A 
HETATM   14  C9  UNL     1       3.825   0.363   2.972  1.00  0.00     0.029 A 
HETATM   15  C10 UNL     1       4.842   0.468   3.868  1.00  0.00     0.004 A 
HETATM   16  C11 UNL     1       6.144   0.506   3.436  1.00  0.00     0.024 A 
HETATM   17  C12 UNL     1       6.364   0.433   2.079  1.00  0.00     0.036 A 
HETATM   18 CL1  UNL     1       8.041   0.487   1.581  1.00  0.00    -0.084 Cl
HETATM   19  C13 UNL     1       5.292   0.326   1.207  1.00  0.00     0.053 A 
ENDBRANCH  11  13
ENDBRANCH   7  11
BRANCH  10  20
HETATM   20  O1  UNL     1      -1.864   0.107  -1.016  1.00  0.00    -0.350 OA
BRANCH  20  21
HETATM   21  C17 UNL     1      -1.927   0.272   0.367  1.00  0.00     0.180 C 
BRANCH  21  22
HETATM   22  C18 UNL     1      -3.371   0.369   0.866  1.00  0.00     0.014 C 
HETATM   23  C19 UNL     1      -3.324   0.542   2.344  1.00  0.00     0.033 C 
HETATM   24  C20 UNL     1      -4.632   0.164   3.013  1.00  0.00     0.168 C 
HETATM   25  O2  UNL     1      -4.805  -1.196   2.708  1.00  0.00    -0.391 OA
HETATM   26  C21 UNL     1      -5.199  -1.270   1.395  1.00  0.00     0.168 C 
HETATM   27  C22 UNL     1      -4.219  -0.756   0.391  1.00  0.00     0.033 C 
ENDBRANCH  21  22
ENDBRANCH  20  21
ENDBRANCH  10  20
BRANCH   1  28
HETATM   28  C2  UNL     1      -1.826  -0.221  -3.770  1.00  0.00     0.037 C 
HETATM   29  C1  UNL     1      -2.444   1.160  -3.936  1.00  0.00     0.010 C 
ENDBRANCH   1  28
TORSDOF 6
