REMARK  1 active torsions:
REMARK  status: ('A' for Active; 'I' for Inactive)
REMARK    1  A    between atoms: C4_5  and  C5_6 
ROOT
HETATM    1  C5  UNL     1       0.557  -0.420   0.230  1.00  0.00     0.076 C 
HETATM    2  C6  UNL     1       0.094  -1.222  -0.908  1.00  0.00     0.181 C 
HETATM    3  O1  UNL     1      -0.541  -2.467  -0.640  1.00  0.00    -0.389 OA
HETATM    4  C7  UNL     1      -1.644  -2.059   0.002  1.00  0.00     0.186 C 
HETATM    5  C8  UNL     1      -2.803  -2.802   0.489  1.00  0.00     0.140 C 
HETATM    6  N1  UNL     1      -3.577  -1.764   1.131  1.00  0.00    -0.419 N 
HETATM    7  C9  UNL     1      -4.254  -0.775   0.486  1.00  0.00     0.116 C 
HETATM    8  C10 UNL     1      -3.775   0.342  -0.316  1.00  0.00     0.046 C 
HETATM    9  C11 UNL     1      -2.799   1.341   0.108  1.00  0.00     0.177 C 
HETATM   10  O2  UNL     1      -1.498   1.052   0.395  1.00  0.00    -0.351 OA
HETATM   11  C12 UNL     1      -0.315   1.698   0.043  1.00  0.00     0.074 A 
HETATM   12  C13 UNL     1       0.849   0.998  -0.082  1.00  0.00    -0.007 A 
HETATM   13  C14 UNL     1       1.794   1.952  -0.517  1.00  0.00     0.176 A 
HETATM   14  N2  UNL     1       3.187   1.985  -0.300  1.00  0.00    -0.268 NA
HETATM   15  C15 UNL     1       3.729   3.195  -0.453  1.00  0.00     0.227 C 
HETATM   16  N3  UNL     1       3.198   4.482  -0.744  1.00  0.00    -0.254 NA
HETATM   17  C16 UNL     1       1.885   4.573  -0.834  1.00  0.00     0.127 C 
HETATM   18  C17 UNL     1       1.248   3.299  -0.535  1.00  0.00    -0.009 A 
HETATM   19  C18 UNL     1      -0.039   3.125  -0.239  1.00  0.00     0.048 A 
HETATM   20  H10 UNL     1      -3.648  -1.871   2.161  1.00  0.00     0.153 HD
ENDROOT
BRANCH   1  21
HETATM   21  C4  UNL     1       1.773  -1.095   0.798  1.00  0.00    -0.046 A 
HETATM   22  C3  UNL     1       2.856  -1.243  -0.052  1.00  0.00     0.011 A 
HETATM   23  C2  UNL     1       4.052  -1.840   0.296  1.00  0.00     0.044 A 
HETATM   24  C1  UNL     1       4.135  -2.310   1.597  1.00  0.00     0.138 A 
HETATM   25  F1  UNL     1       5.277  -2.919   2.047  1.00  0.00    -0.204 F 
HETATM   26  C20 UNL     1       3.085  -2.195   2.505  1.00  0.00     0.073 A 
HETATM   27  C19 UNL     1       1.940  -1.590   2.071  1.00  0.00     0.034 A 
HETATM   28 CL1  UNL     1       3.170  -2.781   4.150  1.00  0.00    -0.081 Cl
ENDBRANCH   1  21
TORSDOF 1
