REMARK  7 active torsions:
REMARK  status: ('A' for Active; 'I' for Inactive)
REMARK    1  A    between atoms: C3_3  and  O1_4 
REMARK    2  A    between atoms: O1_4  and  C4_5 
REMARK    3  A    between atoms: C4_5  and  C5_6 
REMARK    4  A    between atoms: C5_6  and  C6_7 
REMARK    5  A    between atoms: C6_7  and  N1_8 
REMARK    6  A    between atoms: C13_16  and  N2_17 
REMARK    7  A    between atoms: N2_17  and  C14_18 
ROOT
HETATM    1  C1  UNL     1      -0.949  -2.345   0.647  1.00  0.00     0.048 C 
HETATM    2  C2  UNL     1       0.103  -1.582   0.547  1.00  0.00     0.005 A 
HETATM    3  C3  UNL     1       0.065  -0.129   0.451  1.00  0.00     0.078 A 
HETATM    4  C11 UNL     1       1.319   0.280   0.365  1.00  0.00     0.055 A 
HETATM    5  C12 UNL     1       2.264  -0.841   0.397  1.00  0.00     0.042 A 
HETATM    6  C13 UNL     1       3.650  -0.862   0.334  1.00  0.00     0.142 A 
HETATM    7  N3  UNL     1       4.173  -2.091   0.393  1.00  0.00    -0.224 NA
HETATM    8  C20 UNL     1       3.493  -3.238   0.503  1.00  0.00     0.236 A 
HETATM    9  N4  UNL     1       2.131  -3.160   0.560  1.00  0.00    -0.240 NA
HETATM   10  C21 UNL     1       1.501  -1.979   0.509  1.00  0.00     0.081 A 
ENDROOT
BRANCH   3  11
HETATM   11  O1  UNL     1      -1.061   0.685   0.448  1.00  0.00    -0.350 OA
BRANCH  11  12
HETATM   12  C4  UNL     1      -2.104   0.493   1.398  1.00  0.00     0.177 C 
BRANCH  12  13
HETATM   13  C5  UNL     1      -3.215   1.485   1.215  1.00  0.00     0.057 C 
BRANCH  13  14
HETATM   14  C6  UNL     1      -3.851   1.392  -0.155  1.00  0.00     0.274 C 
BRANCH  14  15
HETATM   15  N1  UNL     1      -4.419   0.106  -0.416  1.00  0.00     0.092 N 
HETATM   16  C7  UNL     1      -4.997   0.132  -1.749  1.00  0.00     0.298 C 
HETATM   17  C8  UNL     1      -6.462   0.442  -1.738  1.00  0.00     0.198 C 
HETATM   18  O2  UNL     1      -6.862   1.261  -0.687  1.00  0.00    -0.388 OA
HETATM   19  C9  UNL     1      -6.613   0.675   0.549  1.00  0.00     0.198 C 
HETATM   20  C10 UNL     1      -5.446  -0.287   0.502  1.00  0.00     0.298 C 
ENDBRANCH  14  15
ENDBRANCH  13  14
ENDBRANCH  12  13
ENDBRANCH  11  12
ENDBRANCH   3  11
BRANCH   6  21
HETATM   21  N2  UNL     1       4.374   0.351   0.219  1.00  0.00    -0.340 N 
HETATM   22  H18 UNL     1       3.800   1.234   0.185  1.00  0.00     0.167 HD
BRANCH  21  23
HETATM   23  C14 UNL     1       5.776   0.531   0.142  1.00  0.00     0.035 A 
HETATM   24  C15 UNL     1       6.723  -0.468   0.166  1.00  0.00     0.032 A 
HETATM   25  C16 UNL     1       8.085  -0.278   0.091  1.00  0.00     0.046 A 
HETATM   26  C17 UNL     1       8.544   1.009  -0.017  1.00  0.00     0.138 A 
HETATM   27  F1  UNL     1       9.877   1.239  -0.094  1.00  0.00    -0.204 F 
HETATM   28  C18 UNL     1       7.650   2.045  -0.046  1.00  0.00     0.074 A 
HETATM   29 CL1  UNL     1       8.248   3.675  -0.183  1.00  0.00    -0.081 Cl
HETATM   30  C19 UNL     1       6.316   1.794   0.033  1.00  0.00     0.056 A 
ENDBRANCH  21  23
ENDBRANCH   6  21
TORSDOF 7
