REMARK  0 active torsions:
REMARK  status: ('A' for Active; 'I' for Inactive)
ROOT
HETATM    1  C1  UNL     1      -2.042   2.291  -1.016  1.00  0.00     0.062 C 
HETATM    2  C2  UNL     1      -0.719   2.116  -0.792  1.00  0.00     0.009 C 
HETATM    3  C3  UNL     1       0.331   3.014  -0.374  1.00  0.00     0.051 C 
HETATM    4  C4  UNL     1       1.446   3.621  -0.012  1.00  0.00     0.071 C 
HETATM    5 CL1  UNL     1       1.388   5.354   0.389  1.00  0.00    -0.081 Cl
HETATM    6  C5  UNL     1       2.797   3.002   0.079  1.00  0.00     0.126 C 
HETATM    7  F1  UNL     1       3.680   3.987   0.507  1.00  0.00    -0.208 F 
HETATM    8  C6  UNL     1       2.957   1.741  -0.228  1.00  0.00     0.119 C 
HETATM    9  C7  UNL     1       3.376   0.394  -0.508  1.00  0.00     0.060 A 
HETATM   10  N1  UNL     1       4.430  -0.086  -1.202  1.00  0.00    -0.245 NA
HETATM   11  C8  UNL     1       4.676  -1.390  -1.404  1.00  0.00     0.234 A 
HETATM   12  N2  UNL     1       3.859  -2.332  -0.908  1.00  0.00    -0.241 NA
HETATM   13  C9  UNL     1       2.790  -1.923  -0.207  1.00  0.00     0.070 A 
HETATM   14  C10 UNL     1       2.007  -2.980   0.235  1.00  0.00     0.033 A 
HETATM   15  C11 UNL     1       0.859  -2.649   0.954  1.00  0.00     0.009 A 
HETATM   16  C12 UNL     1       0.579  -1.323   1.178  1.00  0.00    -0.057 A 
HETATM   17  C13 UNL     1       1.410  -0.333   0.707  1.00  0.00     0.023 A 
HETATM   18  C14 UNL     1       2.538  -0.590  -0.000  1.00  0.00     0.019 A 
HETATM   19  C15 UNL     1      -0.611  -0.771   1.874  1.00  0.00     0.047 C 
HETATM   20  C16 UNL     1      -1.710  -0.411   0.891  1.00  0.00     0.039 C 
HETATM   21  C17 UNL     1      -2.891  -1.283   1.263  1.00  0.00     0.011 C 
HETATM   22  C18 UNL     1      -3.832  -1.571   0.164  1.00  0.00     0.027 C 
HETATM   23  C19 UNL     1      -3.498  -0.847  -1.123  1.00  0.00     0.170 C 
HETATM   24  O1  UNL     1      -2.194  -1.025  -1.413  1.00  0.00    -0.366 OA
HETATM   25  C20 UNL     1      -1.273  -0.531  -0.527  1.00  0.00     0.225 C 
HETATM   26  N3  UNL     1      -0.737   0.730  -1.080  1.00  0.00    -0.367 N 
HETATM   27  H19 UNL     1      -0.182   0.692  -1.962  1.00  0.00     0.162 HD
ENDROOT
TORSDOF 0
