REMARK  9 active torsions:
REMARK  status: ('A' for Active; 'I' for Inactive)
REMARK    1  A    between atoms: C5_6  and  N1_7 
REMARK    2  A    between atoms: N1_7  and  C6_8 
REMARK    3  A    between atoms: C10_14  and  O1_15 
REMARK    4  A    between atoms: C12_17  and  O2_18 
REMARK    5  A    between atoms: O2_18  and  C13_19 
REMARK    6  A    between atoms: C13_19  and  C14_20 
REMARK    7  A    between atoms: C14_20  and  C16_22 
REMARK    8  A    between atoms: C16_22  and  N4_23 
REMARK    9  A    between atoms: N4_23  and  C17_24 
ROOT
HETATM    1  C6  UNL     1      -2.884  -0.644   0.041  1.00  0.00     0.142 A 
HETATM    2  N2  UNL     1      -4.133  -1.024   0.274  1.00  0.00    -0.224 NA
HETATM    3  C7  UNL     1      -4.413  -2.290   0.702  1.00  0.00     0.236 A 
HETATM    4  N3  UNL     1      -3.393  -3.148   0.885  1.00  0.00    -0.241 NA
HETATM    5  C8  UNL     1      -2.126  -2.784   0.656  1.00  0.00     0.075 A 
HETATM    6  C9  UNL     1      -1.095  -3.671   0.846  1.00  0.00     0.072 A 
HETATM    7  C10 UNL     1       0.208  -3.271   0.602  1.00  0.00     0.103 A 
HETATM    8  C12 UNL     1       0.501  -1.995   0.169  1.00  0.00     0.103 A 
HETATM    9  C19 UNL     1      -0.518  -1.086  -0.030  1.00  0.00     0.057 A 
HETATM   10  C20 UNL     1      -1.811  -1.494   0.216  1.00  0.00     0.042 A 
ENDROOT
BRANCH   1  11
HETATM   11  N1  UNL     1      -2.700   0.695  -0.403  1.00  0.00    -0.338 N 
HETATM   12  H4  UNL     1      -1.853   1.229  -0.649  1.00  0.00     0.167 HD
BRANCH  11  13
HETATM   13  C5  UNL     1      -3.838   1.533  -0.569  1.00  0.00     0.075 A 
HETATM   14  C4  UNL     1      -4.837   1.326  -1.615  1.00  0.00     0.057 A 
HETATM   15  C3  UNL     1      -5.809   2.228  -1.579  1.00  0.00     0.048 A 
HETATM   16  C2  UNL     1      -5.438   3.077  -0.453  1.00  0.00     0.017 A 
HETATM   17 CL1  UNL     1      -7.200   2.382  -2.612  1.00  0.00    -0.083 Cl
HETATM   18  C1  UNL     1      -6.085   4.135   0.008  1.00  0.00     0.028 C 
HETATM   19  C21 UNL     1      -4.197   2.608   0.154  1.00  0.00     0.154 A 
HETATM   20  F1  UNL     1      -3.474   3.052   1.191  1.00  0.00    -0.203 F 
ENDBRANCH  11  13
ENDBRANCH   1  11
BRANCH   8  21
HETATM   21  O2  UNL     1       1.825  -1.667  -0.054  1.00  0.00    -0.348 OA
BRANCH  21  22
HETATM   22  C13 UNL     1       2.241  -0.391  -0.498  1.00  0.00     0.181 C 
BRANCH  22  23
HETATM   23  C14 UNL     1       3.750  -0.456  -0.613  1.00  0.00     0.034 C 
HETATM   24  C15 UNL     1       4.105  -1.543  -1.615  1.00  0.00     0.014 C 
BRANCH  23  25
HETATM   25  C16 UNL     1       4.357   0.866  -1.030  1.00  0.00     0.275 C 
BRANCH  25  26
HETATM   26  N4  UNL     1       4.014   1.862  -0.034  1.00  0.00     0.083 N 
HETATM   27  H18 UNL     1       2.970   2.067  -0.066  1.00  0.00     0.315 HD
BRANCH  26  28
HETATM   28  C17 UNL     1       4.626   3.122  -0.482  1.00  0.00     0.265 C 
HETATM   29  C18 UNL     1       4.275   4.167   0.547  1.00  0.00     0.037 C 
ENDBRANCH  26  28
ENDBRANCH  25  26
ENDBRANCH  23  25
ENDBRANCH  22  23
ENDBRANCH  21  22
ENDBRANCH   8  21
BRANCH   7  30
HETATM   30  O1  UNL     1       1.248  -4.171   0.796  1.00  0.00    -0.353 OA
HETATM   31  C11 UNL     1       1.080  -5.484   1.230  1.00  0.00     0.210 C 
ENDBRANCH   7  30
TORSDOF 9
