REMARK  5 active torsions:
REMARK  status: ('A' for Active; 'I' for Inactive)
REMARK    1  A    between atoms: C2_2  and  C3_3 
REMARK    2  A    between atoms: C4_4  and  N1_5 
REMARK    3  A    between atoms: N1_5  and  C5_6 
REMARK    4  A    between atoms: C10_13  and  N4_14 
REMARK       I    between atoms: N4_14  and  C11_15 
REMARK    5  A    between atoms: C11_15  and  C12_17 
ROOT
HETATM    1  C5  UNL     1      -1.669  -0.538   0.096  1.00  0.00     0.149 A 
HETATM    2  N2  UNL     1      -2.682  -1.418   0.001  1.00  0.00    -0.223 NA
HETATM    3  C6  UNL     1      -2.442  -2.730  -0.298  1.00  0.00     0.236 A 
HETATM    4  N3  UNL     1      -1.209  -3.237  -0.517  1.00  0.00    -0.241 NA
HETATM    5  C7  UNL     1      -0.199  -2.355  -0.422  1.00  0.00     0.072 A 
HETATM    6  C8  UNL     1       1.095  -2.768  -0.627  1.00  0.00     0.035 A 
HETATM    7  C9  UNL     1       2.124  -1.856  -0.527  1.00  0.00     0.032 A 
HETATM    8  C10 UNL     1       1.940  -0.529  -0.229  1.00  0.00     0.035 A 
HETATM    9  C14 UNL     1       0.651  -0.154  -0.033  1.00  0.00     0.047 A 
HETATM   10  C15 UNL     1      -0.397  -1.022  -0.122  1.00  0.00     0.041 A 
ENDROOT
BRANCH   1  11
HETATM   11  N1  UNL     1      -1.985   0.812   0.410  1.00  0.00    -0.299 N 
HETATM   12  H6  UNL     1      -1.387   1.634   0.530  1.00  0.00     0.178 HD
BRANCH  11  13
HETATM   13  C4  UNL     1      -3.343   1.106   0.596  1.00  0.00     0.012 C 
HETATM   14  C3  UNL     1      -4.536   1.343   0.754  1.00  0.00    -0.084 C 
BRANCH  14  15
HETATM   15  C2  UNL     1      -5.962   1.624   0.918  1.00  0.00     0.091 C 
HETATM   16  C1  UNL     1      -6.733   1.357  -0.334  1.00  0.00     0.018 C 
ENDBRANCH  14  15
ENDBRANCH  11  13
ENDBRANCH   1  11
BRANCH   8  17
HETATM   17  N4  UNL     1       2.966   0.441  -0.117  1.00  0.00    -0.327 N 
HETATM   18  C11 UNL     1       4.359   0.316  -0.270  1.00  0.00     0.221 C 
HETATM   19  O1  UNL     1       4.834  -0.793  -0.548  1.00  0.00    -0.273 OA
HETATM   20  H10 UNL     1       2.714   1.435   0.116  1.00  0.00     0.169 HD
BRANCH  18  21
HETATM   21  C12 UNL     1       5.344   1.397  -0.130  1.00  0.00     0.098 C 
HETATM   22  C13 UNL     1       6.721   0.833  -0.374  1.00  0.00     0.014 C 
ENDBRANCH  18  21
ENDBRANCH   8  17
TORSDOF 5
