REMARK  3 active torsions:
REMARK  status: ('A' for Active; 'I' for Inactive)
REMARK    1  A    between atoms: C2_2  and  C3_3 
REMARK    2  A    between atoms: C3_3  and  N1_4 
REMARK    3  A    between atoms: C3_3  and  C4_5 
ROOT
HETATM    1  C4  UNL     1       1.323  -0.199  -0.061  1.00  0.00    -0.034 C 
HETATM    2  C5  UNL     1       0.415   0.426   0.723  1.00  0.00    -0.016 C 
HETATM    3  C6  UNL     1      -0.703   0.225   1.668  1.00  0.00     0.068 C 
HETATM    4  C7  UNL     1      -1.931   0.859   1.133  1.00  0.00    -0.028 A 
HETATM    5  C8  UNL     1      -2.731   1.755   1.804  1.00  0.00     0.011 A 
HETATM    6  C9  UNL     1      -3.877   2.315   1.281  1.00  0.00     0.020 A 
HETATM    7  C10 UNL     1      -4.284   1.986   0.009  1.00  0.00     0.013 A 
HETATM    8 BR1  UNL     1      -5.863   2.814  -0.593  1.00  0.00    -0.051 Br
HETATM    9  C11 UNL     1      -3.486   1.075  -0.698  1.00  0.00     0.049 A 
HETATM   10  C12 UNL     1      -2.325   0.520  -0.142  1.00  0.00     0.041 A 
HETATM   11  N2  UNL     1      -1.780  -0.321  -1.138  1.00  0.00    -0.340 N 
HETATM   12  C13 UNL     1      -1.079  -1.451  -0.803  1.00  0.00     0.135 C 
HETATM   13  N3  UNL     1      -1.610  -2.447  -0.219  1.00  0.00    -0.225 NA
HETATM   14  C14 UNL     1      -0.798  -3.618   0.075  1.00  0.00     0.229 C 
HETATM   15  N4  UNL     1       0.508  -3.896  -0.195  1.00  0.00    -0.272 NA
HETATM   16  C15 UNL     1       1.224  -2.845  -0.930  1.00  0.00     0.162 A 
HETATM   17  C16 UNL     1       1.772  -1.579  -0.477  1.00  0.00     0.059 A 
HETATM   18  C17 UNL     1       0.316  -1.741  -0.724  1.00  0.00     0.009 A 
HETATM   19  H15 UNL     1      -1.724  -0.400  -2.149  1.00  0.00     0.167 HD
ENDROOT
BRANCH   1  20
HETATM   20  C3  UNL     1       2.278   0.683  -0.851  1.00  0.00     0.247 C 
BRANCH  20  21
HETATM   21  C2  UNL     1       3.668   0.296  -0.378  1.00  0.00     0.035 C 
HETATM   22  C1  UNL     1       3.688   0.621   1.122  1.00  0.00     0.007 C 
ENDBRANCH  20  21
BRANCH  20  23
HETATM   23  N1  UNL     1       2.158   0.415  -2.257  1.00  0.00     0.086 N 
HETATM   24  H7  UNL     1       2.925  -0.179  -2.628  1.00  0.00     0.313 HD
HETATM   25  H8  UNL     1       1.999   1.245  -2.843  1.00  0.00     0.313 HD
ENDBRANCH  20  23
ENDBRANCH   1  20
TORSDOF 3
