REMARK  3 active torsions:
REMARK  status: ('A' for Active; 'I' for Inactive)
REMARK    1  A    between atoms: O1_2  and  C2_3 
REMARK    2  A    between atoms: C6_8  and  N2_9 
REMARK    3  A    between atoms: C20_27  and  O3_28 
ROOT
HETATM    1  C2  UNL     1      -3.697  -0.860  -1.132  1.00  0.00     0.075 C 
HETATM    2  C3  UNL     1      -2.463  -1.352  -1.122  1.00  0.00     0.053 C 
HETATM    3  C4  UNL     1      -1.078  -1.610  -0.656  1.00  0.00     0.113 C 
HETATM    4  N1  UNL     1      -0.635  -1.105   0.407  1.00  0.00    -0.296 NA
HETATM    5  C5  UNL     1       0.660  -1.292   0.934  1.00  0.00     0.205 C 
HETATM    6  C6  UNL     1       1.788  -0.770   0.128  1.00  0.00     0.029 C 
HETATM    7  C12 UNL     1       1.924  -0.123  -1.024  1.00  0.00     0.027 C 
HETATM    8  C13 UNL     1       1.585   0.546  -2.272  1.00  0.00     0.016 C 
HETATM    9  C14 UNL     1       1.824   1.856  -2.382  1.00  0.00    -0.002 C 
HETATM   10  C15 UNL     1       2.373   2.379  -1.289  1.00  0.00     0.149 C 
HETATM   11  O2  UNL     1       1.262   2.216  -0.397  1.00  0.00    -0.333 OA
HETATM   12  C16 UNL     1       0.138   3.069  -0.629  1.00  0.00     0.443 C 
HETATM   13  N3  UNL     1      -0.777   3.269   0.388  1.00  0.00     0.106 N 
HETATM   14  C17 UNL     1      -1.556   2.244   0.946  1.00  0.00     0.272 C 
HETATM   15  C18 UNL     1      -2.559   1.633   0.031  1.00  0.00     0.033 C 
HETATM   16  C19 UNL     1      -3.469   0.699   0.786  1.00  0.00     0.040 C 
HETATM   17  C20 UNL     1      -4.426   0.026  -0.214  1.00  0.00     0.174 C 
HETATM   18  H19 UNL     1      -0.333   3.808   1.168  1.00  0.00     0.318 HD
ENDROOT
BRANCH   6  19
HETATM   19  N2  UNL     1       3.005  -1.092   0.856  1.00  0.00    -0.348 N 
HETATM   20  C7  UNL     1       3.818  -2.255   0.582  1.00  0.00     0.154 C 
HETATM   21  C8  UNL     1       5.196  -1.848   0.235  1.00  0.00     0.012 C 
HETATM   22  C9  UNL     1       5.597  -0.881   1.030  1.00  0.00     0.014 C 
HETATM   23 CL1  UNL     1       7.242  -0.291   0.726  1.00  0.00    -0.089 Cl
HETATM   24  C10 UNL     1       4.907  -0.193   2.149  1.00  0.00     0.110 C 
HETATM   25  C11 UNL     1       3.431  -0.214   1.902  1.00  0.00     0.277 C 
HETATM   26  F1  UNL     1       2.786  -0.599   3.070  1.00  0.00    -0.226 F 
ENDBRANCH   6  19
BRANCH   1  27
HETATM   27  O1  UNL     1      -4.669  -1.113  -2.126  1.00  0.00    -0.358 OA
HETATM   28  C1  UNL     1      -5.704  -2.039  -1.996  1.00  0.00     0.209 C 
ENDBRANCH   1  27
BRANCH  17  29
HETATM   29  O3  UNL     1      -5.314  -0.733   0.530  1.00  0.00    -0.389 OA
HETATM   30  H27 UNL     1      -4.773  -1.452   0.962  1.00  0.00     0.210 HD
ENDBRANCH  17  29
TORSDOF 3
