REMARK  3 active torsions:
REMARK  status: ('A' for Active; 'I' for Inactive)
REMARK    1  A    between atoms: C2_2  and  C3_3 
REMARK       I    between atoms: C3_3  and  N1_5 
REMARK    2  A    between atoms: N1_5  and  C4_6 
REMARK    3  A    between atoms: N2_12  and  C10_13 
ROOT
HETATM    1  C4  UNL     1       1.538  -0.419   0.005  1.00  0.00     0.037 A 
HETATM    2  C5  UNL     1       2.007  -1.679  -0.266  1.00  0.00     0.032 A 
HETATM    3  C6  UNL     1       1.236  -2.810  -0.425  1.00  0.00     0.036 A 
HETATM    4  C7  UNL     1      -0.146  -2.654  -0.300  1.00  0.00     0.083 A 
HETATM    5  C8  UNL     1      -0.647  -1.416  -0.035  1.00  0.00     0.066 A 
HETATM    6  C9  UNL     1       0.170  -0.320   0.117  1.00  0.00     0.061 A 
HETATM    7  N2  UNL     1      -2.052  -1.250   0.019  1.00  0.00    -0.340 N 
HETATM    8  C16 UNL     1      -2.953  -2.361   0.157  1.00  0.00     0.176 C 
HETATM    9  C17 UNL     1      -2.296  -3.661  -0.155  1.00  0.00     0.110 C 
HETATM   10  N3  UNL     1      -1.010  -3.802  -0.363  1.00  0.00    -0.261 NA
ENDROOT
BRANCH   7  11
HETATM   11  C10 UNL     1      -2.700   0.008  -0.103  1.00  0.00     0.036 A 
HETATM   12  C11 UNL     1      -2.358   1.070  -0.913  1.00  0.00     0.030 A 
HETATM   13  C12 UNL     1      -3.061   2.250  -0.921  1.00  0.00     0.004 A 
HETATM   14  C13 UNL     1      -4.158   2.441  -0.112  1.00  0.00     0.019 A 
HETATM   15  C14 UNL     1      -4.565   1.431   0.725  1.00  0.00     0.013 A 
HETATM   16 BR1  UNL     1      -6.065   1.575   1.889  1.00  0.00    -0.051 Br
HETATM   17  C15 UNL     1      -3.821   0.273   0.688  1.00  0.00     0.048 A 
ENDBRANCH   7  11
BRANCH   1  18
HETATM   18  N1  UNL     1       2.301   0.751   0.172  1.00  0.00    -0.327 N 
HETATM   19  C3  UNL     1       3.699   0.937   0.104  1.00  0.00     0.221 C 
HETATM   20  O1  UNL     1       4.426  -0.050  -0.139  1.00  0.00    -0.273 OA
HETATM   21  H6  UNL     1       1.833   1.662   0.381  1.00  0.00     0.169 HD
BRANCH  19  22
HETATM   22  C2  UNL     1       4.411   2.225   0.297  1.00  0.00     0.098 C 
HETATM   23  C1  UNL     1       5.885   1.926   0.131  1.00  0.00     0.014 C 
ENDBRANCH  19  22
ENDBRANCH   1  18
TORSDOF 3
