REMARK  7 active torsions:
REMARK  status: ('A' for Active; 'I' for Inactive)
REMARK    1  A    between atoms: O1_2  and  C2_3 
REMARK    2  A    between atoms: C6_9  and  N3_10 
REMARK    3  A    between atoms: N3_10  and  C7_11 
REMARK    4  A    between atoms: C15_21  and  O2_22 
REMARK    5  A    between atoms: O2_22  and  C16_23 
REMARK    6  A    between atoms: C16_23  and  C17_24 
REMARK    7  A    between atoms: C17_24  and  N4_25 
ROOT
HETATM    1  C2  UNL     1      -0.499  -2.529  -0.650  1.00  0.00     0.103 A 
HETATM    2  C3  UNL     1       0.615  -3.349  -0.701  1.00  0.00     0.072 A 
HETATM    3  C4  UNL     1       1.827  -2.745  -0.947  1.00  0.00     0.075 A 
HETATM    4  N1  UNL     1       2.972  -3.416  -1.030  1.00  0.00    -0.241 NA
HETATM    5  C5  UNL     1       4.160  -2.828  -1.275  1.00  0.00     0.236 A 
HETATM    6  N2  UNL     1       4.232  -1.470  -1.451  1.00  0.00    -0.224 NA
HETATM    7  C6  UNL     1       3.060  -0.757  -1.369  1.00  0.00     0.142 A 
HETATM    8  C13 UNL     1       1.852  -1.374  -1.122  1.00  0.00     0.042 A 
HETATM    9  C14 UNL     1       0.769  -0.542  -1.078  1.00  0.00     0.057 A 
HETATM   10  C15 UNL     1      -0.459  -1.134  -0.835  1.00  0.00     0.103 A 
ENDROOT
BRANCH   7  11
HETATM   11  N3  UNL     1       3.377   0.595  -1.513  1.00  0.00    -0.340 N 
HETATM   12  H6  UNL     1       3.301   1.262  -2.392  1.00  0.00     0.167 HD
BRANCH  11  13
HETATM   13  C7  UNL     1       3.954   1.340  -0.414  1.00  0.00     0.035 A 
HETATM   14  C8  UNL     1       4.173   0.657   0.771  1.00  0.00     0.032 A 
HETATM   15  C9  UNL     1       4.770   1.334   1.857  1.00  0.00     0.046 A 
HETATM   16  C10 UNL     1       5.128   2.658   1.730  1.00  0.00     0.138 A 
HETATM   17  F1  UNL     1       5.713   3.275   2.802  1.00  0.00    -0.204 F 
HETATM   18  C11 UNL     1       4.909   3.336   0.555  1.00  0.00     0.074 A 
HETATM   19 CL1  UNL     1       5.372   5.036   0.407  1.00  0.00    -0.081 Cl
HETATM   20  C12 UNL     1       4.336   2.664  -0.467  1.00  0.00     0.056 A 
ENDBRANCH  11  13
ENDBRANCH   7  11
BRANCH  10  21
HETATM   21  O2  UNL     1      -1.612  -0.625  -0.753  1.00  0.00    -0.347 OA
BRANCH  21  22
HETATM   22  C16 UNL     1      -2.743   0.006  -0.696  1.00  0.00     0.206 C 
BRANCH  22  23
HETATM   23  C17 UNL     1      -2.822   1.126   0.361  1.00  0.00     0.301 C 
BRANCH  23  24
HETATM   24  N4  UNL     1      -4.104   1.730   0.335  1.00  0.00     0.115 N 
HETATM   25  C18 UNL     1      -5.189   0.932   0.820  1.00  0.00     0.301 C 
HETATM   26  C19 UNL     1      -5.885   1.861   1.816  1.00  0.00     0.200 C 
HETATM   27  O3  UNL     1      -4.948   2.829   2.147  1.00  0.00    -0.361 OA
HETATM   28  C20 UNL     1      -4.157   2.982   1.011  1.00  0.00     0.440 C 
ENDBRANCH  23  24
ENDBRANCH  22  23
ENDBRANCH  21  22
ENDBRANCH  10  21
BRANCH   1  29
HETATM   29  O1  UNL     1      -1.663  -3.252  -0.392  1.00  0.00    -0.353 OA
HETATM   30  C1  UNL     1      -1.721  -4.629  -0.210  1.00  0.00     0.210 C 
ENDBRANCH   1  29
TORSDOF 7
