REMARK  1 active torsions:
REMARK  status: ('A' for Active; 'I' for Inactive)
REMARK    1  A    between atoms: O1_2  and  C2_3 
ROOT
HETATM    1  C2  UNL     1       1.835   0.941   0.864  1.00  0.00     0.175 C 
HETATM    2  C3  UNL     1       1.596   2.071   1.504  1.00  0.00     0.039 C 
HETATM    3  C4  UNL     1       0.394   2.956   1.650  1.00  0.00     0.026 C 
HETATM    4  C5  UNL     1      -0.884   3.324   1.436  1.00  0.00     0.140 C 
HETATM    5  N1  UNL     1      -2.130   2.961   0.760  1.00  0.00    -0.381 N 
HETATM    6  C6  UNL     1      -2.476   1.818  -0.080  1.00  0.00     0.060 A 
HETATM    7  C7  UNL     1      -3.089   2.060  -1.267  1.00  0.00     0.055 A 
HETATM    8  C8  UNL     1      -3.166   0.915  -2.047  1.00  0.00     0.037 A 
HETATM    9 CL1  UNL     1      -3.935   1.087  -3.603  1.00  0.00    -0.084 Cl
HETATM   10  C9  UNL     1      -2.650  -0.277  -1.583  1.00  0.00     0.040 A 
HETATM   11  C10 UNL     1      -2.046  -0.413  -0.354  1.00  0.00     0.021 A 
HETATM   12  C11 UNL     1      -1.511  -1.568   0.161  1.00  0.00     0.048 A 
HETATM   13  N2  UNL     1      -0.957  -1.568   1.382  1.00  0.00    -0.246 NA
HETATM   14  C12 UNL     1      -0.847  -0.526   2.214  1.00  0.00     0.234 A 
HETATM   15  N3  UNL     1      -1.368   0.563   1.671  1.00  0.00    -0.239 NA
HETATM   16  C13 UNL     1      -1.940   0.681   0.473  1.00  0.00     0.097 A 
HETATM   17  C14 UNL     1      -1.257  -2.957  -0.252  1.00  0.00     0.060 C 
HETATM   18  C15 UNL     1       0.202  -3.193  -0.458  1.00  0.00     0.006 C 
HETATM   19  C16 UNL     1       0.864  -2.671  -1.646  1.00  0.00     0.002 C 
HETATM   20  C17 UNL     1       1.027  -1.272  -2.026  1.00  0.00     0.027 C 
HETATM   21  C18 UNL     1       1.872  -0.345  -1.226  1.00  0.00     0.178 C 
HETATM   22  O2  UNL     1       1.409  -0.109   0.042  1.00  0.00    -0.331 OA
HETATM   23  H7  UNL     1      -2.822   3.692   0.953  1.00  0.00     0.160 HD
ENDROOT
BRANCH   1  24
HETATM   24  O1  UNL     1       3.126   0.477   1.021  1.00  0.00    -0.336 OA
HETATM   25  C1  UNL     1       3.996   0.802   2.060  1.00  0.00     0.212 C 
ENDBRANCH   1  24
TORSDOF 1
