REMARK  8 active torsions:
REMARK  status: ('A' for Active; 'I' for Inactive)
REMARK    1  A    between atoms: C2_2  and  C3_3 
REMARK    2  A    between atoms: C3_3  and  O1_4 
REMARK    3  A    between atoms: O1_4  and  C4_5 
REMARK    4  A    between atoms: C4_5  and  C5_6 
REMARK    5  A    between atoms: C5_6  and  O2_7 
REMARK    6  A    between atoms: O2_7  and  C6_8 
REMARK    7  A    between atoms: C15_20  and  N3_21 
REMARK    8  A    between atoms: N3_21  and  C16_22 
ROOT
HETATM    1  C6  UNL     1       1.228  -1.603  -0.430  1.00  0.00     0.285 C 
HETATM    2  C7  UNL     1       0.020  -0.835  -0.366  1.00  0.00     0.045 C 
HETATM    3  C8  UNL     1      -1.204  -0.590  -0.582  1.00  0.00     0.009 C 
HETATM    4  C9  UNL     1      -1.940  -1.653  -1.362  1.00  0.00     0.193 C 
HETATM    5  N1  UNL     1      -2.938  -2.059  -0.396  1.00  0.00    -0.270 NA
HETATM    6  C10 UNL     1      -2.712  -1.762   0.893  1.00  0.00     0.126 C 
HETATM    7  C11 UNL     1      -3.022  -3.181   1.205  1.00  0.00     0.107 C 
HETATM    8  C12 UNL     1      -1.781  -4.018   0.921  1.00  0.00    -0.021 C 
HETATM    9  C13 UNL     1      -0.493  -3.745   0.656  1.00  0.00    -0.004 C 
HETATM   10  C14 UNL     1       0.974  -3.741   0.338  1.00  0.00     0.198 C 
HETATM   11  O3  UNL     1       1.158  -2.952  -0.840  1.00  0.00    -0.354 OA
HETATM   12  N2  UNL     1      -2.361  -0.368   0.883  1.00  0.00    -0.215 NA
HETATM   13  C15 UNL     1      -2.325   0.272  -0.265  1.00  0.00     0.138 C 
ENDROOT
BRANCH   1  14
HETATM   14  O2  UNL     1       2.279  -0.896  -0.920  1.00  0.00    -0.356 OA
BRANCH  14  15
HETATM   15  C5  UNL     1       3.277  -0.576  -0.025  1.00  0.00     0.197 C 
BRANCH  15  16
HETATM   16  C4  UNL     1       4.340   0.212  -0.802  1.00  0.00     0.193 C 
BRANCH  16  17
HETATM   17  O1  UNL     1       5.364   0.551   0.077  1.00  0.00    -0.389 OA
BRANCH  17  18
HETATM   18  C3  UNL     1       6.329   1.263  -0.616  1.00  0.00     0.172 C 
BRANCH  18  19
HETATM   19  C2  UNL     1       5.753   2.496  -1.190  1.00  0.00     0.015 C 
HETATM   20  C1  UNL     1       6.067   3.761  -0.992  1.00  0.00     0.007 C 
ENDBRANCH  18  19
ENDBRANCH  17  18
ENDBRANCH  16  17
ENDBRANCH  15  16
ENDBRANCH  14  15
ENDBRANCH   1  14
BRANCH  13  21
HETATM   21  N3  UNL     1      -2.945   1.279  -0.982  1.00  0.00    -0.340 N 
HETATM   22  H20 UNL     1      -2.629   1.394  -1.939  1.00  0.00     0.167 HD
BRANCH  21  23
HETATM   23  C16 UNL     1      -3.897   1.904  -0.149  1.00  0.00     0.034 A 
HETATM   24  C17 UNL     1      -4.946   1.740   0.612  1.00  0.00     0.036 A 
HETATM   25  C18 UNL     1      -5.017   3.182   0.932  1.00  0.00    -0.058 A 
HETATM   26  C19 UNL     1      -5.917   4.022   1.765  1.00  0.00     0.048 C 
HETATM   27  C20 UNL     1      -3.939   3.351   0.151  1.00  0.00     0.036 A 
ENDBRANCH  21  23
ENDBRANCH  13  21
TORSDOF 8
