REMARK  8 active torsions:
REMARK  status: ('A' for Active; 'I' for Inactive)
REMARK    1  A    between atoms: C2_3  and  C3_4 
REMARK    2  A    between atoms: C8_11  and  O2_12 
REMARK    3  A    between atoms: O2_12  and  C9_13 
REMARK    4  A    between atoms: C9_13  and  C10_14 
REMARK    5  A    between atoms: C10_14  and  O3_15 
REMARK    6  A    between atoms: O3_15  and  C11_16 
REMARK    7  A    between atoms: C12_17  and  C13_18 
REMARK    8  A    between atoms: C13_18  and  O4_19 
ROOT
HETATM    1  C1  UNL     1       7.840  -1.071  -1.796  1.00  0.00     0.201 C 
HETATM    2  O1  UNL     1       6.659  -1.474  -1.727  1.00  0.00    -0.392 OA
HETATM    3  C2  UNL     1       5.490  -1.874  -1.655  1.00  0.00     0.201 C 
ENDROOT
BRANCH   3   4
HETATM    4  C3  UNL     1       4.428  -1.066  -0.971  1.00  0.00    -0.056 A 
HETATM    5  C4  UNL     1       4.718   0.131  -0.407  1.00  0.00     0.016 A 
HETATM    6  C5  UNL     1       4.189   1.291   0.336  1.00  0.00     0.183 A 
HETATM    7  C6  UNL     1       5.054   1.395   1.612  1.00  0.00     0.052 C 
HETATM    8  N1  UNL     1       2.906   1.386   0.680  1.00  0.00    -0.433 NA
HETATM    9  C7  UNL     1       1.776   1.567   1.036  1.00  0.00     0.294 A 
HETATM   10  N2  UNL     1       0.694   0.684   0.798  1.00  0.00    -0.210 NA
HETATM   11  C8  UNL     1       0.999  -0.390   0.150  1.00  0.00     0.148 A 
HETATM   12  C18 UNL     1       2.364  -0.670  -0.302  1.00  0.00     0.112 A 
HETATM   13  C19 UNL     1       3.036  -1.657  -0.965  1.00  0.00     0.016 A 
BRANCH  11  14
HETATM   14  O2  UNL     1      -0.350  -0.598   0.334  1.00  0.00    -0.335 OA
BRANCH  14  15
HETATM   15  C9  UNL     1      -1.400   0.009  -0.457  1.00  0.00     0.203 C 
BRANCH  15  16
HETATM   16  C10 UNL     1      -2.728  -0.222   0.157  1.00  0.00     0.202 C 
BRANCH  16  17
HETATM   17  O3  UNL     1      -3.684   0.416  -0.706  1.00  0.00    -0.352 OA
BRANCH  17  18
HETATM   18  C11 UNL     1      -5.021   0.420  -0.442  1.00  0.00     0.058 A 
HETATM   19  C12 UNL     1      -5.786   0.886   0.532  1.00  0.00    -0.005 A 
HETATM   20  C15 UNL     1      -7.172   0.561   0.222  1.00  0.00     0.008 A 
HETATM   21  C16 UNL     1      -7.235  -0.091  -0.923  1.00  0.00    -0.019 A 
HETATM   22  C17 UNL     1      -5.847  -0.254  -1.476  1.00  0.00     0.092 A 
BRANCH  19  23
HETATM   23  C13 UNL     1      -5.504   1.629   1.795  1.00  0.00     0.208 C 
BRANCH  23  24
HETATM   24  O4  UNL     1      -5.942   0.904   2.915  1.00  0.00    -0.391 OA
HETATM   25  C14 UNL     1      -5.296  -0.338   2.995  1.00  0.00     0.201 C 
ENDBRANCH  23  24
ENDBRANCH  19  23
ENDBRANCH  17  18
ENDBRANCH  16  17
ENDBRANCH  15  16
ENDBRANCH  14  15
ENDBRANCH  11  14
ENDBRANCH   3   4
TORSDOF 8
