REMARK  5 active torsions:
REMARK  status: ('A' for Active; 'I' for Inactive)
REMARK    1  A    between atoms: C1_2  and  C2_3 
REMARK    2  A    between atoms: C2_3  and  B1_4 
REMARK    3  A    between atoms: B1_4  and  C3_5 
REMARK    4  A    between atoms: C8_12  and  N3_13 
REMARK    5  A    between atoms: N3_13  and  C9_14 
ROOT
HETATM    1  C3  UNL     1       2.529   0.287  -0.493  1.00  0.00    -0.100 A 
HETATM    2  C4  UNL     1       3.116   1.420   0.018  1.00  0.00    -0.003 A 
HETATM    3  C5  UNL     1       2.429   2.143   0.988  1.00  0.00     0.032 A 
HETATM    4  C6  UNL     1       1.187   1.733   1.427  1.00  0.00     0.072 A 
HETATM    5  N1  UNL     1       0.506   2.412   2.373  1.00  0.00    -0.241 NA
HETATM    6  C7  UNL     1      -0.713   1.949   2.772  1.00  0.00     0.236 A 
HETATM    7  N2  UNL     1      -1.226   0.830   2.227  1.00  0.00    -0.224 NA
HETATM    8  C8  UNL     1      -0.551   0.137   1.274  1.00  0.00     0.142 A 
HETATM    9  C15 UNL     1       0.686   0.586   0.854  1.00  0.00     0.038 A 
HETATM   10  C16 UNL     1       1.282  -0.192  -0.103  1.00  0.00     0.012 A 
ENDROOT
BRANCH   8  11
HETATM   11  N3  UNL     1      -1.289  -1.006   0.873  1.00  0.00    -0.340 N 
HETATM   12  H6  UNL     1      -1.076  -2.016   1.004  1.00  0.00     0.167 HD
BRANCH  11  13
HETATM   13  C9  UNL     1      -2.516  -0.688   0.177  1.00  0.00     0.035 A 
HETATM   14  C10 UNL     1      -2.839   0.607  -0.169  1.00  0.00     0.029 A 
HETATM   15  C11 UNL     1      -4.024   0.931  -0.817  1.00  0.00     0.004 A 
HETATM   16  C12 UNL     1      -4.903  -0.086  -1.121  1.00  0.00     0.019 A 
HETATM   17  C13 UNL     1      -4.618  -1.395  -0.793  1.00  0.00     0.013 A 
HETATM   18 BR1  UNL     1      -5.894  -2.714  -1.251  1.00  0.00    -0.051 Br
HETATM   19  C14 UNL     1      -3.437  -1.662  -0.155  1.00  0.00     0.048 A 
ENDBRANCH  11  13
ENDBRANCH   8  11
BRANCH   1  20
HETATM   20  B1  UNL     1       3.366  -0.718  -1.748  1.00  0.00     0.215 B 
BRANCH  20  21
HETATM   21  C2  UNL     1       4.627  -1.859  -2.333  1.00  0.00    -0.040 C 
BRANCH  21  22
HETATM   22  C1  UNL     1       5.590  -2.319  -1.351  1.00  0.00     0.243 C 
HETATM   23  O1  UNL     1       6.713  -2.852  -1.502  1.00  0.00    -0.304 OA
ENDBRANCH  21  22
ENDBRANCH  20  21
ENDBRANCH   1  20
TORSDOF 5
