REMARK  10 active torsions:
REMARK  status: ('A' for Active; 'I' for Inactive)
REMARK    1  A    between atoms: C2_2  and  C3_3 
REMARK    2  A    between atoms: C3_3  and  C4_4 
REMARK    3  A    between atoms: C4_4  and  C5_5 
REMARK    4  A    between atoms: C5_5  and  C6_6 
REMARK    5  A    between atoms: C6_6  and  O1_7 
REMARK    6  A    between atoms: O1_7  and  C7_8 
REMARK    7  A    between atoms: C11_13  and  C12_14 
REMARK    8  A    between atoms: C12_14  and  N2_15 
REMARK    9  A    between atoms: N2_15  and  C13_16 
REMARK   10  A    between atoms: C20_27  and  O2_28 
ROOT
HETATM    1  C7  UNL     1       1.308   0.198   1.527  1.00  0.00     0.132 C 
HETATM    2  C8  UNL     1       0.497  -0.795   1.266  1.00  0.00     0.122 C 
HETATM    3  N1  UNL     1      -0.393  -0.686   0.367  1.00  0.00    -0.241 NA
HETATM    4  C9  UNL     1      -1.275   0.455   0.451  1.00  0.00     0.208 A 
HETATM    5  C10 UNL     1      -1.832   0.855  -0.837  1.00  0.00     0.067 A 
HETATM    6  C11 UNL     1      -3.177   0.809  -0.810  1.00  0.00     0.075 A 
HETATM    7  N3  UNL     1      -3.473   0.377   0.500  1.00  0.00    -0.155 NA
HETATM    8  N4  UNL     1      -2.464   0.173   1.218  1.00  0.00    -0.149 NA
HETATM    9  C19 UNL     1      -0.542   1.582   1.117  1.00  0.00     0.075 C 
HETATM   10  C20 UNL     1       0.671   1.496   1.632  1.00  0.00     0.102 C 
ENDROOT
BRANCH   6  11
HETATM   11  C12 UNL     1      -3.926   1.180  -2.024  1.00  0.00     0.180 C 
BRANCH  11  12
HETATM   12  N2  UNL     1      -4.720   0.050  -2.448  1.00  0.00    -0.384 N 
HETATM   13  H17 UNL     1      -4.375  -0.381  -3.359  1.00  0.00     0.160 HD
BRANCH  12  14
HETATM   14  C13 UNL     1      -5.854  -0.563  -1.863  1.00  0.00     0.030 A 
HETATM   15  C14 UNL     1      -6.438  -1.692  -2.444  1.00  0.00     0.032 A 
HETATM   16  C15 UNL     1      -7.548  -2.262  -1.868  1.00  0.00     0.046 A 
HETATM   17  C16 UNL     1      -8.129  -1.768  -0.720  1.00  0.00     0.138 A 
HETATM   18  F1  UNL     1      -9.220  -2.386  -0.215  1.00  0.00    -0.204 F 
HETATM   19  C17 UNL     1      -7.572  -0.642  -0.114  1.00  0.00     0.074 A 
HETATM   20 CL1  UNL     1      -8.285   0.011   1.343  1.00  0.00    -0.081 Cl
HETATM   21  C18 UNL     1      -6.464  -0.102  -0.722  1.00  0.00     0.056 A 
ENDBRANCH  12  14
ENDBRANCH  11  12
ENDBRANCH   6  11
BRANCH  10  22
HETATM   22  O2  UNL     1       1.312   2.554   2.236  1.00  0.00    -0.358 OA
HETATM   23  H22 UNL     1       1.218   2.622   3.250  1.00  0.00     0.217 HD
ENDBRANCH  10  22
BRANCH   1  24
HETATM   24  O1  UNL     1       2.657   0.029   1.689  1.00  0.00    -0.346 OA
BRANCH  24  25
HETATM   25  C6  UNL     1       3.457   1.027   2.288  1.00  0.00     0.176 C 
BRANCH  25  26
HETATM   26  C5  UNL     1       4.882   0.459   2.275  1.00  0.00     0.027 C 
BRANCH  26  27
HETATM   27  C4  UNL     1       5.295   0.193   0.853  1.00  0.00     0.002 C 
BRANCH  27  28
HETATM   28  C3  UNL     1       6.701  -0.370   0.793  1.00  0.00    -0.000 C 
BRANCH  28  29
HETATM   29  C2  UNL     1       7.131  -0.643  -0.639  1.00  0.00    -0.005 C 
HETATM   30  C1  UNL     1       6.233  -1.630  -1.318  1.00  0.00     0.005 C 
ENDBRANCH  28  29
ENDBRANCH  27  28
ENDBRANCH  26  27
ENDBRANCH  25  26
ENDBRANCH  24  25
ENDBRANCH   1  24
TORSDOF 10
