REMARK  8 active torsions:
REMARK  status: ('A' for Active; 'I' for Inactive)
REMARK    1  A    between atoms: C2_2  and  C3_3 
REMARK    2  A    between atoms: C3_3  and  O1_4 
REMARK    3  A    between atoms: O1_4  and  C4_5 
REMARK    4  A    between atoms: C6_8  and  N2_9 
REMARK    5  A    between atoms: N2_9  and  C7_10 
REMARK    6  A    between atoms: C7_10  and  C8_11 
REMARK    7  A    between atoms: C9_12  and  C10_14 
REMARK    8  A    between atoms: C14_19  and  C15_20 
ROOT
HETATM    1  C4  UNL     1       2.452  -0.281   0.130  1.00  0.00     0.166 A 
HETATM    2  N1  UNL     1       2.127  -1.476   0.417  1.00  0.00    -0.264 NA
HETATM    3  C5  UNL     1       0.976  -1.997   1.052  1.00  0.00     0.191 A 
HETATM    4  C6  UNL     1      -0.007  -0.940   1.436  1.00  0.00     0.264 A 
HETATM    5  C13 UNL     1       0.465   0.404   1.059  1.00  0.00     0.021 A 
HETATM    6  C14 UNL     1       1.565   0.823   0.462  1.00  0.00    -0.008 A 
ENDROOT
BRANCH   4   7
HETATM    7  N2  UNL     1      -1.293  -1.226   0.816  1.00  0.00     0.096 N 
HETATM    8  H9  UNL     1      -1.119  -1.288  -0.200  1.00  0.00     0.317 HD
BRANCH   7   9
HETATM    9  C7  UNL     1      -2.298  -0.254   1.160  1.00  0.00     0.299 C 
BRANCH   9  10
HETATM   10  C8  UNL     1      -3.619  -0.586   0.581  1.00  0.00     0.030 C 
HETATM   11  C9  UNL     1      -4.474  -0.024  -0.246  1.00  0.00     0.070 C 
HETATM   12 CL1  UNL     1      -3.573   1.433  -0.568  1.00  0.00    -0.081 Cl
BRANCH  11  13
HETATM   13  C10 UNL     1      -5.696  -0.719  -0.554  1.00  0.00     0.133 C 
HETATM   14  F1  UNL     1      -5.935  -1.908  -0.001  1.00  0.00    -0.205 F 
HETATM   15  C11 UNL     1      -6.566  -0.172  -1.380  1.00  0.00     0.013 C 
HETATM   16  C12 UNL     1      -6.472   1.129  -2.083  1.00  0.00     0.039 C 
ENDBRANCH  11  13
ENDBRANCH   9  10
ENDBRANCH   7   9
ENDBRANCH   4   7
BRANCH   6  17
HETATM   17  C15 UNL     1       1.906   2.210   0.146  1.00  0.00     0.038 C 
HETATM   18  C16 UNL     1       3.180   2.676   0.809  1.00  0.00     0.010 C 
ENDBRANCH   6  17
BRANCH   1  19
HETATM   19  O1  UNL     1       3.669  -0.081  -0.504  1.00  0.00    -0.331 OA
BRANCH  19  20
HETATM   20  C3  UNL     1       4.296  -1.061  -1.329  1.00  0.00     0.204 C 
BRANCH  20  21
HETATM   21  C2  UNL     1       5.593  -0.560  -1.870  1.00  0.00    -0.011 C 
HETATM   22  C1  UNL     1       6.756  -1.145  -1.637  1.00  0.00     0.009 C 
ENDBRANCH  20  21
ENDBRANCH  19  20
ENDBRANCH   1  19
TORSDOF 8
