REMARK  5 active torsions:
REMARK  status: ('A' for Active; 'I' for Inactive)
REMARK    1  A    between atoms: C2_2  and  C3_3 
REMARK    2  A    between atoms: C8_9  and  N2_10 
REMARK    3  A    between atoms: N2_10  and  C9_11 
REMARK    4  A    between atoms: C9_11  and  C10_12 
REMARK    5  A    between atoms: C12_15  and  C13_16 
ROOT
HETATM    1  C3  UNL     1       3.687  -0.598   1.703  1.00  0.00     0.032 C 
HETATM    2  C4  UNL     1       2.708  -0.761   0.825  1.00  0.00     0.057 C 
HETATM    3  C5  UNL     1       1.810  -1.923   0.829  1.00  0.00     0.084 C 
HETATM    4  C6  UNL     1       0.424  -1.641   1.305  1.00  0.00     0.126 C 
HETATM    5  N1  UNL     1      -0.309  -0.700   0.515  1.00  0.00    -0.383 N 
HETATM    6  C7  UNL     1       0.114   0.273  -0.432  1.00  0.00     0.128 A 
HETATM    7  C8  UNL     1      -0.965   0.789  -1.111  1.00  0.00     0.160 A 
HETATM    8  N3  UNL     1      -0.715   1.722  -2.035  1.00  0.00    -0.222 NA
HETATM    9  C14 UNL     1       0.518   2.165  -2.321  1.00  0.00     0.238 A 
HETATM   10  N4  UNL     1       1.558   1.644  -1.643  1.00  0.00    -0.215 NA
HETATM   11  C15 UNL     1       1.425   0.707  -0.698  1.00  0.00     0.201 A 
HETATM   12  O1  UNL     1       2.621   0.294  -0.110  1.00  0.00    -0.294 OA
HETATM   13  H9  UNL     1      -1.335  -0.760   0.690  1.00  0.00     0.159 HD
ENDROOT
BRANCH   7  14
HETATM   14  N2  UNL     1      -2.313   0.411  -0.914  1.00  0.00    -0.339 N 
HETATM   15  H10 UNL     1      -2.904  -0.222  -0.354  1.00  0.00     0.167 HD
BRANCH  14  16
HETATM   16  C9  UNL     1      -3.360   1.037  -1.689  1.00  0.00     0.029 C 
HETATM   17  C12 UNL     1      -4.001   2.022  -1.035  1.00  0.00     0.033 C 
BRANCH  16  18
HETATM   18  C10 UNL     1      -3.267   0.280  -2.941  1.00  0.00     0.024 C 
HETATM   19  C11 UNL     1      -2.679  -0.672  -3.634  1.00  0.00     0.261 C 
HETATM   20 CL1  UNL     1      -1.357  -1.636  -2.974  1.00  0.00    -0.251 Cl
ENDBRANCH  16  18
BRANCH  17  21
HETATM   21  C13 UNL     1      -3.476   2.221   0.318  1.00  0.00     0.252 C 
HETATM   22  F1  UNL     1      -4.437   2.025   1.313  1.00  0.00    -0.251 F 
ENDBRANCH  17  21
ENDBRANCH  14  16
ENDBRANCH   7  14
BRANCH   1  23
HETATM   23  C2  UNL     1       3.946  -1.576   2.755  1.00  0.00    -0.008 C 
HETATM   24  C1  UNL     1       4.918  -1.408   3.628  1.00  0.00     0.011 C 
ENDBRANCH   1  23
TORSDOF 5
