REMARK  2 active torsions:
REMARK  status: ('A' for Active; 'I' for Inactive)
REMARK    1  A    between atoms: C2_2  and  C3_3 
REMARK    2  A    between atoms: C3_3  and  C4_4 
ROOT
HETATM    1  C4  UNL     1       1.926  -0.006  -0.083  1.00  0.00    -0.051 C 
HETATM    2  C5  UNL     1       1.455   1.178   0.166  1.00  0.00     0.033 C 
HETATM    3  C6  UNL     1       0.241   1.959  -0.065  1.00  0.00     0.050 C 
HETATM    4  C7  UNL     1       0.257   3.368   0.479  1.00  0.00     0.072 C 
HETATM    5  N1  UNL     1      -0.859   1.600  -0.685  1.00  0.00    -0.183 NA
HETATM    6  N2  UNL     1      -1.944   2.511  -0.806  1.00  0.00    -0.296 N 
HETATM    7  C8  UNL     1      -2.677   2.226   0.436  1.00  0.00     0.262 C 
HETATM    8  N3  UNL     1      -3.029   0.834   0.385  1.00  0.00    -0.382 N 
HETATM    9  C9  UNL     1      -3.563  -0.123   1.235  1.00  0.00     0.081 C 
HETATM   10  C10 UNL     1      -3.305  -1.415   1.311  1.00  0.00    -0.004 C 
HETATM   11  C11 UNL     1      -2.524  -2.504   0.751  1.00  0.00     0.023 C 
HETATM   12  C12 UNL     1      -1.638  -3.004  -0.090  1.00  0.00     0.021 C 
HETATM   13  C13 UNL     1      -0.614  -3.215  -1.166  1.00  0.00     0.111 C 
HETATM   14 CL1  UNL     1      -1.278  -4.475  -2.254  1.00  0.00    -0.122 Cl
HETATM   15  C14 UNL     1      -0.447  -1.974  -1.962  1.00  0.00     0.188 C 
HETATM   16  O1  UNL     1       0.015  -0.858  -1.290  1.00  0.00    -0.385 OA
HETATM   17  C15 UNL     1       1.278  -1.121  -0.813  1.00  0.00     0.202 C 
HETATM   18  H10 UNL     1      -1.844   3.043  -1.701  1.00  0.00     0.184 HD
HETATM   19  H13 UNL     1      -2.919   0.269  -0.465  1.00  0.00     0.160 HD
ENDROOT
BRANCH   1  20
HETATM   20  C3  UNL     1       3.296  -0.514   0.323  1.00  0.00     0.062 C 
BRANCH  20  21
HETATM   21  C2  UNL     1       4.015   0.546   1.059  1.00  0.00    -0.033 C 
HETATM   22  C1  UNL     1       5.163   1.125   0.684  1.00  0.00     0.007 C 
ENDBRANCH  20  21
ENDBRANCH   1  20
TORSDOF 2
