REMARK  8 active torsions:
REMARK  status: ('A' for Active; 'I' for Inactive)
REMARK    1  A    between atoms: C2_2  and  C3_3 
REMARK    2  A    between atoms: C3_3  and  C4_4 
REMARK    3  A    between atoms: C4_4  and  C5_5 
REMARK    4  A    between atoms: C5_5  and  C6_6 
REMARK    5  A    between atoms: C6_6  and  O1_7 
REMARK    6  A    between atoms: O1_7  and  C7_8 
REMARK    7  A    between atoms: C12_14  and  N2_15 
REMARK    8  A    between atoms: N2_15  and  C13_16 
ROOT
HETATM    1  C7  UNL     1       0.420  -1.805  -0.270  1.00  0.00     0.144 A 
HETATM    2  C8  UNL     1      -0.936  -1.889  -0.071  1.00  0.00     0.069 A 
HETATM    3  C9  UNL     1      -1.276  -0.582  -0.763  1.00  0.00     0.127 A 
HETATM    4  C10 UNL     1      -1.835  -0.468  -2.157  1.00  0.00     0.065 C 
HETATM    5  N1  UNL     1      -3.053  -0.892  -2.134  1.00  0.00    -0.289 NA
HETATM    6  C11 UNL     1      -3.362  -1.262  -0.741  1.00  0.00     0.177 C 
HETATM    7  C12 UNL     1      -2.469  -0.057  -0.098  1.00  0.00     0.140 C 
HETATM    8  C19 UNL     1      -0.634   0.254  -2.735  1.00  0.00     0.047 C 
HETATM    9  C20 UNL     1       0.567   0.217  -2.054  1.00  0.00     0.097 C 
HETATM   10  N3  UNL     1       0.024  -0.600  -1.037  1.00  0.00    -0.317 N 
ENDROOT
BRANCH   7  11
HETATM   11  N2  UNL     1      -3.056   1.114  -0.640  1.00  0.00    -0.380 N 
HETATM   12  H18 UNL     1      -2.625   1.548  -1.474  1.00  0.00     0.160 HD
BRANCH  11  13
HETATM   13  C13 UNL     1      -4.211   1.711  -0.081  1.00  0.00     0.030 A 
HETATM   14  C14 UNL     1      -4.844   1.190   1.030  1.00  0.00     0.032 A 
HETATM   15  C15 UNL     1      -5.984   1.753   1.606  1.00  0.00     0.046 A 
HETATM   16  C16 UNL     1      -6.522   2.899   1.042  1.00  0.00     0.138 A 
HETATM   17  F1  UNL     1      -7.625   3.445   1.598  1.00  0.00    -0.204 F 
HETATM   18  C17 UNL     1      -5.900   3.436  -0.074  1.00  0.00     0.074 A 
HETATM   19 CL1  UNL     1      -6.630   4.890  -0.743  1.00  0.00    -0.081 Cl
HETATM   20  C18 UNL     1      -4.769   2.853  -0.623  1.00  0.00     0.056 A 
ENDBRANCH  11  13
ENDBRANCH   7  11
BRANCH   1  21
HETATM   21  O1  UNL     1       1.627  -2.502   0.024  1.00  0.00    -0.336 OA
BRANCH  21  22
HETATM   22  C6  UNL     1       2.743  -1.745   0.531  1.00  0.00     0.177 C 
BRANCH  22  23
HETATM   23  C5  UNL     1       3.913  -2.632   0.781  1.00  0.00     0.027 C 
BRANCH  23  24
HETATM   24  C4  UNL     1       5.106  -1.984   1.351  1.00  0.00     0.002 C 
BRANCH  24  25
HETATM   25  C3  UNL     1       5.859  -0.938   0.669  1.00  0.00    -0.000 C 
BRANCH  25  26
HETATM   26  C2  UNL     1       5.266   0.366   0.319  1.00  0.00    -0.005 C 
HETATM   27  C1  UNL     1       4.719   1.138   1.483  1.00  0.00     0.005 C 
ENDBRANCH  25  26
ENDBRANCH  24  25
ENDBRANCH  23  24
ENDBRANCH  22  23
ENDBRANCH  21  22
ENDBRANCH   1  21
TORSDOF 8
