REMARK  7 active torsions:
REMARK  status: ('A' for Active; 'I' for Inactive)
REMARK    1  A    between atoms: O1_2  and  C2_3 
REMARK    2  A    between atoms: C2_3  and  C4_5 
REMARK    3  A    between atoms: C6_7  and  C7_8 
REMARK    4  A    between atoms: C9_12  and  N3_13 
REMARK    5  A    between atoms: N3_13  and  C10_14 
REMARK    6  A    between atoms: C11_15  and  C12_16 
REMARK    7  A    between atoms: C13_17  and  B1_19 
ROOT
HETATM    1  C7  UNL     1      -0.805  -2.187   0.913  1.00  0.00     0.080 A 
HETATM    2  N1  UNL     1      -0.195  -3.331   0.879  1.00  0.00    -0.243 NA
HETATM    3  C8  UNL     1       0.496  -3.549   2.091  1.00  0.00     0.230 A 
HETATM    4  N2  UNL     1       0.325  -2.559   2.875  1.00  0.00    -0.251 NA
HETATM    5  C9  UNL     1      -0.517  -1.568   2.226  1.00  0.00     0.259 A 
ENDROOT
BRANCH   5   6
HETATM    6  N3  UNL     1       0.282  -0.362   1.947  1.00  0.00    -0.372 N 
HETATM    7  H14 UNL     1      -0.059   0.550   2.266  1.00  0.00     0.161 HD
BRANCH   6   8
HETATM    8  C10 UNL     1       1.479  -0.612   1.252  1.00  0.00     0.085 C 
HETATM    9  C11 UNL     1       2.134   0.148   0.393  1.00  0.00     0.016 C 
BRANCH   9  10
HETATM   10  C12 UNL     1       3.372  -0.076  -0.344  1.00  0.00    -0.007 C 
HETATM   11  C13 UNL     1       3.853   0.825  -1.157  1.00  0.00    -0.108 C 
HETATM   12  C14 UNL     1       5.110   0.490  -1.848  1.00  0.00     0.031 C 
BRANCH  11  13
HETATM   13  B1  UNL     1       3.090   2.169  -1.344  1.00  0.00     0.299 B 
HETATM   14 CL1  UNL     1       2.930   3.278   0.143  1.00  0.00    -0.210 Cl
HETATM   15  H21 UNL     1       3.061   2.610  -2.439  1.00  0.00    -0.002 HD
ENDBRANCH  11  13
ENDBRANCH   9  10
ENDBRANCH   6   8
ENDBRANCH   5   6
BRANCH   1  16
HETATM   16  C6  UNL     1      -1.577  -1.777  -0.244  1.00  0.00     0.036 C 
HETATM   17  C4  UNL     1      -2.294  -0.653  -0.428  1.00  0.00    -0.053 C 
HETATM   18  C5  UNL     1      -3.033  -0.466  -1.728  1.00  0.00     0.046 C 
BRANCH  17  19
HETATM   19  C2  UNL     1      -2.666   0.612   0.291  1.00  0.00     0.145 C 
HETATM   20  C3  UNL     1      -4.194   0.629   0.493  1.00  0.00     0.044 C 
BRANCH  19  21
HETATM   21  O1  UNL     1      -2.248   1.728  -0.382  1.00  0.00    -0.387 OA
HETATM   22  C1  UNL     1      -1.425   2.592   0.282  1.00  0.00     0.202 C 
ENDBRANCH  19  21
ENDBRANCH  17  19
ENDBRANCH   1  16
TORSDOF 7
