REMARK  5 active torsions:
REMARK  status: ('A' for Active; 'I' for Inactive)
REMARK    1  A    between atoms: C7_9  and  N3_10 
REMARK    2  A    between atoms: N3_10  and  C8_11 
REMARK    3  A    between atoms: C9_12  and  C10_13 
REMARK    4  A    between atoms: C11_14  and  C12_16 
REMARK    5  A    between atoms: C14_19  and  O1_20 
ROOT
HETATM    1  C1  UNL     1      -2.540  -2.635  -0.024  1.00  0.00     0.018 C 
HETATM    2  C2  UNL     1      -2.543  -1.477  -0.392  1.00  0.00    -0.074 C 
HETATM    3  C3  UNL     1      -2.560  -0.106  -0.842  1.00  0.00     0.062 A 
HETATM    4  C4  UNL     1      -1.544   0.611  -1.342  1.00  0.00     0.036 A 
HETATM    5  C5  UNL     1      -2.130   1.938  -1.631  1.00  0.00     0.072 A 
HETATM    6  N1  UNL     1      -1.293   2.786  -2.128  1.00  0.00    -0.242 NA
HETATM    7  C6  UNL     1       0.070   2.387  -2.347  1.00  0.00     0.230 A 
HETATM    8  N2  UNL     1       0.607   1.240  -2.105  1.00  0.00    -0.252 NA
HETATM    9  C7  UNL     1      -0.165   0.147  -1.543  1.00  0.00     0.244 A 
HETATM   10  C13 UNL     1      -3.549   1.907  -1.255  1.00  0.00     0.070 A 
HETATM   11  C14 UNL     1      -3.782   0.689  -0.791  1.00  0.00     0.089 A 
ENDROOT
BRANCH  11  12
HETATM   12  O1  UNL     1      -5.050   0.376  -0.361  1.00  0.00    -0.354 OA
HETATM   13  C15 UNL     1      -5.402  -0.273   0.818  1.00  0.00     0.210 C 
ENDBRANCH  11  12
BRANCH   9  14
HETATM   14  N3  UNL     1       0.495  -0.202  -0.278  1.00  0.00    -0.373 N 
HETATM   15  H4  UNL     1      -0.029  -0.103   0.622  1.00  0.00     0.161 HD
BRANCH  14  16
HETATM   16  C8  UNL     1       1.846  -0.687  -0.140  1.00  0.00     0.085 C 
HETATM   17  C9  UNL     1       2.633  -0.158   0.807  1.00  0.00     0.018 C 
BRANCH  17  18
HETATM   18  C10 UNL     1       4.006  -0.612   0.990  1.00  0.00     0.023 C 
HETATM   19  C11 UNL     1       4.770  -0.081   1.927  1.00  0.00     0.040 C 
HETATM   20 CL1  UNL     1       4.128   1.174   2.954  1.00  0.00    -0.086 Cl
BRANCH  19  21
HETATM   21  C12 UNL     1       6.159  -0.521   2.133  1.00  0.00     0.273 C 
HETATM   22  F1  UNL     1       7.023   0.556   1.951  1.00  0.00    -0.250 F 
ENDBRANCH  19  21
ENDBRANCH  17  18
ENDBRANCH  14  16
ENDBRANCH   9  14
TORSDOF 5
