REMARK  2 active torsions:
REMARK  status: ('A' for Active; 'I' for Inactive)
REMARK    1  A    between atoms: C6_6  and  N1_7 
REMARK    2  A    between atoms: C15_19  and  O1_20 
ROOT
HETATM    1  C1  UNL     1       1.994  -0.675  -3.857  1.00  0.00     0.018 C 
HETATM    2  C2  UNL     1       1.842  -0.461  -2.680  1.00  0.00    -0.075 C 
HETATM    3  C3  UNL     1       1.683  -0.218  -1.274  1.00  0.00     0.051 A 
HETATM    4  C4  UNL     1       0.436  -0.185  -0.685  1.00  0.00     0.041 A 
HETATM    5  C5  UNL     1       0.369   0.055   0.670  1.00  0.00     0.040 A 
HETATM    6  C6  UNL     1      -0.921   0.062   1.153  1.00  0.00     0.143 A 
HETATM    7  N2  UNL     1      -1.081   0.285   2.483  1.00  0.00    -0.223 NA
HETATM    8  C12 UNL     1      -0.029   0.494   3.309  1.00  0.00     0.236 A 
HETATM    9  N3  UNL     1       1.235   0.482   2.804  1.00  0.00    -0.241 NA
HETATM   10  C13 UNL     1       1.439   0.268   1.509  1.00  0.00     0.075 A 
HETATM   11  C14 UNL     1       2.683   0.231   0.902  1.00  0.00     0.071 A 
HETATM   12  C15 UNL     1       2.811  -0.008  -0.471  1.00  0.00     0.089 A 
ENDROOT
BRANCH  12  13
HETATM   13  O1  UNL     1       4.041  -0.044  -1.074  1.00  0.00    -0.354 OA
HETATM   14  C16 UNL     1       5.264   0.150  -0.389  1.00  0.00     0.210 C 
ENDBRANCH  12  13
BRANCH   6  15
HETATM   15  N1  UNL     1      -2.172  -0.100   0.503  1.00  0.00    -0.338 N 
HETATM   16  C7  UNL     1      -2.746  -1.340   0.909  1.00  0.00     0.094 A 
HETATM   17  C8  UNL     1      -3.927  -1.799   0.472  1.00  0.00     0.041 A 
HETATM   18  C9  UNL     1      -4.708  -1.008  -0.483  1.00  0.00     0.033 A 
HETATM   19 CL1  UNL     1      -6.260  -1.491  -1.133  1.00  0.00    -0.085 Cl
HETATM   20  C10 UNL     1      -4.142   0.149  -0.842  1.00  0.00     0.017 A 
HETATM   21  C11 UNL     1      -2.866   0.743  -0.426  1.00  0.00     0.159 A 
ENDBRANCH   6  15
TORSDOF 2
