REMARK  3 active torsions:
REMARK  status: ('A' for Active; 'I' for Inactive)
REMARK    1  A    between atoms: O1_3  and  C3_4 
REMARK    2  A    between atoms: C7_10  and  N3_11 
REMARK    3  A    between atoms: N3_11  and  C8_12 
ROOT
HETATM    1  C1  UNL     1       6.755  -1.695  -0.256  1.00  0.00     0.045 C 
HETATM    2  C2  UNL     1       5.560  -1.879  -0.259  1.00  0.00     0.048 C 
HETATM    3  O1  UNL     1       4.189  -2.067  -0.261  1.00  0.00    -0.266 OA
ENDROOT
BRANCH   3   4
HETATM    4  C3  UNL     1       3.322  -0.980  -0.185  1.00  0.00     0.071 A 
HETATM    5  C4  UNL     1       3.603   0.308  -0.089  1.00  0.00     0.066 A 
HETATM    6  C5  UNL     1       2.363   1.054  -0.039  1.00  0.00     0.071 A 
HETATM    7  N1  UNL     1       2.141   2.373   0.057  1.00  0.00    -0.241 NA
HETATM    8  C14 UNL     1       1.282   0.207  -0.107  1.00  0.00     0.023 A 
HETATM    9  C6  UNL     1       0.852   2.779   0.081  1.00  0.00     0.235 A 
HETATM   10  N2  UNL     1      -0.213   1.971   0.016  1.00  0.00    -0.224 NA
HETATM   11  C7  UNL     1      -0.025   0.649  -0.081  1.00  0.00     0.138 A 
HETATM   12  C15 UNL     1       1.872  -1.155  -0.205  1.00  0.00     0.111 A 
BRANCH  11  13
HETATM   13  N3  UNL     1      -1.069  -0.308  -0.156  1.00  0.00    -0.340 N 
HETATM   14  H4  UNL     1      -0.783  -1.326  -0.231  1.00  0.00     0.167 HD
BRANCH  13  15
HETATM   15  C8  UNL     1      -2.456  -0.089  -0.146  1.00  0.00     0.035 A 
HETATM   16  C9  UNL     1      -3.091   1.128  -0.055  1.00  0.00     0.032 A 
HETATM   17  C10 UNL     1      -4.452   1.337  -0.046  1.00  0.00     0.046 A 
HETATM   18  C11 UNL     1      -5.278   0.239  -0.135  1.00  0.00     0.138 A 
HETATM   19  F1  UNL     1      -6.621   0.331  -0.135  1.00  0.00    -0.204 F 
HETATM   20  C12 UNL     1      -4.707  -1.011  -0.229  1.00  0.00     0.074 A 
HETATM   21 CL1  UNL     1      -5.743  -2.416  -0.343  1.00  0.00    -0.081 Cl
HETATM   22  C13 UNL     1      -3.342  -1.149  -0.233  1.00  0.00     0.056 A 
ENDBRANCH  13  15
ENDBRANCH  11  13
ENDBRANCH   3   4
TORSDOF 3
