REMARK  3 active torsions:
REMARK  status: ('A' for Active; 'I' for Inactive)
REMARK    1  A    between atoms: N1_1  and  C1_2 
REMARK    2  A    between atoms: C9_11  and  N3_12 
REMARK    3  A    between atoms: N3_12  and  C10_13 
ROOT
HETATM    1  C1  UNL     1      -5.149  -0.587   0.049  1.00  0.00     0.026 A 
HETATM    2  C2  UNL     1      -5.304   0.716   0.460  1.00  0.00     0.032 A 
HETATM    3  C3  UNL     1      -4.205   1.522   0.777  1.00  0.00     0.040 A 
HETATM    4  C4  UNL     1      -2.967   0.920   0.652  1.00  0.00     0.086 A 
HETATM    5  C5  UNL     1      -2.748  -0.395   0.242  1.00  0.00    -0.004 A 
HETATM    6  C6  UNL     1      -3.890  -1.134  -0.058  1.00  0.00     0.040 A 
HETATM    7  C7  UNL     1      -1.621  -1.282   0.019  1.00  0.00     0.161 C 
HETATM    8  N2  UNL     1      -0.312  -0.685   0.103  1.00  0.00    -0.379 N 
HETATM    9  C8  UNL     1       0.072   0.683   0.101  1.00  0.00     0.129 A 
HETATM   10  C9  UNL     1       1.366   0.882  -0.373  1.00  0.00     0.160 A 
HETATM   11  N4  UNL     1       1.846   2.135  -0.414  1.00  0.00    -0.222 NA
HETATM   12  C16 UNL     1       1.155   3.206  -0.024  1.00  0.00     0.238 A 
HETATM   13  N5  UNL     1      -0.100   3.044   0.441  1.00  0.00    -0.215 NA
HETATM   14  C17 UNL     1      -0.642   1.792   0.504  1.00  0.00     0.202 A 
HETATM   15  O1  UNL     1      -1.915   1.786   0.992  1.00  0.00    -0.289 OA
HETATM   16  H8  UNL     1       0.484  -1.375   0.176  1.00  0.00     0.160 HD
ENDROOT
BRANCH  10  17
HETATM   17  N3  UNL     1       2.098  -0.263  -0.790  1.00  0.00    -0.339 N 
HETATM   18  H9  UNL     1       1.653  -1.016  -1.387  1.00  0.00     0.167 HD
BRANCH  17  19
HETATM   19  C10 UNL     1       3.456  -0.481  -0.459  1.00  0.00     0.035 A 
HETATM   20  C11 UNL     1       4.120  -1.675  -0.759  1.00  0.00     0.032 A 
HETATM   21  C12 UNL     1       5.435  -1.923  -0.434  1.00  0.00     0.046 A 
HETATM   22  C13 UNL     1       6.181  -0.969   0.226  1.00  0.00     0.138 A 
HETATM   23  F1  UNL     1       7.473  -1.160   0.577  1.00  0.00    -0.204 F 
HETATM   24  C14 UNL     1       5.590   0.230   0.552  1.00  0.00     0.074 A 
HETATM   25 CL1  UNL     1       6.504   1.480   1.398  1.00  0.00    -0.081 Cl
HETATM   26  C15 UNL     1       4.273   0.420   0.201  1.00  0.00     0.056 A 
ENDBRANCH  17  19
ENDBRANCH  10  17
BRANCH   1  27
HETATM   27  N1  UNL     1      -6.379  -1.196  -0.219  1.00  0.00    -0.399 N 
HETATM   28  H1  UNL     1      -7.132  -1.830   0.107  1.00  0.00     0.156 HD
HETATM   29  H2  UNL     1      -6.673  -0.864  -1.183  1.00  0.00     0.156 HD
ENDBRANCH   1  27
TORSDOF 3
