REMARK  5 active torsions:
REMARK  status: ('A' for Active; 'I' for Inactive)
REMARK    1  A    between atoms: C6_6  and  N1_7 
REMARK    2  A    between atoms: N1_7  and  C7_8 
REMARK    3  A    between atoms: C8_9  and  C9_10 
REMARK    4  A    between atoms: C10_11  and  C11_13 
REMARK    5  A    between atoms: C16_21  and  O1_22 
ROOT
HETATM    1  C1  UNL     1      -3.093   2.050  -3.898  1.00  0.00     0.018 C 
HETATM    2  C2  UNL     1      -2.973   1.447  -2.841  1.00  0.00    -0.075 C 
HETATM    3  C3  UNL     1      -2.849   0.753  -1.600  1.00  0.00     0.051 A 
HETATM    4  C4  UNL     1      -1.624   0.270  -1.201  1.00  0.00     0.041 A 
HETATM    5  C5  UNL     1      -1.539  -0.391  -0.004  1.00  0.00     0.040 A 
HETATM    6  C6  UNL     1      -0.312  -0.861   0.371  1.00  0.00     0.141 A 
HETATM    7  N2  UNL     1      -0.233  -1.509   1.545  1.00  0.00    -0.224 NA
HETATM    8  C13 UNL     1      -1.294  -1.705   2.343  1.00  0.00     0.236 A 
HETATM    9  N3  UNL     1      -2.504  -1.226   1.946  1.00  0.00    -0.241 NA
HETATM   10  C14 UNL     1      -2.660  -0.575   0.796  1.00  0.00     0.075 A 
HETATM   11  C15 UNL     1      -3.871  -0.077   0.363  1.00  0.00     0.071 A 
HETATM   12  C16 UNL     1      -3.993   0.594  -0.836  1.00  0.00     0.089 A 
ENDROOT
BRANCH  12  13
HETATM   13  O1  UNL     1      -5.200   1.104  -1.293  1.00  0.00    -0.354 OA
HETATM   14  C17 UNL     1      -6.338   0.918  -0.481  1.00  0.00     0.210 C 
ENDBRANCH  12  13
BRANCH   6  15
HETATM   15  N1  UNL     1       0.894  -0.737  -0.353  1.00  0.00    -0.350 N 
HETATM   16  H3  UNL     1       1.067  -0.281  -1.275  1.00  0.00     0.166 HD
BRANCH  15  17
HETATM   17  C7  UNL     1       2.146  -1.246   0.086  1.00  0.00     0.090 C 
HETATM   18  C8  UNL     1       3.302  -0.604   0.043  1.00  0.00     0.020 C 
BRANCH  18  19
HETATM   19  C9  UNL     1       4.498  -1.276   0.537  1.00  0.00     0.045 C 
HETATM   20  C10 UNL     1       5.663  -0.650   0.502  1.00  0.00     0.134 C 
HETATM   21  F1  UNL     1       6.821  -1.199   0.939  1.00  0.00    -0.205 F 
BRANCH  20  22
HETATM   22  C11 UNL     1       5.853   0.702  -0.010  1.00  0.00     0.047 A 
HETATM   23  C12 UNL     1       6.970   1.419  -0.091  1.00  0.00     0.156 A 
HETATM   24 CL1  UNL     1       5.578   2.279  -0.698  1.00  0.00    -0.178 Cl
ENDBRANCH  20  22
ENDBRANCH  18  19
ENDBRANCH  15  17
ENDBRANCH   6  15
TORSDOF 5
