REMARK  6 active torsions:
REMARK  status: ('A' for Active; 'I' for Inactive)
REMARK    1  A    between atoms: C6_6  and  N1_7 
REMARK    2  A    between atoms: N1_7  and  C7_8 
REMARK    3  A    between atoms: C7_8  and  C8_9 
REMARK    4  A    between atoms: C8_9  and  C9_10 
REMARK    5  A    between atoms: C9_10  and  C10_12 
REMARK    6  A    between atoms: C15_20  and  O1_21 
ROOT
HETATM    1  C1  UNL     1      -3.484  -2.967  -2.343  1.00  0.00     0.018 C 
HETATM    2  C2  UNL     1      -3.007  -2.066  -1.704  1.00  0.00    -0.075 C 
HETATM    3  C3  UNL     1      -2.423  -1.000  -0.933  1.00  0.00     0.051 A 
HETATM    4  C4  UNL     1      -1.125  -0.602  -1.228  1.00  0.00     0.041 A 
HETATM    5  C5  UNL     1      -0.622   0.421  -0.456  1.00  0.00     0.040 A 
HETATM    6  C6  UNL     1       0.664   0.838  -0.724  1.00  0.00     0.141 A 
HETATM    7  N2  UNL     1       1.202   1.834   0.000  1.00  0.00    -0.224 NA
HETATM    8  C12 UNL     1       0.578   2.467   0.982  1.00  0.00     0.236 A 
HETATM    9  N3  UNL     1      -0.672   2.044   1.225  1.00  0.00    -0.241 NA
HETATM   10  C13 UNL     1      -1.289   1.071   0.567  1.00  0.00     0.075 A 
HETATM   11  C14 UNL     1      -2.586   0.652   0.839  1.00  0.00     0.071 A 
HETATM   12  C15 UNL     1      -3.131  -0.381   0.080  1.00  0.00     0.089 A 
ENDROOT
BRANCH  12  13
HETATM   13  O1  UNL     1      -4.414  -0.834   0.310  1.00  0.00    -0.354 OA
HETATM   14  C16 UNL     1      -5.298  -0.352   1.278  1.00  0.00     0.210 C 
ENDBRANCH  12  13
BRANCH   6  15
HETATM   15  N1  UNL     1       1.519   0.306  -1.728  1.00  0.00    -0.343 N 
HETATM   16  H3  UNL     1       1.358  -0.456  -2.418  1.00  0.00     0.167 HD
BRANCH  15  17
HETATM   17  C7  UNL     1       2.830   0.732  -2.002  1.00  0.00     0.149 C 
BRANCH  17  18
HETATM   18  C8  UNL     1       3.676   0.796  -0.996  1.00  0.00    -0.068 C 
BRANCH  18  19
HETATM   19  C9  UNL     1       4.360   0.676   0.133  1.00  0.00     0.184 C 
HETATM   20  F1  UNL     1       4.343   1.784   0.852  1.00  0.00    -0.195 F 
BRANCH  19  21
HETATM   21  C10 UNL     1       4.985  -0.577   0.396  1.00  0.00     0.071 C 
HETATM   22  C11 UNL     1       5.671  -0.714   1.520  1.00  0.00     0.040 C 
HETATM   23 CL1  UNL     1       4.890  -1.941  -0.691  1.00  0.00    -0.081 Cl
ENDBRANCH  19  21
ENDBRANCH  18  19
ENDBRANCH  17  18
ENDBRANCH  15  17
ENDBRANCH   6  15
TORSDOF 6
