REMARK  8 active torsions:
REMARK  status: ('A' for Active; 'I' for Inactive)
REMARK    1  A    between atoms: O1_1  and  C1_2 
REMARK    2  A    between atoms: C1_2  and  C2_3 
REMARK    3  A    between atoms: C2_3  and  C3_4 
REMARK    4  A    between atoms: C3_4  and  N3_19 
REMARK    5  A    between atoms: C4_5  and  C5_6 
REMARK    6  A    between atoms: C6_8  and  N2_9 
REMARK    7  A    between atoms: N2_9  and  C7_10 
REMARK    8  A    between atoms: N3_19  and  P1_20 
ROOT
HETATM    1  C5  UNL     1       0.839   0.653   0.110  1.00  0.00     0.064 A 
HETATM    2  N1  UNL     1       0.406   0.106  -0.990  1.00  0.00    -0.231 NA
HETATM    3  C6  UNL     1      -0.751   0.936  -1.066  1.00  0.00     0.130 A 
HETATM    4  C13 UNL     1      -0.336   1.510   0.052  1.00  0.00     0.082 A 
ENDROOT
BRANCH   3   5
HETATM    5  N2  UNL     1      -1.926   1.213  -1.850  1.00  0.00    -0.341 N 
HETATM    6  H7  UNL     1      -1.909   1.851  -2.658  1.00  0.00     0.167 HD
BRANCH   5   7
HETATM    7  C7  UNL     1      -3.175   0.583  -1.502  1.00  0.00     0.035 A 
HETATM    8  C8  UNL     1      -4.351   0.786  -2.191  1.00  0.00     0.032 A 
HETATM    9  C9  UNL     1      -5.490   0.134  -1.776  1.00  0.00     0.046 A 
HETATM   10  C10 UNL     1      -5.503  -0.728  -0.680  1.00  0.00     0.138 A 
HETATM   11  F1  UNL     1      -6.606  -1.382  -0.249  1.00  0.00    -0.204 F 
HETATM   12  C11 UNL     1      -4.338  -0.946   0.026  1.00  0.00     0.074 A 
HETATM   13 CL1  UNL     1      -4.217  -2.006   1.424  1.00  0.00    -0.081 Cl
HETATM   14  C12 UNL     1      -3.218  -0.280  -0.416  1.00  0.00     0.056 A 
ENDBRANCH   5   7
ENDBRANCH   3   5
BRANCH   1  15
HETATM   15  C4  UNL     1       2.016   0.405   0.932  1.00  0.00     0.059 C 
HETATM   16  C3  UNL     1       2.874  -0.538   0.579  1.00  0.00     0.037 C 
BRANCH  16  17
HETATM   17  C2  UNL     1       4.118  -0.946   1.266  1.00  0.00     0.085 C 
BRANCH  17  18
HETATM   18  C1  UNL     1       4.293  -0.076   2.489  1.00  0.00     0.170 C 
BRANCH  18  19
HETATM   19  O1  UNL     1       4.382   1.247   2.094  1.00  0.00    -0.400 OA
HETATM   20  H1  UNL     1       5.248   1.677   2.282  1.00  0.00     0.209 HD
ENDBRANCH  18  19
ENDBRANCH  17  18
ENDBRANCH  16  17
BRANCH  16  21
HETATM   21  N3  UNL     1       2.649  -1.293  -0.581  1.00  0.00    -0.262 NA
BRANCH  21  22
HETATM   22  P1  UNL     1       3.765  -2.044  -1.469  1.00  0.00     0.046 P 
HETATM   23  H12 UNL     1       5.179  -2.061  -1.213  1.00  0.00     0.088 HD
ENDBRANCH  21  22
ENDBRANCH  16  21
ENDBRANCH   1  15
TORSDOF 8
