REMARK  3 active torsions:
REMARK  status: ('A' for Active; 'I' for Inactive)
REMARK    1  A    between atoms: C6_6  and  N1_7 
REMARK    2  A    between atoms: N1_7  and  C7_8 
REMARK    3  A    between atoms: C16_21  and  B1_22 
ROOT
HETATM    1  C1  UNL     1      -3.856   1.332  -2.672  1.00  0.00     0.018 C 
HETATM    2  C2  UNL     1      -3.263   0.921  -1.706  1.00  0.00    -0.078 C 
HETATM    3  C3  UNL     1      -2.556   0.451  -0.541  1.00  0.00     0.013 A 
HETATM    4  C4  UNL     1      -1.179   0.380  -0.534  1.00  0.00     0.038 A 
HETATM    5  C5  UNL     1      -0.424  -0.055   0.530  1.00  0.00     0.040 A 
HETATM    6  C6  UNL     1       0.948  -0.132   0.552  1.00  0.00     0.142 A 
HETATM    7  N2  UNL     1       1.472  -0.583   1.695  1.00  0.00    -0.224 NA
HETATM    8  C13 UNL     1       0.769  -0.943   2.757  1.00  0.00     0.236 A 
HETATM    9  N3  UNL     1      -0.558  -0.864   2.723  1.00  0.00    -0.241 NA
HETATM   10  C14 UNL     1      -1.166  -0.426   1.627  1.00  0.00     0.071 A 
HETATM   11  C15 UNL     1      -2.539  -0.367   1.654  1.00  0.00     0.028 A 
HETATM   12  C16 UNL     1      -3.253   0.068   0.584  1.00  0.00    -0.083 A 
ENDROOT
BRANCH  12  13
HETATM   13  B1  UNL     1      -4.808   0.129   0.628  1.00  0.00     0.192 B 
HETATM   14  C17 UNL     1      -5.627  -1.087   0.039  1.00  0.00    -0.053 C 
HETATM   15  H9  UNL     1      -5.335   0.854   1.405  1.00  0.00    -0.021 HD
ENDBRANCH  12  13
BRANCH   6  16
HETATM   16  N1  UNL     1       1.676   0.256  -0.596  1.00  0.00    -0.340 N 
HETATM   17  H3  UNL     1       1.198   0.587  -1.454  1.00  0.00     0.167 HD
BRANCH  16  18
HETATM   18  C7  UNL     1       3.070   0.284  -0.829  1.00  0.00     0.035 A 
HETATM   19  C8  UNL     1       3.688   0.632  -2.023  1.00  0.00     0.032 A 
HETATM   20  C9  UNL     1       5.050   0.644  -2.192  1.00  0.00     0.046 A 
HETATM   21  C10 UNL     1       5.896   0.303  -1.161  1.00  0.00     0.138 A 
HETATM   22  F1  UNL     1       7.217   0.354  -1.455  1.00  0.00    -0.204 F 
HETATM   23  C11 UNL     1       5.325  -0.051   0.048  1.00  0.00     0.074 A 
HETATM   24 CL1  UNL     1       6.450  -0.471   1.308  1.00  0.00    -0.081 Cl
HETATM   25  C12 UNL     1       3.960  -0.048   0.169  1.00  0.00     0.056 A 
ENDBRANCH  16  18
ENDBRANCH   6  16
TORSDOF 3
