REMARK  7 active torsions:
REMARK  status: ('A' for Active; 'I' for Inactive)
REMARK    1  A    between atoms: C3_3  and  C4_4 
REMARK    2  A    between atoms: C4_4  and  C5_5 
REMARK    3  A    between atoms: C5_5  and  C6_6 
REMARK    4  A    between atoms: C6_6  and  C7_7 
REMARK    5  A    between atoms: C7_7  and  O1_8 
REMARK    6  A    between atoms: O1_8  and  C8_9 
REMARK    7  A    between atoms: N1_21  and  O2_22 
ROOT
HETATM    1  C1  UNL     1      -9.518   0.327   0.406  1.00  0.00     0.012 C 
HETATM    2  C2  UNL     1      -8.365   0.001   0.518  1.00  0.00    -0.117 C 
HETATM    3  C3  UNL     1      -6.959  -0.414   0.655  1.00  0.00     0.093 C 
ENDROOT
BRANCH   3   4
HETATM    4  C4  UNL     1      -6.022   0.693   0.277  1.00  0.00     0.012 C 
BRANCH   4   5
HETATM    5  C5  UNL     1      -4.612   0.240   0.431  1.00  0.00     0.003 C 
BRANCH   5   6
HETATM    6  C6  UNL     1      -4.277  -0.946  -0.444  1.00  0.00     0.027 C 
BRANCH   6   7
HETATM    7  C7  UNL     1      -2.793  -1.262  -0.166  1.00  0.00     0.175 C 
BRANCH   7   8
HETATM    8  O1  UNL     1      -2.115  -0.080  -0.524  1.00  0.00    -0.351 OA
BRANCH   8   9
HETATM    9  C8  UNL     1      -0.769   0.038  -0.419  1.00  0.00     0.069 A 
HETATM   10  C9  UNL     1      -0.152   1.196  -0.772  1.00  0.00     0.039 A 
HETATM   11  C10 UNL     1       1.202   1.417  -0.703  1.00  0.00     0.035 A 
HETATM   12  C11 UNL     1       1.906   0.345  -0.233  1.00  0.00     0.063 A 
HETATM   13  C12 UNL     1       1.355  -0.894   0.155  1.00  0.00    -0.003 A 
HETATM   14  N2  UNL     1       3.133   0.477  -0.055  1.00  0.00    -0.267 NA
HETATM   15  C13 UNL     1      -0.009  -0.998   0.041  1.00  0.00     0.050 A 
HETATM   16  C14 UNL     1       2.113  -1.890   0.561  1.00  0.00     0.052 C 
HETATM   17  C15 UNL     1       3.406  -2.476   0.857  1.00  0.00     0.103 C 
HETATM   18  F1  UNL     1       3.340  -3.749   1.453  1.00  0.00    -0.210 F 
HETATM   19  C16 UNL     1       4.400  -1.678   0.505  1.00  0.00     0.086 C 
HETATM   20  C17 UNL     1       5.833  -1.283   0.356  1.00  0.00     0.005 C 
HETATM   21  C18 UNL     1       6.057  -0.092  -0.228  1.00  0.00     0.116 C 
HETATM   22  N1  UNL     1       5.327   0.997  -0.799  1.00  0.00    -0.251 N 
HETATM   23  C20 UNL     1       4.089   1.490  -0.204  1.00  0.00     0.304 C 
BRANCH  22  24
HETATM   24  O2  UNL     1       5.786   1.593  -1.948  1.00  0.00    -0.282 OA
HETATM   25  C19 UNL     1       6.803   2.503  -1.638  1.00  0.00     0.238 C 
ENDBRANCH  22  24
ENDBRANCH   8   9
ENDBRANCH   7   8
ENDBRANCH   6   7
ENDBRANCH   5   6
ENDBRANCH   4   5
ENDBRANCH   3   4
TORSDOF 7
