REMARK  1 active torsions:
REMARK  status: ('A' for Active; 'I' for Inactive)
REMARK    1  A    between atoms: C6_7  and  O1_8 
ROOT
HETATM    1  F1  UNL     1       5.547  -2.620  -0.005  1.00  0.00    -0.203 F 
HETATM    2  C1  UNL     1       4.673  -1.574  -0.051  1.00  0.00     0.152 A 
HETATM    3  C2  UNL     1       5.088  -0.259  -0.121  1.00  0.00     0.047 A 
HETATM    4  C3  UNL     1       4.170   0.798  -0.170  1.00  0.00     0.035 A 
HETATM    5  C4  UNL     1       2.807   0.446  -0.143  1.00  0.00     0.071 A 
HETATM    6  C5  UNL     1       2.442  -0.879  -0.067  1.00  0.00     0.041 A 
HETATM    7  C6  UNL     1       3.332  -1.915  -0.022  1.00  0.00     0.141 A 
HETATM    8  C7  UNL     1       0.980  -0.946   0.123  1.00  0.00     0.185 C 
HETATM    9  C8  UNL     1       0.263   0.131  -0.577  1.00  0.00     0.043 C 
HETATM   10  C9  UNL     1       0.616   1.378  -0.610  1.00  0.00     0.086 A 
HETATM   11  C10 UNL     1      -0.363   2.429  -0.860  1.00  0.00     0.086 A 
HETATM   12  N1  UNL     1       0.107   3.629  -0.873  1.00  0.00    -0.238 NA
HETATM   13  C11 UNL     1       1.519   3.854  -0.646  1.00  0.00     0.256 A 
HETATM   14  N2  UNL     1       2.414   2.921  -0.419  1.00  0.00    -0.160 NA
HETATM   15  N3  UNL     1       1.998   1.591  -0.387  1.00  0.00    -0.230 N 
HETATM   16  C12 UNL     1      -1.756   2.083  -1.078  1.00  0.00     0.034 C 
HETATM   17  C13 UNL     1      -3.022   1.988  -0.726  1.00  0.00     0.003 C 
HETATM   18  C14 UNL     1      -4.037   2.206   0.295  1.00  0.00     0.012 C 
HETATM   19  C15 UNL     1      -4.970   1.275   0.476  1.00  0.00    -0.030 C 
HETATM   20  C16 UNL     1      -4.578   0.113  -0.056  1.00  0.00    -0.015 C 
HETATM   21  C17 UNL     1      -3.386  -0.227   0.676  1.00  0.00     0.028 C 
HETATM   22  C18 UNL     1      -2.605  -1.435   0.260  1.00  0.00     0.006 C 
HETATM   23  C19 UNL     1      -1.490  -1.569   1.272  1.00  0.00     0.027 C 
HETATM   24  C20 UNL     1      -0.427  -2.554   0.949  1.00  0.00     0.169 C 
HETATM   25  O2  UNL     1       0.364  -2.145  -0.149  1.00  0.00    -0.377 OA
ENDROOT
BRANCH   7  26
HETATM   26  O1  UNL     1       2.792  -3.185   0.048  1.00  0.00    -0.237 OA
HETATM   27 CL1  UNL     1       3.873  -4.524   0.107  1.00  0.00     0.068 Cl
ENDBRANCH   7  26
TORSDOF 1
