REMARK  9 active torsions:
REMARK  status: ('A' for Active; 'I' for Inactive)
REMARK    1  A    between atoms: C2_2  and  C3_3 
REMARK    2  A    between atoms: C3_3  and  C4_4 
REMARK    3  A    between atoms: C4_4  and  C5_5 
REMARK    4  A    between atoms: C5_5  and  C6_6 
REMARK    5  A    between atoms: C6_6  and  C7_7 
REMARK    6  A    between atoms: C7_7  and  O1_8 
REMARK    7  A    between atoms: O1_8  and  C8_9 
REMARK    8  A    between atoms: C11_12  and  N1_13 
REMARK    9  A    between atoms: C20_26  and  O2_27 
ROOT
HETATM    1  C8  UNL     1      -0.005  -1.715  -0.555  1.00  0.00     0.102 A 
HETATM    2  C9  UNL     1       1.221  -1.097  -0.422  1.00  0.00     0.057 A 
HETATM    3  C10 UNL     1       2.301  -1.588  -1.122  1.00  0.00     0.042 A 
HETATM    4  C11 UNL     1       3.455  -0.882  -0.906  1.00  0.00     0.144 A 
HETATM    5  N2  UNL     1       4.582  -1.288  -1.561  1.00  0.00    -0.223 NA
HETATM    6  C17 UNL     1       4.520  -2.366  -2.394  1.00  0.00     0.236 A 
HETATM    7  N3  UNL     1       3.364  -3.057  -2.598  1.00  0.00    -0.241 NA
HETATM    8  C18 UNL     1       2.241  -2.676  -1.964  1.00  0.00     0.075 A 
HETATM    9  C19 UNL     1       1.008  -3.289  -2.090  1.00  0.00     0.072 A 
HETATM   10  C20 UNL     1      -0.101  -2.809  -1.390  1.00  0.00     0.101 A 
ENDROOT
BRANCH   1  11
HETATM   11  O1  UNL     1      -1.137  -1.296   0.104  1.00  0.00    -0.348 OA
BRANCH  11  12
HETATM   12  C7  UNL     1      -1.163  -0.190   0.984  1.00  0.00     0.176 C 
BRANCH  12  13
HETATM   13  C6  UNL     1      -2.549   0.028   1.558  1.00  0.00     0.027 C 
BRANCH  13  14
HETATM   14  C5  UNL     1      -3.475   0.282   0.379  1.00  0.00     0.003 C 
BRANCH  14  15
HETATM   15  C4  UNL     1      -4.908   0.517   0.823  1.00  0.00     0.017 C 
BRANCH  15  16
HETATM   16  C3  UNL     1      -5.727   0.751  -0.358  1.00  0.00     0.066 C 
BRANCH  16  17
HETATM   17  C2  UNL     1      -6.364   1.899  -0.542  1.00  0.00    -0.176 C 
HETATM   18  C1  UNL     1      -6.889   3.112  -0.465  1.00  0.00     0.091 C 
ENDBRANCH  16  17
ENDBRANCH  15  16
ENDBRANCH  14  15
ENDBRANCH  13  14
ENDBRANCH  12  13
ENDBRANCH  11  12
ENDBRANCH   1  11
BRANCH  10  19
HETATM   19  O2  UNL     1      -1.297  -3.496  -1.586  1.00  0.00    -0.358 OA
HETATM   20  H19 UNL     1      -2.108  -3.090  -2.001  1.00  0.00     0.217 HD
ENDBRANCH  10  19
BRANCH   4  21
HETATM   21  N1  UNL     1       3.734   0.230  -0.072  1.00  0.00    -0.336 N 
HETATM   22  C12 UNL     1       4.000   1.377  -0.909  1.00  0.00     0.120 A 
HETATM   23  C13 UNL     1       4.286   2.604  -0.469  1.00  0.00     0.087 A 
HETATM   24 CL1  UNL     1       4.612   4.010  -1.459  1.00  0.00    -0.080 Cl
HETATM   25  C14 UNL     1       4.349   2.845   0.979  1.00  0.00     0.137 A 
HETATM   26  F1  UNL     1       4.621   4.015   1.590  1.00  0.00    -0.205 F 
HETATM   27  C15 UNL     1       4.105   1.773   1.712  1.00  0.00     0.037 A 
HETATM   28  C16 UNL     1       3.781   0.369   1.358  1.00  0.00     0.160 A 
ENDBRANCH   4  21
TORSDOF 9
