REMARK  7 active torsions:
REMARK  status: ('A' for Active; 'I' for Inactive)
REMARK    1  A    between atoms: C3_3  and  C4_4 
REMARK    2  A    between atoms: C4_4  and  C5_5 
REMARK    3  A    between atoms: C5_5  and  C6_6 
REMARK    4  A    between atoms: C6_6  and  C7_7 
REMARK    5  A    between atoms: C7_7  and  O1_8 
REMARK    6  A    between atoms: O1_8  and  C8_9 
REMARK    7  A    between atoms: C9_10  and  O2_11 
ROOT
HETATM    1  C1  UNL     1       5.509  -5.285   0.876  1.00  0.00     0.012 C 
HETATM    2  C2  UNL     1       5.010  -4.365   0.266  1.00  0.00    -0.117 C 
HETATM    3  C3  UNL     1       4.421  -3.238  -0.464  1.00  0.00     0.093 C 
ENDROOT
BRANCH   3   4
HETATM    4  C4  UNL     1       2.923  -3.115  -0.156  1.00  0.00     0.012 C 
BRANCH   4   5
HETATM    5  C5  UNL     1       2.408  -1.944  -0.943  1.00  0.00     0.003 C 
BRANCH   5   6
HETATM    6  C6  UNL     1       0.921  -1.717  -0.728  1.00  0.00     0.027 C 
BRANCH   6   7
HETATM    7  C7  UNL     1       0.594  -1.445   0.702  1.00  0.00     0.176 C 
BRANCH   7   8
HETATM    8  O1  UNL     1      -0.785  -1.229   0.879  1.00  0.00    -0.347 OA
BRANCH   8   9
HETATM    9  C8  UNL     1      -1.413  -0.185   0.228  1.00  0.00     0.113 A 
HETATM   10  C9  UNL     1      -2.018  -0.253  -1.008  1.00  0.00     0.104 A 
HETATM   11  C11 UNL     1      -2.634   0.808  -1.632  1.00  0.00     0.072 A 
HETATM   12  C12 UNL     1      -2.639   2.033  -0.954  1.00  0.00     0.074 A 
HETATM   13  N1  UNL     1      -3.274   3.012  -1.665  1.00  0.00    -0.241 NA
HETATM   14  C15 UNL     1      -2.060   2.229   0.304  1.00  0.00     0.031 A 
HETATM   15  C13 UNL     1      -3.357   4.227  -1.150  1.00  0.00     0.234 A 
HETATM   16  N2  UNL     1      -2.813   4.418   0.035  1.00  0.00    -0.245 NA
HETATM   17  C14 UNL     1      -2.174   3.515   0.796  1.00  0.00     0.052 A 
HETATM   18  C21 UNL     1      -1.817   4.339   1.963  1.00  0.00     0.087 C 
HETATM   19  C20 UNL     1      -0.518   4.026   2.577  1.00  0.00    -0.018 C 
HETATM   20  C19 UNL     1       0.237   3.028   3.001  1.00  0.00     0.038 C 
HETATM   21  C18 UNL     1      -0.075   1.595   2.977  1.00  0.00     0.117 C 
HETATM   22  C17 UNL     1      -0.755   0.805   2.120  1.00  0.00     0.057 C 
HETATM   23  F1  UNL     1       0.440   0.940   4.071  1.00  0.00    -0.206 F 
HETATM   24  C16 UNL     1      -1.462   1.076   0.840  1.00  0.00     0.018 A 
BRANCH  10  25
HETATM   25  O2  UNL     1      -2.012  -1.468  -1.673  1.00  0.00    -0.353 OA
HETATM   26  C10 UNL     1      -2.590  -1.694  -2.943  1.00  0.00     0.210 C 
ENDBRANCH  10  25
ENDBRANCH   8   9
ENDBRANCH   7   8
ENDBRANCH   6   7
ENDBRANCH   5   6
ENDBRANCH   4   5
ENDBRANCH   3   4
TORSDOF 7
