REMARK  1 active torsions:
REMARK  status: ('A' for Active; 'I' for Inactive)
REMARK    1  A    between atoms: C11_14  and  N3_15 
ROOT
HETATM    1  C1  UNL     1       3.984  -2.420  -0.177  1.00  0.00     0.016 C 
HETATM    2  C2  UNL     1       3.040  -1.303  -0.580  1.00  0.00    -0.029 C 
HETATM    3  C3  UNL     1       2.989   0.024  -0.667  1.00  0.00     0.025 C 
HETATM    4  C4  UNL     1       3.256   1.463  -0.646  1.00  0.00    -0.020 C 
HETATM    5  C5  UNL     1       2.238   2.216  -1.027  1.00  0.00     0.029 C 
HETATM    6  C6  UNL     1       0.857   2.321  -1.498  1.00  0.00     0.316 C 
HETATM    7  F1  UNL     1       0.511   1.168  -2.198  1.00  0.00    -0.221 F 
HETATM    8  N1  UNL     1       0.026   2.492  -0.329  1.00  0.00    -0.242 NA
HETATM    9  C7  UNL     1      -1.035   3.192  -0.282  1.00  0.00     0.229 C 
HETATM   10  N2  UNL     1      -1.682   3.199   0.998  1.00  0.00    -0.259 NA
HETATM   11  C8  UNL     1      -2.881   2.666   1.065  1.00  0.00     0.091 C 
HETATM   12  C9  UNL     1      -3.672   2.051  -0.009  1.00  0.00     0.049 C 
HETATM   13  C10 UNL     1      -3.946   0.599   0.344  1.00  0.00     0.050 C 
HETATM   14  C11 UNL     1      -2.686  -0.131   0.628  1.00  0.00     0.198 C 
HETATM   15  C12 UNL     1      -1.761  -0.883   1.192  1.00  0.00     0.059 C 
HETATM   16  C13 UNL     1      -1.444  -1.726   2.318  1.00  0.00    -0.023 C 
HETATM   17  C14 UNL     1      -0.170  -2.106   2.123  1.00  0.00    -0.030 C 
HETATM   18  C15 UNL     1       0.606  -1.674   0.996  1.00  0.00     0.027 C 
HETATM   19  C16 UNL     1       1.084  -2.740   0.050  1.00  0.00     0.005 C 
HETATM   20  C17 UNL     1       1.827  -2.020  -1.098  1.00  0.00     0.011 C 
ENDROOT
BRANCH  14  21
HETATM   21  N3  UNL     1      -2.043   0.158  -0.637  1.00  0.00     0.091 NA
HETATM   22  H14 UNL     1      -2.164   0.115  -1.664  1.00  0.00     0.314 HD
HETATM   23  H15 UNL     1      -2.197   0.101  -1.671  1.00  0.00     0.314 HD
ENDBRANCH  14  21
TORSDOF 1
