REMARK  9 active torsions:
REMARK  status: ('A' for Active; 'I' for Inactive)
REMARK    1  A    between atoms: O1_1  and  C1_2 
REMARK    2  A    between atoms: C1_2  and  C2_3 
REMARK    3  A    between atoms: C2_3  and  C3_4 
REMARK    4  A    between atoms: C3_4  and  C4_5 
REMARK    5  A    between atoms: C4_5  and  C5_6 
REMARK    6  A    between atoms: C5_6  and  O2_7 
REMARK    7  A    between atoms: O2_7  and  C6_8 
REMARK    8  A    between atoms: N1_12  and  C10_13 
REMARK    9  A    between atoms: C20_26  and  O3_27 
ROOT
HETATM    1  C6  UNL     1       0.961   0.488   0.970  1.00  0.00     0.109 C 
HETATM    2  C7  UNL     1       0.298   1.401   1.687  1.00  0.00     0.010 C 
HETATM    3  C8  UNL     1      -0.931   1.410   1.041  1.00  0.00     0.008 C 
HETATM    4  C9  UNL     1      -1.506   0.336   0.239  1.00  0.00     0.153 C 
HETATM    5  N1  UNL     1      -2.790  -0.211   0.623  1.00  0.00    -0.359 N 
HETATM    6  C16 UNL     1      -3.277  -1.003   1.778  1.00  0.00     0.275 C 
HETATM    7  N2  UNL     1      -2.427  -2.126   1.978  1.00  0.00    -0.264 NA
HETATM    8  C17 UNL     1      -1.751  -2.441   3.082  1.00  0.00     0.222 C 
HETATM    9  N3  UNL     1      -2.142  -1.340   3.947  1.00  0.00    -0.282 NA
HETATM   10  C18 UNL     1      -1.393  -0.280   3.647  1.00  0.00     0.100 C 
HETATM   11  C19 UNL     1      -0.615  -1.003   2.604  1.00  0.00     0.137 C 
HETATM   12  C20 UNL     1       0.230  -0.608   1.677  1.00  0.00     0.084 C 
ENDROOT
BRANCH   1  13
HETATM   13  O2  UNL     1       1.861   0.135   0.016  1.00  0.00    -0.348 OA
BRANCH  13  14
HETATM   14  C5  UNL     1       2.558   1.173  -0.630  1.00  0.00     0.176 C 
BRANCH  14  15
HETATM   15  C4  UNL     1       3.666   0.557  -1.502  1.00  0.00     0.027 C 
BRANCH  15  16
HETATM   16  C3  UNL     1       4.626  -0.231  -0.679  1.00  0.00     0.004 C 
BRANCH  16  17
HETATM   17  C2  UNL     1       5.746  -0.891  -1.415  1.00  0.00     0.026 C 
BRANCH  17  18
HETATM   18  C1  UNL     1       6.642   0.041  -2.152  1.00  0.00     0.164 C 
BRANCH  18  19
HETATM   19  O1  UNL     1       5.983   0.763  -3.124  1.00  0.00    -0.401 OA
HETATM   20  H1  UNL     1       6.564   0.873  -3.932  1.00  0.00     0.209 HD
ENDBRANCH  18  19
ENDBRANCH  17  18
ENDBRANCH  16  17
ENDBRANCH  15  16
ENDBRANCH  14  15
ENDBRANCH  13  14
ENDBRANCH   1  13
BRANCH  12  21
HETATM   21  O3  UNL     1       0.499  -1.906   1.218  1.00  0.00    -0.362 OA
HETATM   22  H24 UNL     1       1.364  -2.339   1.456  1.00  0.00     0.217 HD
ENDBRANCH  12  21
BRANCH   5  23
HETATM   23  C10 UNL     1      -3.905   0.072  -0.282  1.00  0.00     0.034 A 
HETATM   24  C11 UNL     1      -3.963   1.394  -0.737  1.00  0.00     0.029 A 
HETATM   25  C12 UNL     1      -4.964   1.785  -1.617  1.00  0.00     0.005 A 
HETATM   26  C13 UNL     1      -5.918   0.886  -2.060  1.00  0.00     0.042 A 
HETATM   27  C14 UNL     1      -5.841  -0.408  -1.599  1.00  0.00     0.118 A 
HETATM   28  F1  UNL     1      -6.721  -1.384  -1.962  1.00  0.00    -0.206 F 
HETATM   29  C15 UNL     1      -4.848  -0.789  -0.728  1.00  0.00     0.071 A 
ENDBRANCH   5  23
TORSDOF 9
