REMARK  6 active torsions:
REMARK  status: ('A' for Active; 'I' for Inactive)
REMARK    1  A    between atoms: C2_2  and  C3_3 
REMARK    2  A    between atoms: C3_3  and  C4_4 
REMARK    3  A    between atoms: C4_4  and  C5_5 
REMARK    4  A    between atoms: C5_5  and  C6_6 
REMARK    5  A    between atoms: C11_13  and  N3_14 
REMARK    6  A    between atoms: N3_14  and  C12_15 
ROOT
HETATM    1  C6  UNL     1       1.440  -0.766  -1.198  1.00  0.00    -0.073 A 
HETATM    2  C7  UNL     1       0.263  -0.217  -1.018  1.00  0.00     0.020 A 
HETATM    3  C8  UNL     1      -0.636  -1.095  -0.258  1.00  0.00     0.035 A 
HETATM    4  C9  UNL     1       0.106  -2.222   0.002  1.00  0.00     0.053 A 
HETATM    5  N1  UNL     1      -0.465  -3.202   0.686  1.00  0.00    -0.245 NA
HETATM    6  C10 UNL     1      -1.737  -3.073   1.103  1.00  0.00     0.235 A 
HETATM    7  N2  UNL     1      -2.445  -1.969   0.842  1.00  0.00    -0.224 NA
HETATM    8  C11 UNL     1      -1.942  -0.935   0.157  1.00  0.00     0.141 A 
HETATM    9  C18 UNL     1       1.464  -2.107  -0.565  1.00  0.00     0.094 A 
ENDROOT
BRANCH   8  10
HETATM   10  N3  UNL     1      -2.617   0.260  -0.161  1.00  0.00    -0.340 N 
HETATM   11  H14 UNL     1      -2.086   0.994  -0.713  1.00  0.00     0.167 HD
BRANCH  10  12
HETATM   12  C12 UNL     1      -3.945   0.638   0.158  1.00  0.00     0.035 A 
HETATM   13  C13 UNL     1      -4.469   1.868  -0.235  1.00  0.00     0.032 A 
HETATM   14  C14 UNL     1      -5.749   2.266   0.057  1.00  0.00     0.046 A 
HETATM   15  C15 UNL     1      -6.594   1.444   0.770  1.00  0.00     0.138 A 
HETATM   16  F1  UNL     1      -7.850   1.866   1.041  1.00  0.00    -0.204 F 
HETATM   17  C16 UNL     1      -6.123   0.215   1.181  1.00  0.00     0.074 A 
HETATM   18 CL1  UNL     1      -7.205  -0.820   2.084  1.00  0.00    -0.081 Cl
HETATM   19  C17 UNL     1      -4.830  -0.123   0.856  1.00  0.00     0.056 A 
ENDBRANCH  10  12
ENDBRANCH   8  10
BRANCH   1  20
HETATM   20  C5  UNL     1       2.629  -0.225  -1.905  1.00  0.00     0.034 C 
BRANCH  20  21
HETATM   21  C4  UNL     1       3.802  -0.122  -0.968  1.00  0.00     0.004 C 
BRANCH  21  22
HETATM   22  C3  UNL     1       3.472   0.796   0.185  1.00  0.00    -0.000 C 
BRANCH  22  23
HETATM   23  C2  UNL     1       4.670   0.885   1.118  1.00  0.00    -0.005 C 
HETATM   24  C1  UNL     1       5.890   1.428   0.409  1.00  0.00     0.005 C 
ENDBRANCH  22  23
ENDBRANCH  21  22
ENDBRANCH  20  21
ENDBRANCH   1  20
TORSDOF 6
