REMARK  6 active torsions:
REMARK  status: ('A' for Active; 'I' for Inactive)
REMARK    1  A    between atoms: C2_2  and  C3_3 
REMARK    2  A    between atoms: C3_3  and  C4_4 
REMARK    3  A    between atoms: C4_4  and  C5_5 
REMARK    4  A    between atoms: C5_5  and  C6_6 
REMARK    5  A    between atoms: C6_6  and  C7_7 
REMARK    6  A    between atoms: C11_13  and  O1_14 
ROOT
HETATM    1  C7  UNL     1       0.468  -0.712   0.064  1.00  0.00     0.207 C 
HETATM    2  N1  UNL     1      -0.571  -1.650   0.068  1.00  0.00    -0.257 NA
HETATM    3  C8  UNL     1      -1.798  -1.703  -0.103  1.00  0.00     0.228 C 
HETATM    4  N2  UNL     1      -2.987  -1.084  -0.380  1.00  0.00    -0.254 NA
HETATM    5  C9  UNL     1      -4.051  -1.389  -0.839  1.00  0.00     0.120 C 
HETATM    6  C10 UNL     1      -4.623  -0.004  -0.704  1.00  0.00     0.056 C 
HETATM    7  C11 UNL     1      -4.563   1.322  -0.358  1.00  0.00     0.079 C 
HETATM    8  C12 UNL     1      -3.163   1.284   0.129  1.00  0.00     0.019 A 
HETATM    9  C13 UNL     1      -2.384   1.510  -0.973  1.00  0.00     0.018 A 
HETATM   10  C14 UNL     1      -1.028   1.358  -0.850  1.00  0.00     0.030 A 
HETATM   11  C15 UNL     1      -0.941   0.999   0.457  1.00  0.00     0.031 A 
HETATM   12  C16 UNL     1      -1.616   0.756   1.612  1.00  0.00     0.054 A 
HETATM   13  C17 UNL     1      -2.998   0.926   1.440  1.00  0.00     0.049 A 
HETATM   14 CL1  UNL     1      -4.354   0.764   2.528  1.00  0.00    -0.083 Cl
HETATM   15  N3  UNL     1       0.326   0.489   0.882  1.00  0.00    -0.367 N 
HETATM   16  H18 UNL     1       0.988   0.893   1.610  1.00  0.00     0.161 HD
ENDROOT
BRANCH   1  17
HETATM   17  C6  UNL     1       1.749  -1.452   0.478  1.00  0.00     0.049 C 
BRANCH  17  18
HETATM   18  C5  UNL     1       2.950  -0.564   0.508  1.00  0.00     0.005 C 
BRANCH  18  19
HETATM   19  C4  UNL     1       4.129  -1.424   0.924  1.00  0.00     0.017 C 
BRANCH  19  20
HETATM   20  C3  UNL     1       5.383  -0.652   0.990  1.00  0.00     0.066 C 
BRANCH  20  21
HETATM   21  C2  UNL     1       5.585   0.348   0.147  1.00  0.00    -0.176 C 
HETATM   22  C1  UNL     1       5.538   1.280  -0.794  1.00  0.00     0.091 C 
ENDBRANCH  20  21
ENDBRANCH  19  20
ENDBRANCH  18  19
ENDBRANCH  17  18
ENDBRANCH   1  17
BRANCH   7  23
HETATM   23  O1  UNL     1      -5.048   2.631  -0.210  1.00  0.00    -0.360 OA
HETATM   24  H14 UNL     1      -6.010   2.780  -0.515  1.00  0.00     0.217 HD
ENDBRANCH   7  23
TORSDOF 6
