REMARK  4 active torsions:
REMARK  status: ('A' for Active; 'I' for Inactive)
REMARK    1  A    between atoms: C3_3  and  C4_4 
REMARK    2  A    between atoms: C4_4  and  C5_5 
REMARK    3  A    between atoms: C5_5  and  C6_6 
REMARK    4  A    between atoms: C15_18  and  O2_19 
ROOT
HETATM    1  C1  UNL     1      -6.259   0.073  -0.375  1.00  0.00     0.091 C 
HETATM    2  C2  UNL     1      -5.338   0.538   0.444  1.00  0.00    -0.176 C 
HETATM    3  C3  UNL     1      -4.293   0.865   1.163  1.00  0.00     0.066 C 
ENDROOT
BRANCH   3   4
HETATM    4  C4  UNL     1      -2.946   0.447   0.662  1.00  0.00     0.018 C 
BRANCH   4   5
HETATM    5  C5  UNL     1      -2.847  -1.025   0.684  1.00  0.00     0.010 C 
BRANCH   5   6
HETATM    6  C6  UNL     1      -1.616  -1.685   0.188  1.00  0.00     0.035 C 
HETATM    7  C7  UNL     1      -0.421  -1.230   1.014  1.00  0.00     0.182 C 
HETATM    8  O1  UNL     1      -0.249   0.161   0.938  1.00  0.00    -0.348 OA
HETATM    9  C8  UNL     1       0.850   0.744   1.519  1.00  0.00     0.102 A 
HETATM   10  C9  UNL     1       1.539   0.796   0.288  1.00  0.00     0.057 A 
HETATM   11  C15 UNL     1       1.543   1.248   2.590  1.00  0.00     0.101 A 
HETATM   12  C10 UNL     1       2.786   1.272   0.027  1.00  0.00     0.041 A 
HETATM   13  C11 UNL     1       3.501   1.327  -1.147  1.00  0.00     0.138 A 
HETATM   14  C13 UNL     1       3.405   1.756   1.154  1.00  0.00     0.075 A 
HETATM   15  N1  UNL     1       4.739   1.838  -1.156  1.00  0.00    -0.224 NA
HETATM   16  N3  UNL     1       3.063   0.834  -2.446  1.00  0.00    -0.364 N 
HETATM   17  C12 UNL     1       5.317   2.312  -0.009  1.00  0.00     0.235 A 
HETATM   18  N2  UNL     1       4.644   2.273   1.171  1.00  0.00    -0.241 NA
HETATM   19  C16 UNL     1       2.980  -0.616  -2.596  1.00  0.00     0.132 C 
HETATM   20  H15 UNL     1       2.863   1.600  -3.121  1.00  0.00     0.162 HD
HETATM   21  C17 UNL     1       2.178  -1.692  -2.466  1.00  0.00     0.003 C 
HETATM   22  C18 UNL     1       0.997  -2.568  -2.188  1.00  0.00     0.037 C 
HETATM   23  C19 UNL     1      -0.195  -2.261  -1.759  1.00  0.00     0.112 C 
HETATM   24  F1  UNL     1      -0.861  -3.469  -1.683  1.00  0.00    -0.209 F 
HETATM   25  C20 UNL     1      -1.317  -1.424  -1.288  1.00  0.00     0.150 C 
HETATM   26 CL1  UNL     1      -2.763  -1.744  -2.237  1.00  0.00    -0.117 Cl
HETATM   27  C14 UNL     1       2.810   1.744   2.375  1.00  0.00     0.072 A 
BRANCH  11  28
HETATM   28  O2  UNL     1       0.633   1.061   3.615  1.00  0.00    -0.358 OA
HETATM   29  H14 UNL     1       0.428   1.738   4.333  1.00  0.00     0.217 HD
ENDBRANCH  11  28
ENDBRANCH   5   6
ENDBRANCH   4   5
ENDBRANCH   3   4
TORSDOF 4
