REMARK  9 active torsions:
REMARK  status: ('A' for Active; 'I' for Inactive)
REMARK    1  A    between atoms: C2_2  and  C3_3 
REMARK    2  A    between atoms: C3_3  and  C4_4 
REMARK    3  A    between atoms: C4_4  and  C5_5 
REMARK    4  A    between atoms: C5_5  and  O1_6 
REMARK    5  A    between atoms: O1_6  and  C6_7 
REMARK    6  A    between atoms: C9_10  and  N1_11 
REMARK    7  A    between atoms: N1_11  and  C10_12 
REMARK    8  A    between atoms: C10_12  and  C11_13 
REMARK    9  A    between atoms: C19_25  and  O2_26 
ROOT
HETATM    1  C6  UNL     1       1.678  -1.836   0.113  1.00  0.00     0.102 A 
HETATM    2  C7  UNL     1       0.626  -1.025  -0.244  1.00  0.00     0.057 A 
HETATM    3  C8  UNL     1      -0.570  -1.486  -0.751  1.00  0.00     0.041 A 
HETATM    4  C9  UNL     1      -1.558  -0.585  -1.076  1.00  0.00     0.137 A 
HETATM    5  N2  UNL     1      -2.667  -1.166  -1.557  1.00  0.00    -0.224 NA
HETATM    6  C16 UNL     1      -2.801  -2.490  -1.707  1.00  0.00     0.235 A 
HETATM    7  N3  UNL     1      -1.809  -3.358  -1.378  1.00  0.00    -0.241 NA
HETATM    8  C17 UNL     1      -0.646  -2.848  -0.881  1.00  0.00     0.075 A 
HETATM    9  C18 UNL     1       0.380  -3.700  -0.537  1.00  0.00     0.072 A 
HETATM   10  C19 UNL     1       1.561  -3.214  -0.034  1.00  0.00     0.101 A 
ENDROOT
BRANCH   4  11
HETATM   11  N1  UNL     1      -1.436   0.830  -0.945  1.00  0.00    -0.370 N 
HETATM   12  H9  UNL     1      -0.587   1.290  -0.600  1.00  0.00     0.161 HD
BRANCH  11  13
HETATM   13  C10 UNL     1      -2.523   1.703  -1.297  1.00  0.00     0.157 C 
BRANCH  13  14
HETATM   14  C11 UNL     1      -3.627   1.546  -0.298  1.00  0.00    -0.034 A 
HETATM   15  C12 UNL     1      -4.010   2.637   0.395  1.00  0.00     0.076 A 
HETATM   16 CL1  UNL     1      -3.377   4.283   0.296  1.00  0.00    -0.081 Cl
HETATM   17  C13 UNL     1      -5.091   2.370   1.333  1.00  0.00     0.135 A 
HETATM   18  F1  UNL     1      -5.745   3.178   2.194  1.00  0.00    -0.205 F 
HETATM   19  C14 UNL     1      -5.344   1.083   1.181  1.00  0.00     0.022 A 
HETATM   20  C15 UNL     1      -4.467   0.424   0.158  1.00  0.00     0.068 A 
ENDBRANCH  13  14
ENDBRANCH  11  13
ENDBRANCH   4  11
BRANCH   1  21
HETATM   21  O1  UNL     1       2.880  -1.385   0.621  1.00  0.00    -0.348 OA
BRANCH  21  22
HETATM   22  C5  UNL     1       3.097   0.001   0.809  1.00  0.00     0.177 C 
BRANCH  22  23
HETATM   23  C4  UNL     1       4.476   0.235   1.372  1.00  0.00     0.044 C 
BRANCH  23  24
HETATM   24  C3  UNL     1       4.677   1.682   1.557  1.00  0.00     0.069 C 
BRANCH  24  25
HETATM   25  C2  UNL     1       5.428   2.349   0.711  1.00  0.00    -0.176 C 
HETATM   26  C1  UNL     1       6.210   2.798  -0.247  1.00  0.00     0.091 C 
ENDBRANCH  24  25
ENDBRANCH  23  24
ENDBRANCH  22  23
ENDBRANCH  21  22
ENDBRANCH   1  21
BRANCH  10  27
HETATM   27  O2  UNL     1       2.519  -4.168   0.275  1.00  0.00    -0.358 OA
HETATM   28  H17 UNL     1       3.162  -4.387  -0.502  1.00  0.00     0.217 HD
ENDBRANCH  10  27
TORSDOF 9
