REMARK  3 active torsions:
REMARK  status: ('A' for Active; 'I' for Inactive)
REMARK    1  A    between atoms: O1_2  and  C2_3 
REMARK    2  A    between atoms: C6_7  and  N1_8 
REMARK    3  A    between atoms: N1_8  and  C7_9 
ROOT
HETATM    1  C2  UNL     1      -1.930   1.196  -0.666  1.00  0.00     0.048 C 
HETATM    2  C3  UNL     1      -1.031   1.259  -1.644  1.00  0.00     0.010 C 
HETATM    3  C4  UNL     1       0.253   0.573  -1.802  1.00  0.00     0.068 C 
HETATM    4  C5  UNL     1       0.449  -0.504  -0.794  1.00  0.00    -0.019 C 
HETATM    5  C6  UNL     1       1.210  -0.140   0.224  1.00  0.00     0.132 C 
HETATM    6  N2  UNL     1       1.266  -1.111   1.316  1.00  0.00    -0.226 NA
HETATM    7  C13 UNL     1       0.271  -1.075   2.177  1.00  0.00     0.209 C 
HETATM    8  N3  UNL     1      -0.934  -0.305   2.367  1.00  0.00    -0.353 N 
HETATM    9  C14 UNL     1      -2.013  -0.062   1.478  1.00  0.00     0.025 C 
HETATM   10  P1  UNL     1      -2.674  -1.573   1.845  1.00  0.00    -0.034 P 
HETATM   11  C15 UNL     1      -4.273  -1.926   0.895  1.00  0.00     0.057 C 
HETATM   12  C16 UNL     1      -3.793  -2.870  -0.252  1.00  0.00     0.099 C 
HETATM   13  C17 UNL     1      -2.424  -2.506  -0.520  1.00  0.00    -0.106 C 
HETATM   14  C18 UNL     1      -1.340  -2.224  -0.711  1.00  0.00    -0.102 C 
HETATM   15  C19 UNL     1      -0.003  -1.887  -0.924  1.00  0.00     0.132 C 
HETATM   16  C20 UNL     1      -2.660   0.886   0.546  1.00  0.00     0.122 C 
HETATM   17  H12 UNL     1      -0.988   0.132   3.334  1.00  0.00     0.166 HD
ENDROOT
BRANCH   5  18
HETATM   18  N1  UNL     1       2.005   0.813   0.911  1.00  0.00    -0.341 N 
HETATM   19  H7  UNL     1       1.643   1.483   1.624  1.00  0.00     0.167 HD
BRANCH  18  20
HETATM   20  C7  UNL     1       3.312   0.590   0.368  1.00  0.00     0.035 A 
HETATM   21  C8  UNL     1       4.163  -0.380   0.856  1.00  0.00     0.032 A 
HETATM   22  C9  UNL     1       5.426  -0.634   0.368  1.00  0.00     0.046 A 
HETATM   23  C10 UNL     1       5.874   0.149  -0.696  1.00  0.00     0.138 A 
HETATM   24  F1  UNL     1       7.114  -0.071  -1.211  1.00  0.00    -0.204 F 
HETATM   25  C11 UNL     1       5.053   1.119  -1.201  1.00  0.00     0.074 A 
HETATM   26 CL1  UNL     1       5.689   2.073  -2.549  1.00  0.00    -0.081 Cl
HETATM   27  C12 UNL     1       3.807   1.337  -0.685  1.00  0.00     0.056 A 
ENDBRANCH  18  20
ENDBRANCH   5  18
BRANCH   1  28
HETATM   28  O1  UNL     1      -2.872   2.117  -1.223  1.00  0.00    -0.360 OA
HETATM   29  C1  UNL     1      -2.753   3.515  -0.947  1.00  0.00     0.209 C 
ENDBRANCH   1  28
TORSDOF 3
