REMARK  7 active torsions:
REMARK  status: ('A' for Active; 'I' for Inactive)
REMARK    1  A    between atoms: C3_3  and  C4_4 
REMARK    2  A    between atoms: C4_4  and  C5_5 
REMARK    3  A    between atoms: C5_5  and  O1_6 
REMARK    4  A    between atoms: O1_6  and  C6_7 
REMARK    5  A    between atoms: C11_12  and  O2_13 
REMARK    6  A    between atoms: C14_18  and  N2_19 
REMARK    7  A    between atoms: N2_19  and  C15_20 
ROOT
HETATM    1  C1  UNL     1       5.155   3.163  -2.130  1.00  0.00     0.012 C 
HETATM    2  C2  UNL     1       4.194   2.588  -1.640  1.00  0.00    -0.117 C 
HETATM    3  C3  UNL     1       3.028   1.912  -1.068  1.00  0.00     0.095 C 
ENDROOT
BRANCH   3   4
HETATM    4  C4  UNL     1       2.337   1.025  -2.054  1.00  0.00     0.039 C 
BRANCH   4   5
HETATM    5  C5  UNL     1       1.138   0.325  -1.481  1.00  0.00     0.176 C 
BRANCH   5   6
HETATM    6  O1  UNL     1       1.555  -0.484  -0.383  1.00  0.00    -0.348 OA
BRANCH   6   7
HETATM    7  C6  UNL     1       0.726  -1.230   0.335  1.00  0.00     0.099 A 
HETATM    8  C7  UNL     1      -0.675  -1.326   0.112  1.00  0.00     0.040 A 
HETATM    9  C8  UNL     1      -1.745  -2.111   0.819  1.00  0.00     0.109 A 
HETATM   10  C9  UNL     1      -0.760  -2.863   1.986  1.00  0.00     0.133 A 
HETATM   11  C14 UNL     1      -3.151  -1.729   0.006  1.00  0.00     0.135 A 
HETATM   12  S1  UNL     1      -2.794  -2.524   1.073  1.00  0.00    -0.130 SA
HETATM   13  C13 UNL     1      -2.484  -3.142   1.909  1.00  0.00     0.149 A 
HETATM   14  C10 UNL     1       0.588  -2.739   2.161  1.00  0.00     0.051 A 
HETATM   15  N1  UNL     1      -2.149  -3.744   2.733  1.00  0.00    -0.283 NA
HETATM   16  C11 UNL     1       1.224  -1.936   1.327  1.00  0.00     0.100 A 
BRANCH  16  17
HETATM   17  O2  UNL     1       2.488  -2.014   1.732  1.00  0.00    -0.353 OA
HETATM   18  C12 UNL     1       3.095  -2.717   2.748  1.00  0.00     0.210 C 
ENDBRANCH  16  17
BRANCH  11  19
HETATM   19  N2  UNL     1      -2.845  -0.830  -1.025  1.00  0.00    -0.367 N 
HETATM   20  H13 UNL     1      -2.547  -1.229  -1.939  1.00  0.00     0.161 HD
BRANCH  19  21
HETATM   21  C15 UNL     1      -2.949   0.561  -0.776  1.00  0.00     0.031 A 
HETATM   22  C16 UNL     1      -2.649   1.458  -1.784  1.00  0.00     0.032 A 
HETATM   23  C17 UNL     1      -2.771   2.813  -1.478  1.00  0.00     0.046 A 
HETATM   24  C18 UNL     1      -3.169   3.278  -0.238  1.00  0.00     0.138 A 
HETATM   25  F1  UNL     1      -3.280   4.595   0.037  1.00  0.00    -0.204 F 
HETATM   26  C19 UNL     1      -3.466   2.381   0.761  1.00  0.00     0.074 A 
HETATM   27 CL1  UNL     1      -3.979   2.819   2.366  1.00  0.00    -0.081 Cl
HETATM   28  C20 UNL     1      -3.344   1.040   0.453  1.00  0.00     0.056 A 
ENDBRANCH  19  21
ENDBRANCH  11  19
ENDBRANCH   6   7
ENDBRANCH   5   6
ENDBRANCH   4   5
ENDBRANCH   3   4
TORSDOF 7
