REMARK  0 active torsions:
REMARK  status: ('A' for Active; 'I' for Inactive)
ROOT
HETATM    1  C1  UNL     1      -2.981  -3.999   0.514  1.00  0.00     0.027 C 
HETATM    2  C2  UNL     1      -1.976  -2.862   0.551  1.00  0.00     0.005 C 
HETATM    3  C3  UNL     1      -0.715  -2.346   0.504  1.00  0.00     0.094 C 
HETATM    4  C4  UNL     1       0.603  -3.021   0.335  1.00  0.00     0.023 C 
HETATM    5  C5  UNL     1       1.734  -2.426   0.295  1.00  0.00     0.115 C 
HETATM    6  F1  UNL     1       3.022  -2.826   0.156  1.00  0.00    -0.206 F 
HETATM    7  C6  UNL     1       2.434  -1.195   0.293  1.00  0.00     0.071 C 
HETATM    8  C7  UNL     1       3.214  -0.161   0.282  1.00  0.00     0.065 C 
HETATM    9  N1  UNL     1       4.567  -0.569   0.212  1.00  0.00    -0.246 NA
HETATM   10  C8  UNL     1       5.370   0.434   0.491  1.00  0.00     0.203 C 
HETATM   11  N2  UNL     1       4.530   1.571   0.762  1.00  0.00    -0.371 N 
HETATM   12  C9  UNL     1       3.178   1.324   0.296  1.00  0.00     0.157 C 
HETATM   13  C10 UNL     1       2.963   1.844  -1.087  1.00  0.00     0.002 C 
HETATM   14  C11 UNL     1       1.956   2.496  -1.657  1.00  0.00    -0.003 C 
HETATM   15  C12 UNL     1       0.766   2.833  -0.859  1.00  0.00     0.194 C 
HETATM   16  O1  UNL     1      -0.417   2.258  -1.335  1.00  0.00    -0.387 OA
HETATM   17  C13 UNL     1      -1.496   2.671  -0.521  1.00  0.00     0.168 C 
HETATM   18  C14 UNL     1      -2.735   1.878  -0.889  1.00  0.00     0.030 C 
HETATM   19  C15 UNL     1      -2.333   0.397  -0.559  1.00  0.00     0.030 C 
HETATM   20  C16 UNL     1      -1.939   0.573   0.890  1.00  0.00    -0.014 C 
HETATM   21  C17 UNL     1      -3.049   0.479   1.622  1.00  0.00    -0.019 C 
HETATM   22  C18 UNL     1      -3.691  -0.662   1.330  1.00  0.00     0.069 C 
HETATM   23  N3  UNL     1      -2.853  -1.719   0.801  1.00  0.00    -0.296 NA
HETATM   24  H8  UNL     1       4.773   2.472   1.220  1.00  0.00     0.161 HD
HETATM   25  H22 UNL     1      -2.765  -1.945   1.861  1.00  0.00     0.127 HD
ENDROOT
TORSDOF 0
