REMARK  4 active torsions:
REMARK  status: ('A' for Active; 'I' for Inactive)
REMARK    1  A    between atoms: C2_2  and  C3_3 
REMARK    2  A    between atoms: C3_3  and  B1_4 
REMARK    3  A    between atoms: B1_4  and  C4_5 
REMARK    4  A    between atoms: C12_16  and  C13_17 
ROOT
HETATM    1  C4  UNL     1       2.064   0.613  -0.424  1.00  0.00     0.137 C 
HETATM    2  O1  UNL     1       2.866  -0.378   0.144  1.00  0.00    -0.374 OA
HETATM    3  C5  UNL     1       2.154  -1.576   0.206  1.00  0.00     0.199 C 
HETATM    4  C6  UNL     1       0.955  -1.394   1.133  1.00  0.00     0.038 C 
HETATM    5  C7  UNL     1      -0.008  -2.325   0.860  1.00  0.00     0.032 C 
HETATM    6  C8  UNL     1      -0.970  -2.497   2.001  1.00  0.00     0.081 C 
HETATM    7  C9  UNL     1      -2.138  -1.870   2.255  1.00  0.00     0.022 C 
HETATM    8  C10 UNL     1      -3.341  -0.938   2.129  1.00  0.00     0.217 C 
HETATM    9  F1  UNL     1      -4.462  -1.700   1.879  1.00  0.00    -0.243 F 
HETATM   10  C11 UNL     1      -3.177   0.054   1.057  1.00  0.00     0.070 C 
HETATM   11 CL1  UNL     1      -4.773   0.839   1.110  1.00  0.00    -0.084 Cl
HETATM   12  C12 UNL     1      -2.553   0.739   0.087  1.00  0.00     0.052 C 
HETATM   13  N1  UNL     1      -1.165   0.521  -0.267  1.00  0.00    -0.264 N 
HETATM   14  O2  UNL     1      -0.454   0.063  -1.342  1.00  0.00    -0.240 OA
HETATM   15  C15 UNL     1       0.951   0.028  -1.255  1.00  0.00     0.097 C 
HETATM   16  C16 UNL     1       1.670  -0.725  -2.125  1.00  0.00     0.068 C 
HETATM   17  C17 UNL     1       1.473  -1.747  -1.105  1.00  0.00     0.089 C 
HETATM   18  N2  UNL     1       0.615  -2.680  -1.467  1.00  0.00    -0.176 NA
HETATM   19  N3  UNL     1      -0.266  -3.043  -0.392  1.00  0.00    -0.282 N 
HETATM   20  H16 UNL     1      -0.749   0.854   0.631  1.00  0.00     0.194 HD
HETATM   21  H18 UNL     1      -1.041  -3.718  -0.354  1.00  0.00     0.189 HD
ENDROOT
BRANCH   1  22
HETATM   22  B1  UNL     1       2.886   1.565  -1.375  1.00  0.00     0.234 B 
HETATM   23  H4  UNL     1       2.435   2.661  -1.549  1.00  0.00    -0.018 HD
BRANCH  22  24
HETATM   24  C3  UNL     1       4.418   1.453  -1.582  1.00  0.00    -0.031 C 
BRANCH  24  25
HETATM   25  C2  UNL     1       5.241   1.261  -0.560  1.00  0.00    -0.171 C 
HETATM   26  C1  UNL     1       5.764   1.067   0.643  1.00  0.00     0.095 C 
ENDBRANCH  24  25
ENDBRANCH  22  24
ENDBRANCH   1  22
BRANCH  12  27
HETATM   27  C13 UNL     1      -2.827   1.808  -0.870  1.00  0.00     0.056 C 
HETATM   28  C14 UNL     1      -4.218   2.384  -0.871  1.00  0.00     0.011 C 
ENDBRANCH  12  27
TORSDOF 4
