REMARK  5 active torsions:
REMARK  status: ('A' for Active; 'I' for Inactive)
REMARK    1  A    between atoms: N1_1  and  C1_2 
REMARK    2  A    between atoms: C2_3  and  C3_4 
REMARK    3  A    between atoms: C4_6  and  C5_7 
REMARK    4  A    between atoms: C6_8  and  N2_9 
REMARK    5  A    between atoms: N2_9  and  C7_10 
ROOT
HETATM    1  C7  UNL     1      -0.613   1.432   0.582  1.00  0.00     0.159 A 
HETATM    2  N3  UNL     1      -0.711   2.671   1.110  1.00  0.00    -0.222 NA
HETATM    3  C8  UNL     1      -1.871   3.114   1.658  1.00  0.00     0.238 A 
HETATM    4  N4  UNL     1      -2.961   2.302   1.682  1.00  0.00    -0.215 NA
HETATM    5  C9  UNL     1      -2.911   1.060   1.168  1.00  0.00     0.202 A 
HETATM    6  C10 UNL     1      -1.738   0.643   0.625  1.00  0.00     0.129 A 
HETATM    7  N5  UNL     1      -1.385  -0.586   0.007  1.00  0.00    -0.379 N 
HETATM    8  C11 UNL     1      -2.202  -1.630  -0.562  1.00  0.00     0.161 C 
HETATM    9  C12 UNL     1      -3.652  -1.409  -0.448  1.00  0.00    -0.007 A 
HETATM   10  C13 UNL     1      -4.252  -2.279  -1.364  1.00  0.00     0.011 A 
HETATM   11  C14 UNL     1      -5.622  -2.322  -1.506  1.00  0.00     0.001 A 
HETATM   12  C15 UNL     1      -6.456  -1.517  -0.758  1.00  0.00     0.003 A 
HETATM   13  C16 UNL     1      -5.897  -0.643   0.157  1.00  0.00     0.038 A 
HETATM   14  C17 UNL     1      -4.525  -0.609   0.290  1.00  0.00     0.086 A 
HETATM   15  O1  UNL     1      -4.071   0.307   1.238  1.00  0.00    -0.289 OA
HETATM   16  H10 UNL     1      -0.363  -0.787  -0.058  1.00  0.00     0.160 HD
ENDROOT
BRANCH   1  17
HETATM   17  N2  UNL     1       0.685   1.144   0.060  1.00  0.00    -0.349 N 
HETATM   18  H8  UNL     1       0.883   1.190  -0.957  1.00  0.00     0.167 HD
BRANCH  17  19
HETATM   19  C6  UNL     1       1.715   0.787   0.987  1.00  0.00     0.090 C 
HETATM   20  C5  UNL     1       2.968   0.660   0.670  1.00  0.00     0.020 C 
BRANCH  20  21
HETATM   21  C4  UNL     1       3.856   0.761  -0.468  1.00  0.00     0.043 C 
HETATM   22  C3  UNL     1       5.138   0.622  -0.721  1.00  0.00     0.117 C 
HETATM   23  F1  UNL     1       5.534   0.818  -1.991  1.00  0.00    -0.206 F 
BRANCH  22  24
HETATM   24  C2  UNL     1       5.992   0.273   0.370  1.00  0.00     0.053 C 
HETATM   25  C1  UNL     1       7.293   0.097   0.276  1.00  0.00     0.057 C 
BRANCH  25  26
HETATM   26  N1  UNL     1       7.473   0.356  -1.125  1.00  0.00    -0.312 NA
HETATM   27  H1  UNL     1       7.796  -0.565  -1.519  1.00  0.00     0.123 HD
HETATM   28  H2  UNL     1       7.787  -0.261  -1.925  1.00  0.00     0.123 HD
ENDBRANCH  25  26
ENDBRANCH  22  24
ENDBRANCH  20  21
ENDBRANCH  17  19
ENDBRANCH   1  17
TORSDOF 5
