REMARK  8 active torsions:
REMARK  status: ('A' for Active; 'I' for Inactive)
REMARK    1  A    between atoms: C3_3  and  C4_4 
REMARK    2  A    between atoms: C4_4  and  C5_5 
REMARK    3  A    between atoms: C5_5  and  O1_6 
REMARK    4  A    between atoms: O1_6  and  C6_7 
REMARK    5  A    between atoms: C9_10  and  N1_11 
REMARK    6  A    between atoms: C9_10  and  N2_12 
REMARK    7  A    between atoms: N2_12  and  C10_13 
REMARK    8  A    between atoms: C19_24  and  O2_25 
ROOT
HETATM    1  C1  UNL     1       4.207   2.590  -2.100  1.00  0.00     0.012 C 
HETATM    2  C2  UNL     1       4.563   1.825  -1.238  1.00  0.00    -0.117 C 
HETATM    3  C3  UNL     1       4.998   0.874  -0.189  1.00  0.00     0.095 C 
ENDROOT
BRANCH   3   4
HETATM    4  C4  UNL     1       4.220   1.115   1.088  1.00  0.00     0.039 C 
BRANCH   4   5
HETATM    5  C5  UNL     1       2.739   0.933   0.877  1.00  0.00     0.176 C 
BRANCH   5   6
HETATM    6  O1  UNL     1       2.519  -0.371   0.450  1.00  0.00    -0.348 OA
BRANCH   6   7
HETATM    7  C6  UNL     1       1.313  -0.960   0.142  1.00  0.00     0.103 A 
HETATM    8  C7  UNL     1       0.188  -0.389   0.547  1.00  0.00     0.057 A 
HETATM    9  C8  UNL     1      -1.107  -0.985   0.239  1.00  0.00     0.039 A 
HETATM   10  C9  UNL     1      -2.270  -0.481   0.604  1.00  0.00     0.112 C 
HETATM   11  C16 UNL     1      -1.073  -2.240  -0.537  1.00  0.00     0.067 A 
HETATM   12  N3  UNL     1      -2.138  -2.879  -0.883  1.00  0.00    -0.293 NA
HETATM   13  C18 UNL     1       0.214  -2.806  -0.947  1.00  0.00     0.071 A 
HETATM   14  C17 UNL     1      -2.140  -4.101  -1.637  1.00  0.00     0.178 C 
HETATM   15  C19 UNL     1       1.340  -2.217  -0.635  1.00  0.00     0.103 A 
BRANCH  10  16
HETATM   16  N1  UNL     1      -3.551  -1.033   0.322  1.00  0.00    -0.385 N 
HETATM   17  H9  UNL     1      -4.293  -1.018   1.076  1.00  0.00     0.157 HD
HETATM   18  H10 UNL     1      -4.030  -1.494  -0.476  1.00  0.00     0.157 HD
ENDBRANCH  10  16
BRANCH  10  19
HETATM   19  N2  UNL     1      -2.279   0.729   1.351  1.00  0.00    -0.342 N 
HETATM   20  H11 UNL     1      -1.761   0.719   2.255  1.00  0.00     0.167 HD
BRANCH  19  21
HETATM   21  C10 UNL     1      -2.958   1.888   0.890  1.00  0.00     0.035 A 
HETATM   22  C11 UNL     1      -3.627   1.839  -0.314  1.00  0.00     0.029 A 
HETATM   23  C12 UNL     1      -4.270   2.997  -0.714  1.00  0.00     0.004 A 
HETATM   24  C13 UNL     1      -4.274   4.183   0.027  1.00  0.00     0.024 A 
HETATM   25  C14 UNL     1      -3.586   4.164   1.224  1.00  0.00     0.036 A 
HETATM   26 CL1  UNL     1      -3.596   5.668   2.157  1.00  0.00    -0.084 Cl
HETATM   27  C15 UNL     1      -2.925   3.026   1.667  1.00  0.00     0.053 A 
ENDBRANCH  19  21
ENDBRANCH  10  19
BRANCH  15  28
HETATM   28  O2  UNL     1       2.584  -2.740  -1.015  1.00  0.00    -0.353 OA
HETATM   29  C20 UNL     1       3.428  -3.397  -0.090  1.00  0.00     0.210 C 
ENDBRANCH  15  28
ENDBRANCH   6   7
ENDBRANCH   5   6
ENDBRANCH   4   5
ENDBRANCH   3   4
TORSDOF 8
