REMARK  4 active torsions:
REMARK  status: ('A' for Active; 'I' for Inactive)
REMARK    1  A    between atoms: O1_2  and  C2_3 
REMARK    2  A    between atoms: C6_9  and  B1_10 
REMARK    3  A    between atoms: B1_10  and  N3_11 
REMARK    4  A    between atoms: N3_11  and  C7_12 
ROOT
HETATM    1  C2  UNL     1       4.136   1.309   0.863  1.00  0.00     0.063 C 
HETATM    2  C3  UNL     1       2.825   0.968   0.910  1.00  0.00     0.158 C 
HETATM    3  C4  UNL     1       1.390   1.340   0.872  1.00  0.00     0.053 A 
HETATM    4  N1  UNL     1       0.801   2.516   1.145  1.00  0.00    -0.245 NA
HETATM    5  C5  UNL     1      -0.502   2.784   1.092  1.00  0.00     0.232 A 
HETATM    6  N2  UNL     1      -1.255   1.754   0.728  1.00  0.00    -0.256 NA
HETATM    7  C6  UNL     1      -0.692   0.580   0.453  1.00  0.00     0.025 A 
HETATM    8  C13 UNL     1       0.641   0.255   0.493  1.00  0.00     0.010 A 
HETATM    9  C14 UNL     1       0.848  -1.166   0.125  1.00  0.00     0.312 C 
HETATM   10  N4  UNL     1       0.890  -2.016   1.318  1.00  0.00     0.098 N 
HETATM   11  C15 UNL     1       2.122  -2.894   1.094  1.00  0.00     0.363 C 
HETATM   12  C16 UNL     1       3.141  -1.874   1.077  1.00  0.00    -0.076 C 
HETATM   13  C17 UNL     1       3.920  -1.068   1.056  1.00  0.00    -0.102 C 
HETATM   14  C18 UNL     1       4.886  -0.034   1.019  1.00  0.00     0.127 C 
HETATM   15  H14 UNL     1       0.050  -2.638   1.335  1.00  0.00     0.317 HD
ENDROOT
BRANCH   7  16
HETATM   16  B1  UNL     1      -1.808  -0.451   0.050  1.00  0.00     0.328 B 
HETATM   17  H6  UNL     1      -2.214  -1.118   0.954  1.00  0.00     0.007 HD
BRANCH  16  18
HETATM   18  N3  UNL     1      -2.527  -0.470  -1.262  1.00  0.00    -0.437 N 
HETATM   19  H7  UNL     1      -2.038  -0.424  -2.206  1.00  0.00     0.138 HD
BRANCH  18  20
HETATM   20  C7  UNL     1      -3.966  -0.555  -1.359  1.00  0.00     0.015 A 
HETATM   21  C8  UNL     1      -4.669  -0.577  -2.558  1.00  0.00     0.028 A 
HETATM   22  C9  UNL     1      -6.051  -0.659  -2.536  1.00  0.00     0.004 A 
HETATM   23  C10 UNL     1      -6.767  -0.720  -1.348  1.00  0.00     0.024 A 
HETATM   24  C11 UNL     1      -6.046  -0.696  -0.182  1.00  0.00     0.036 A 
HETATM   25 CL1  UNL     1      -6.988  -0.774   1.307  1.00  0.00    -0.084 Cl
HETATM   26  C12 UNL     1      -4.666  -0.615  -0.149  1.00  0.00     0.051 A 
ENDBRANCH  18  20
ENDBRANCH  16  18
ENDBRANCH   7  16
BRANCH   1  27
HETATM   27  O1  UNL     1       5.255   2.173   0.753  1.00  0.00    -0.389 OA
HETATM   28  C1  UNL     1       5.502   2.846  -0.472  1.00  0.00     0.202 C 
ENDBRANCH   1  27
TORSDOF 4
