REMARK  7 active torsions:
REMARK  status: ('A' for Active; 'I' for Inactive)
REMARK    1  A    between atoms: C3_3  and  C4_4 
REMARK    2  A    between atoms: C4_4  and  C5_5 
REMARK    3  A    between atoms: C5_5  and  O1_6 
REMARK    4  A    between atoms: O1_6  and  C6_7 
REMARK    5  A    between atoms: C6_7  and  C7_8 
REMARK    6  A    between atoms: C11_12  and  N1_13 
REMARK    7  A    between atoms: C16_20  and  N2_21 
ROOT
HETATM    1  C1  UNL     1       7.731   1.628   1.158  1.00  0.00     0.012 C 
HETATM    2  C2  UNL     1       7.186   0.568   1.359  1.00  0.00    -0.117 C 
HETATM    3  C3  UNL     1       6.523  -0.713   1.596  1.00  0.00     0.095 C 
ENDROOT
BRANCH   3   4
HETATM    4  C4  UNL     1       5.200  -0.778   0.812  1.00  0.00     0.038 C 
BRANCH   4   5
HETATM    5  C5  UNL     1       4.290   0.321   1.248  1.00  0.00     0.169 C 
BRANCH   5   6
HETATM    6  O1  UNL     1       3.106   0.313   0.577  1.00  0.00    -0.385 OA
BRANCH   6   7
HETATM    7  C6  UNL     1       2.324  -0.813   0.693  1.00  0.00     0.232 C 
BRANCH   7   8
HETATM    8  C7  UNL     1       1.092  -0.514  -0.133  1.00  0.00     0.078 C 
HETATM    9  C8  UNL     1      -0.053  -0.542   0.573  1.00  0.00     0.044 C 
HETATM   10  C9  UNL     1      -1.458  -0.313   0.168  1.00  0.00    -0.035 C 
HETATM   11  C10 UNL     1      -2.322  -0.933   1.198  1.00  0.00     0.050 C 
HETATM   12  C11 UNL     1      -2.015   0.298  -0.861  1.00  0.00     0.039 C 
HETATM   13  C17 UNL     1      -1.443   1.006  -2.038  1.00  0.00     0.208 C 
HETATM   14  N3  UNL     1      -0.546   0.182  -2.817  1.00  0.00    -0.272 NA
HETATM   15  C18 UNL     1       0.615  -0.351  -2.630  1.00  0.00     0.253 C 
HETATM   16  O2  UNL     1       1.426  -0.269  -1.481  1.00  0.00    -0.307 OA
BRANCH  12  17
HETATM   17  N1  UNL     1      -3.433   0.273  -0.841  1.00  0.00    -0.332 N 
HETATM   18  C12 UNL     1      -4.136  -0.844  -1.431  1.00  0.00     0.120 A 
HETATM   19  C13 UNL     1      -5.457  -0.913  -1.428  1.00  0.00     0.087 A 
HETATM   20 CL1  UNL     1      -6.233  -2.300  -2.162  1.00  0.00    -0.080 Cl
HETATM   21  C14 UNL     1      -6.286   0.130  -0.843  1.00  0.00     0.139 A 
HETATM   22  F1  UNL     1      -7.632   0.100  -0.817  1.00  0.00    -0.204 F 
HETATM   23  C15 UNL     1      -5.634   1.150  -0.316  1.00  0.00     0.063 A 
HETATM   24  C16 UNL     1      -4.160   1.379  -0.240  1.00  0.00     0.208 A 
BRANCH  24  25
HETATM   25  N2  UNL     1      -3.822   1.643   1.124  1.00  0.00    -0.407 N 
HETATM   26  H17 UNL     1      -2.855   1.911   1.316  1.00  0.00     0.152 HD
HETATM   27  H18 UNL     1      -4.313   1.076   1.819  1.00  0.00     0.152 HD
ENDBRANCH  24  25
ENDBRANCH  12  17
ENDBRANCH   7   8
ENDBRANCH   6   7
ENDBRANCH   5   6
ENDBRANCH   4   5
ENDBRANCH   3   4
TORSDOF 7
