REMARK  6 active torsions:
REMARK  status: ('A' for Active; 'I' for Inactive)
REMARK    1  A    between atoms: C3_3  and  C4_4 
REMARK    2  A    between atoms: C5_5  and  C6_6 
REMARK    3  A    between atoms: C11_12  and  C12_13 
REMARK    4  A    between atoms: C15_17  and  C16_18 
REMARK    5  A    between atoms: C16_18  and  O1_19 
REMARK    6  A    between atoms: O1_19  and  N2_20 
ROOT
HETATM    1  C1  UNL     1      -2.402   3.696   2.377  1.00  0.00     0.096 C 
HETATM    2  C2  UNL     1      -2.469   2.879   1.335  1.00  0.00    -0.152 C 
HETATM    3  C3  UNL     1      -2.407   2.212   0.189  1.00  0.00     0.090 C 
ENDROOT
BRANCH   3   4
HETATM    4  C4  UNL     1      -1.096   1.670  -0.108  1.00  0.00     0.111 C 
HETATM    5  C5  UNL     1      -0.564   0.470   0.045  1.00  0.00     0.101 C 
HETATM    6  N1  UNL     1       0.746   0.523  -0.410  1.00  0.00    -0.261 NA
HETATM    7  C14 UNL     1       1.509  -0.403  -0.791  1.00  0.00     0.097 C 
HETATM    8  C15 UNL     1       2.818   0.238  -1.177  1.00  0.00     0.055 C 
HETATM    9  C17 UNL     1       2.678   1.763  -1.117  1.00  0.00     0.041 C 
HETATM   10  C18 UNL     1       1.580   2.060  -2.111  1.00  0.00    -0.001 C 
HETATM   11  C19 UNL     1       0.380   2.473  -1.746  1.00  0.00     0.138 C 
HETATM   12  O2  UNL     1      -0.445   2.806  -0.650  1.00  0.00    -0.320 OA
BRANCH   5  13
HETATM   13  C6  UNL     1      -0.989  -0.810   0.543  1.00  0.00     0.003 A 
HETATM   14  C7  UNL     1      -0.273  -1.073   1.718  1.00  0.00     0.014 A 
HETATM   15  C8  UNL     1      -0.470  -2.269   2.392  1.00  0.00     0.003 A 
HETATM   16  C9  UNL     1      -1.383  -3.147   1.846  1.00  0.00     0.024 A 
HETATM   17  C10 UNL     1      -2.098  -2.910   0.691  1.00  0.00     0.041 A 
HETATM   18 CL1  UNL     1      -3.246  -4.055   0.036  1.00  0.00    -0.084 Cl
HETATM   19  C11 UNL     1      -1.881  -1.731   0.059  1.00  0.00    -0.024 A 
BRANCH  19  20
HETATM   20  C12 UNL     1      -2.609  -1.451  -1.172  1.00  0.00     0.037 C 
HETATM   21  C13 UNL     1      -3.815  -0.579  -0.948  1.00  0.00     0.010 C 
ENDBRANCH  19  20
ENDBRANCH   5  13
BRANCH   8  22
HETATM   22  C16 UNL     1       3.861  -0.181  -0.190  1.00  0.00     0.203 C 
BRANCH  22  23
HETATM   23  O1  UNL     1       4.009  -1.579  -0.189  1.00  0.00    -0.308 OA
BRANCH  23  24
HETATM   24  N2  UNL     1       4.947  -1.974   0.692  1.00  0.00    -0.215 NA
HETATM   25  H16 UNL     1       4.477  -2.394   1.529  1.00  0.00     0.150 HD
HETATM   26  H17 UNL     1       5.510  -2.740   0.224  1.00  0.00     0.150 HD
ENDBRANCH  23  24
ENDBRANCH  22  23
ENDBRANCH   8  22
ENDBRANCH   3   4
TORSDOF 6
