REMARK  5 active torsions:
REMARK  status: ('A' for Active; 'I' for Inactive)
REMARK    1  A    between atoms: O1_1  and  C1_2 
REMARK    2  A    between atoms: C5_6  and  N1_7 
REMARK    3  A    between atoms: N1_7  and  C6_8 
REMARK    4  A    between atoms: C6_8  and  C7_9 
REMARK    5  A    between atoms: C8_10  and  C9_12 
ROOT
HETATM    1  C1  UNL     1      -2.273  -2.220   0.395  1.00  0.00     0.202 C 
HETATM    2  C2  UNL     1      -0.993  -1.780   0.414  1.00  0.00     0.073 C 
HETATM    3  C3  UNL     1      -0.834  -0.317   0.338  1.00  0.00     0.104 C 
HETATM    4  C4  UNL     1       0.431   0.214  -0.159  1.00  0.00    -0.007 C 
HETATM    5  C5  UNL     1       1.490  -0.299  -0.730  1.00  0.00     0.131 C 
HETATM    6  N2  UNL     1       1.771  -1.678  -0.849  1.00  0.00    -0.226 NA
HETATM    7  C10 UNL     1       1.315  -2.632  -0.092  1.00  0.00     0.209 C 
HETATM    8  N3  UNL     1       0.002  -2.780   0.487  1.00  0.00    -0.350 N 
HETATM    9  C11 UNL     1       0.324   1.670   0.126  1.00  0.00     0.008 C 
HETATM   10  C12 UNL     1      -0.581   2.599   0.260  1.00  0.00    -0.020 C 
HETATM   11  C13 UNL     1      -2.043   2.335   0.121  1.00  0.00     0.020 C 
HETATM   12  C14 UNL     1      -3.299   2.855   0.159  1.00  0.00    -0.002 C 
HETATM   13  C15 UNL     1      -4.520   2.059  -0.082  1.00  0.00     0.008 C 
HETATM   14  C16 UNL     1      -4.340   0.626  -0.398  1.00  0.00     0.027 C 
HETATM   15  C17 UNL     1      -3.744  -0.215   0.741  1.00  0.00     0.178 C 
HETATM   16  O2  UNL     1      -3.428  -1.486   0.305  1.00  0.00    -0.329 OA
HETATM   17  H11 UNL     1      -0.324  -3.620   0.998  1.00  0.00     0.166 HD
ENDROOT
BRANCH   5  18
HETATM   18  N1  UNL     1       2.310   0.767  -1.207  1.00  0.00    -0.371 N 
HETATM   19  H4  UNL     1       1.877   1.366  -1.968  1.00  0.00     0.161 HD
BRANCH  18  20
HETATM   20  C6  UNL     1       3.658   1.030  -0.694  1.00  0.00     0.150 C 
BRANCH  20  21
HETATM   21  C7  UNL     1       4.595  -0.076  -1.091  1.00  0.00     0.013 C 
HETATM   22  C8  UNL     1       5.389  -0.997  -0.562  1.00  0.00     0.023 C 
HETATM   23 CL1  UNL     1       6.406  -2.204  -1.353  1.00  0.00    -0.088 Cl
BRANCH  22  24
HETATM   24  C9  UNL     1       5.519  -1.123   0.935  1.00  0.00     0.165 C 
HETATM   25 CL2  UNL     1       5.000  -2.744   1.388  1.00  0.00    -0.125 Cl
ENDBRANCH  22  24
ENDBRANCH  20  21
ENDBRANCH  18  20
ENDBRANCH   5  18
BRANCH   1  26
HETATM   26  O1  UNL     1      -2.370  -3.609   0.474  1.00  0.00    -0.339 OA
HETATM   27  H1  UNL     1      -3.064  -4.071   1.048  1.00  0.00     0.220 HD
ENDBRANCH   1  26
TORSDOF 5
