REMARK  7 active torsions:
REMARK  status: ('A' for Active; 'I' for Inactive)
REMARK    1  A    between atoms: C2_2  and  C3_3 
REMARK    2  A    between atoms: C3_3  and  C4_4 
REMARK    3  A    between atoms: C4_4  and  O1_5 
REMARK    4  A    between atoms: O1_5  and  C5_6 
REMARK    5  A    between atoms: C8_9  and  N1_10 
REMARK    6  A    between atoms: N1_10  and  C9_11 
REMARK    7  A    between atoms: C19_24  and  O2_25 
ROOT
HETATM    1  C5  UNL     1       3.078  -1.029   0.058  1.00  0.00     0.102 A 
HETATM    2  C6  UNL     1       1.722  -0.787   0.025  1.00  0.00     0.057 A 
HETATM    3  C7  UNL     1       0.769  -1.419   0.780  1.00  0.00     0.042 A 
HETATM    4  C8  UNL     1      -0.578  -1.144   0.715  1.00  0.00     0.142 A 
HETATM    5  N2  UNL     1      -1.345  -1.855   1.519  1.00  0.00    -0.224 NA
HETATM    6  C16 UNL     1      -0.893  -2.784   2.354  1.00  0.00     0.236 A 
HETATM    7  N3  UNL     1       0.434  -3.056   2.419  1.00  0.00    -0.241 NA
HETATM    8  C17 UNL     1       1.304  -2.369   1.622  1.00  0.00     0.075 A 
HETATM    9  C18 UNL     1       2.624  -2.668   1.715  1.00  0.00     0.072 A 
HETATM   10  C19 UNL     1       3.539  -2.002   0.933  1.00  0.00     0.101 A 
ENDROOT
BRANCH   4  11
HETATM   11  N1  UNL     1      -1.044  -0.158  -0.186  1.00  0.00    -0.340 N 
HETATM   12  H7  UNL     1      -0.413   0.353  -0.826  1.00  0.00     0.167 HD
BRANCH  11  13
HETATM   13  C9  UNL     1      -2.375   0.286  -0.369  1.00  0.00     0.034 A 
HETATM   14  C10 UNL     1      -3.399  -0.047   0.487  1.00  0.00     0.031 A 
HETATM   15  C11 UNL     1      -4.706   0.360   0.329  1.00  0.00     0.026 A 
HETATM   16  C12 UNL     1      -5.061   1.154  -0.740  1.00  0.00     0.040 A 
HETATM   17 CL1  UNL     1      -6.681   1.733  -1.048  1.00  0.00    -0.084 Cl
HETATM   18  C13 UNL     1      -4.074   1.512  -1.621  1.00  0.00    -0.038 A 
HETATM   19  C14 UNL     1      -4.392   2.362  -2.789  1.00  0.00     0.050 C 
HETATM   20  C15 UNL     1      -2.786   1.078  -1.416  1.00  0.00     0.038 A 
ENDBRANCH  11  13
ENDBRANCH   4  11
BRANCH   1  21
HETATM   21  O1  UNL     1       4.035  -0.405  -0.690  1.00  0.00    -0.347 OA
BRANCH  21  22
HETATM   22  C4  UNL     1       3.808   0.616  -1.644  1.00  0.00     0.193 C 
BRANCH  22  23
HETATM   23  C3  UNL     1       3.178   1.778  -1.013  1.00  0.00     0.093 C 
BRANCH  23  24
HETATM   24  C2  UNL     1       3.325   1.982   0.270  1.00  0.00    -0.174 C 
HETATM   25  C1  UNL     1       3.567   1.974   1.560  1.00  0.00     0.091 C 
ENDBRANCH  23  24
ENDBRANCH  22  23
ENDBRANCH  21  22
ENDBRANCH   1  21
BRANCH  10  26
HETATM   26  O2  UNL     1       4.865  -2.376   1.098  1.00  0.00    -0.358 OA
HETATM   27  H16 UNL     1       5.243  -2.541   2.042  1.00  0.00     0.217 HD
ENDBRANCH  10  26
TORSDOF 7
