REMARK  4 active torsions:
REMARK  status: ('A' for Active; 'I' for Inactive)
REMARK    1  A    between atoms: C6_6  and  N1_7 
REMARK    2  A    between atoms: C9_11  and  C10_12 
REMARK    3  A    between atoms: C10_12  and  C11_13 
REMARK    4  A    between atoms: C15_18  and  N3_19 
ROOT
HETATM    1  C1  UNL     1      -2.740  -1.420   1.296  1.00  0.00     0.039 C 
HETATM    2  C2  UNL     1      -2.377  -0.048   0.927  1.00  0.00     0.134 C 
HETATM    3  C3  UNL     1      -1.342   0.591   1.860  1.00  0.00     0.077 C 
HETATM    4  C4  UNL     1      -1.330   1.904   2.183  1.00  0.00     0.037 C 
HETATM    5  C5  UNL     1      -1.783   2.959   1.205  1.00  0.00     0.028 C 
HETATM    6  C6  UNL     1      -1.913   2.621  -0.113  1.00  0.00     0.020 C 
HETATM    7  C7  UNL     1      -1.587   1.354  -0.883  1.00  0.00     0.175 C 
HETATM    8  N2  UNL     1      -1.621   0.122  -0.303  1.00  0.00    -0.382 N 
HETATM    9  C8  UNL     1      -0.616  -0.849  -0.305  1.00  0.00     0.187 C 
HETATM   10  C9  UNL     1       0.365  -0.859  -1.406  1.00  0.00    -0.049 C 
HETATM   11  C12 UNL     1       1.695  -0.787  -1.203  1.00  0.00     0.005 C 
HETATM   12  C13 UNL     1       3.084  -0.701  -0.770  1.00  0.00     0.000 C 
HETATM   13  C14 UNL     1       3.563  -0.620   0.491  1.00  0.00     0.031 C 
HETATM   14  C15 UNL     1       3.556  -0.556   1.944  1.00  0.00     0.363 C 
HETATM   15  N4  UNL     1       2.944  -1.688   2.603  1.00  0.00    -0.243 NA
HETATM   16  C16 UNL     1       1.874  -2.217   2.134  1.00  0.00     0.232 C 
HETATM   17  N5  UNL     1       1.128  -1.877   1.010  1.00  0.00    -0.220 NA
HETATM   18  C17 UNL     1       0.082  -1.124   1.023  1.00  0.00     0.173 C 
HETATM   19  O1  UNL     1      -0.497  -0.499   2.223  1.00  0.00    -0.296 OA
ENDROOT
BRANCH   6  20
HETATM   20  N1  UNL     1      -2.460   3.787  -0.716  1.00  0.00    -0.401 N 
HETATM   21  H7  UNL     1      -2.005   4.720  -0.573  1.00  0.00     0.156 HD
HETATM   22  H8  UNL     1      -3.286   3.396  -1.221  1.00  0.00     0.156 HD
ENDBRANCH   6  20
BRANCH  10  23
HETATM   23  C10 UNL     1      -0.369  -0.983  -2.666  1.00  0.00     0.051 C 
BRANCH  23  24
HETATM   24  C11 UNL     1       0.499  -1.048  -3.908  1.00  0.00     0.119 C 
HETATM   25 CL1  UNL     1      -0.614  -1.193  -5.307  1.00  0.00    -0.130 Cl
ENDBRANCH  23  24
ENDBRANCH  10  23
BRANCH  14  26
HETATM   26  N3  UNL     1       2.972   0.725   2.345  1.00  0.00     0.106 N 
HETATM   27  H20 UNL     1       3.383   1.427   1.659  1.00  0.00     0.316 HD
HETATM   28  H21 UNL     1       1.971   0.695   2.102  1.00  0.00     0.316 HD
ENDBRANCH  14  26
TORSDOF 4
