REMARK  5 active torsions:
REMARK  status: ('A' for Active; 'I' for Inactive)
REMARK    1  A    between atoms: C3_3  and  C4_4 
REMARK    2  A    between atoms: C4_4  and  O1_5 
REMARK    3  A    between atoms: O1_5  and  C5_6 
REMARK    4  A    between atoms: C10_13  and  N3_14 
REMARK    5  A    between atoms: N3_14  and  C11_15 
ROOT
HETATM    1  C5  UNL     1       1.768   0.713  -1.316  1.00  0.00     0.071 C 
HETATM    2  C6  UNL     1       0.530   0.315  -1.015  1.00  0.00     0.052 C 
HETATM    3  C7  UNL     1      -0.719   0.617  -1.701  1.00  0.00     0.039 A 
HETATM    4  C8  UNL     1      -0.799   1.224  -2.935  1.00  0.00     0.073 A 
HETATM    5  N1  UNL     1      -2.045   1.424  -3.413  1.00  0.00    -0.243 NA
HETATM    6  C9  UNL     1      -3.113   1.040  -2.697  1.00  0.00     0.235 A 
HETATM    7  N2  UNL     1      -2.964   0.457  -1.504  1.00  0.00    -0.224 NA
HETATM    8  C10 UNL     1      -1.786   0.211  -0.938  1.00  0.00     0.141 A 
HETATM    9  C17 UNL     1       0.314   1.700  -3.834  1.00  0.00     0.228 C 
HETATM   10  O2  UNL     1       1.190   2.377  -2.957  1.00  0.00    -0.379 OA
HETATM   11  C18 UNL     1       2.178   1.577  -2.447  1.00  0.00     0.232 C 
ENDROOT
BRANCH   8  12
HETATM   12  N3  UNL     1      -1.709  -0.427   0.322  1.00  0.00    -0.340 N 
HETATM   13  H10 UNL     1      -0.948  -0.768   0.933  1.00  0.00     0.167 HD
BRANCH  12  14
HETATM   14  C11 UNL     1      -2.864  -0.750   1.081  1.00  0.00     0.035 A 
HETATM   15  C12 UNL     1      -3.975   0.071   0.995  1.00  0.00     0.032 A 
HETATM   16  C13 UNL     1      -5.140  -0.189   1.682  1.00  0.00     0.046 A 
HETATM   17  C14 UNL     1      -5.253  -1.295   2.498  1.00  0.00     0.138 A 
HETATM   18  F1  UNL     1      -6.367  -1.607   3.199  1.00  0.00    -0.204 F 
HETATM   19  C15 UNL     1      -4.186  -2.139   2.620  1.00  0.00     0.074 A 
HETATM   20 CL1  UNL     1      -4.241  -3.567   3.634  1.00  0.00    -0.081 Cl
HETATM   21  C16 UNL     1      -3.048  -1.838   1.916  1.00  0.00     0.056 A 
ENDBRANCH  12  14
ENDBRANCH   8  12
BRANCH   1  22
HETATM   22  O1  UNL     1       2.808   0.298  -0.516  1.00  0.00    -0.350 OA
BRANCH  22  23
HETATM   23  C4  UNL     1       2.717  -0.394   0.690  1.00  0.00     0.202 C 
BRANCH  23  24
HETATM   24  C3  UNL     1       4.123  -0.612   1.160  1.00  0.00    -0.005 C 
HETATM   25  C2  UNL     1       4.655  -0.178   2.300  1.00  0.00    -0.033 C 
HETATM   26  C1  UNL     1       6.080  -0.544   2.507  1.00  0.00     0.036 C 
ENDBRANCH  23  24
ENDBRANCH  22  23
ENDBRANCH   1  22
TORSDOF 5
