REMARK  5 active torsions:
REMARK  status: ('A' for Active; 'I' for Inactive)
REMARK    1  A    between atoms: C3_3  and  O1_4 
REMARK    2  A    between atoms: O1_4  and  C4_5 
REMARK    3  A    between atoms: C7_8  and  N1_9 
REMARK    4  A    between atoms: N1_9  and  C8_10 
REMARK    5  A    between atoms: C17_23  and  O2_24 
ROOT
HETATM    1  C1  UNL     1      -2.017   2.208   2.634  1.00  0.00     0.014 C 
HETATM    2  C2  UNL     1      -2.506   2.333   1.544  1.00  0.00    -0.091 C 
HETATM    3  C3  UNL     1      -3.100   2.512   0.203  1.00  0.00     0.268 C 
ENDROOT
BRANCH   3   4
HETATM    4  O1  UNL     1      -3.479   1.270  -0.297  1.00  0.00    -0.337 OA
BRANCH   4   5
HETATM    5  C4  UNL     1      -2.586   0.247  -0.503  1.00  0.00     0.104 A 
HETATM    6  C5  UNL     1      -1.229   0.278  -0.263  1.00  0.00     0.057 A 
HETATM    7  C6  UNL     1      -0.364  -0.772  -0.483  1.00  0.00     0.042 A 
HETATM    8  C7  UNL     1       0.986  -0.711  -0.233  1.00  0.00     0.142 A 
HETATM    9  C15 UNL     1      -0.983  -1.889  -0.977  1.00  0.00     0.075 A 
HETATM   10  N2  UNL     1       1.625  -1.845  -0.521  1.00  0.00    -0.224 NA
HETATM   11  C14 UNL     1       1.105  -2.974  -1.002  1.00  0.00     0.236 A 
HETATM   12  N3  UNL     1      -0.238  -2.982  -1.232  1.00  0.00    -0.241 NA
HETATM   13  C16 UNL     1      -2.314  -1.997  -1.239  1.00  0.00     0.072 A 
HETATM   14  C17 UNL     1      -3.148  -0.919  -1.004  1.00  0.00     0.103 A 
BRANCH   8  15
HETATM   15  N1  UNL     1       1.556   0.455   0.273  1.00  0.00    -0.340 N 
HETATM   16  H5  UNL     1       0.995   1.278   0.482  1.00  0.00     0.167 HD
BRANCH  15  17
HETATM   17  C8  UNL     1       2.915   0.734   0.583  1.00  0.00     0.035 A 
HETATM   18  C9  UNL     1       3.918  -0.174   0.327  1.00  0.00     0.032 A 
HETATM   19  C10 UNL     1       5.249   0.042   0.609  1.00  0.00     0.046 A 
HETATM   20  C11 UNL     1       5.652   1.210   1.178  1.00  0.00     0.138 A 
HETATM   21  F1  UNL     1       6.931   1.520   1.494  1.00  0.00    -0.204 F 
HETATM   22  C12 UNL     1       4.693   2.145   1.452  1.00  0.00     0.074 A 
HETATM   23 CL1  UNL     1       5.125   3.670   2.181  1.00  0.00    -0.081 Cl
HETATM   24  C13 UNL     1       3.377   1.882   1.151  1.00  0.00     0.056 A 
ENDBRANCH  15  17
ENDBRANCH   8  15
BRANCH  14  25
HETATM   25  O2  UNL     1      -4.498  -1.033  -1.272  1.00  0.00    -0.353 OA
HETATM   26  C18 UNL     1      -4.984  -2.260  -1.782  1.00  0.00     0.210 C 
ENDBRANCH  14  25
ENDBRANCH   4   5
ENDBRANCH   3   4
TORSDOF 5
