REMARK  10 active torsions:
REMARK  status: ('A' for Active; 'I' for Inactive)
REMARK    1  A    between atoms: O1_2  and  C2_3 
REMARK    2  A    between atoms: C7_8  and  O2_9 
REMARK    3  A    between atoms: O2_9  and  C8_10 
REMARK    4  A    between atoms: C8_10  and  C9_11 
REMARK    5  A    between atoms: C10_12  and  C11_13 
REMARK    6  A    between atoms: C11_13  and  N1_14 
REMARK    7  A    between atoms: C11_13  and  N3_18 
REMARK    8  A    between atoms: C12_15  and  C13_16 
REMARK    9  A    between atoms: C13_16  and  N2_17 
REMARK   10  A    between atoms: N3_18  and  C14_19 
ROOT
HETATM    1  C11 UNL     1       2.719  -0.735  -0.459  1.00  0.00     0.286 C 
ENDROOT
BRANCH   1   2
HETATM    2  C10 UNL     1       1.310  -0.328  -0.512  1.00  0.00    -0.056 C 
HETATM    3  C9  UNL     1       0.135  -0.002  -0.545  1.00  0.00    -0.076 C 
BRANCH   3   4
HETATM    4  C8  UNL     1      -1.284   0.370  -0.576  1.00  0.00     0.269 C 
BRANCH   4   5
HETATM    5  O2  UNL     1      -2.025  -0.833  -0.443  1.00  0.00    -0.336 OA
BRANCH   5   6
HETATM    6  C7  UNL     1      -3.408  -0.691  -0.450  1.00  0.00     0.105 A 
HETATM    7  C2  UNL     1      -4.262   0.010   0.503  1.00  0.00     0.098 A 
HETATM    8  C3  UNL     1      -5.534  -0.082   0.148  1.00  0.00     0.017 A 
HETATM    9  C4  UNL     1      -5.619  -0.880  -1.111  1.00  0.00     0.067 A 
HETATM   10  C5  UNL     1      -4.196  -1.216  -1.400  1.00  0.00    -0.044 A 
HETATM   11  C6  UNL     1      -3.840  -2.025  -2.603  1.00  0.00     0.046 C 
BRANCH   7  12
HETATM   12  O1  UNL     1      -3.822   0.686   1.630  1.00  0.00    -0.353 OA
HETATM   13  C1  UNL     1      -4.642   1.025   2.715  1.00  0.00     0.210 C 
ENDBRANCH   7  12
ENDBRANCH   5   6
ENDBRANCH   4   5
ENDBRANCH   3   4
ENDBRANCH   1   2
BRANCH   1  14
HETATM   14  N1  UNL     1       2.808  -1.894   0.385  1.00  0.00    -0.266 NA
HETATM   15  C12 UNL     1       3.150  -1.879   1.610  1.00  0.00     0.116 C 
BRANCH  15  16
HETATM   16  C13 UNL     1       3.111  -3.275   2.096  1.00  0.00     0.313 C 
BRANCH  16  17
HETATM   17  N2  UNL     1       3.338  -3.399   3.526  1.00  0.00     0.083 N 
HETATM   18  H16 UNL     1       3.822  -2.569   3.921  1.00  0.00     0.313 HD
HETATM   19  H17 UNL     1       3.909  -4.275   3.662  1.00  0.00     0.313 HD
ENDBRANCH  16  17
ENDBRANCH  15  16
ENDBRANCH   1  14
BRANCH   1  20
HETATM   20  N3  UNL     1       3.545   0.337   0.053  1.00  0.00    -0.357 N 
HETATM   21  H18 UNL     1       4.095   0.170   0.927  1.00  0.00     0.162 HD
BRANCH  20  22
HETATM   22  C14 UNL     1       3.620   1.579  -0.591  1.00  0.00     0.032 A 
HETATM   23  C15 UNL     1       2.934   1.875  -1.735  1.00  0.00     0.032 A 
HETATM   24  C16 UNL     1       3.017   3.100  -2.358  1.00  0.00     0.046 A 
HETATM   25  C17 UNL     1       3.811   4.087  -1.837  1.00  0.00     0.138 A 
HETATM   26  F1  UNL     1       3.936   5.324  -2.408  1.00  0.00    -0.204 F 
HETATM   27  C18 UNL     1       4.530   3.854  -0.685  1.00  0.00     0.074 A 
HETATM   28 CL1  UNL     1       5.577   5.067   0.056  1.00  0.00    -0.081 Cl
HETATM   29  C19 UNL     1       4.409   2.593  -0.094  1.00  0.00     0.056 A 
ENDBRANCH  20  22
ENDBRANCH   1  20
TORSDOF 10
