REMARK  6 active torsions:
REMARK  status: ('A' for Active; 'I' for Inactive)
REMARK    1  A    between atoms: N1_1  and  B1_2 
REMARK    2  A    between atoms: B1_2  and  C1_3 
REMARK    3  A    between atoms: C3_5  and  N2_6 
REMARK    4  A    between atoms: N2_6  and  C4_7 
REMARK    5  A    between atoms: C4_7  and  C5_8 
REMARK    6  A    between atoms: O1_18  and  C14_19 
ROOT
HETATM    1  C5  UNL     1      -0.982  -0.378  -0.883  1.00  0.00     0.049 C 
HETATM    2  C6  UNL     1      -2.140  -1.125  -1.194  1.00  0.00     0.063 C 
HETATM    3  N3  UNL     1      -2.744  -2.491  -1.309  1.00  0.00    -0.388 N 
HETATM    4  C7  UNL     1      -4.177  -2.106  -1.180  1.00  0.00     0.132 C 
HETATM    5  C8  UNL     1      -4.120  -0.483  -1.412  1.00  0.00     0.010 A 
HETATM    6  C9  UNL     1      -3.553  -0.624  -2.965  1.00  0.00     0.068 A 
HETATM    7  C10 UNL     1      -3.564   0.701  -2.795  1.00  0.00    -0.037 A 
HETATM    8  C11 UNL     1      -3.650   2.097  -2.409  1.00  0.00     0.003 A 
HETATM    9  C12 UNL     1      -4.155   2.041  -1.062  1.00  0.00    -0.014 A 
HETATM   10  C13 UNL     1      -4.440   0.807  -0.418  1.00  0.00     0.014 A 
HETATM   11  O1  UNL     1      -4.269  -0.298  -0.969  1.00  0.00     0.000 OA
HETATM   12  C14 UNL     1      -2.799   0.062  -1.583  1.00  0.00     0.107 A 
HETATM   13  N4  UNL     1      -1.934   0.786  -0.873  1.00  0.00    -0.371 N 
HETATM   14  H8  UNL     1      -2.058  -3.259  -1.436  1.00  0.00     0.159 HD
HETATM   15  H14 UNL     1      -1.826   1.751  -0.431  1.00  0.00     0.161 HD
ENDROOT
BRANCH   1  16
HETATM   16  C4  UNL     1       0.432  -0.410  -0.474  1.00  0.00     0.178 C 
BRANCH  16  17
HETATM   17  N2  UNL     1       0.594   0.303   0.784  1.00  0.00    -0.384 N 
HETATM   18  H5  UNL     1      -0.233   0.739   1.248  1.00  0.00     0.160 HD
BRANCH  17  19
HETATM   19  C3  UNL     1       1.881   0.401   1.374  1.00  0.00     0.028 A 
HETATM   20  C2  UNL     1       2.972  -0.176   0.758  1.00  0.00     0.028 A 
HETATM   21  C1  UNL     1       4.221  -0.062   1.362  1.00  0.00    -0.043 A 
HETATM   22  C17 UNL     1       4.333   0.630   2.568  1.00  0.00     0.113 A 
HETATM   23  C16 UNL     1       3.256   1.207   3.188  1.00  0.00     0.044 A 
HETATM   24  F1  UNL     1       5.536   0.762   3.188  1.00  0.00    -0.207 F 
HETATM   25  C15 UNL     1       2.038   1.079   2.570  1.00  0.00     0.032 A 
BRANCH  21  26
HETATM   26  B1  UNL     1       5.494  -0.696   0.710  1.00  0.00     0.276 B 
HETATM   27  H3  UNL     1       5.359  -1.382  -0.220  1.00  0.00    -0.002 HD
BRANCH  26  28
HETATM   28  N1  UNL     1       6.858  -0.311   1.232  1.00  0.00    -0.378 NA
HETATM   29  H1  UNL     1       7.194  -1.045   1.905  1.00  0.00     0.100 HD
HETATM   30  H2  UNL     1       7.572  -0.294   0.470  1.00  0.00     0.100 HD
ENDBRANCH  26  28
ENDBRANCH  21  26
ENDBRANCH  17  19
ENDBRANCH  16  17
ENDBRANCH   1  16
TORSDOF 6
