REMARK  8 active torsions:
REMARK  status: ('A' for Active; 'I' for Inactive)
REMARK    1  A    between atoms: B1_1  and  C1_2 
REMARK    2  A    between atoms: C5_8  and  N3_9 
REMARK    3  A    between atoms: N3_9  and  C6_10 
REMARK    4  A    between atoms: C14_19  and  O1_20 
REMARK    5  A    between atoms: O1_20  and  C15_21 
REMARK    6  A    between atoms: C15_21  and  C16_22 
REMARK    7  A    between atoms: C16_22  and  C17_23 
REMARK    8  A    between atoms: C17_23  and  C18_24 
ROOT
HETATM    1  C1  UNL     1      -2.198  -2.946  -0.243  1.00  0.00    -0.074 A 
HETATM    2  C2  UNL     1      -1.001  -3.562   0.090  1.00  0.00     0.029 A 
HETATM    3  C3  UNL     1       0.152  -2.805   0.190  1.00  0.00     0.071 A 
HETATM    4  N1  UNL     1       1.304  -3.403   0.511  1.00  0.00    -0.241 NA
HETATM    5  C4  UNL     1       2.448  -2.701   0.618  1.00  0.00     0.236 A 
HETATM    6  N2  UNL     1       2.430  -1.354   0.396  1.00  0.00    -0.224 NA
HETATM    7  C5  UNL     1       1.260  -0.773   0.075  1.00  0.00     0.142 A 
HETATM    8  C12 UNL     1       0.068  -1.431  -0.049  1.00  0.00     0.041 A 
HETATM    9  C13 UNL     1      -1.105  -0.786  -0.382  1.00  0.00     0.054 A 
HETATM   10  C14 UNL     1      -2.247  -1.571  -0.476  1.00  0.00     0.064 A 
ENDROOT
BRANCH   7  11
HETATM   11  N3  UNL     1       1.345   0.631  -0.137  1.00  0.00    -0.338 N 
HETATM   12  H5  UNL     1       0.632   1.348  -0.392  1.00  0.00     0.167 HD
BRANCH  11  13
HETATM   13  C6  UNL     1       2.584   1.318  -0.009  1.00  0.00     0.072 A 
HETATM   14  C7  UNL     1       3.198   2.034  -1.024  1.00  0.00     0.033 A 
HETATM   15  C8  UNL     1       4.396   2.649  -0.754  1.00  0.00     0.002 A 
HETATM   16  C9  UNL     1       5.004   2.574   0.491  1.00  0.00     0.003 A 
HETATM   17  C10 UNL     1       4.364   1.847   1.491  1.00  0.00     0.044 A 
HETATM   18  C11 UNL     1       3.143   1.209   1.253  1.00  0.00     0.143 A 
HETATM   19  F1  UNL     1       2.579   0.521   2.272  1.00  0.00    -0.204 F 
ENDBRANCH  11  13
ENDBRANCH   7  11
BRANCH  10  20
HETATM   20  O1  UNL     1      -3.440  -1.009  -0.798  1.00  0.00    -0.350 OA
BRANCH  20  21
HETATM   21  C15 UNL     1      -3.701   0.343  -1.068  1.00  0.00     0.193 C 
BRANCH  21  22
HETATM   22  C16 UNL     1      -3.303   1.051   0.192  1.00  0.00     0.099 C 
BRANCH  22  23
HETATM   23  C17 UNL     1      -3.715   2.309   0.270  1.00  0.00    -0.136 C 
BRANCH  23  24
HETATM   24  C18 UNL     1      -3.985   3.599   0.115  1.00  0.00     0.135 C 
HETATM   25 CL1  UNL     1      -2.806   4.577  -0.708  1.00  0.00    -0.088 Cl
ENDBRANCH  23  24
ENDBRANCH  22  23
ENDBRANCH  21  22
ENDBRANCH  20  21
ENDBRANCH  10  20
BRANCH   1  26
HETATM   26  B1  UNL     1      -3.485  -3.799  -0.353  1.00  0.00     0.178 B 
HETATM   27  H1  UNL     1      -4.063  -4.217   0.587  1.00  0.00    -0.026 HD
HETATM   28  H2  UNL     1      -3.839  -4.125  -1.435  1.00  0.00    -0.026 HD
ENDBRANCH   1  26
TORSDOF 8
