REMARK  6 active torsions:
REMARK  status: ('A' for Active; 'I' for Inactive)
REMARK    1  A    between atoms: C3_3  and  O1_4 
REMARK    2  A    between atoms: O1_4  and  C4_5 
REMARK    3  A    between atoms: C5_6  and  O2_7 
REMARK    4  A    between atoms: C7_9  and  C8_10 
REMARK    5  A    between atoms: C10_14  and  N3_15 
REMARK    6  A    between atoms: N3_15  and  C11_16 
ROOT
HETATM    1  C1  UNL     1      -6.752  -3.465   0.524  1.00  0.00     0.014 C 
HETATM    2  C2  UNL     1      -6.170  -2.559  -0.019  1.00  0.00    -0.091 C 
HETATM    3  C3  UNL     1      -5.438  -1.443  -0.668  1.00  0.00     0.261 C 
ENDROOT
BRANCH   3   4
HETATM    4  O1  UNL     1      -4.489  -0.963   0.215  1.00  0.00    -0.363 OA
BRANCH   4   5
HETATM    5  C4  UNL     1      -3.750   0.099  -0.337  1.00  0.00     0.217 A 
HETATM    6  C5  UNL     1      -3.134   1.004   0.594  1.00  0.00     0.091 A 
HETATM    7  C7  UNL     1      -2.316   0.044  -0.055  1.00  0.00     0.039 A 
BRANCH   6   8
HETATM    8  O2  UNL     1      -3.604   2.029   1.381  1.00  0.00    -0.356 OA
HETATM    9  C6  UNL     1      -2.851   3.184   1.556  1.00  0.00     0.209 C 
ENDBRANCH   6   8
BRANCH   7  10
HETATM   10  C8  UNL     1      -0.944  -0.418  -0.142  1.00  0.00     0.079 A 
HETATM   11  N1  UNL     1      -0.853  -1.752  -0.262  1.00  0.00    -0.241 NA
HETATM   12  C9  UNL     1       0.339  -2.375  -0.356  1.00  0.00     0.236 A 
HETATM   13  N2  UNL     1       1.427  -1.604  -0.325  1.00  0.00    -0.224 NA
HETATM   14  C10 UNL     1       1.434  -0.272  -0.207  1.00  0.00     0.137 A 
HETATM   15  C17 UNL     1       0.193   0.356  -0.112  1.00  0.00     0.013 A 
HETATM   16  C18 UNL     1       0.018   1.801   0.017  1.00  0.00     0.055 C 
BRANCH  14  17
HETATM   17  N3  UNL     1       2.602   0.533  -0.172  1.00  0.00    -0.340 N 
HETATM   18  H9  UNL     1       2.470   1.574  -0.054  1.00  0.00     0.167 HD
BRANCH  17  19
HETATM   19  C11 UNL     1       3.926   0.110  -0.276  1.00  0.00     0.035 A 
HETATM   20  C12 UNL     1       4.381  -1.162  -0.548  1.00  0.00     0.032 A 
HETATM   21  C13 UNL     1       5.683  -1.548  -0.636  1.00  0.00     0.046 A 
HETATM   22  C14 UNL     1       6.677  -0.604  -0.442  1.00  0.00     0.138 A 
HETATM   23  F1  UNL     1       7.983  -0.932  -0.517  1.00  0.00    -0.204 F 
HETATM   24  C15 UNL     1       6.305   0.674  -0.170  1.00  0.00     0.074 A 
HETATM   25 CL1  UNL     1       7.552   1.865   0.077  1.00  0.00    -0.081 Cl
HETATM   26  C16 UNL     1       4.982   1.003  -0.093  1.00  0.00     0.056 A 
ENDBRANCH  17  19
ENDBRANCH  14  17
ENDBRANCH   7  10
ENDBRANCH   4   5
ENDBRANCH   3   4
TORSDOF 6
