REMARK  3 active torsions:
REMARK  status: ('A' for Active; 'I' for Inactive)
REMARK    1  A    between atoms: C3_3  and  O1_4 
REMARK    2  A    between atoms: O1_4  and  C4_5 
REMARK    3  A    between atoms: C17_22  and  O2_23 
ROOT
HETATM    1  C1  UNL     1       5.706   2.376   2.986  1.00  0.00     0.014 C 
HETATM    2  C2  UNL     1       5.161   1.719   2.126  1.00  0.00    -0.091 C 
HETATM    3  C3  UNL     1       4.473   0.928   1.084  1.00  0.00     0.268 C 
ENDROOT
BRANCH   3   4
HETATM    4  O1  UNL     1       3.204   0.576   1.564  1.00  0.00    -0.337 OA
BRANCH   4   5
HETATM    5  C4  UNL     1       2.275  -0.171   0.854  1.00  0.00     0.103 A 
HETATM    6  C5  UNL     1       1.034   0.343   0.884  1.00  0.00     0.051 A 
HETATM    7  C6  UNL     1      -0.039  -0.346   0.175  1.00  0.00    -0.006 A 
HETATM    8  C7  UNL     1      -1.259   0.182   0.220  1.00  0.00     0.134 A 
HETATM    9  C15 UNL     1       0.162  -1.604  -0.590  1.00  0.00     0.072 A 
HETATM   10  N1  UNL     1      -1.508   1.385   0.938  1.00  0.00    -0.242 NA
HETATM   11  N2  UNL     1      -2.354  -0.436  -0.448  1.00  0.00    -0.340 N 
HETATM   12  C8  UNL     1      -2.673   1.939   1.012  1.00  0.00     0.132 A 
HETATM   13  C9  UNL     1      -3.833   1.353   0.349  1.00  0.00     0.011 A 
HETATM   14  C10 UNL     1      -5.075   1.958   0.438  1.00  0.00     0.059 A 
HETATM   15  C14 UNL     1      -3.656   0.170  -0.373  1.00  0.00     0.047 A 
HETATM   16  C11 UNL     1      -6.166   1.400  -0.190  1.00  0.00     0.139 A 
HETATM   17  F1  UNL     1      -7.307   2.083  -0.026  1.00  0.00    -0.204 F 
HETATM   18  C12 UNL     1      -5.991   0.231  -0.904  1.00  0.00     0.074 A 
HETATM   19 CL1  UNL     1      -7.414  -0.431  -1.680  1.00  0.00    -0.081 Cl
HETATM   20  C13 UNL     1      -4.763  -0.373  -0.996  1.00  0.00     0.057 A 
HETATM   21  H8  UNL     1      -2.232  -1.320  -0.991  1.00  0.00     0.167 HD
HETATM   22  C16 UNL     1       1.590  -2.008  -0.504  1.00  0.00     0.017 A 
HETATM   23  C17 UNL     1       2.572  -1.401   0.130  1.00  0.00     0.098 A 
BRANCH  23  24
HETATM   24  O2  UNL     1       3.857  -1.871   0.139  1.00  0.00    -0.353 OA
HETATM   25  C18 UNL     1       4.566  -2.418  -0.938  1.00  0.00     0.210 C 
ENDBRANCH  23  24
ENDBRANCH   4   5
ENDBRANCH   3   4
TORSDOF 3
