REMARK  5 active torsions:
REMARK  status: ('A' for Active; 'I' for Inactive)
REMARK    1  A    between atoms: C3_3  and  C4_4 
REMARK    2  A    between atoms: C9_9  and  C10_10 
REMARK    3  A    between atoms: C10_10  and  O1_11 
REMARK    4  A    between atoms: C11_13  and  N2_14 
REMARK    5  A    between atoms: N2_14  and  C12_15 
ROOT
HETATM    1  C1  UNL     1      -4.491   2.613  -1.266  1.00  0.00     0.012 C 
HETATM    2  C2  UNL     1      -3.787   2.112  -0.424  1.00  0.00    -0.113 C 
HETATM    3  C3  UNL     1      -2.954   1.502   0.609  1.00  0.00     0.132 C 
ENDROOT
BRANCH   3   4
HETATM    4  C4  UNL     1      -2.204   0.376   0.015  1.00  0.00    -0.038 A 
HETATM    5  C5  UNL     1      -0.850   0.596  -0.257  1.00  0.00     0.026 A 
HETATM    6  C6  UNL     1      -0.066  -0.416  -0.819  1.00  0.00     0.039 A 
HETATM    7  C7  UNL     1      -0.710  -1.609  -1.076  1.00  0.00     0.073 A 
HETATM    8  C11 UNL     1       1.088  -0.888  -1.285  1.00  0.00     0.141 A 
HETATM    9  C8  UNL     1      -2.044  -1.847  -0.817  1.00  0.00     0.042 A 
HETATM   10  N1  UNL     1       0.396  -2.121  -1.544  1.00  0.00    -0.230 NA
HETATM   11  C9  UNL     1      -2.804  -0.832  -0.260  1.00  0.00    -0.025 A 
BRANCH  11  12
HETATM   12  C10 UNL     1      -4.230  -0.986   0.054  1.00  0.00     0.203 C 
BRANCH  12  13
HETATM   13  O1  UNL     1      -4.354  -1.149   1.438  1.00  0.00    -0.396 OA
HETATM   14  H8  UNL     1      -3.478  -1.271   1.879  1.00  0.00     0.209 HD
ENDBRANCH  12  13
ENDBRANCH  11  12
BRANCH   8  15
HETATM   15  N2  UNL     1       2.375  -0.298  -1.408  1.00  0.00    -0.340 N 
HETATM   16  H9  UNL     1       2.701   0.084  -2.313  1.00  0.00     0.167 HD
BRANCH  15  17
HETATM   17  C12 UNL     1       3.337  -0.152  -0.395  1.00  0.00     0.035 A 
HETATM   18  C13 UNL     1       4.279  -1.115  -0.144  1.00  0.00     0.032 A 
HETATM   19  C14 UNL     1       5.246  -1.004   0.848  1.00  0.00     0.046 A 
HETATM   20  C15 UNL     1       5.183   0.173   1.574  1.00  0.00     0.138 A 
HETATM   21  F1  UNL     1       6.110   0.329   2.559  1.00  0.00    -0.204 F 
HETATM   22  C16 UNL     1       4.252   1.159   1.350  1.00  0.00     0.074 A 
HETATM   23 CL1  UNL     1       4.222   2.640   2.308  1.00  0.00    -0.081 Cl
HETATM   24  C17 UNL     1       3.312   1.003   0.353  1.00  0.00     0.056 A 
ENDBRANCH  15  17
ENDBRANCH   8  15
ENDBRANCH   3   4
TORSDOF 5
