REMARK  7 active torsions:
REMARK  status: ('A' for Active; 'I' for Inactive)
REMARK    1  A    between atoms: C2_2  and  C3_3 
REMARK    2  A    between atoms: C4_4  and  C5_5 
REMARK    3  A    between atoms: C5_5  and  C6_6 
REMARK    4  A    between atoms: C11_11  and  O1_12 
REMARK    5  A    between atoms: N2_14  and  O2_15 
REMARK    6  A    between atoms: N3_16  and  C12_17 
REMARK    7  A    between atoms: C12_17  and  C14_19 
ROOT
HETATM    1  C6  UNL     1       1.090  -0.892  -0.268  1.00  0.00    -0.021 A 
HETATM    2  C7  UNL     1       0.444   0.274  -0.628  1.00  0.00     0.025 A 
HETATM    3  C8  UNL     1      -0.854   0.444  -0.218  1.00  0.00     0.013 A 
HETATM    4  C9  UNL     1      -1.485  -0.531   0.532  1.00  0.00     0.095 A 
HETATM    5  C10 UNL     1      -0.807  -1.702   0.882  1.00  0.00     0.071 A 
HETATM    6  C11 UNL     1       0.510  -1.900   0.480  1.00  0.00     0.074 A 
HETATM    7  N1  UNL     1      -2.713  -0.429   0.950  1.00  0.00    -0.128 NA
HETATM    8  N2  UNL     1      -3.394   0.742   0.602  1.00  0.00    -0.065 N 
HETATM    9  N3  UNL     1      -2.819   1.776  -0.158  1.00  0.00    -0.231 N 
HETATM   10  C15 UNL     1      -1.476   1.553  -0.557  1.00  0.00     0.134 A 
ENDROOT
BRANCH   1  11
HETATM   11  C5  UNL     1       2.507  -1.047  -0.729  1.00  0.00     0.068 C 
BRANCH  11  12
HETATM   12  C4  UNL     1       3.478  -0.809   0.364  1.00  0.00    -0.022 C 
HETATM   13  C3  UNL     1       4.353  -1.694   0.801  1.00  0.00    -0.008 C 
BRANCH  13  14
HETATM   14  C2  UNL     1       4.603  -3.063   0.372  1.00  0.00    -0.027 C 
HETATM   15  C1  UNL     1       5.450  -3.972   0.768  1.00  0.00     0.031 C 
ENDBRANCH  13  14
ENDBRANCH  11  12
ENDBRANCH   1  11
BRANCH   6  16
HETATM   16  O1  UNL     1       1.177  -3.064   0.831  1.00  0.00    -0.360 OA
HETATM   17  H10 UNL     1       1.739  -3.506   0.114  1.00  0.00     0.217 HD
ENDBRANCH   6  16
BRANCH   9  18
HETATM   18  C12 UNL     1      -3.490   2.975  -0.523  1.00  0.00     0.029 C 
HETATM   19  C13 UNL     1      -4.543   3.236   0.226  1.00  0.00     0.062 C 
BRANCH  18  20
HETATM   20  C14 UNL     1      -2.963   3.772  -1.657  1.00  0.00     0.169 C 
HETATM   21 CL1  UNL     1      -3.987   5.220  -1.906  1.00  0.00    -0.124 Cl
ENDBRANCH  18  20
ENDBRANCH   9  18
BRANCH   8  22
HETATM   22  O2  UNL     1      -4.660   0.877   1.017  1.00  0.00    -0.251 OA
HETATM   23  H11 UNL     1      -5.080  -0.022   1.175  1.00  0.00     0.248 HD
ENDBRANCH   8  22
TORSDOF 7
