REMARK  4 active torsions:
REMARK  status: ('A' for Active; 'I' for Inactive)
REMARK    1  A    between atoms: C3_3  and  C4_4 
REMARK    2  A    between atoms: C4_4  and  O1_5 
REMARK    3  A    between atoms: O1_5  and  C5_6 
REMARK    4  A    between atoms: C6_7  and  O2_8 
ROOT
HETATM    1  C1  UNL     1       3.934   2.386   2.138  1.00  0.00     0.091 C 
HETATM    2  C2  UNL     1       3.977   1.751   0.977  1.00  0.00    -0.174 C 
HETATM    3  C3  UNL     1       3.840   1.190  -0.209  1.00  0.00     0.092 C 
ENDROOT
BRANCH   3   4
HETATM    4  C4  UNL     1       2.482   1.015  -0.733  1.00  0.00     0.186 C 
BRANCH   4   5
HETATM    5  O1  UNL     1       1.712   0.391   0.251  1.00  0.00    -0.377 OA
BRANCH   5   6
HETATM    6  C5  UNL     1       0.427   0.170  -0.103  1.00  0.00     0.188 C 
HETATM    7  C6  UNL     1      -0.421   1.162   0.724  1.00  0.00     0.080 C 
HETATM    8  C7  UNL     1      -1.538   1.990   1.072  1.00  0.00     0.162 C 
HETATM    9  C8  UNL     1      -2.405   1.695  -0.106  1.00  0.00     0.047 A 
HETATM   10  C9  UNL     1      -2.538   0.617  -1.003  1.00  0.00     0.078 A 
HETATM   11  N2  UNL     1      -3.375   2.294  -0.812  1.00  0.00    -0.246 NA
HETATM   12  C10 UNL     1      -2.786  -0.318  -1.936  1.00  0.00     0.131 A 
HETATM   13  N1  UNL     1      -3.679   0.539  -2.373  1.00  0.00    -0.224 NA
HETATM   14  N3  UNL     1      -1.979  -1.451  -1.810  1.00  0.00    -0.340 N 
HETATM   15  C11 UNL     1      -3.992   1.753  -1.897  1.00  0.00     0.235 A 
HETATM   16  C12 UNL     1      -1.073  -1.803  -0.777  1.00  0.00     0.044 A 
HETATM   17  H11 UNL     1      -2.308  -1.840  -2.693  1.00  0.00     0.167 HD
HETATM   18  C13 UNL     1      -1.375  -3.134  -0.541  1.00  0.00     0.030 A 
HETATM   19  C17 UNL     1      -0.063  -1.196  -0.043  1.00  0.00     0.022 A 
HETATM   20  C14 UNL     1      -0.731  -3.946   0.401  1.00  0.00     0.004 A 
HETATM   21  C15 UNL     1       0.273  -3.335   1.126  1.00  0.00     0.024 A 
HETATM   22  C16 UNL     1       0.553  -2.016   0.873  1.00  0.00     0.045 A 
HETATM   23 CL1  UNL     1       1.864  -1.379   1.854  1.00  0.00    -0.084 Cl
BRANCH   7  24
HETATM   24  O2  UNL     1       0.686   1.143   1.647  1.00  0.00    -0.391 OA
HETATM   25  H7  UNL     1       1.025   2.048   1.951  1.00  0.00     0.210 HD
ENDBRANCH   7  24
ENDBRANCH   5   6
ENDBRANCH   4   5
ENDBRANCH   3   4
TORSDOF 4
