REMARK  6 active torsions:
REMARK  status: ('A' for Active; 'I' for Inactive)
REMARK    1  A    between atoms: C2_2  and  C3_3 
REMARK    2  A    between atoms: C3_3  and  C4_4 
REMARK    3  A    between atoms: C4_4  and  C5_5 
REMARK    4  A    between atoms: C5_5  and  C6_6 
REMARK    5  A    between atoms: C11_11  and  O1_12 
REMARK    6  A    between atoms: N3_16  and  C13_17 
ROOT
HETATM    1  C6  UNL     1       1.558   0.462  -0.137  1.00  0.00    -0.023 A 
HETATM    2  C7  UNL     1       0.228   0.242  -0.461  1.00  0.00     0.025 A 
HETATM    3  C8  UNL     1      -0.704   0.191   0.540  1.00  0.00     0.011 A 
HETATM    4  C9  UNL     1      -0.317   0.358   1.854  1.00  0.00     0.072 A 
HETATM    5  C10 UNL     1       1.005   0.577   2.185  1.00  0.00     0.069 A 
HETATM    6  C11 UNL     1       1.953   0.630   1.185  1.00  0.00     0.074 A 
HETATM    7  N1  UNL     1      -1.028   0.344   2.924  1.00  0.00    -0.239 NA
HETATM    8  C12 UNL     1      -2.413   0.157   3.119  1.00  0.00     0.256 A 
HETATM    9  N2  UNL     1      -3.308  -0.049   2.197  1.00  0.00    -0.161 NA
HETATM   10  N3  UNL     1      -3.106  -0.133   0.811  1.00  0.00    -0.245 N 
HETATM   11  C18 UNL     1      -1.909  -0.026   0.028  1.00  0.00     0.132 A 
ENDROOT
BRANCH  10  12
HETATM   12  C13 UNL     1      -4.265  -0.362   0.020  1.00  0.00     0.057 A 
HETATM   13  C14 UNL     1      -4.913   0.788  -0.128  1.00  0.00     0.029 A 
HETATM   14  C15 UNL     1      -6.097   0.542  -0.939  1.00  0.00    -0.000 A 
HETATM   15  C16 UNL     1      -6.152  -0.754  -1.270  1.00  0.00    -0.001 A 
HETATM   16  C17 UNL     1      -4.984  -1.436  -0.683  1.00  0.00     0.157 A 
HETATM   17 CL1  UNL     1      -5.574  -2.709   0.430  1.00  0.00    -0.114 Cl
ENDBRANCH  10  12
BRANCH   1  18
HETATM   18  C5  UNL     1       2.690   0.543  -1.128  1.00  0.00     0.059 C 
BRANCH  18  19
HETATM   19  C4  UNL     1       3.419  -0.708  -1.044  1.00  0.00     0.071 C 
BRANCH  19  20
HETATM   20  C3  UNL     1       4.700  -0.701  -0.711  1.00  0.00    -0.171 C 
BRANCH  20  21
HETATM   21  C2  UNL     1       5.987  -0.437  -0.520  1.00  0.00     0.062 C 
HETATM   22  C1  UNL     1       6.782  -0.189  -1.752  1.00  0.00     0.023 C 
ENDBRANCH  20  21
ENDBRANCH  19  20
ENDBRANCH  18  19
ENDBRANCH   1  18
BRANCH   6  23
HETATM   23  O1  UNL     1       3.268   0.852   1.552  1.00  0.00    -0.360 OA
HETATM   24  H10 UNL     1       3.729   1.744   1.538  1.00  0.00     0.217 HD
ENDBRANCH   6  23
TORSDOF 6
