REMARK  5 active torsions:
REMARK  status: ('A' for Active; 'I' for Inactive)
REMARK    1  A    between atoms: C2_2  and  C3_3 
REMARK    2  A    between atoms: C3_3  and  C4_4 
REMARK    3  A    between atoms: C5_5  and  O1_6 
REMARK    4  A    between atoms: C9_10  and  N1_11 
REMARK    5  A    between atoms: N1_11  and  C10_12 
ROOT
HETATM    1  C4  UNL     1      -1.135   0.612   0.048  1.00  0.00     0.093 C 
HETATM    2  C5  UNL     1      -1.784  -0.220  -1.145  1.00  0.00     0.075 C 
HETATM    3  C6  UNL     1      -1.763  -1.497  -0.654  1.00  0.00     0.044 C 
HETATM    4  C7  UNL     1      -2.192  -1.113   0.808  1.00  0.00     0.098 C 
HETATM    5  C8  UNL     1      -0.712  -0.636   0.805  1.00  0.00    -0.017 C 
HETATM    6  C9  UNL     1       0.281  -1.403   1.259  1.00  0.00     0.132 C 
HETATM    7  N2  UNL     1       0.105  -2.875   1.070  1.00  0.00    -0.226 NA
HETATM    8  C16 UNL     1      -0.310  -3.415  -0.101  1.00  0.00     0.209 C 
HETATM    9  N3  UNL     1      -1.330  -2.841  -1.046  1.00  0.00    -0.352 N 
HETATM   10  H14 UNL     1      -1.856  -3.001  -1.909  1.00  0.00     0.166 HD
ENDROOT
BRANCH   6  11
HETATM   11  N1  UNL     1       1.196  -0.441   1.729  1.00  0.00    -0.341 N 
HETATM   12  H8  UNL     1       1.118  -0.163   2.699  1.00  0.00     0.167 HD
BRANCH  11  13
HETATM   13  C10 UNL     1       2.150   0.050   0.787  1.00  0.00     0.035 A 
HETATM   14  C11 UNL     1       2.101  -0.440  -0.517  1.00  0.00     0.029 A 
HETATM   15  C12 UNL     1       3.040   0.044  -1.434  1.00  0.00     0.004 A 
HETATM   16  C13 UNL     1       3.987   0.981  -1.051  1.00  0.00     0.024 A 
HETATM   17  C14 UNL     1       4.042   1.471   0.240  1.00  0.00     0.036 A 
HETATM   18 CL1  UNL     1       5.200   2.651   0.808  1.00  0.00    -0.084 Cl
HETATM   19  C15 UNL     1       3.111   0.979   1.114  1.00  0.00     0.053 A 
ENDBRANCH  11  13
ENDBRANCH   6  11
BRANCH   1  20
HETATM   20  C3  UNL     1      -2.112   1.356   0.775  1.00  0.00     0.082 C 
BRANCH  20  21
HETATM   21  C2  UNL     1      -2.761   2.279   0.069  1.00  0.00    -0.175 C 
HETATM   22  C1  UNL     1      -3.106   3.329  -0.669  1.00  0.00     0.091 C 
ENDBRANCH  20  21
ENDBRANCH   1  20
BRANCH   2  23
HETATM   23  O1  UNL     1      -2.372  -0.376  -2.449  1.00  0.00    -0.362 OA
HETATM   24  H5  UNL     1      -2.561   0.460  -2.948  1.00  0.00     0.217 HD
ENDBRANCH   2  23
TORSDOF 5
