REMARK  2 active torsions:
REMARK  status: ('A' for Active; 'I' for Inactive)
REMARK    1  A    between atoms: C2_2  and  C3_3 
REMARK    2  A    between atoms: C8_10  and  C9_11 
ROOT
HETATM    1  C3  UNL     1       0.995   1.491   0.466  1.00  0.00     0.158 C 
HETATM    2  C4  UNL     1       0.009   0.762  -0.333  1.00  0.00     0.098 C 
HETATM    3  C5  UNL     1       0.167  -0.695  -0.333  1.00  0.00     0.004 A 
HETATM    4  C6  UNL     1       1.258  -1.532  -0.236  1.00  0.00     0.067 A 
HETATM    5  N1  UNL     1       1.087  -2.866  -0.239  1.00  0.00    -0.242 NA
HETATM    6  C7  UNL     1      -0.151  -3.365  -0.337  1.00  0.00     0.234 A 
HETATM    7  N2  UNL     1      -1.181  -2.535  -0.430  1.00  0.00    -0.241 NA
HETATM    8  C8  UNL     1      -1.109  -1.197  -0.435  1.00  0.00     0.077 A 
HETATM    9  C15 UNL     1       2.704  -1.418  -0.117  1.00  0.00     0.036 C 
HETATM   10  C16 UNL     1       3.535  -0.393  -0.017  1.00  0.00    -0.058 C 
HETATM   11  C17 UNL     1       4.950  -0.873   0.079  1.00  0.00     0.046 C 
HETATM   12  C18 UNL     1       3.455   1.066   0.024  1.00  0.00     0.204 C 
HETATM   13  O1  UNL     1       2.327   1.578   0.722  1.00  0.00    -0.360 OA
ENDROOT
BRANCH   8  14
HETATM   14  C9  UNL     1      -2.373  -0.492  -0.536  1.00  0.00    -0.005 A 
HETATM   15  C10 UNL     1      -2.850   0.520  -1.342  1.00  0.00     0.014 A 
HETATM   16  C11 UNL     1      -4.115   1.043  -1.227  1.00  0.00     0.003 A 
HETATM   17  C12 UNL     1      -5.001   0.580  -0.280  1.00  0.00     0.024 A 
HETATM   18  C13 UNL     1      -4.587  -0.431   0.558  1.00  0.00     0.035 A 
HETATM   19 CL1  UNL     1      -5.723  -1.010   1.755  1.00  0.00    -0.084 Cl
HETATM   20  C14 UNL     1      -3.312  -0.931   0.412  1.00  0.00     0.037 A 
ENDBRANCH   8  14
BRANCH   1  21
HETATM   21  C2  UNL     1       0.446   2.422   1.246  1.00  0.00    -0.140 C 
HETATM   22  C1  UNL     1      -0.218   3.449   1.754  1.00  0.00     0.094 C 
ENDBRANCH   1  21
TORSDOF 2
