REMARK  4 active torsions:
REMARK  status: ('A' for Active; 'I' for Inactive)
REMARK    1  A    between atoms: O1_1  and  C1_2 
REMARK    2  A    between atoms: C5_6  and  N1_7 
REMARK    3  A    between atoms: N1_7  and  C6_8 
REMARK    4  A    between atoms: C6_8  and  N2_9 
ROOT
HETATM    1  C1  UNL     1       4.716   2.005  -0.481  1.00  0.00     0.116 A 
HETATM    2  C2  UNL     1       3.429   2.257  -0.052  1.00  0.00     0.028 A 
HETATM    3  C3  UNL     1       2.255   1.388  -0.092  1.00  0.00     0.047 A 
HETATM    4  C4  UNL     1       2.059   0.017  -0.578  1.00  0.00     0.019 A 
HETATM    5  C5  UNL     1       1.017  -0.884  -0.664  1.00  0.00     0.135 A 
HETATM    6  N3  UNL     1       1.376  -2.029  -1.204  1.00  0.00    -0.224 NA
HETATM    7  C12 UNL     1       2.597  -2.350  -1.643  1.00  0.00     0.235 A 
HETATM    8  N4  UNL     1       3.643  -1.500  -1.579  1.00  0.00    -0.245 NA
HETATM    9  C13 UNL     1       3.412  -0.258  -1.033  1.00  0.00     0.060 A 
HETATM   10  C14 UNL     1       4.447   0.747  -0.905  1.00  0.00     0.075 A 
HETATM   11  O2  UNL     1       3.569   1.289  -0.468  1.00  0.00     0.000 OA
ENDROOT
BRANCH   5  12
HETATM   12  N1  UNL     1      -0.084  -0.237  -0.127  1.00  0.00    -0.358 N 
HETATM   13  H3  UNL     1      -0.304   0.660   0.281  1.00  0.00     0.162 HD
BRANCH  12  14
HETATM   14  C6  UNL     1      -1.184  -1.173  -0.212  1.00  0.00     0.247 C 
BRANCH  14  15
HETATM   15  N2  UNL     1      -2.436  -0.615   0.314  1.00  0.00    -0.369 N 
HETATM   16  C7  UNL     1      -2.457  -0.205   1.676  1.00  0.00     0.111 A 
HETATM   17  C8  UNL     1      -3.548   0.297   2.186  1.00  0.00     0.049 A 
HETATM   18 CL1  UNL     1      -3.670   0.826   3.839  1.00  0.00    -0.083 Cl
HETATM   19  C9  UNL     1      -4.772   0.452   1.387  1.00  0.00     0.023 A 
HETATM   20  C10 UNL     1      -4.741   0.065   0.117  1.00  0.00    -0.005 A 
HETATM   21  C11 UNL     1      -3.587  -0.516  -0.594  1.00  0.00     0.151 A 
ENDBRANCH  14  15
ENDBRANCH  12  14
ENDBRANCH   5  12
BRANCH   1  22
HETATM   22  O1  UNL     1       5.920   2.738  -0.503  1.00  0.00    -0.384 OA
HETATM   23  H1  UNL     1       6.655   2.778   0.142  1.00  0.00     0.210 HD
ENDBRANCH   1  22
TORSDOF 4
