REMARK  3 active torsions:
REMARK  status: ('A' for Active; 'I' for Inactive)
REMARK    1  A    between atoms: C3_3  and  O1_4 
REMARK    2  A    between atoms: O1_4  and  C4_5 
REMARK    3  A    between atoms: C7_8  and  O2_9 
ROOT
HETATM    1  C1  UNL     1      -6.363   0.358   1.180  1.00  0.00     0.014 C 
HETATM    2  C2  UNL     1      -5.875  -0.342   0.384  1.00  0.00    -0.091 C 
HETATM    3  C3  UNL     1      -5.239  -1.214  -0.612  1.00  0.00     0.268 C 
ENDROOT
BRANCH   3   4
HETATM    4  O1  UNL     1      -3.896  -1.339  -0.366  1.00  0.00    -0.339 OA
BRANCH   4   5
HETATM    5  C4  UNL     1      -2.875  -0.451  -0.348  1.00  0.00     0.075 A 
HETATM    6  C5  UNL     1      -3.232   0.806  -0.639  1.00  0.00     0.052 A 
HETATM    7  C6  UNL     1      -2.524   1.964  -0.739  1.00  0.00     0.013 A 
HETATM    8  C7  UNL     1      -2.007   3.150  -0.883  1.00  0.00     0.144 C 
HETATM    9  C8  UNL     1      -1.175   1.571  -0.449  1.00  0.00     0.053 A 
HETATM   10  C9  UNL     1      -0.766   0.271  -0.138  1.00  0.00     0.173 A 
HETATM   11  N3  UNL     1      -0.015   1.745  -0.343  1.00  0.00    -0.327 N 
HETATM   12  C10 UNL     1      -1.590  -0.810  -0.071  1.00  0.00    -0.016 A 
HETATM   13  C11 UNL     1      -1.236  -2.218   0.220  1.00  0.00     0.064 C 
HETATM   14  C12 UNL     1       0.159  -2.484  -0.210  1.00  0.00     0.119 A 
HETATM   15  C13 UNL     1       1.263  -2.921  -0.751  1.00  0.00     0.014 A 
HETATM   16 CL1  UNL     1       0.213  -4.041  -1.572  1.00  0.00    -0.176 Cl
HETATM   17  C14 UNL     1       2.675  -2.679  -0.826  1.00  0.00     0.017 C 
HETATM   18  C15 UNL     1       3.522  -1.803  -0.372  1.00  0.00     0.004 C 
HETATM   19  C16 UNL     1       3.177  -0.629   0.441  1.00  0.00     0.301 C 
HETATM   20  N1  UNL     1       4.033   0.519   0.113  1.00  0.00     0.106 N 
HETATM   21  C17 UNL     1       5.337   0.244   0.774  1.00  0.00     0.312 C 
HETATM   22  C18 UNL     1       3.499   1.744   0.602  1.00  0.00     0.421 C 
HETATM   23  N2  UNL     1       2.418   2.270  -0.196  1.00  0.00    -0.255 NA
HETATM   24  C19 UNL     1       1.226   1.990  -0.246  1.00  0.00     0.206 C 
BRANCH   8  25
HETATM   25  O2  UNL     1      -1.068   4.122  -0.898  1.00  0.00    -0.372 OA
HETATM   26  H6  UNL     1      -0.542   4.252  -0.014  1.00  0.00     0.216 HD
ENDBRANCH   8  25
ENDBRANCH   4   5
ENDBRANCH   3   4
TORSDOF 3
