REMARK  6 active torsions:
REMARK  status: ('A' for Active; 'I' for Inactive)
REMARK    1  A    between atoms: C3_3  and  O1_4 
REMARK    2  A    between atoms: O1_4  and  C4_5 
REMARK    3  A    between atoms: C7_8  and  N1_9 
REMARK    4  A    between atoms: N1_9  and  C8_10 
REMARK    5  A    between atoms: C12_14  and  C13_15 
REMARK    6  A    between atoms: C18_23  and  O2_24 
ROOT
HETATM    1  C1  UNL     1       0.154  -2.761   0.962  1.00  0.00     0.014 C 
HETATM    2  C2  UNL     1       1.143  -2.242   1.419  1.00  0.00    -0.091 C 
HETATM    3  C3  UNL     1       2.364  -1.597   1.966  1.00  0.00     0.268 C 
ENDROOT
BRANCH   3   4
HETATM    4  O1  UNL     1       2.007  -0.448   2.713  1.00  0.00    -0.337 OA
BRANCH   4   5
HETATM    5  C4  UNL     1       1.338   0.570   2.086  1.00  0.00     0.104 A 
HETATM    6  C5  UNL     1       0.975   0.603   0.765  1.00  0.00     0.057 A 
HETATM    7  C6  UNL     1       0.299   1.656   0.191  1.00  0.00     0.042 A 
HETATM    8  C7  UNL     1      -0.046   1.649  -1.144  1.00  0.00     0.142 A 
HETATM    9  C16 UNL     1      -0.036   2.748   0.982  1.00  0.00     0.075 A 
HETATM   10  N2  UNL     1      -0.713   2.702  -1.711  1.00  0.00    -0.224 NA
HETATM   11  C15 UNL     1      -1.028   3.763  -0.904  1.00  0.00     0.236 A 
HETATM   12  N3  UNL     1      -0.684   3.743   0.383  1.00  0.00    -0.241 NA
HETATM   13  C17 UNL     1       0.332   2.711   2.310  1.00  0.00     0.072 A 
HETATM   14  C18 UNL     1       1.018   1.646   2.899  1.00  0.00     0.103 A 
BRANCH   8  15
HETATM   15  N1  UNL     1       0.251   0.558  -1.988  1.00  0.00    -0.340 N 
HETATM   16  H5  UNL     1       1.227   0.909  -2.240  1.00  0.00     0.167 HD
BRANCH  15  17
HETATM   17  C8  UNL     1      -0.089  -0.647  -2.594  1.00  0.00     0.034 A 
HETATM   18  C9  UNL     1       0.730  -1.369  -3.421  1.00  0.00     0.029 A 
HETATM   19  C10 UNL     1       0.155  -2.516  -3.893  1.00  0.00     0.003 A 
HETATM   20  C11 UNL     1      -1.111  -2.982  -3.620  1.00  0.00     0.008 A 
HETATM   21  C12 UNL     1      -1.933  -2.228  -2.770  1.00  0.00    -0.042 A 
HETATM   22  C14 UNL     1      -1.378  -1.055  -2.274  1.00  0.00     0.037 A 
BRANCH  21  23
HETATM   23  C13 UNL     1      -3.295  -2.671  -2.442  1.00  0.00     0.153 C 
HETATM   24 CL1  UNL     1      -3.258  -3.706  -0.972  1.00  0.00    -0.126 Cl
ENDBRANCH  21  23
ENDBRANCH  15  17
ENDBRANCH   8  15
BRANCH  14  25
HETATM   25  O2  UNL     1       1.353   1.688   4.252  1.00  0.00    -0.353 OA
HETATM   26  C19 UNL     1       1.036   2.729   5.108  1.00  0.00     0.210 C 
ENDBRANCH  14  25
ENDBRANCH   4   5
ENDBRANCH   3   4
TORSDOF 6
