REMARK  6 active torsions:
REMARK  status: ('A' for Active; 'I' for Inactive)
REMARK    1  A    between atoms: C3_3  and  O1_4 
REMARK    2  A    between atoms: O1_4  and  C4_5 
REMARK    3  A    between atoms: C4_5  and  C5_6 
REMARK    4  A    between atoms: C8_9  and  C9_10 
REMARK    5  A    between atoms: C13_15  and  N1_16 
REMARK    6  A    between atoms: C17_22  and  O2_23 
ROOT
HETATM    1  C1  UNL     1       4.863   3.084   0.284  1.00  0.00     0.014 C 
HETATM    2  C2  UNL     1       4.019   2.340  -0.135  1.00  0.00    -0.091 C 
HETATM    3  C3  UNL     1       2.987   1.424  -0.622  1.00  0.00     0.260 C 
ENDROOT
BRANCH   3   4
HETATM    4  O1  UNL     1       3.522   0.311  -1.235  1.00  0.00    -0.375 OA
BRANCH   4   5
HETATM    5  C4  UNL     1       2.611  -0.593  -1.720  1.00  0.00     0.210 C 
BRANCH   5   6
HETATM    6  C5  UNL     1       1.743  -1.126  -0.648  1.00  0.00    -0.000 A 
HETATM    7  C6  UNL     1       0.442  -0.746  -0.437  1.00  0.00     0.028 A 
HETATM    8  C7  UNL     1      -0.384  -1.213   0.535  1.00  0.00     0.023 A 
HETATM    9  C8  UNL     1      -1.650  -0.690   0.596  1.00  0.00     0.079 A 
HETATM   10  C15 UNL     1       0.186  -2.149   1.363  1.00  0.00     0.073 A 
HETATM   11  N2  UNL     1      -2.357  -1.204   1.624  1.00  0.00    -0.241 NA
HETATM   12  C14 UNL     1      -1.868  -2.102   2.452  1.00  0.00     0.234 A 
HETATM   13  N3  UNL     1      -0.622  -2.588   2.351  1.00  0.00    -0.241 NA
HETATM   14  C16 UNL     1       1.484  -2.581   1.217  1.00  0.00     0.069 A 
HETATM   15  C17 UNL     1       2.300  -2.080   0.205  1.00  0.00     0.076 A 
BRANCH   9  16
HETATM   16  C9  UNL     1      -2.343   0.198  -0.327  1.00  0.00     0.009 A 
HETATM   17  C10 UNL     1      -2.250   0.666  -1.545  1.00  0.00     0.013 A 
HETATM   18  C11 UNL     1      -3.258   1.571  -1.988  1.00  0.00     0.023 A 
HETATM   19  C12 UNL     1      -4.048   1.673  -0.943  1.00  0.00     0.049 A 
HETATM   20 CL1  UNL     1      -5.525   2.613  -0.708  1.00  0.00    -0.086 Cl
HETATM   21  C13 UNL     1      -3.591   0.885   0.173  1.00  0.00     0.297 A 
BRANCH  21  22
HETATM   22  N1  UNL     1      -3.169   1.662   1.322  1.00  0.00     0.092 N 
HETATM   23  H10 UNL     1      -3.921   2.270   1.704  1.00  0.00     0.314 HD
HETATM   24  H11 UNL     1      -2.280   2.179   1.144  1.00  0.00     0.314 HD
ENDBRANCH  21  22
ENDBRANCH   9  16
BRANCH  15  25
HETATM   25  O2  UNL     1       3.603  -2.542   0.092  1.00  0.00    -0.360 OA
HETATM   26  H14 UNL     1       3.802  -3.306  -0.523  1.00  0.00     0.217 HD
ENDBRANCH  15  25
ENDBRANCH   5   6
ENDBRANCH   4   5
ENDBRANCH   3   4
TORSDOF 6
