REMARK  5 active torsions:
REMARK  status: ('A' for Active; 'I' for Inactive)
REMARK    1  A    between atoms: C3_3  and  O1_4 
REMARK    2  A    between atoms: O1_4  and  C4_5 
REMARK    3  A    between atoms: C7_8  and  N1_9 
REMARK    4  A    between atoms: N1_9  and  C8_10 
REMARK    5  A    between atoms: C15_20  and  O2_21 
ROOT
HETATM    1  C1  UNL     1      -4.834   3.178  -0.094  1.00  0.00     0.014 C 
HETATM    2  C2  UNL     1      -3.646   3.040   0.079  1.00  0.00    -0.091 C 
HETATM    3  C3  UNL     1      -2.176   2.848   0.309  1.00  0.00     0.268 C 
ENDROOT
BRANCH   3   4
HETATM    4  O1  UNL     1      -1.786   1.604   0.216  1.00  0.00    -0.337 OA
BRANCH   4   5
HETATM    5  C4  UNL     1      -1.367   0.414   0.136  1.00  0.00     0.104 A 
HETATM    6  C5  UNL     1      -0.012   0.126   0.339  1.00  0.00     0.057 A 
HETATM    7  C6  UNL     1       0.489  -1.157   0.262  1.00  0.00     0.042 A 
HETATM    8  C7  UNL     1       1.830  -1.393   0.472  1.00  0.00     0.141 A 
HETATM    9  C13 UNL     1      -0.404  -2.164  -0.028  1.00  0.00     0.075 A 
HETATM   10  N3  UNL     1       2.223  -2.683   0.378  1.00  0.00    -0.224 NA
HETATM   11  C12 UNL     1       1.348  -3.674   0.095  1.00  0.00     0.236 A 
HETATM   12  N4  UNL     1       0.043  -3.415  -0.107  1.00  0.00    -0.241 NA
HETATM   13  C14 UNL     1      -1.752  -1.961  -0.240  1.00  0.00     0.072 A 
HETATM   14  C15 UNL     1      -2.220  -0.653  -0.154  1.00  0.00     0.103 A 
BRANCH   8  15
HETATM   15  N1  UNL     1       2.761  -0.363   0.768  1.00  0.00    -0.344 N 
HETATM   16  H5  UNL     1       2.698  -0.280   1.822  1.00  0.00     0.167 HD
BRANCH  15  17
HETATM   17  C8  UNL     1       3.654   0.483   0.058  1.00  0.00     0.017 C 
HETATM   18  C9  UNL     1       4.594  -0.194  -0.878  1.00  0.00     0.069 C 
HETATM   19  C10 UNL     1       3.655   1.793   0.215  1.00  0.00     0.118 C 
HETATM   20  C11 UNL     1       4.592   2.565  -0.546  1.00  0.00     0.089 C 
HETATM   21  N2  UNL     1       5.350   3.175  -1.174  1.00  0.00    -0.192 NA
ENDBRANCH  15  17
ENDBRANCH   8  15
BRANCH  14  22
HETATM   22  O2  UNL     1      -3.557  -0.354  -0.352  1.00  0.00    -0.353 OA
HETATM   23  C16 UNL     1      -4.572  -1.258  -0.649  1.00  0.00     0.210 C 
ENDBRANCH  14  22
ENDBRANCH   4   5
ENDBRANCH   3   4
TORSDOF 5
