REMARK  7 active torsions:
REMARK  status: ('A' for Active; 'I' for Inactive)
REMARK    1  A    between atoms: C2_2  and  C3_4 
REMARK    2  A    between atoms: C3_4  and  C4_5 
REMARK    3  A    between atoms: C4_5  and  C5_6 
REMARK    4  A    between atoms: C5_6  and  C6_7 
REMARK    5  A    between atoms: C6_7  and  C7_8 
REMARK    6  A    between atoms: C7_8  and  O1_9 
REMARK    7  A    between atoms: O1_9  and  C8_10 
ROOT
HETATM    1  C8  UNL     1      -1.116  -0.301   0.654  1.00  0.00     0.284 C 
HETATM    2  C9  UNL     1      -1.257  -0.576   2.078  1.00  0.00     0.031 C 
HETATM    3  C10 UNL     1      -2.212  -0.240   2.871  1.00  0.00    -0.003 C 
HETATM    4  C11 UNL     1      -3.206   0.078   3.818  1.00  0.00     0.258 C 
HETATM    5  N1  UNL     1      -4.143   0.816   3.215  1.00  0.00    -0.294 NA
HETATM    6  C12 UNL     1      -4.014   1.129   1.852  1.00  0.00     0.193 C 
HETATM    7  N2  UNL     1      -4.998   0.427   1.324  1.00  0.00    -0.152 NA
HETATM    8  N3  UNL     1      -5.244   0.420  -0.083  1.00  0.00    -0.164 NA
HETATM    9  C13 UNL     1      -4.299   0.406  -0.928  1.00  0.00     0.140 C 
HETATM   10  C14 UNL     1      -2.845   0.396  -0.555  1.00  0.00     0.220 C 
HETATM   11  O2  UNL     1      -2.430  -0.713   0.061  1.00  0.00    -0.353 OA
ENDROOT
BRANCH   1  12
HETATM   12  O1  UNL     1      -0.154  -0.884  -0.028  1.00  0.00    -0.357 OA
BRANCH  12  13
HETATM   13  C7  UNL     1       0.449  -0.402  -1.062  1.00  0.00     0.176 C 
BRANCH  13  14
HETATM   14  C6  UNL     1       1.120   0.905  -1.096  1.00  0.00     0.036 C 
BRANCH  14  15
HETATM   15  C5  UNL     1       2.480   0.857  -1.381  1.00  0.00    -0.027 C 
BRANCH  15  16
HETATM   16  C4  UNL     1       4.027   0.922  -1.699  1.00  0.00     0.016 C 
BRANCH  16  17
HETATM   17  C3  UNL     1       4.586  -0.344  -1.763  1.00  0.00     0.022 C 
BRANCH  17  18
HETATM   18  C2  UNL     1       5.958  -0.034  -2.081  1.00  0.00     0.059 A 
HETATM   19  C1  UNL     1       6.147  -1.436  -2.045  1.00  0.00     0.125 A 
HETATM   20 CL1  UNL     1       7.477  -0.736  -2.490  1.00  0.00    -0.208 Cl
ENDBRANCH  17  18
ENDBRANCH  16  17
ENDBRANCH  15  16
ENDBRANCH  14  15
ENDBRANCH  13  14
ENDBRANCH  12  13
ENDBRANCH   1  12
TORSDOF 7
