REMARK  6 active torsions:
REMARK  status: ('A' for Active; 'I' for Inactive)
REMARK    1  A    between atoms: C2_3  and  C3_4 
REMARK    2  A    between atoms: C3_4  and  O1_5 
REMARK    3  A    between atoms: O1_5  and  C4_6 
REMARK    4  A    between atoms: C9_11  and  O2_12 
REMARK    5  A    between atoms: C15_20  and  N2_21 
REMARK    6  A    between atoms: C16_22  and  N3_23 
ROOT
HETATM    1  C1  UNL     1       7.646   3.019  -1.172  1.00  0.00     0.018 C 
HETATM    2  S1  UNL     1       5.765   2.508  -0.930  1.00  0.00    -0.022 SA
HETATM    3  C2  UNL     1       4.077   2.048  -0.744  1.00  0.00    -0.074 C 
ENDROOT
BRANCH   3   4
HETATM    4  C3  UNL     1       2.695   1.672  -0.617  1.00  0.00     0.269 C 
BRANCH   4   5
HETATM    5  O1  UNL     1       2.677   0.368  -0.017  1.00  0.00    -0.337 OA
BRANCH   5   6
HETATM    6  C4  UNL     1       1.421  -0.183   0.195  1.00  0.00     0.104 A 
HETATM    7  C5  UNL     1       0.276   0.532  -0.172  1.00  0.00     0.055 A 
HETATM    8  C6  UNL     1      -0.956  -0.047   0.054  1.00  0.00     0.024 A 
HETATM    9  C7  UNL     1      -1.117  -1.281   0.617  1.00  0.00    -0.010 A 
HETATM   10  C15 UNL     1      -2.012   0.666  -0.309  1.00  0.00     0.140 A 
HETATM   11  C8  UNL     1       0.039  -1.956   0.966  1.00  0.00     0.052 A 
HETATM   12  C11 UNL     1      -2.280  -1.845   0.838  1.00  0.00    -0.013 A 
HETATM   13  C9  UNL     1       1.297  -1.445   0.772  1.00  0.00     0.102 A 
HETATM   14  C12 UNL     1      -3.074  -2.981   1.335  1.00  0.00     0.095 A 
HETATM   15  C14 UNL     1      -3.483  -1.100   0.456  1.00  0.00     0.059 A 
HETATM   16  C13 UNL     1      -4.203  -2.119   0.901  1.00  0.00     0.043 A 
HETATM   17 CL1  UNL     1      -5.948  -2.386   0.966  1.00  0.00    -0.086 Cl
HETATM   18  N1  UNL     1      -3.350   0.191  -0.135  1.00  0.00    -0.339 N 
HETATM   19  H11 UNL     1      -4.182   0.751  -0.420  1.00  0.00     0.167 HD
BRANCH  13  20
HETATM   20  O2  UNL     1       2.480  -2.088   1.107  1.00  0.00    -0.353 OA
HETATM   21  C10 UNL     1       2.430  -3.354   1.688  1.00  0.00     0.210 C 
ENDBRANCH  13  20
BRANCH  10  22
HETATM   22  N2  UNL     1      -1.881   1.952  -0.897  1.00  0.00    -0.226 NA
HETATM   23  C16 UNL     1      -2.643   2.873  -0.474  1.00  0.00     0.202 C 
BRANCH  23  24
HETATM   24  N3  UNL     1      -2.392   4.092  -1.155  1.00  0.00    -0.394 N 
HETATM   25  H13 UNL     1      -1.467   4.500  -1.395  1.00  0.00     0.156 HD
HETATM   26  H14 UNL     1      -2.940   4.867  -1.579  1.00  0.00     0.156 HD
ENDBRANCH  23  24
ENDBRANCH  10  22
ENDBRANCH   5   6
ENDBRANCH   4   5
ENDBRANCH   3   4
TORSDOF 6
