REMARK  5 active torsions:
REMARK  status: ('A' for Active; 'I' for Inactive)
REMARK    1  A    between atoms: C2_2  and  N1_3 
REMARK    2  A    between atoms: N1_3  and  C3_5 
REMARK    3  A    between atoms: C6_8  and  C7_9 
REMARK       I    between atoms: C7_9  and  N2_11 
REMARK    4  A    between atoms: N2_11  and  C8_12 
REMARK    5  A    between atoms: C11_15  and  O2_16 
ROOT
HETATM    1  C7  UNL     1       0.345   0.528  -0.038  1.00  0.00     0.256 C 
HETATM    2  O1  UNL     1       0.794   1.676   0.156  1.00  0.00    -0.267 OA
HETATM    3  N2  UNL     1       1.332  -0.443  -0.258  1.00  0.00    -0.323 N 
HETATM    4  H8  UNL     1       1.127  -1.448  -0.436  1.00  0.00     0.169 HD
ENDROOT
BRANCH   1   5
HETATM    5  C6  UNL     1      -1.069   0.174  -0.047  1.00  0.00     0.032 A 
HETATM    6  C5  UNL     1      -1.570  -1.092  -0.262  1.00  0.00     0.019 A 
HETATM    7  C4  UNL     1      -2.918  -1.374  -0.260  1.00  0.00     0.031 A 
HETATM    8  C3  UNL     1      -3.781  -0.322  -0.030  1.00  0.00     0.045 A 
HETATM    9  C16 UNL     1      -3.354   0.971   0.192  1.00  0.00     0.031 A 
HETATM   10  C15 UNL     1      -1.990   1.177   0.176  1.00  0.00     0.019 A 
BRANCH   8  11
HETATM   11  N1  UNL     1      -5.179  -0.583  -0.023  1.00  0.00    -0.291 N 
HETATM   12 CL1  UNL     1      -5.804  -2.182  -0.294  1.00  0.00     0.013 Cl
BRANCH  11  13
HETATM   13  C2  UNL     1      -6.310   0.289   0.184  1.00  0.00     0.139 C 
HETATM   14  C1  UNL     1      -7.157  -0.124   1.381  1.00  0.00     0.028 C 
ENDBRANCH  11  13
ENDBRANCH   8  11
ENDBRANCH   1   5
BRANCH   3  15
HETATM   15  C8  UNL     1       2.748  -0.322  -0.292  1.00  0.00     0.035 A 
HETATM   16  C9  UNL     1       3.613  -0.453   0.773  1.00  0.00     0.032 A 
HETATM   17  C10 UNL     1       4.967  -0.308   0.589  1.00  0.00     0.039 A 
HETATM   18  C11 UNL     1       5.535  -0.031  -0.636  1.00  0.00     0.068 A 
HETATM   19  C13 UNL     1       4.639   0.097  -1.702  1.00  0.00     0.039 A 
HETATM   20  C14 UNL     1       3.261  -0.043  -1.549  1.00  0.00     0.032 A 
BRANCH  18  21
HETATM   21  O2  UNL     1       6.861   0.132  -0.930  1.00  0.00    -0.356 OA
HETATM   22  C12 UNL     1       7.844   0.026   0.054  1.00  0.00     0.210 C 
ENDBRANCH  18  21
ENDBRANCH   3  15
TORSDOF 5
