REMARK  6 active torsions:
REMARK  status: ('A' for Active; 'I' for Inactive)
REMARK    1  A    between atoms: O1_2  and  C2_3 
REMARK    2  A    between atoms: C5_6  and  N1_7 
REMARK       I    between atoms: N1_7  and  C6_8 
REMARK    3  A    between atoms: C6_8  and  C7_10 
REMARK    4  A    between atoms: C10_13  and  N2_14 
REMARK    5  A    between atoms: N2_14  and  C11_15 
REMARK    6  A    between atoms: N2_14  and  C12_17 
ROOT
HETATM    1  N1  UNL     1       1.169  -0.256  -0.434  1.00  0.00    -0.323 N 
HETATM    2  C6  UNL     1       0.333  -0.026   0.694  1.00  0.00     0.256 C 
HETATM    3  O2  UNL     1       0.905   0.108   1.817  1.00  0.00    -0.267 OA
HETATM    4  H6  UNL     1       0.801  -0.380  -1.403  1.00  0.00     0.169 HD
ENDROOT
BRANCH   2   5
HETATM    5  C7  UNL     1      -1.117   0.046   0.532  1.00  0.00     0.032 A 
HETATM    6  C8  UNL     1      -1.824  -0.088  -0.644  1.00  0.00     0.019 A 
HETATM    7  C9  UNL     1      -3.195   0.002  -0.659  1.00  0.00     0.030 A 
HETATM    8  C10 UNL     1      -3.942   0.230   0.499  1.00  0.00     0.032 A 
HETATM    9  C13 UNL     1      -3.266   0.368   1.693  1.00  0.00     0.030 A 
HETATM   10  C14 UNL     1      -1.869   0.274   1.690  1.00  0.00     0.019 A 
BRANCH   8  11
HETATM   11  N2  UNL     1      -5.349   0.318   0.460  1.00  0.00    -0.355 N 
BRANCH  11  12
HETATM   12  C11 UNL     1      -6.151   0.552   1.631  1.00  0.00     0.239 C 
HETATM   13 CL1  UNL     1      -5.957  -0.708   2.870  1.00  0.00    -0.109 Cl
ENDBRANCH  11  12
BRANCH  11  14
HETATM   14  C12 UNL     1      -6.022   0.164  -0.839  1.00  0.00     0.239 C 
HETATM   15 CL2  UNL     1      -7.783   0.308  -0.669  1.00  0.00    -0.109 Cl
ENDBRANCH  11  14
ENDBRANCH   8  11
ENDBRANCH   2   5
BRANCH   1  16
HETATM   16  C5  UNL     1       2.589  -0.355  -0.459  1.00  0.00     0.035 A 
HETATM   17  C4  UNL     1       3.350   0.766  -0.651  1.00  0.00     0.032 A 
HETATM   18  C3  UNL     1       4.728   0.715  -0.682  1.00  0.00     0.039 A 
HETATM   19  C2  UNL     1       5.358  -0.501  -0.515  1.00  0.00     0.068 A 
HETATM   20  C16 UNL     1       4.593  -1.654  -0.319  1.00  0.00     0.039 A 
HETATM   21  C15 UNL     1       3.202  -1.601  -0.288  1.00  0.00     0.032 A 
BRANCH  19  22
HETATM   22  O1  UNL     1       6.707  -0.824  -0.505  1.00  0.00    -0.356 OA
HETATM   23  C1  UNL     1       7.648   0.213  -0.688  1.00  0.00     0.210 C 
ENDBRANCH  19  22
ENDBRANCH   1  16
TORSDOF 6
