REMARK  8 active torsions:
REMARK  status: ('A' for Active; 'I' for Inactive)
REMARK    1  A    between atoms: C6_6  and  N1_7 
REMARK    2  A    between atoms: N1_7  and  C7_8 
REMARK    3  A    between atoms: C7_8  and  O1_9 
REMARK    4  A    between atoms: C7_8  and  C8_10 
REMARK    5  A    between atoms: C11_13  and  N2_14 
REMARK    6  A    between atoms: N2_14  and  C12_15 
REMARK    7  A    between atoms: C12_15  and  C13_16 
REMARK    8  A    between atoms: C12_15  and  C14_18 
ROOT
HETATM    1  C8  UNL     1      -0.396   0.409   0.100  1.00  0.00    -0.010 A 
HETATM    2  C9  UNL     1      -0.063  -0.427  -0.932  1.00  0.00     0.014 A 
HETATM    3  C10 UNL     1       1.222  -0.808  -1.207  1.00  0.00     0.030 A 
HETATM    4  C11 UNL     1       2.258  -0.339  -0.418  1.00  0.00     0.028 A 
HETATM    5  C15 UNL     1       1.917   0.502   0.620  1.00  0.00     0.030 A 
HETATM    6  C16 UNL     1       0.622   0.887   0.898  1.00  0.00     0.014 A 
ENDROOT
BRANCH   1   7
HETATM    7  C7  UNL     1      -1.811   0.752   0.302  1.00  0.00     0.252 C 
BRANCH   7   8
HETATM    8  N1  UNL     1      -2.712  -0.373   0.218  1.00  0.00    -0.359 N 
HETATM    9  H6  UNL     1      -2.463  -1.323  -0.127  1.00  0.00     0.162 HD
BRANCH   8  10
HETATM   10  C6  UNL     1      -4.030  -0.064   0.667  1.00  0.00     0.039 A 
HETATM   11  C2  UNL     1      -5.269  -0.279  -0.039  1.00  0.00    -0.019 A 
HETATM   12  C1  UNL     1      -5.447  -0.805  -1.241  1.00  0.00     0.025 C 
HETATM   13  C3  UNL     1      -6.378   0.181   0.783  1.00  0.00     0.013 A 
HETATM   14  C4  UNL     1      -5.846   0.639   1.900  1.00  0.00     0.003 A 
HETATM   15  C5  UNL     1      -4.396   0.491   1.834  1.00  0.00     0.030 A 
ENDBRANCH   8  10
ENDBRANCH   7   8
BRANCH   7  16
HETATM   16  O1  UNL     1      -2.223   1.831  -0.457  1.00  0.00    -0.373 OA
HETATM   17  H8  UNL     1      -1.530   2.239  -1.021  1.00  0.00     0.212 HD
ENDBRANCH   7  16
ENDBRANCH   1   7
BRANCH   4  18
HETATM   18  N2  UNL     1       3.615  -0.690  -0.616  1.00  0.00    -0.383 N 
HETATM   19  H11 UNL     1       3.747  -1.378  -1.416  1.00  0.00     0.160 HD
BRANCH  18  20
HETATM   20  C12 UNL     1       4.846  -0.316   0.030  1.00  0.00     0.109 C 
BRANCH  20  21
HETATM   21  C13 UNL     1       5.202   1.116  -0.210  1.00  0.00     0.140 C 
HETATM   22 CL1  UNL     1       5.393   1.391  -1.965  1.00  0.00    -0.128 Cl
ENDBRANCH  20  21
BRANCH  20  23
HETATM   23  C14 UNL     1       6.009  -1.156  -0.418  1.00  0.00     0.140 C 
HETATM   24 CL2  UNL     1       6.302  -1.030  -2.151  1.00  0.00    -0.128 Cl
ENDBRANCH  20  23
ENDBRANCH  18  20
ENDBRANCH   4  18
TORSDOF 8
