REMARK  6 active torsions:
REMARK  status: ('A' for Active; 'I' for Inactive)
REMARK       I    between atoms: N1_5  and  C5_6 
REMARK    1  A    between atoms: C5_6  and  C6_8 
REMARK    2  A    between atoms: C9_11  and  N2_12 
REMARK    3  A    between atoms: N2_12  and  C10_13 
REMARK    4  A    between atoms: N2_12  and  C12_16 
REMARK    5  A    between atoms: C10_13  and  C11_14 
REMARK    6  A    between atoms: C12_16  and  C13_17 
ROOT
HETATM    1  C6  UNL     1       0.267   0.882  -0.544  1.00  0.00     0.032 A 
HETATM    2  C7  UNL     1      -0.641   1.761   0.016  1.00  0.00     0.019 A 
HETATM    3  C8  UNL     1      -1.897   1.280   0.299  1.00  0.00     0.030 A 
HETATM    4  C9  UNL     1      -2.386   0.009   0.095  1.00  0.00     0.030 A 
HETATM    5  C14 UNL     1      -1.421  -0.792  -0.465  1.00  0.00     0.030 A 
HETATM    6  C15 UNL     1      -0.138  -0.433  -0.791  1.00  0.00     0.019 A 
ENDROOT
BRANCH   1   7
HETATM    7  C5  UNL     1       1.614   1.375  -0.855  1.00  0.00     0.254 C 
HETATM    8  N1  UNL     1       2.733   0.746  -0.194  1.00  0.00    -0.344 N 
HETATM    9  C4  UNL     1       2.803  -0.325   0.777  1.00  0.00     0.153 C 
HETATM   10  C16 UNL     1       3.969   1.343  -0.649  1.00  0.00     0.130 C 
HETATM   11  C3  UNL     1       3.993  -1.174   0.394  1.00  0.00    -0.005 C 
HETATM   12  C2  UNL     1       5.163  -0.588   0.132  1.00  0.00    -0.084 C 
HETATM   13  C1  UNL     1       6.422  -1.252  -0.254  1.00  0.00     0.043 C 
HETATM   14  C17 UNL     1       5.111   0.915   0.269  1.00  0.00     0.053 C 
HETATM   15  O1  UNL     1       1.590   2.321  -1.697  1.00  0.00    -0.267 OA
ENDBRANCH   1   7
BRANCH   4  16
HETATM   16  N2  UNL     1      -3.719  -0.458   0.420  1.00  0.00    -0.379 N 
BRANCH  16  17
HETATM   17  C10 UNL     1      -4.410   0.660   1.029  1.00  0.00     0.138 C 
BRANCH  17  18
HETATM   18  C11 UNL     1      -5.174   1.450   0.033  1.00  0.00     0.134 C 
HETATM   19 CL1  UNL     1      -6.035   2.846   0.774  1.00  0.00    -0.129 Cl
ENDBRANCH  17  18
ENDBRANCH  16  17
BRANCH  16  20
HETATM   20  C12 UNL     1      -4.061  -1.784   0.056  1.00  0.00     0.138 C 
BRANCH  20  21
HETATM   21  C13 UNL     1      -5.020  -2.122  -1.003  1.00  0.00     0.134 C 
HETATM   22 CL2  UNL     1      -6.704  -1.708  -0.755  1.00  0.00    -0.129 Cl
ENDBRANCH  20  21
ENDBRANCH  16  20
ENDBRANCH   4  16
TORSDOF 6
