REMARK  9 active torsions:
REMARK  status: ('A' for Active; 'I' for Inactive)
REMARK    1  A    between atoms: C3_3  and  C4_4 
REMARK    2  A    between atoms: C3_3  and  N2_16 
REMARK    3  A    between atoms: C4_4  and  C5_5 
REMARK    4  A    between atoms: C5_5  and  C6_6 
REMARK       I    between atoms: C6_6  and  N1_8 
REMARK    5  A    between atoms: N1_8  and  C7_9 
REMARK    6  A    between atoms: N2_16  and  C14_17 
REMARK    7  A    between atoms: N2_16  and  C16_20 
REMARK    8  A    between atoms: C14_17  and  C15_18 
REMARK    9  A    between atoms: C16_20  and  C17_21 
ROOT
HETATM    1  C5  UNL     1      -0.106  -0.466   0.273  1.00  0.00     0.109 C 
ENDROOT
BRANCH   1   2
HETATM    2  C4  UNL     1      -0.895   0.553   1.031  1.00  0.00     0.066 C 
BRANCH   2   3
HETATM    3  C3  UNL     1      -2.337   0.222   1.191  1.00  0.00     0.003 C 
HETATM    4  C2  UNL     1      -2.841   0.086   2.429  1.00  0.00    -0.006 C 
HETATM    5  C1  UNL     1      -4.228  -0.237   2.834  1.00  0.00     0.038 C 
BRANCH   3   6
HETATM    6  N2  UNL     1      -3.236   0.040   0.106  1.00  0.00    -0.382 N 
BRANCH   6   7
HETATM    7  C14 UNL     1      -4.236   1.029  -0.225  1.00  0.00     0.137 C 
BRANCH   7   8
HETATM    8  C15 UNL     1      -3.980   1.729  -1.547  1.00  0.00     0.134 C 
HETATM    9 CL1  UNL     1      -5.274   2.937  -1.871  1.00  0.00    -0.129 Cl
ENDBRANCH   7   8
ENDBRANCH   6   7
BRANCH   6  10
HETATM   10  C16 UNL     1      -3.285  -1.107  -0.787  1.00  0.00     0.137 C 
BRANCH  10  11
HETATM   11  C17 UNL     1      -4.537  -1.924  -0.606  1.00  0.00     0.134 C 
HETATM   12 CL2  UNL     1      -4.495  -3.304  -1.745  1.00  0.00    -0.129 Cl
ENDBRANCH  10  11
ENDBRANCH   6  10
ENDBRANCH   3   6
ENDBRANCH   2   3
ENDBRANCH   1   2
BRANCH   1  13
HETATM   13  C6  UNL     1       1.336  -0.034   0.176  1.00  0.00     0.222 C 
HETATM   14  O1  UNL     1       1.699   1.061   0.718  1.00  0.00    -0.273 OA
HETATM   15  N1  UNL     1       2.272  -0.854  -0.518  1.00  0.00    -0.327 N 
HETATM   16  H9  UNL     1       1.924  -1.754  -0.952  1.00  0.00     0.169 HD
BRANCH  15  17
HETATM   17  C7  UNL     1       3.627  -0.425  -0.593  1.00  0.00     0.034 A 
HETATM   18  C8  UNL     1       4.140   0.375  -1.593  1.00  0.00     0.030 A 
HETATM   19  C9  UNL     1       5.442   0.787  -1.666  1.00  0.00     0.009 A 
HETATM   20  C10 UNL     1       6.317   0.377  -0.670  1.00  0.00    -0.062 A 
HETATM   21  C11 UNL     1       7.754   0.772  -0.662  1.00  0.00     0.048 C 
HETATM   22  C12 UNL     1       5.853  -0.420   0.348  1.00  0.00     0.009 A 
HETATM   23  C13 UNL     1       4.541  -0.800   0.369  1.00  0.00     0.030 A 
ENDBRANCH  15  17
ENDBRANCH   1  13
TORSDOF 9
