REMARK  7 active torsions:
REMARK  status: ('A' for Active; 'I' for Inactive)
REMARK    1  A    between atoms: N1_4  and  C4_5 
REMARK    2  A    between atoms: C4_5  and  C5_6 
REMARK    3  A    between atoms: C4_5  and  C7_9 
REMARK    4  A    between atoms: C5_6  and  C6_7 
REMARK    5  A    between atoms: C10_12  and  N2_13 
REMARK    6  A    between atoms: N2_13  and  C11_14 
REMARK    7  A    between atoms: C11_14  and  C12_15 
ROOT
HETATM    1  C7  UNL     1       0.203  -0.346  -0.038  1.00  0.00    -0.035 A 
HETATM    2  C8  UNL     1       1.088  -0.405  -1.131  1.00  0.00     0.011 A 
HETATM    3  C9  UNL     1       2.464  -0.335  -1.097  1.00  0.00     0.029 A 
HETATM    4  C10 UNL     1       3.046  -0.191   0.143  1.00  0.00     0.028 A 
HETATM    5  C13 UNL     1       2.271  -0.123   1.281  1.00  0.00     0.029 A 
HETATM    6  C14 UNL     1       0.904  -0.203   1.139  1.00  0.00     0.011 A 
ENDROOT
BRANCH   1   7
HETATM    7  C4  UNL     1      -1.239  -0.448  -0.222  1.00  0.00     0.118 C 
BRANCH   7   8
HETATM    8  N1  UNL     1      -2.047   0.562   0.379  1.00  0.00    -0.377 N 
HETATM    9  C3  UNL     1      -3.405   0.458  -0.113  1.00  0.00     0.093 A 
HETATM   10  C2  UNL     1      -4.426   1.258   0.154  1.00  0.00    -0.047 A 
HETATM   11  C1  UNL     1      -5.825   1.156  -0.353  1.00  0.00     0.049 C 
HETATM   12  C17 UNL     1      -4.207   2.387   1.083  1.00  0.00     0.006 A 
HETATM   13  C16 UNL     1      -2.969   2.426   1.530  1.00  0.00    -0.007 A 
HETATM   14  C15 UNL     1      -1.762   1.593   1.311  1.00  0.00     0.150 A 
ENDBRANCH   7   8
BRANCH   7  15
HETATM   15  C5  UNL     1      -1.799  -1.794   0.193  1.00  0.00     0.045 C 
BRANCH  15  16
HETATM   16  C6  UNL     1      -0.937  -2.888  -0.445  1.00  0.00     0.117 C 
HETATM   17 CL1  UNL     1      -1.551  -4.488   0.009  1.00  0.00    -0.130 Cl
ENDBRANCH  15  16
ENDBRANCH   7  15
ENDBRANCH   1   7
BRANCH   4  18
HETATM   18  N2  UNL     1       4.451  -0.113   0.236  1.00  0.00    -0.389 N 
HETATM   19  H12 UNL     1       4.931  -0.005   1.150  1.00  0.00     0.159 HD
BRANCH  18  20
HETATM   20  C11 UNL     1       5.255  -0.187  -0.985  1.00  0.00     0.135 C 
BRANCH  20  21
HETATM   21  C12 UNL     1       6.741  -0.083  -0.641  1.00  0.00     0.134 C 
HETATM   22 CL2  UNL     1       6.998   1.466   0.159  1.00  0.00    -0.129 Cl
ENDBRANCH  20  21
ENDBRANCH  18  20
ENDBRANCH   4  18
TORSDOF 7
