REMARK  6 active torsions:
REMARK  status: ('A' for Active; 'I' for Inactive)
REMARK    1  A    between atoms: C2_2  and  N1_3 
REMARK    2  A    between atoms: N1_3  and  C3_4 
REMARK    3  A    between atoms: N1_3  and  C5_7 
REMARK    4  A    between atoms: C3_4  and  C4_5 
REMARK    5  A    between atoms: C8_11  and  N2_12 
REMARK    6  A    between atoms: C14_18  and  O1_19 
ROOT
HETATM    1  C5  UNL     1      -1.882  -0.395  -0.364  1.00  0.00     0.029 C 
HETATM    2  C6  UNL     1      -1.749  -0.867  -1.588  1.00  0.00     0.030 C 
HETATM    3  C7  UNL     1      -0.589  -1.430  -2.261  1.00  0.00     0.016 C 
HETATM    4  P1  UNL     1       0.887  -1.815  -1.605  1.00  0.00    -0.031 P 
HETATM    5  C8  UNL     1       1.251  -1.544   0.215  1.00  0.00     0.146 C 
HETATM    6  C15 UNL     1       0.267  -0.726   0.917  1.00  0.00     0.006 C 
HETATM    7  C16 UNL     1      -0.928  -0.272   0.727  1.00  0.00     0.027 C 
ENDROOT
BRANCH   5   8
HETATM    8  N2  UNL     1       2.505  -0.812   0.177  1.00  0.00    -0.348 N 
HETATM    9  C9  UNL     1       2.502   0.473  -0.478  1.00  0.00     0.090 A 
HETATM   10  C10 UNL     1       3.617   1.180  -0.544  1.00  0.00     0.023 A 
HETATM   11  C11 UNL     1       4.880   0.722   0.023  1.00  0.00    -0.060 A 
HETATM   12  C12 UNL     1       6.126   1.507  -0.048  1.00  0.00     0.048 C 
HETATM   13  C13 UNL     1       4.823  -0.462   0.612  1.00  0.00     0.033 A 
HETATM   14  C14 UNL     1       3.687  -1.387   0.783  1.00  0.00     0.245 A 
BRANCH  14  15
HETATM   15  O1  UNL     1       3.939  -2.584   0.088  1.00  0.00    -0.373 OA
HETATM   16  H20 UNL     1       3.864  -2.342  -0.882  1.00  0.00     0.212 HD
ENDBRANCH  14  15
ENDBRANCH   5   8
BRANCH   1  17
HETATM   17  N1  UNL     1      -3.157   0.103   0.035  1.00  0.00    -0.380 N 
BRANCH  17  18
HETATM   18  C2  UNL     1      -4.075  -0.411   1.018  1.00  0.00     0.118 C 
HETATM   19  C1  UNL     1      -4.218   0.469   2.232  1.00  0.00     0.026 C 
ENDBRANCH  17  18
BRANCH  17  20
HETATM   20  C3  UNL     1      -3.725   1.280  -0.541  1.00  0.00     0.138 C 
BRANCH  20  21
HETATM   21  C4  UNL     1      -4.940   1.073  -1.380  1.00  0.00     0.134 C 
HETATM   22 CL1  UNL     1      -5.474   2.676  -1.994  1.00  0.00    -0.129 Cl
ENDBRANCH  20  21
ENDBRANCH  17  20
ENDBRANCH   1  17
TORSDOF 6
