REMARK  7 active torsions:
REMARK  status: ('A' for Active; 'I' for Inactive)
REMARK    1  A    between atoms: C5_5  and  N1_6 
REMARK    2  A    between atoms: N1_6  and  C6_7 
REMARK    3  A    between atoms: C6_7  and  C7_8 
REMARK    4  A    between atoms: C6_7  and  C8_10 
REMARK    5  A    between atoms: C11_13  and  N2_14 
REMARK    6  A    between atoms: N2_14  and  C13_16 
REMARK    7  A    between atoms: C13_16  and  C14_17 
ROOT
HETATM    1  C6  UNL     1       0.940  -1.067  -0.459  1.00  0.00     0.128 C 
ENDROOT
BRANCH   1   2
HETATM    2  N1  UNL     1       1.773  -0.202   0.324  1.00  0.00    -0.380 N 
HETATM    3  H6  UNL     1       1.248   0.293   1.107  1.00  0.00     0.160 HD
BRANCH   2   4
HETATM    4  C5  UNL     1       3.153   0.116   0.256  1.00  0.00     0.028 A 
HETATM    5  C4  UNL     1       3.769   0.969   1.173  1.00  0.00     0.029 A 
HETATM    6  C3  UNL     1       5.109   1.248   1.034  1.00  0.00     0.009 A 
HETATM    7  C2  UNL     1       5.889   0.726   0.026  1.00  0.00    -0.062 A 
HETATM    8  C1  UNL     1       7.328   1.074  -0.059  1.00  0.00     0.048 C 
HETATM    9  C18 UNL     1       5.299  -0.119  -0.890  1.00  0.00     0.009 A 
HETATM   10  C17 UNL     1       3.955  -0.393  -0.743  1.00  0.00     0.029 A 
ENDBRANCH   2   4
ENDBRANCH   1   2
BRANCH   1  11
HETATM   11  C7  UNL     1       1.326  -2.496  -0.167  1.00  0.00     0.144 C 
HETATM   12 CL1  UNL     1       1.060  -2.764   1.575  1.00  0.00    -0.128 Cl
ENDBRANCH   1  11
BRANCH   1  13
HETATM   13  C8  UNL     1      -0.493  -0.861  -0.234  1.00  0.00    -0.034 A 
HETATM   14  C9  UNL     1      -0.882   0.462  -0.239  1.00  0.00     0.011 A 
HETATM   15  C10 UNL     1      -2.211   0.839  -0.044  1.00  0.00     0.030 A 
HETATM   16  C11 UNL     1      -3.213  -0.078   0.165  1.00  0.00     0.029 A 
HETATM   17  C15 UNL     1      -2.814  -1.397   0.168  1.00  0.00     0.030 A 
HETATM   18  C16 UNL     1      -1.507  -1.772  -0.024  1.00  0.00     0.011 A 
BRANCH  16  19
HETATM   19  N2  UNL     1      -4.587   0.228   0.359  1.00  0.00    -0.384 N 
HETATM   20  C12 UNL     1      -5.551  -0.854   0.589  1.00  0.00     0.149 C 
BRANCH  19  21
HETATM   21  C13 UNL     1      -5.174   1.549   0.342  1.00  0.00     0.137 C 
BRANCH  21  22
HETATM   22  C14 UNL     1      -6.050   1.814  -0.852  1.00  0.00     0.134 C 
HETATM   23 CL2  UNL     1      -7.419   0.723  -0.995  1.00  0.00    -0.129 Cl
ENDBRANCH  21  22
ENDBRANCH  19  21
ENDBRANCH  16  19
ENDBRANCH   1  13
TORSDOF 7
