REMARK  4 active torsions:
REMARK  status: ('A' for Active; 'I' for Inactive)
REMARK    1  A    between atoms: C2_2  and  N1_3 
REMARK    2  A    between atoms: N1_3  and  C3_4 
REMARK    3  A    between atoms: N1_3  and  C5_7 
REMARK    4  A    between atoms: C3_4  and  C4_5 
ROOT
HETATM    1  C5  UNL     1      -0.161   0.276   0.096  1.00  0.00     0.035 A 
HETATM    2  C6  UNL     1       0.077  -0.890   0.610  1.00  0.00     0.083 A 
HETATM    3  C7  UNL     1      -0.097  -1.701   1.788  1.00  0.00     0.008 A 
HETATM    4  C8  UNL     1       0.337  -2.957   1.908  1.00  0.00     0.017 A 
HETATM    5  C9  UNL     1       1.004  -3.388   0.688  1.00  0.00     0.206 A 
HETATM    6  O1  UNL     1       1.118  -2.672  -0.259  1.00  0.00     0.000 OA
HETATM    7  N2  UNL     1       1.685  -3.986  -0.406  1.00  0.00     0.168 N 
HETATM    8  C10 UNL     1       1.846  -3.204  -1.530  1.00  0.00     0.259 A 
HETATM    9  C11 UNL     1       1.992  -2.549  -2.483  1.00  0.00    -0.109 A 
HETATM   10  C12 UNL     1       2.162  -1.743  -3.629  1.00  0.00     0.069 A 
HETATM   11  C13 UNL     1       1.558  -0.713  -3.128  1.00  0.00     0.030 A 
HETATM   12  C14 UNL     1       0.869   0.213  -2.327  1.00  0.00     0.023 A 
HETATM   13  C15 UNL     1       0.268   0.633  -1.270  1.00  0.00     0.056 A 
HETATM   14 CL2  UNL     1      -0.229   2.335  -1.638  1.00  0.00    -0.082 Cl
HETATM   15  H13 UNL     1       2.063  -4.958  -0.438  1.00  0.00     0.332 HD
ENDROOT
BRANCH   1  16
HETATM   16  N1  UNL     1      -0.862   1.414   0.724  1.00  0.00    -0.382 N 
BRANCH  16  17
HETATM   17  C2  UNL     1      -0.111   2.074   1.756  1.00  0.00     0.118 C 
HETATM   18  C1  UNL     1       0.325   3.460   1.414  1.00  0.00     0.026 C 
ENDBRANCH  16  17
BRANCH  16  19
HETATM   19  C3  UNL     1      -2.193   1.875   0.381  1.00  0.00     0.137 C 
BRANCH  19  20
HETATM   20  C4  UNL     1      -3.207   1.628   1.481  1.00  0.00     0.134 C 
HETATM   21 CL1  UNL     1      -3.390  -0.073   1.890  1.00  0.00    -0.129 Cl
ENDBRANCH  19  20
ENDBRANCH  16  19
ENDBRANCH   1  16
TORSDOF 4
