REMARK  7 active torsions:
REMARK  status: ('A' for Active; 'I' for Inactive)
REMARK    1  A    between atoms: N1_2  and  C2_3 
REMARK    2  A    between atoms: N1_2  and  C14_18 
REMARK    3  A    between atoms: C2_3  and  C3_4 
REMARK    4  A    between atoms: C4_5  and  C5_6 
REMARK    5  A    between atoms: C6_7  and  C7_8 
REMARK       I    between atoms: C7_8  and  N2_10 
REMARK    6  A    between atoms: N2_10  and  C8_11 
REMARK    7  A    between atoms: C14_18  and  C15_19 
ROOT
HETATM    1  C7  UNL     1       2.654  -0.867  -0.863  1.00  0.00     0.301 C 
HETATM    2  O1  UNL     1       3.077  -1.521  -1.863  1.00  0.00    -0.258 OA
HETATM    3  N2  UNL     1       3.513  -0.152   0.015  1.00  0.00    -0.314 N 
HETATM    4  H8  UNL     1       3.153   0.383   0.839  1.00  0.00     0.170 HD
ENDROOT
BRANCH   1   5
HETATM    5  C6  UNL     1       1.243  -0.795  -0.530  1.00  0.00    -0.001 C 
HETATM    6  C5  UNL     1       0.065  -0.737  -0.269  1.00  0.00    -0.069 C 
BRANCH   6   7
HETATM    7  C4  UNL     1      -1.358  -0.653   0.026  1.00  0.00     0.062 C 
HETATM    8  C3  UNL     1      -2.168   0.145  -0.653  1.00  0.00     0.001 C 
BRANCH   8   9
HETATM    9  C2  UNL     1      -3.595   0.543  -0.712  1.00  0.00     0.144 C 
BRANCH   9  10
HETATM   10  N1  UNL     1      -4.321  -0.167   0.281  1.00  0.00    -0.412 N 
HETATM   11  C1  UNL     1      -4.484  -1.564   0.088  1.00  0.00     0.143 C 
BRANCH  10  12
HETATM   12  C14 UNL     1      -5.397   0.526   0.906  1.00  0.00     0.131 C 
BRANCH  12  13
HETATM   13  C15 UNL     1      -6.656   0.627   0.103  1.00  0.00     0.134 C 
HETATM   14 CL1  UNL     1      -7.845   1.535   1.096  1.00  0.00    -0.129 Cl
ENDBRANCH  12  13
ENDBRANCH  10  12
ENDBRANCH   9  10
ENDBRANCH   8   9
ENDBRANCH   6   7
ENDBRANCH   1   5
BRANCH   3  15
HETATM   15  C8  UNL     1       4.912   0.106   0.151  1.00  0.00     0.074 A 
HETATM   16  C9  UNL     1       5.698  -0.735   0.899  1.00  0.00     0.033 A 
HETATM   17  C10 UNL     1       7.053  -0.438   1.003  1.00  0.00     0.002 A 
HETATM   18  C11 UNL     1       7.602   0.670   0.372  1.00  0.00     0.003 A 
HETATM   19  C12 UNL     1       6.790   1.491  -0.370  1.00  0.00     0.044 A 
HETATM   20  C13 UNL     1       5.446   1.206  -0.478  1.00  0.00     0.143 A 
HETATM   21  F1  UNL     1       4.643   2.028  -1.213  1.00  0.00    -0.204 F 
ENDBRANCH   3  15
TORSDOF 7
