REMARK  7 active torsions:
REMARK  status: ('A' for Active; 'I' for Inactive)
REMARK    1  A    between atoms: C2_2  and  N1_3 
REMARK    2  A    between atoms: N1_3  and  C3_4 
REMARK    3  A    between atoms: N1_3  and  C5_7 
REMARK    4  A    between atoms: C3_4  and  C4_5 
REMARK    5  A    between atoms: C10_13  and  N2_14 
REMARK    6  A    between atoms: N2_14  and  O1_15 
REMARK    7  A    between atoms: N2_14  and  C11_16 
ROOT
HETATM    1  C5  UNL     1      -0.881  -1.185   0.538  1.00  0.00     0.061 A 
HETATM    2  C6  UNL     1      -1.875  -1.868   1.234  1.00  0.00     0.055 A 
HETATM    3  C7  UNL     1      -1.569  -3.118   1.771  1.00  0.00     0.036 A 
HETATM    4 CL2  UNL     1      -2.757  -4.064   2.670  1.00  0.00    -0.084 Cl
HETATM    5  C8  UNL     1      -0.329  -3.706   1.642  1.00  0.00     0.026 A 
HETATM    6  C9  UNL     1       0.611  -2.980   0.942  1.00  0.00     0.036 A 
HETATM    7  C10 UNL     1       0.369  -1.740   0.389  1.00  0.00     0.089 A 
ENDROOT
BRANCH   7   8
HETATM    8  N2  UNL     1       1.326  -1.014  -0.358  1.00  0.00    -0.223 N 
BRANCH   8   9
HETATM    9  O1  UNL     1       1.508  -1.849  -1.436  1.00  0.00    -0.282 OA
HETATM   10  H13 UNL     1       2.294  -2.447  -1.310  1.00  0.00     0.245 HD
ENDBRANCH   8   9
BRANCH   8  11
HETATM   11  C11 UNL     1       2.063   0.194  -0.316  1.00  0.00     0.063 A 
HETATM   12  C12 UNL     1       2.631   0.641  -1.486  1.00  0.00     0.032 A 
HETATM   13  C13 UNL     1       3.364   1.804  -1.439  1.00  0.00     0.002 A 
HETATM   14  C14 UNL     1       3.528   2.498  -0.271  1.00  0.00     0.000 A 
HETATM   15  C15 UNL     1       2.984   2.099   0.928  1.00  0.00     0.002 A 
HETATM   16  C16 UNL     1       2.258   0.930   0.831  1.00  0.00     0.032 A 
ENDBRANCH   8  11
ENDBRANCH   7   8
BRANCH   1  17
HETATM   17  N1  UNL     1      -1.395   0.076   0.084  1.00  0.00    -0.378 N 
BRANCH  17  18
HETATM   18  C2  UNL     1      -1.176   1.461   0.525  1.00  0.00     0.118 C 
HETATM   19  C1  UNL     1      -2.448   2.056   1.104  1.00  0.00     0.026 C 
ENDBRANCH  17  18
BRANCH  17  20
HETATM   20  C3  UNL     1      -2.302   0.054  -1.059  1.00  0.00     0.138 C 
BRANCH  20  21
HETATM   21  C4  UNL     1      -1.688   0.654  -2.304  1.00  0.00     0.134 C 
HETATM   22 CL1  UNL     1      -2.916   0.540  -3.596  1.00  0.00    -0.129 Cl
ENDBRANCH  20  21
ENDBRANCH  17  20
ENDBRANCH   1  17
TORSDOF 7
