REMARK  8 active torsions:
REMARK  status: ('A' for Active; 'I' for Inactive)
REMARK    1  A    between atoms: O1_1  and  C1_2 
REMARK    2  A    between atoms: C1_2  and  C2_3 
REMARK    3  A    between atoms: C1_2  and  N2_16 
REMARK    4  A    between atoms: C5_6  and  N1_7 
REMARK    5  A    between atoms: N1_7  and  C6_8 
REMARK    6  A    between atoms: N1_7  and  C8_11 
REMARK    7  A    between atoms: C6_8  and  C7_9 
REMARK    8  A    between atoms: C8_11  and  C9_12 
ROOT
HETATM    1  C2  UNL     1       1.230  -0.831   0.343  1.00  0.00    -0.010 A 
HETATM    2  C3  UNL     1       0.615  -0.138   1.370  1.00  0.00     0.014 A 
HETATM    3  C4  UNL     1      -0.735   0.057   1.310  1.00  0.00     0.030 A 
HETATM    4  C5  UNL     1      -1.595  -0.364   0.322  1.00  0.00     0.030 A 
HETATM    5  C10 UNL     1      -0.941  -1.048  -0.677  1.00  0.00     0.030 A 
HETATM    6  C11 UNL     1       0.416  -1.288  -0.695  1.00  0.00     0.014 A 
ENDROOT
BRANCH   1   7
HETATM    7  C1  UNL     1       2.688  -1.096   0.330  1.00  0.00     0.255 C 
BRANCH   7   8
HETATM    8  O1  UNL     1       3.164  -1.524   1.592  1.00  0.00    -0.372 OA
HETATM    9  H1  UNL     1       2.728  -2.411   1.745  1.00  0.00     0.212 HD
ENDBRANCH   7   8
BRANCH   7  10
HETATM   10  N2  UNL     1       3.486  -0.020  -0.197  1.00  0.00    -0.339 N 
HETATM   11  C12 UNL     1       3.661   1.197   0.507  1.00  0.00     0.090 A 
HETATM   12  C13 UNL     1       4.395   2.228   0.072  1.00  0.00     0.017 A 
HETATM   13  C14 UNL     1       5.035   2.025  -1.222  1.00  0.00     0.001 A 
HETATM   14  C15 UNL     1       4.923   0.913  -1.952  1.00  0.00     0.014 A 
HETATM   15  C16 UNL     1       4.121  -0.215  -1.483  1.00  0.00     0.207 A 
HETATM   16 CL3  UNL     1       5.178  -1.649  -1.272  1.00  0.00    -0.098 Cl
ENDBRANCH   7  10
ENDBRANCH   1   7
BRANCH   4  17
HETATM   17  N1  UNL     1      -3.011  -0.125   0.286  1.00  0.00    -0.379 N 
BRANCH  17  18
HETATM   18  C6  UNL     1      -3.779  -0.683  -0.788  1.00  0.00     0.138 C 
BRANCH  18  19
HETATM   19  C7  UNL     1      -4.289   0.248  -1.826  1.00  0.00     0.134 C 
HETATM   20 CL1  UNL     1      -5.407   1.425  -1.150  1.00  0.00    -0.129 Cl
ENDBRANCH  18  19
ENDBRANCH  17  18
BRANCH  17  21
HETATM   21  C8  UNL     1      -3.667   0.684   1.287  1.00  0.00     0.138 C 
BRANCH  21  22
HETATM   22  C9  UNL     1      -4.618  -0.170   2.120  1.00  0.00     0.134 C 
HETATM   23 CL2  UNL     1      -5.371   0.945   3.314  1.00  0.00    -0.129 Cl
ENDBRANCH  21  22
ENDBRANCH  17  21
ENDBRANCH   4  17
TORSDOF 8
