REMARK  8 active torsions:
REMARK  status: ('A' for Active; 'I' for Inactive)
REMARK    1  A    between atoms: C5_5  and  N1_6 
REMARK       I    between atoms: N1_6  and  C6_7 
REMARK    2  A    between atoms: C6_7  and  C7_9 
REMARK    3  A    between atoms: C10_12  and  S1_13 
REMARK    4  A    between atoms: S1_13  and  N2_14 
REMARK    5  A    between atoms: N2_14  and  C11_15 
REMARK    6  A    between atoms: N2_14  and  C13_18 
REMARK    7  A    between atoms: C11_15  and  C12_16 
REMARK    8  A    between atoms: C13_18  and  C14_19 
ROOT
HETATM    1  C7  UNL     1       0.340  -0.102   0.743  1.00  0.00     0.032 A 
HETATM    2  C8  UNL     1      -0.212  -0.104   2.013  1.00  0.00     0.018 A 
HETATM    3  C9  UNL     1      -1.592  -0.008   2.137  1.00  0.00     0.021 A 
HETATM    4  C10 UNL     1      -2.425   0.088   1.048  1.00  0.00     0.016 A 
HETATM    5  C15 UNL     1      -1.818   0.084  -0.169  1.00  0.00     0.021 A 
HETATM    6  C16 UNL     1      -0.457  -0.008  -0.379  1.00  0.00     0.018 A 
ENDROOT
BRANCH   1   7
HETATM    7  C6  UNL     1       1.788  -0.198   0.462  1.00  0.00     0.256 C 
HETATM    8  N1  UNL     1       2.792  -0.304   1.467  1.00  0.00    -0.323 N 
HETATM    9  H6  UNL     1       2.470  -0.313   2.481  1.00  0.00     0.169 HD
HETATM   10  O1  UNL     1       2.296  -0.197  -0.707  1.00  0.00    -0.267 OA
BRANCH   8  11
HETATM   11  C5  UNL     1       4.067  -0.374   0.795  1.00  0.00     0.035 A 
HETATM   12  C4  UNL     1       4.636   0.865   0.584  1.00  0.00     0.030 A 
HETATM   13  C3  UNL     1       5.860   0.982  -0.050  1.00  0.00     0.009 A 
HETATM   14  C2  UNL     1       6.458  -0.188  -0.446  1.00  0.00    -0.062 A 
HETATM   15  C1  UNL     1       7.782  -0.108  -1.134  1.00  0.00     0.048 C 
HETATM   16  C18 UNL     1       5.907  -1.436  -0.244  1.00  0.00     0.009 A 
HETATM   17  C17 UNL     1       4.685  -1.539   0.389  1.00  0.00     0.030 A 
ENDBRANCH   8  11
ENDBRANCH   1   7
BRANCH   4  18
HETATM   18  S1  UNL     1      -4.190   0.208   1.290  1.00  0.00    -0.042 SA
BRANCH  18  19
HETATM   19  N2  UNL     1      -4.940   0.315  -0.315  1.00  0.00    -0.252 NA
BRANCH  19  20
HETATM   20  C11 UNL     1      -5.552  -0.947  -0.681  1.00  0.00     0.118 C 
BRANCH  20  21
HETATM   21  C12 UNL     1      -4.510  -2.037  -0.651  1.00  0.00     0.130 C 
HETATM   22 CL1  UNL     1      -5.267  -3.594  -1.102  1.00  0.00    -0.129 Cl
ENDBRANCH  20  21
ENDBRANCH  19  20
BRANCH  19  23
HETATM   23  C13 UNL     1      -5.894   1.405  -0.326  1.00  0.00     0.118 C 
BRANCH  23  24
HETATM   24  C14 UNL     1      -5.132   2.671   0.073  1.00  0.00     0.130 C 
HETATM   25 CL2  UNL     1      -6.246   4.059   0.082  1.00  0.00    -0.129 Cl
ENDBRANCH  23  24
ENDBRANCH  19  23
ENDBRANCH  18  19
ENDBRANCH   4  18
TORSDOF 8
