REMARK  5 active torsions:
REMARK  status: ('A' for Active; 'I' for Inactive)
REMARK    1  A    between atoms: C3_3  and  C4_4 
REMARK    2  A    between atoms: C5_5  and  C7_7 
REMARK    3  A    between atoms: C7_7  and  N1_8 
REMARK    4  A    between atoms: N1_8  and  C8_9 
REMARK    5  A    between atoms: C8_9  and  C9_10 
ROOT
HETATM    1  C9  UNL     1      -0.940   2.240  -1.054  1.00  0.00     0.084 A 
HETATM    2  N2  UNL     1      -0.990   3.569  -0.836  1.00  0.00    -0.242 NA
HETATM    3  C10 UNL     1      -1.882   4.162  -0.024  1.00  0.00     0.236 A 
HETATM    4  N3  UNL     1      -2.823   3.443   0.654  1.00  0.00    -0.215 NA
HETATM    5  C11 UNL     1      -2.831   2.105   0.482  1.00  0.00     0.200 A 
HETATM    6  C12 UNL     1      -1.903   1.529  -0.358  1.00  0.00     0.109 A 
HETATM    7  N4  UNL     1      -1.813   0.154  -0.640  1.00  0.00    -0.380 N 
HETATM    8  C13 UNL     1      -2.688  -0.970  -0.493  1.00  0.00     0.161 C 
HETATM    9  C14 UNL     1      -3.826  -0.770   0.405  1.00  0.00    -0.005 A 
HETATM   10  C15 UNL     1      -4.481  -1.983   0.446  1.00  0.00     0.030 A 
HETATM   11  C16 UNL     1      -5.619  -2.247   1.177  1.00  0.00     0.011 A 
HETATM   12 BR1  UNL     1      -6.516  -3.925   1.229  1.00  0.00    -0.051 Br
HETATM   13  C17 UNL     1      -6.149  -1.201   1.935  1.00  0.00     0.022 A 
HETATM   14  C18 UNL     1      -5.523   0.027   1.919  1.00  0.00     0.039 A 
HETATM   15  C19 UNL     1      -4.383   0.257   1.175  1.00  0.00     0.086 A 
HETATM   16  O1  UNL     1      -3.840   1.530   1.235  1.00  0.00    -0.289 OA
HETATM   17  H16 UNL     1      -0.911  -0.149  -1.059  1.00  0.00     0.160 HD
ENDROOT
BRANCH   1  18
HETATM   18  C8  UNL     1       0.073   1.597  -1.939  1.00  0.00     0.176 C 
BRANCH  18  19
HETATM   19  N1  UNL     1       1.152   1.010  -1.246  1.00  0.00    -0.412 N 
HETATM   20  H12 UNL     1       1.111   0.813  -0.266  1.00  0.00     0.153 HD
BRANCH  19  21
HETATM   21  C7  UNL     1       2.099   0.385  -2.085  1.00  0.00     0.148 C 
BRANCH  21  22
HETATM   22  C5  UNL     1       3.252  -0.219  -1.367  1.00  0.00    -0.067 C 
HETATM   23  C4  UNL     1       3.449  -0.214  -0.071  1.00  0.00     0.004 C 
HETATM   24  C6  UNL     1       4.302  -0.904  -2.164  1.00  0.00     0.045 C 
BRANCH  23  25
HETATM   25  C3  UNL     1       4.660  -0.875   0.386  1.00  0.00    -0.004 C 
HETATM   26  C2  UNL     1       4.956  -0.928   1.691  1.00  0.00    -0.031 C 
HETATM   27  C1  UNL     1       6.145  -1.563   2.305  1.00  0.00     0.036 C 
ENDBRANCH  23  25
ENDBRANCH  21  22
ENDBRANCH  19  21
ENDBRANCH  18  19
ENDBRANCH   1  18
TORSDOF 5
