REMARK  7 active torsions:
REMARK  status: ('A' for Active; 'I' for Inactive)
REMARK    1  A    between atoms: C4_5  and  N1_6 
REMARK    2  A    between atoms: N1_6  and  C5_7 
REMARK    3  A    between atoms: C5_7  and  C6_8 
REMARK    4  A    between atoms: C9_11  and  N2_12 
REMARK    5  A    between atoms: N2_12  and  C10_13 
REMARK    6  A    between atoms: N2_12  and  C11_15 
REMARK    7  A    between atoms: C11_15  and  C12_16 
ROOT
HETATM    1  C6  UNL     1      -0.369   0.943   1.262  1.00  0.00    -0.040 A 
HETATM    2  C7  UNL     1       0.520   1.771   0.558  1.00  0.00     0.011 A 
HETATM    3  C8  UNL     1       1.718   1.349  -0.020  1.00  0.00     0.030 A 
HETATM    4  C9  UNL     1       2.069   0.024   0.099  1.00  0.00     0.031 A 
HETATM    5  C13 UNL     1       1.197  -0.784   0.789  1.00  0.00     0.030 A 
HETATM    6  C14 UNL     1       0.020  -0.355   1.355  1.00  0.00     0.011 A 
ENDROOT
BRANCH   1   7
HETATM    7  C5  UNL     1      -1.578   1.634   1.799  1.00  0.00     0.158 C 
BRANCH   7   8
HETATM    8  N1  UNL     1      -2.644   1.740   0.859  1.00  0.00    -0.386 N 
HETATM    9  H3  UNL     1      -2.840   2.749   0.558  1.00  0.00     0.160 HD
BRANCH   8  10
HETATM   10  C4  UNL     1      -3.540   0.871   0.193  1.00  0.00     0.028 A 
HETATM   11  C3  UNL     1      -4.503   1.283  -0.742  1.00  0.00     0.032 A 
HETATM   12  C2  UNL     1      -5.335   0.361  -1.321  1.00  0.00     0.044 A 
HETATM   13  C1  UNL     1      -5.275  -0.973  -1.029  1.00  0.00     0.116 A 
HETATM   14  F1  UNL     1      -6.145  -1.796  -1.658  1.00  0.00    -0.206 F 
HETATM   15  C16 UNL     1      -4.342  -1.398  -0.119  1.00  0.00     0.044 A 
HETATM   16  C15 UNL     1      -3.512  -0.467   0.458  1.00  0.00     0.032 A 
ENDBRANCH   8  10
ENDBRANCH   7   8
ENDBRANCH   1   7
BRANCH   4  17
HETATM   17  N2  UNL     1       3.282  -0.447  -0.474  1.00  0.00    -0.367 N 
BRANCH  17  18
HETATM   18  C10 UNL     1       4.128   0.494  -1.180  1.00  0.00     0.238 C 
HETATM   19 CL1  UNL     1       3.303   1.145  -2.638  1.00  0.00    -0.109 Cl
ENDBRANCH  17  18
BRANCH  17  20
HETATM   20  C11 UNL     1       3.801  -1.795  -0.447  1.00  0.00     0.139 C 
BRANCH  20  21
HETATM   21  C12 UNL     1       5.038  -1.939   0.395  1.00  0.00     0.134 C 
HETATM   22 CL2  UNL     1       5.512  -3.653   0.295  1.00  0.00    -0.129 Cl
ENDBRANCH  20  21
ENDBRANCH  17  20
ENDBRANCH   4  17
TORSDOF 7
