REMARK  7 active torsions:
REMARK  status: ('A' for Active; 'I' for Inactive)
REMARK    1  A    between atoms: C1_2  and  C2_3 
REMARK    2  A    between atoms: C1_2  and  C8_10 
REMARK    3  A    between atoms: C11_13  and  N1_14 
REMARK    4  A    between atoms: N1_14  and  C12_15 
REMARK    5  A    between atoms: N1_14  and  C14_18 
REMARK    6  A    between atoms: C12_15  and  C13_16 
REMARK    7  A    between atoms: C14_18  and  C15_19 
ROOT
HETATM    1  C8  UNL     1       1.130   0.735  -0.743  1.00  0.00     0.015 A 
HETATM    2  C9  UNL     1       0.712  -0.517  -0.270  1.00  0.00     0.018 A 
HETATM    3  C10 UNL     1      -0.639  -0.820  -0.076  1.00  0.00     0.030 A 
HETATM    4  C11 UNL     1      -1.612   0.113  -0.346  1.00  0.00     0.030 A 
HETATM    5  C16 UNL     1      -1.149   1.318  -0.805  1.00  0.00     0.030 A 
HETATM    6  C17 UNL     1       0.160   1.663  -1.011  1.00  0.00     0.018 A 
ENDROOT
BRANCH   1   7
HETATM    7  C1  UNL     1       2.547   0.955  -0.886  1.00  0.00     0.192 C 
HETATM    8  O1  UNL     1       2.774   1.831  -1.803  1.00  0.00    -0.287 OA
BRANCH   7   9
HETATM    9  C2  UNL     1       3.727   0.459  -0.281  1.00  0.00     0.015 A 
HETATM   10  C3  UNL     1       3.603  -0.029   1.027  1.00  0.00     0.017 A 
HETATM   11  C4  UNL     1       4.713  -0.533   1.654  1.00  0.00     0.025 A 
HETATM   12  C5  UNL     1       5.918  -0.558   1.012  1.00  0.00     0.034 A 
HETATM   13 CL1  UNL     1       7.386  -1.187   1.756  1.00  0.00    -0.084 Cl
HETATM   14  C6  UNL     1       6.052  -0.084  -0.266  1.00  0.00     0.025 A 
HETATM   15  C7  UNL     1       4.949   0.417  -0.891  1.00  0.00     0.017 A 
ENDBRANCH   7   9
ENDBRANCH   1   7
BRANCH   4  16
HETATM   16  N1  UNL     1      -2.972  -0.245  -0.160  1.00  0.00    -0.379 N 
BRANCH  16  17
HETATM   17  C12 UNL     1      -3.233  -1.625   0.179  1.00  0.00     0.138 C 
BRANCH  17  18
HETATM   18  C13 UNL     1      -3.582  -1.824   1.622  1.00  0.00     0.134 C 
HETATM   19 CL2  UNL     1      -3.860  -3.576   1.881  1.00  0.00    -0.129 Cl
ENDBRANCH  17  18
ENDBRANCH  16  17
BRANCH  16  20
HETATM   20  C14 UNL     1      -4.226   0.394  -0.156  1.00  0.00     0.138 C 
BRANCH  20  21
HETATM   21  C15 UNL     1      -4.279   1.850  -0.493  1.00  0.00     0.134 C 
HETATM   22 CL3  UNL     1      -5.969   2.459  -0.357  1.00  0.00    -0.129 Cl
ENDBRANCH  20  21
ENDBRANCH  16  20
ENDBRANCH   4  16
TORSDOF 7
