REMARK  7 active torsions:
REMARK  status: ('A' for Active; 'I' for Inactive)
REMARK       I    between atoms: C1_2  and  N1_3 
REMARK    1  A    between atoms: C1_2  and  C7_9 
REMARK    2  A    between atoms: N1_3  and  C2_4 
REMARK    3  A    between atoms: C10_12  and  N2_13 
REMARK    4  A    between atoms: N2_13  and  C11_14 
REMARK    5  A    between atoms: N2_13  and  C13_17 
REMARK    6  A    between atoms: C11_14  and  C12_15 
REMARK    7  A    between atoms: C13_17  and  C14_18 
ROOT
HETATM    1  C7  UNL     1       1.216   0.243   0.120  1.00  0.00     0.032 A 
HETATM    2  C8  UNL     1       0.610  -0.842  -0.488  1.00  0.00     0.019 A 
HETATM    3  C9  UNL     1      -0.728  -0.760  -0.779  1.00  0.00     0.030 A 
HETATM    4  C10 UNL     1      -1.553   0.313  -0.525  1.00  0.00     0.030 A 
HETATM    5  C15 UNL     1      -0.884   1.334   0.072  1.00  0.00     0.030 A 
HETATM    6  C16 UNL     1       0.448   1.356   0.406  1.00  0.00     0.019 A 
ENDROOT
BRANCH   1   7
HETATM    7  C1  UNL     1       2.628   0.292   0.480  1.00  0.00     0.256 C 
HETATM    8  O1  UNL     1       3.148   1.309   1.012  1.00  0.00    -0.267 OA
HETATM    9  N1  UNL     1       3.544  -0.774   0.275  1.00  0.00    -0.322 N 
HETATM   10  H1  UNL     1       3.187  -1.649  -0.160  1.00  0.00     0.169 HD
BRANCH   9  11
HETATM   11  C2  UNL     1       4.888  -0.565   0.679  1.00  0.00     0.046 A 
HETATM   12  C3  UNL     1       5.509   0.440   1.227  1.00  0.00     0.003 A 
HETATM   13  C4  UNL     1       6.818   0.217   1.388  1.00  0.00     0.014 A 
HETATM   14  C5  UNL     1       7.017  -1.144   0.914  1.00  0.00     0.003 A 
HETATM   15  C6  UNL     1       5.873  -1.634   0.484  1.00  0.00     0.030 A 
ENDBRANCH   9  11
ENDBRANCH   1   7
BRANCH   4  16
HETATM   16  N2  UNL     1      -2.955   0.324  -0.871  1.00  0.00    -0.379 N 
BRANCH  16  17
HETATM   17  C11 UNL     1      -3.732   1.493  -0.538  1.00  0.00     0.138 C 
BRANCH  17  18
HETATM   18  C12 UNL     1      -4.724   1.365   0.557  1.00  0.00     0.134 C 
HETATM   19 CL1  UNL     1      -4.033   0.896   2.124  1.00  0.00    -0.129 Cl
ENDBRANCH  17  18
ENDBRANCH  16  17
BRANCH  16  20
HETATM   20  C13 UNL     1      -3.502  -0.840  -1.524  1.00  0.00     0.138 C 
BRANCH  20  21
HETATM   21  C14 UNL     1      -4.408  -1.706  -0.727  1.00  0.00     0.134 C 
HETATM   22 CL2  UNL     1      -3.574  -2.348   0.720  1.00  0.00    -0.129 Cl
ENDBRANCH  20  21
ENDBRANCH  16  20
ENDBRANCH   4  16
TORSDOF 7
