REMARK  7 active torsions:
REMARK  status: ('A' for Active; 'I' for Inactive)
REMARK    1  A    between atoms: C5_5  and  N1_6 
REMARK       I    between atoms: N1_6  and  C6_7 
REMARK    2  A    between atoms: C6_7  and  C7_9 
REMARK    3  A    between atoms: C10_12  and  N2_13 
REMARK    4  A    between atoms: N2_13  and  C11_14 
REMARK    5  A    between atoms: N2_13  and  C13_17 
REMARK    6  A    between atoms: C11_14  and  C12_15 
REMARK    7  A    between atoms: C13_17  and  C14_18 
ROOT
HETATM    1  C7  UNL     1       0.127  -0.011  -0.270  1.00  0.00     0.032 A 
HETATM    2  C8  UNL     1      -0.596  -1.210  -0.314  1.00  0.00     0.019 A 
HETATM    3  C9  UNL     1      -1.967  -1.112  -0.236  1.00  0.00     0.030 A 
HETATM    4  C10 UNL     1      -2.693   0.035  -0.121  1.00  0.00     0.030 A 
HETATM    5  C15 UNL     1      -1.954   1.197  -0.080  1.00  0.00     0.030 A 
HETATM    6  C16 UNL     1      -0.570   1.171  -0.154  1.00  0.00     0.019 A 
ENDROOT
BRANCH   1   7
HETATM    7  C6  UNL     1       1.593  -0.058  -0.356  1.00  0.00     0.256 C 
HETATM    8  N1  UNL     1       2.366  -0.046   0.831  1.00  0.00    -0.323 N 
HETATM    9  H6  UNL     1       1.892  -0.005   1.779  1.00  0.00     0.169 HD
HETATM   10  O1  UNL     1       2.291  -0.110  -1.397  1.00  0.00    -0.267 OA
BRANCH   8  11
HETATM   11  C5  UNL     1       3.779  -0.093   0.625  1.00  0.00     0.035 A 
HETATM   12  C4  UNL     1       4.483  -1.273   0.509  1.00  0.00     0.030 A 
HETATM   13  C3  UNL     1       5.865  -1.282   0.313  1.00  0.00     0.009 A 
HETATM   14  C2  UNL     1       6.535  -0.067   0.236  1.00  0.00    -0.062 A 
HETATM   15  C1  UNL     1       8.013  -0.084   0.027  1.00  0.00     0.048 C 
HETATM   16  C18 UNL     1       5.835   1.132   0.352  1.00  0.00     0.009 A 
HETATM   17  C17 UNL     1       4.470   1.091   0.544  1.00  0.00     0.030 A 
ENDBRANCH   8  11
ENDBRANCH   1   7
BRANCH   4  18
HETATM   18  N2  UNL     1      -4.115   0.063  -0.035  1.00  0.00    -0.379 N 
BRANCH  18  19
HETATM   19  C11 UNL     1      -4.952  -1.086  -0.028  1.00  0.00     0.138 C 
BRANCH  19  20
HETATM   20  C12 UNL     1      -5.795  -1.257  -1.274  1.00  0.00     0.134 C 
HETATM   21 CL1  UNL     1      -4.799  -1.401  -2.727  1.00  0.00    -0.129 Cl
ENDBRANCH  19  20
ENDBRANCH  18  19
BRANCH  18  22
HETATM   22  C13 UNL     1      -4.922   1.219   0.048  1.00  0.00     0.138 C 
BRANCH  22  23
HETATM   23  C14 UNL     1      -5.643   1.433   1.346  1.00  0.00     0.134 C 
HETATM   24 CL2  UNL     1      -4.571   1.581   2.732  1.00  0.00    -0.129 Cl
ENDBRANCH  22  23
ENDBRANCH  18  22
ENDBRANCH   4  18
TORSDOF 7
