REMARK  7 active torsions:
REMARK  status: ('A' for Active; 'I' for Inactive)
REMARK    1  A    between atoms: C1_2  and  C2_3 
REMARK    2  A    between atoms: C2_3  and  N1_4 
REMARK    3  A    between atoms: N1_4  and  C3_5 
REMARK    4  A    between atoms: N1_4  and  C5_8 
REMARK    5  A    between atoms: C3_5  and  C4_6 
REMARK    6  A    between atoms: C8_11  and  C9_12 
REMARK    7  A    between atoms: C9_12  and  N2_13 
ROOT
HETATM    1  C5  UNL     1      -1.590  -0.076   0.153  1.00  0.00     0.030 A 
HETATM    2  C6  UNL     1      -0.833  -1.206   0.347  1.00  0.00     0.030 A 
HETATM    3  C7  UNL     1       0.427  -1.199   0.857  1.00  0.00     0.011 A 
HETATM    4  C8  UNL     1       1.044  -0.021   1.226  1.00  0.00    -0.040 A 
HETATM    5  C15 UNL     1       0.347   1.155   1.062  1.00  0.00     0.011 A 
HETATM    6  C16 UNL     1      -0.921   1.060   0.539  1.00  0.00     0.030 A 
ENDROOT
BRANCH   4   7
HETATM    7  C9  UNL     1       2.427  -0.029   1.782  1.00  0.00     0.161 C 
BRANCH   7   8
HETATM    8  N2  UNL     1       3.436   0.087   0.765  1.00  0.00    -0.382 N 
HETATM    9  C10 UNL     1       3.487   1.245  -0.065  1.00  0.00     0.088 A 
HETATM   10  C11 UNL     1       4.379   1.421  -1.028  1.00  0.00     0.040 A 
HETATM   11  C12 UNL     1       5.388   0.401  -1.290  1.00  0.00     0.033 A 
HETATM   12 CL3  UNL     1       6.600   0.560  -2.542  1.00  0.00    -0.085 Cl
HETATM   13  C13 UNL     1       5.347  -0.672  -0.524  1.00  0.00     0.016 A 
HETATM   14  C14 UNL     1       4.407  -0.974   0.570  1.00  0.00     0.151 A 
ENDBRANCH   7   8
ENDBRANCH   4   7
BRANCH   1  15
HETATM   15  N1  UNL     1      -2.901  -0.115  -0.390  1.00  0.00    -0.379 N 
BRANCH  15  16
HETATM   16  C2  UNL     1      -3.924   0.810  -0.685  1.00  0.00     0.138 C 
BRANCH  16  17
HETATM   17  C1  UNL     1      -3.693   2.264  -0.416  1.00  0.00     0.134 C 
HETATM   18 CL1  UNL     1      -5.240   3.075  -0.930  1.00  0.00    -0.129 Cl
ENDBRANCH  16  17
ENDBRANCH  15  16
BRANCH  15  19
HETATM   19  C3  UNL     1      -3.426  -1.420  -0.783  1.00  0.00     0.138 C 
BRANCH  19  20
HETATM   20  C4  UNL     1      -4.535  -1.922   0.085  1.00  0.00     0.134 C 
HETATM   21 CL2  UNL     1      -4.994  -3.536  -0.579  1.00  0.00    -0.129 Cl
ENDBRANCH  19  20
ENDBRANCH  15  19
ENDBRANCH   1  15
TORSDOF 7
