REMARK  4 active torsions:
REMARK  status: ('A' for Active; 'I' for Inactive)
REMARK    1  A    between atoms: C9_11  and  N2_12 
REMARK    2  A    between atoms: N2_12  and  C10_13 
REMARK    3  A    between atoms: C10_13  and  C11_14 
REMARK    4  A    between atoms: C11_14  and  C12_15 
ROOT
HETATM    1 BR1  UNL     1      -6.016   2.697   2.803  1.00  0.00    -0.051 Br
HETATM    2  C1  UNL     1      -5.089   1.142   2.206  1.00  0.00     0.011 A 
HETATM    3  C2  UNL     1      -5.722   0.024   1.695  1.00  0.00     0.022 A 
HETATM    4  C3  UNL     1      -4.988  -1.085   1.275  1.00  0.00     0.039 A 
HETATM    5  C4  UNL     1      -3.593  -1.068   1.370  1.00  0.00     0.086 A 
HETATM    6  C5  UNL     1      -2.968   0.071   1.889  1.00  0.00    -0.005 A 
HETATM    7  C6  UNL     1      -3.705   1.159   2.300  1.00  0.00     0.030 A 
HETATM    8  C7  UNL     1      -1.504   0.309   2.082  1.00  0.00     0.161 C 
HETATM    9  N1  UNL     1      -0.734  -0.208   0.975  1.00  0.00    -0.379 N 
HETATM   10  C8  UNL     1      -0.690  -1.509   0.416  1.00  0.00     0.128 A 
HETATM   11  C9  UNL     1       0.541  -1.797  -0.125  1.00  0.00     0.155 A 
HETATM   12  N3  UNL     1       0.653  -3.013  -0.681  1.00  0.00    -0.222 NA
HETATM   13  C17 UNL     1      -0.340  -3.912  -0.726  1.00  0.00     0.238 A 
HETATM   14  N4  UNL     1      -1.558  -3.623  -0.189  1.00  0.00    -0.215 NA
HETATM   15  C18 UNL     1      -1.765  -2.408   0.399  1.00  0.00     0.202 A 
HETATM   16  O1  UNL     1      -3.056  -2.279   0.894  1.00  0.00    -0.289 OA
HETATM   17  H6  UNL     1      -0.083   0.440   0.457  1.00  0.00     0.160 HD
ENDROOT
BRANCH  11  18
HETATM   18  N2  UNL     1       1.640  -0.897  -0.100  1.00  0.00    -0.372 N 
HETATM   19  H7  UNL     1       1.786   0.037   0.271  1.00  0.00     0.161 HD
BRANCH  18  20
HETATM   20  C10 UNL     1       2.852  -1.360  -0.718  1.00  0.00     0.126 C 
BRANCH  20  21
HETATM   21  C11 UNL     1       4.001  -0.414  -0.701  1.00  0.00     0.059 C 
BRANCH  21  22
HETATM   22  C12 UNL     1       3.743   0.856  -1.386  1.00  0.00    -0.043 A 
HETATM   23  C13 UNL     1       3.271   2.031  -0.840  1.00  0.00     0.008 A 
HETATM   24  C14 UNL     1       3.031   3.203  -1.496  1.00  0.00     0.001 A 
HETATM   25  C15 UNL     1       3.205   3.461  -2.823  1.00  0.00     0.001 A 
HETATM   26  C16 UNL     1       3.668   2.549  -3.749  1.00  0.00     0.016 A 
HETATM   27  P1  UNL     1       4.042   0.960  -3.110  1.00  0.00    -0.027 P 
ENDBRANCH  21  22
ENDBRANCH  20  21
ENDBRANCH  18  20
ENDBRANCH  11  18
TORSDOF 4
