REMARK  9 active torsions:
REMARK  status: ('A' for Active; 'I' for Inactive)
REMARK    1  A    between atoms: C2_2  and  C3_3 
REMARK    2  A    between atoms: C3_3  and  N1_4 
REMARK    3  A    between atoms: N1_4  and  C4_5 
REMARK       I    between atoms: N1_4  and  C6_7 
REMARK    4  A    between atoms: C6_7  and  C7_9 
REMARK    5  A    between atoms: C10_12  and  N2_13 
REMARK    6  A    between atoms: N2_13  and  C11_14 
REMARK    7  A    between atoms: N2_13  and  C13_17 
REMARK    8  A    between atoms: C11_14  and  C12_15 
REMARK    9  A    between atoms: C13_17  and  C14_18 
ROOT
HETATM    1  C7  UNL     1      -0.762   0.066   0.703  1.00  0.00     0.032 A 
HETATM    2  C8  UNL     1      -0.132  -1.110   0.220  1.00  0.00     0.019 A 
HETATM    3  C9  UNL     1       1.257  -1.188   0.025  1.00  0.00     0.030 A 
HETATM    4  C10 UNL     1       2.028  -0.101   0.308  1.00  0.00     0.030 A 
HETATM    5  C15 UNL     1       1.557   1.168   0.807  1.00  0.00     0.030 A 
HETATM    6  C16 UNL     1       0.204   0.951   0.895  1.00  0.00     0.019 A 
ENDROOT
BRANCH   1   7
HETATM    7  C6  UNL     1      -2.174  -0.149   0.784  1.00  0.00     0.253 C 
HETATM    8  N1  UNL     1      -3.287   0.385   0.081  1.00  0.00    -0.348 N 
HETATM    9  O1  UNL     1      -2.710  -0.924   1.577  1.00  0.00    -0.267 OA
BRANCH   8  10
HETATM   10  C3  UNL     1      -4.575  -0.115   0.510  1.00  0.00     0.125 C 
BRANCH  10  11
HETATM   11  C2  UNL     1      -5.098  -1.266  -0.290  1.00  0.00     0.015 C 
HETATM   12  C1  UNL     1      -4.233  -2.486  -0.336  1.00  0.00     0.006 C 
ENDBRANCH  10  11
ENDBRANCH   8  10
BRANCH   8  13
HETATM   13  C4  UNL     1      -3.428   1.316  -1.010  1.00  0.00     0.121 C 
HETATM   14  C5  UNL     1      -3.556   2.742  -0.527  1.00  0.00     0.026 C 
ENDBRANCH   8  13
ENDBRANCH   1   7
BRANCH   4  15
HETATM   15  N2  UNL     1       3.476  -0.063   0.132  1.00  0.00    -0.379 N 
BRANCH  15  16
HETATM   16  C11 UNL     1       4.360  -1.079  -0.306  1.00  0.00     0.138 C 
BRANCH  16  17
HETATM   17  C12 UNL     1       5.070  -0.932  -1.590  1.00  0.00     0.134 C 
HETATM   18 CL1  UNL     1       4.010  -0.818  -3.011  1.00  0.00    -0.129 Cl
ENDBRANCH  16  17
ENDBRANCH  15  16
BRANCH  15  19
HETATM   19  C13 UNL     1       4.379   1.017   0.338  1.00  0.00     0.138 C 
BRANCH  19  20
HETATM   20  C14 UNL     1       5.361   0.876   1.455  1.00  0.00     0.134 C 
HETATM   21 CL2  UNL     1       6.335   2.389   1.491  1.00  0.00    -0.129 Cl
ENDBRANCH  19  20
ENDBRANCH  15  19
ENDBRANCH   4  15
TORSDOF 9
