REMARK  7 active torsions:
REMARK  status: ('A' for Active; 'I' for Inactive)
REMARK       I    between atoms: N1_2  and  C2_3 
REMARK    1  A    between atoms: N1_2  and  C11_16 
REMARK    2  A    between atoms: C2_3  and  C3_5 
REMARK    3  A    between atoms: C4_6  and  N2_7 
REMARK    4  A    between atoms: N2_7  and  C5_8 
REMARK    5  A    between atoms: N2_7  and  C7_11 
REMARK    6  A    between atoms: C5_8  and  C6_9 
REMARK    7  A    between atoms: C7_11  and  C8_12 
ROOT
HETATM    1  C3  UNL     1      -0.096  -0.645   1.663  1.00  0.00     0.059 A 
HETATM    2  C4  UNL     1      -1.375  -0.545   1.372  1.00  0.00     0.046 A 
HETATM    3  C9  UNL     1      -1.638  -1.070   2.727  1.00  0.00     0.031 A 
HETATM    4  C10 UNL     1      -0.344  -1.160   2.994  1.00  0.00     0.022 A 
ENDROOT
BRANCH   1   5
HETATM    5  C2  UNL     1       1.091  -0.335   0.892  1.00  0.00     0.260 C 
HETATM    6  N1  UNL     1       1.225   0.180  -0.418  1.00  0.00    -0.318 N 
HETATM    7  C1  UNL     1       0.634   0.677  -1.654  1.00  0.00     0.159 C 
HETATM    8  O1  UNL     1       2.223  -0.524   1.389  1.00  0.00    -0.267 OA
BRANCH   6   9
HETATM    9  C11 UNL     1       2.668   0.159  -0.407  1.00  0.00     0.037 A 
HETATM   10  C12 UNL     1       3.375   1.255   0.034  1.00  0.00     0.029 A 
HETATM   11  C13 UNL     1       4.754   1.365   0.091  1.00  0.00     0.002 A 
HETATM   12  C14 UNL     1       5.428   0.239  -0.346  1.00  0.00     0.000 A 
HETATM   13  C15 UNL     1       4.804  -0.883  -0.795  1.00  0.00     0.002 A 
HETATM   14  C16 UNL     1       3.407  -0.949  -0.836  1.00  0.00     0.029 A 
ENDBRANCH   6   9
ENDBRANCH   1   5
BRANCH   2  15
HETATM   15  N2  UNL     1      -2.410  -0.192   0.430  1.00  0.00    -0.378 N 
BRANCH  15  16
HETATM   16  C5  UNL     1      -3.358   0.829   0.825  1.00  0.00     0.138 C 
BRANCH  16  17
HETATM   17  C6  UNL     1      -3.219   2.084  -0.011  1.00  0.00     0.134 C 
HETATM   18 CL1  UNL     1      -4.438   3.275   0.560  1.00  0.00    -0.129 Cl
ENDBRANCH  16  17
ENDBRANCH  15  16
BRANCH  15  19
HETATM   19  C7  UNL     1      -2.386  -0.915  -0.802  1.00  0.00     0.138 C 
BRANCH  19  20
HETATM   20  C8  UNL     1      -3.522  -1.888  -0.989  1.00  0.00     0.134 C 
HETATM   21 CL2  UNL     1      -5.064  -1.055  -0.976  1.00  0.00    -0.129 Cl
ENDBRANCH  19  20
ENDBRANCH  15  19
ENDBRANCH   2  15
TORSDOF 7
