REMARK  10 active torsions:
REMARK  status: ('A' for Active; 'I' for Inactive)
REMARK    1  A    between atoms: C2_2  and  C3_3 
REMARK    2  A    between atoms: C3_3  and  N1_4 
REMARK    3  A    between atoms: N1_4  and  C4_5 
REMARK       I    between atoms: N1_4  and  C7_8 
REMARK    4  A    between atoms: C4_5  and  C5_6 
REMARK    5  A    between atoms: C7_8  and  C8_10 
REMARK    6  A    between atoms: C11_13  and  N2_14 
REMARK    7  A    between atoms: N2_14  and  C12_15 
REMARK    8  A    between atoms: N2_14  and  C14_18 
REMARK    9  A    between atoms: C12_15  and  C13_16 
REMARK   10  A    between atoms: C14_18  and  C15_19 
ROOT
HETATM    1  C8  UNL     1      -0.261  -0.305  -0.925  1.00  0.00     0.032 A 
HETATM    2  C9  UNL     1       0.387   0.901  -0.833  1.00  0.00     0.019 A 
HETATM    3  C10 UNL     1       1.707   0.942  -0.483  1.00  0.00     0.030 A 
HETATM    4  C11 UNL     1       2.488  -0.155  -0.199  1.00  0.00     0.030 A 
HETATM    5  C16 UNL     1       1.823  -1.344  -0.295  1.00  0.00     0.030 A 
HETATM    6  C17 UNL     1       0.485  -1.449  -0.647  1.00  0.00     0.019 A 
ENDROOT
BRANCH   1   7
HETATM    7  C7  UNL     1      -1.644  -0.524  -1.289  1.00  0.00     0.253 C 
HETATM    8  N1  UNL     1      -2.862  -0.630  -0.590  1.00  0.00    -0.348 N 
HETATM    9  O1  UNL     1      -1.465  -0.609  -2.545  1.00  0.00    -0.267 OA
BRANCH   8  10
HETATM   10  C3  UNL     1      -2.896  -0.495   0.849  1.00  0.00     0.125 C 
BRANCH  10  11
HETATM   11  C2  UNL     1      -3.093   0.957   1.194  1.00  0.00     0.015 C 
HETATM   12  C1  UNL     1      -3.134   1.120   2.709  1.00  0.00     0.006 C 
ENDBRANCH  10  11
ENDBRANCH   8  10
BRANCH   8  13
HETATM   13  C4  UNL     1      -3.971  -0.898  -1.444  1.00  0.00     0.125 C 
BRANCH  13  14
HETATM   14  C5  UNL     1      -4.668   0.320  -2.000  1.00  0.00     0.015 C 
HETATM   15  C6  UNL     1      -5.788  -0.226  -2.868  1.00  0.00     0.006 C 
ENDBRANCH  13  14
ENDBRANCH   8  13
ENDBRANCH   1   7
BRANCH   4  16
HETATM   16  N2  UNL     1       3.872  -0.021   0.167  1.00  0.00    -0.379 N 
BRANCH  16  17
HETATM   17  C12 UNL     1       4.475   1.273   0.310  1.00  0.00     0.138 C 
BRANCH  17  18
HETATM   18  C13 UNL     1       5.397   1.722  -0.762  1.00  0.00     0.134 C 
HETATM   19 CL1  UNL     1       6.836   0.753  -1.027  1.00  0.00    -0.129 Cl
ENDBRANCH  17  18
ENDBRANCH  16  17
BRANCH  16  20
HETATM   20  C14 UNL     1       4.716  -1.179   0.358  1.00  0.00     0.138 C 
BRANCH  20  21
HETATM   21  C15 UNL     1       5.154  -1.304   1.828  1.00  0.00     0.134 C 
HETATM   22 CL2  UNL     1       6.178  -2.750   1.938  1.00  0.00    -0.129 Cl
ENDBRANCH  20  21
ENDBRANCH  16  20
ENDBRANCH   4  16
TORSDOF 10
