REMARK  9 active torsions:
REMARK  status: ('A' for Active; 'I' for Inactive)
REMARK    1  A    between atoms: C2_2  and  C3_3 
REMARK    2  A    between atoms: C3_3  and  N2_14 
REMARK    3  A    between atoms: C4_4  and  C5_5 
REMARK    4  A    between atoms: C5_5  and  C6_6 
REMARK       I    between atoms: C6_6  and  N1_8 
REMARK    5  A    between atoms: N1_8  and  C7_9 
REMARK    6  A    between atoms: N2_14  and  C12_15 
REMARK    7  A    between atoms: N2_14  and  C14_18 
REMARK    8  A    between atoms: C12_15  and  C13_16 
REMARK    9  A    between atoms: C14_18  and  C15_19 
ROOT
HETATM    1  C3  UNL     1      -1.504  -0.243   0.363  1.00  0.00     0.026 C 
HETATM    2  C4  UNL     1      -0.492   0.589   0.480  1.00  0.00     0.012 C 
ENDROOT
BRANCH   2   3
HETATM    3  C5  UNL     1       0.803   0.407   1.168  1.00  0.00     0.132 C 
BRANCH   3   4
HETATM    4  C6  UNL     1       1.951   0.573   0.204  1.00  0.00     0.225 C 
HETATM    5  O1  UNL     1       1.797   0.800  -1.032  1.00  0.00    -0.273 OA
HETATM    6  N1  UNL     1       3.226   0.449   0.815  1.00  0.00    -0.330 N 
HETATM    7  H7  UNL     1       3.383   0.262   1.826  1.00  0.00     0.168 HD
BRANCH   6   8
HETATM    8  C7  UNL     1       4.442   0.570   0.090  1.00  0.00     0.015 A 
HETATM    9  C8  UNL     1       5.392   1.488   0.340  1.00  0.00     0.025 A 
HETATM   10  C9  UNL     1       6.495   1.314  -0.600  1.00  0.00    -0.002 A 
HETATM   11  C10 UNL     1       6.195   0.291  -1.405  1.00  0.00    -0.021 A 
HETATM   12  C11 UNL     1       4.882  -0.286  -1.065  1.00  0.00     0.084 A 
ENDBRANCH   6   8
ENDBRANCH   3   4
ENDBRANCH   2   3
BRANCH   1  13
HETATM   13  C2  UNL     1      -1.285  -1.487   1.007  1.00  0.00     0.019 C 
HETATM   14  C1  UNL     1      -1.938  -2.604   1.180  1.00  0.00     0.013 C 
ENDBRANCH   1  13
BRANCH   1  15
HETATM   15  N2  UNL     1      -2.656   0.183  -0.349  1.00  0.00    -0.379 N 
BRANCH  15  16
HETATM   16  C12 UNL     1      -2.938  -0.617  -1.514  1.00  0.00     0.138 C 
BRANCH  16  17
HETATM   17  C13 UNL     1      -4.178  -1.448  -1.455  1.00  0.00     0.134 C 
HETATM   18 CL1  UNL     1      -4.278  -2.355  -3.016  1.00  0.00    -0.129 Cl
ENDBRANCH  16  17
ENDBRANCH  15  16
BRANCH  15  19
HETATM   19  C14 UNL     1      -3.291   1.334   0.240  1.00  0.00     0.138 C 
BRANCH  19  20
HETATM   20  C15 UNL     1      -4.633   1.112   0.847  1.00  0.00     0.134 C 
HETATM   21 CL2  UNL     1      -5.137   2.718   1.516  1.00  0.00    -0.129 Cl
ENDBRANCH  19  20
ENDBRANCH  15  19
ENDBRANCH   1  15
TORSDOF 9
