REMARK  9 active torsions:
REMARK  status: ('A' for Active; 'I' for Inactive)
REMARK    1  A    between atoms: C2_2  and  C3_3 
REMARK    2  A    between atoms: C3_3  and  C4_4 
REMARK    3  A    between atoms: C4_4  and  N1_5 
REMARK       I    between atoms: N1_5  and  C6_7 
REMARK    4  A    between atoms: C6_7  and  C7_9 
REMARK    5  A    between atoms: C10_12  and  N2_13 
REMARK    6  A    between atoms: N2_13  and  C11_14 
REMARK    7  A    between atoms: N2_13  and  C13_17 
REMARK    8  A    between atoms: C11_14  and  C12_15 
REMARK    9  A    between atoms: C13_17  and  C14_18 
ROOT
HETATM    1  C7  UNL     1      -0.453   0.575  -1.465  1.00  0.00     0.032 A 
HETATM    2  C8  UNL     1       0.678   1.364  -1.608  1.00  0.00     0.019 A 
HETATM    3  C9  UNL     1       1.844   1.003  -0.974  1.00  0.00     0.030 A 
HETATM    4  C10 UNL     1       2.000  -0.109  -0.179  1.00  0.00     0.030 A 
HETATM    5  C15 UNL     1       0.837  -0.841  -0.085  1.00  0.00     0.030 A 
HETATM    6  C16 UNL     1      -0.357  -0.555  -0.679  1.00  0.00     0.019 A 
ENDROOT
BRANCH   1   7
HETATM    7  C6  UNL     1      -1.730   0.876  -2.099  1.00  0.00     0.253 C 
HETATM    8  N1  UNL     1      -2.951   1.351  -1.571  1.00  0.00    -0.349 N 
HETATM    9  C5  UNL     1      -3.971   1.500  -2.605  1.00  0.00     0.153 C 
HETATM   10  O1  UNL     1      -1.455   0.587  -3.313  1.00  0.00    -0.267 OA
BRANCH   8  11
HETATM   11  C4  UNL     1      -3.284   1.686  -0.200  1.00  0.00     0.152 C 
BRANCH  11  12
HETATM   12  C3  UNL     1      -3.820   0.568   0.584  1.00  0.00    -0.012 C 
BRANCH  12  13
HETATM   13  C2  UNL     1      -4.106  -0.388   1.426  1.00  0.00    -0.033 C 
HETATM   14  C1  UNL     1      -5.106  -1.482   1.724  1.00  0.00     0.036 C 
ENDBRANCH  12  13
ENDBRANCH  11  12
ENDBRANCH   8  11
ENDBRANCH   1   7
BRANCH   4  15
HETATM   15  N2  UNL     1       3.242  -0.421   0.491  1.00  0.00    -0.379 N 
BRANCH  15  16
HETATM   16  C11 UNL     1       3.216  -1.699   1.164  1.00  0.00     0.138 C 
BRANCH  16  17
HETATM   17  C12 UNL     1       3.155  -1.524   2.651  1.00  0.00     0.134 C 
HETATM   18 CL1  UNL     1       4.538  -0.698   3.362  1.00  0.00    -0.129 Cl
ENDBRANCH  16  17
ENDBRANCH  15  16
BRANCH  15  19
HETATM   19  C13 UNL     1       4.281   0.551   0.425  1.00  0.00     0.138 C 
BRANCH  19  20
HETATM   20  C14 UNL     1       5.488   0.191  -0.374  1.00  0.00     0.134 C 
HETATM   21 CL2  UNL     1       6.357  -1.212   0.201  1.00  0.00    -0.129 Cl
ENDBRANCH  19  20
ENDBRANCH  15  19
ENDBRANCH   4  15
TORSDOF 9
