REMARK  6 active torsions:
REMARK  status: ('A' for Active; 'I' for Inactive)
REMARK    1  A    between atoms: C11_12  and  N2_13 
REMARK    2  A    between atoms: N2_13  and  C12_14 
REMARK    3  A    between atoms: N2_13  and  C14_17 
REMARK    4  A    between atoms: C12_14  and  C13_15 
REMARK    5  A    between atoms: C14_17  and  C15_18 
REMARK    6  A    between atoms: C18_22  and  O1_24 
ROOT
HETATM    1  C1  UNL     1      -2.726  -3.325   0.700  1.00  0.00     0.146 C 
HETATM    2  N1  UNL     1      -2.023  -2.360  -0.028  1.00  0.00    -0.384 N 
HETATM    3  C2  UNL     1      -2.630  -1.192  -0.472  1.00  0.00     0.119 C 
HETATM    4  C3  UNL     1      -2.848  -0.217   0.708  1.00  0.00     0.019 C 
HETATM    5  C4  UNL     1      -3.237   1.106   0.058  1.00  0.00     0.002 C 
HETATM    6  C5  UNL     1      -3.126   2.240   1.015  1.00  0.00     0.000 C 
HETATM    7  C6  UNL     1      -3.288   3.495   0.087  1.00  0.00     0.000 C 
HETATM    8  C7  UNL     1      -2.207   3.415  -0.951  1.00  0.00     0.001 C 
HETATM    9  C8  UNL     1      -0.825   3.632  -0.451  1.00  0.00    -0.019 C 
HETATM   10  C9  UNL     1      -0.148   2.443  -0.483  1.00  0.00     0.045 C 
HETATM   11  C10 UNL     1       1.223   1.978  -0.152  1.00  0.00     0.008 C 
HETATM   12  C11 UNL     1       1.776   0.785  -0.162  1.00  0.00     0.026 C 
HETATM   13  C16 UNL     1       1.123  -0.517  -0.262  1.00  0.00     0.030 C 
HETATM   14  C17 UNL     1       0.083  -1.363  -0.368  1.00  0.00     0.035 C 
HETATM   15  C18 UNL     1      -0.700  -2.655  -0.473  1.00  0.00     0.144 C 
HETATM   16  C19 UNL     1      -0.080  -3.530   0.638  1.00  0.00     0.075 C 
ENDROOT
BRANCH  12  17
HETATM   17  N2  UNL     1       3.166   0.487   0.174  1.00  0.00    -0.379 N 
BRANCH  17  18
HETATM   18  C12 UNL     1       4.041   1.232  -0.695  1.00  0.00     0.138 C 
BRANCH  18  19
HETATM   19  C13 UNL     1       4.856   0.425  -1.659  1.00  0.00     0.134 C 
HETATM   20 CL1  UNL     1       5.802   1.645  -2.606  1.00  0.00    -0.129 Cl
ENDBRANCH  18  19
ENDBRANCH  17  18
BRANCH  17  21
HETATM   21  C14 UNL     1       3.449  -0.403   1.260  1.00  0.00     0.138 C 
BRANCH  21  22
HETATM   22  C15 UNL     1       4.121  -1.681   0.945  1.00  0.00     0.134 C 
HETATM   23 CL2  UNL     1       4.286  -2.571   2.515  1.00  0.00    -0.129 Cl
ENDBRANCH  21  22
ENDBRANCH  17  21
ENDBRANCH  12  17
BRANCH  15  24
HETATM   24  O1  UNL     1      -0.586  -3.244  -1.700  1.00  0.00    -0.368 OA
HETATM   25  H32 UNL     1      -0.421  -4.232  -1.571  1.00  0.00     0.213 HD
ENDBRANCH  15  24
TORSDOF 6
