REMARK  10 active torsions:
REMARK  status: ('A' for Active; 'I' for Inactive)
REMARK    1  A    between atoms: O1_1  and  C1_2 
REMARK    2  A    between atoms: C6_7  and  C7_8 
REMARK    3  A    between atoms: C7_8  and  N1_9 
REMARK    4  A    between atoms: N1_9  and  O2_10 
REMARK    5  A    between atoms: O2_10  and  C8_11 
REMARK    6  A    between atoms: C11_14  and  N2_15 
REMARK    7  A    between atoms: N2_15  and  C12_16 
REMARK    8  A    between atoms: N2_15  and  C14_19 
REMARK    9  A    between atoms: C12_16  and  C13_17 
REMARK   10  A    between atoms: C14_19  and  C15_20 
ROOT
HETATM    1  C8  UNL     1       0.136   1.192   0.365  1.00  0.00     0.075 A 
HETATM    2  C9  UNL     1      -0.505   2.189  -0.258  1.00  0.00     0.036 A 
HETATM    3  C10 UNL     1      -1.868   1.746  -0.514  1.00  0.00     0.027 A 
HETATM    4  C11 UNL     1      -2.047   0.510  -0.056  1.00  0.00     0.013 A 
HETATM    5  C16 UNL     1      -0.784   0.023   0.554  1.00  0.00     0.123 A 
ENDROOT
BRANCH   1   6
HETATM    6  O2  UNL     1       1.446   1.111   0.823  1.00  0.00    -0.268 OA
BRANCH   6   7
HETATM    7  N1  UNL     1       2.414   1.894   0.273  1.00  0.00    -0.196 NA
HETATM    8  H8  UNL     1       2.065   2.819  -0.056  1.00  0.00     0.154 HD
BRANCH   7   9
HETATM    9  C7  UNL     1       3.081   1.186  -0.832  1.00  0.00     0.159 C 
BRANCH   9  10
HETATM   10  C6  UNL     1       3.703  -0.058  -0.344  1.00  0.00    -0.010 A 
HETATM   11  C1  UNL     1       4.871   0.110   0.359  1.00  0.00     0.073 A 
HETATM   12  C2  UNL     1       5.564  -0.965   0.878  1.00  0.00     0.037 A 
HETATM   13  C3  UNL     1       5.013  -2.219   0.647  1.00  0.00     0.003 A 
HETATM   14  C4  UNL     1       3.827  -2.401  -0.066  1.00  0.00     0.001 A 
HETATM   15  C5  UNL     1       3.163  -1.299  -0.569  1.00  0.00     0.011 A 
BRANCH  11  16
HETATM   16  O1  UNL     1       5.443   1.373   0.602  1.00  0.00    -0.360 OA
HETATM   17  H1  UNL     1       5.674   1.567   1.574  1.00  0.00     0.217 HD
ENDBRANCH  11  16
ENDBRANCH   9  10
ENDBRANCH   7   9
ENDBRANCH   6   7
ENDBRANCH   1   6
BRANCH   4  18
HETATM   18  N2  UNL     1      -3.348  -0.029  -0.252  1.00  0.00    -0.382 N 
BRANCH  18  19
HETATM   19  C12 UNL     1      -4.670   0.284   0.253  1.00  0.00     0.137 C 
BRANCH  19  20
HETATM   20  C13 UNL     1      -4.547   1.458   1.203  1.00  0.00     0.134 C 
HETATM   21 CL1  UNL     1      -3.474   0.998   2.533  1.00  0.00    -0.129 Cl
ENDBRANCH  19  20
ENDBRANCH  18  19
BRANCH  18  22
HETATM   22  C14 UNL     1      -3.434  -1.151  -1.159  1.00  0.00     0.137 C 
BRANCH  22  23
HETATM   23  C15 UNL     1      -3.797  -2.429  -0.429  1.00  0.00     0.134 C 
HETATM   24 CL2  UNL     1      -2.582  -2.826   0.812  1.00  0.00    -0.129 Cl
ENDBRANCH  22  23
ENDBRANCH  18  22
ENDBRANCH   4  18
TORSDOF 10
