REMARK  5 active torsions:
REMARK  status: ('A' for Active; 'I' for Inactive)
REMARK    1  A    between atoms: C1_2  and  C2_3 
REMARK    2  A    between atoms: C2_3  and  N1_4 
REMARK    3  A    between atoms: N1_4  and  C3_5 
REMARK    4  A    between atoms: N1_4  and  C5_8 
REMARK    5  A    between atoms: C3_5  and  C4_6 
ROOT
HETATM    1  C5  UNL     1       0.929  -0.058   0.037  1.00  0.00     0.015 C 
HETATM    2  C6  UNL     1      -0.210  -0.308   0.663  1.00  0.00    -0.002 C 
HETATM    3  C7  UNL     1      -0.732  -1.741   0.510  1.00  0.00     0.308 C 
HETATM    4  N2  UNL     1      -1.033  -1.740  -0.928  1.00  0.00     0.094 N 
HETATM    5  C8  UNL     1      -1.090  -0.298  -1.307  1.00  0.00     0.261 C 
HETATM    6  C9  UNL     1       0.220   0.386  -1.218  1.00  0.00     0.095 C 
HETATM    7  C10 UNL     1      -2.269   0.390  -0.705  1.00  0.00     0.280 C 
HETATM    8  C11 UNL     1      -3.429  -0.557  -0.731  1.00  0.00     0.205 C 
HETATM    9  O1  UNL     1      -4.196  -0.670   0.389  1.00  0.00    -0.387 OA
HETATM   10  C12 UNL     1      -4.067   0.219   1.389  1.00  0.00     0.198 C 
HETATM   11  C13 UNL     1      -3.335   1.476   1.072  1.00  0.00     0.299 C 
HETATM   12  N3  UNL     1      -2.092   1.154   0.476  1.00  0.00     0.103 N 
HETATM   13  C14 UNL     1      -1.110   0.684   1.415  1.00  0.00     0.311 C 
HETATM   14  H11 UNL     1      -0.305  -2.195  -1.499  1.00  0.00     0.316 HD
ENDROOT
BRANCH   1  15
HETATM   15  N1  UNL     1       2.380   0.025  -0.091  1.00  0.00    -0.382 N 
BRANCH  15  16
HETATM   16  C2  UNL     1       3.137   0.743   0.926  1.00  0.00     0.137 C 
BRANCH  16  17
HETATM   17  C1  UNL     1       3.984  -0.223   1.746  1.00  0.00     0.134 C 
HETATM   18 CL1  UNL     1       4.909   0.680   2.992  1.00  0.00    -0.129 Cl
ENDBRANCH  16  17
ENDBRANCH  15  16
BRANCH  15  19
HETATM   19  C3  UNL     1       3.010  -0.611  -1.198  1.00  0.00     0.137 C 
BRANCH  19  20
HETATM   20  C4  UNL     1       3.636   0.315  -2.181  1.00  0.00     0.134 C 
HETATM   21 CL2  UNL     1       4.922   1.333  -1.544  1.00  0.00    -0.129 Cl
ENDBRANCH  19  20
ENDBRANCH  15  19
ENDBRANCH   1  15
TORSDOF 5
