REMARK  8 active torsions:
REMARK  status: ('A' for Active; 'I' for Inactive)
REMARK    1  A    between atoms: C1_2  and  C2_3 
REMARK    2  A    between atoms: C2_3  and  N1_4 
REMARK    3  A    between atoms: N1_4  and  C3_5 
REMARK    4  A    between atoms: N1_4  and  C5_8 
REMARK    5  A    between atoms: C3_5  and  C4_6 
REMARK    6  A    between atoms: C8_11  and  N2_12 
REMARK    7  A    between atoms: N2_12  and  C9_13 
REMARK    8  A    between atoms: C9_13  and  C10_14 
ROOT
HETATM    1  C5  UNL     1      -2.205  -0.288  -0.014  1.00  0.00     0.026 A 
HETATM    2  C6  UNL     1      -1.413  -0.373   1.043  1.00  0.00     0.005 A 
HETATM    3  C7  UNL     1      -0.018  -0.843   1.272  1.00  0.00     0.069 A 
HETATM    4  C8  UNL     1       0.564  -1.334  -0.020  1.00  0.00     0.247 A 
HETATM    5  C16 UNL     1      -0.381  -1.208  -1.170  1.00  0.00     0.011 A 
HETATM    6  C17 UNL     1      -1.607  -0.762  -1.252  1.00  0.00     0.027 A 
ENDROOT
BRANCH   4   7
HETATM    7  N2  UNL     1       1.749  -0.611  -0.338  1.00  0.00     0.096 N 
HETATM    8  H13 UNL     1       1.561   0.401  -0.465  1.00  0.00     0.317 HD
BRANCH   7   9
HETATM    9  C9  UNL     1       2.834  -0.763   0.605  1.00  0.00     0.309 C 
BRANCH   9  10
HETATM   10  C10 UNL     1       3.955   0.077   0.046  1.00  0.00    -0.030 A 
HETATM   11  C11 UNL     1       4.102   1.409   0.377  1.00  0.00     0.009 A 
HETATM   12  C12 UNL     1       5.173   2.099  -0.194  1.00  0.00     0.001 A 
HETATM   13  C13 UNL     1       6.064   1.493  -1.061  1.00  0.00     0.000 A 
HETATM   14  C14 UNL     1       5.874   0.150  -1.365  1.00  0.00     0.001 A 
HETATM   15  C15 UNL     1       4.828  -0.579  -0.824  1.00  0.00     0.009 A 
ENDBRANCH   9  10
ENDBRANCH   7   9
ENDBRANCH   4   7
BRANCH   1  16
HETATM   16  N1  UNL     1      -3.538   0.208  -0.001  1.00  0.00    -0.379 N 
BRANCH  16  17
HETATM   17  C2  UNL     1      -4.604  -0.759   0.081  1.00  0.00     0.138 C 
BRANCH  17  18
HETATM   18  C1  UNL     1      -4.100  -2.186   0.142  1.00  0.00     0.134 C 
HETATM   19 CL1  UNL     1      -5.515  -3.259   0.241  1.00  0.00    -0.129 Cl
ENDBRANCH  17  18
ENDBRANCH  16  17
BRANCH  16  20
HETATM   20  C3  UNL     1      -4.162   1.508  -0.052  1.00  0.00     0.138 C 
BRANCH  20  21
HETATM   21  C4  UNL     1      -3.148   2.626  -0.142  1.00  0.00     0.134 C 
HETATM   22 CL2  UNL     1      -4.028   4.184  -0.199  1.00  0.00    -0.129 Cl
ENDBRANCH  20  21
ENDBRANCH  16  20
ENDBRANCH   1  16
TORSDOF 8
