REMARK  8 active torsions:
REMARK  status: ('A' for Active; 'I' for Inactive)
REMARK    1  A    between atoms: C6_7  and  C7_8 
REMARK    2  A    between atoms: C7_8  and  N2_9 
REMARK    3  A    between atoms: N2_9  and  C8_10 
REMARK    4  A    between atoms: C11_13  and  N3_14 
REMARK    5  A    between atoms: N3_14  and  C12_15 
REMARK    6  A    between atoms: N3_14  and  C14_18 
REMARK    7  A    between atoms: C12_15  and  C13_16 
REMARK    8  A    between atoms: C14_18  and  C15_19 
ROOT
HETATM    1  C8  UNL     1       0.001  -0.826  -0.217  1.00  0.00     0.246 A 
HETATM    2  C9  UNL     1       0.860  -0.338  -1.352  1.00  0.00     0.011 A 
HETATM    3  C10 UNL     1       2.156  -0.058  -1.251  1.00  0.00     0.027 A 
HETATM    4  C11 UNL     1       2.882  -0.196  -0.000  1.00  0.00     0.026 A 
HETATM    5  C16 UNL     1       2.156  -0.609   1.023  1.00  0.00     0.005 A 
HETATM    6  C17 UNL     1       0.710  -0.946   1.076  1.00  0.00     0.069 A 
ENDROOT
BRANCH   1   7
HETATM    7  N2  UNL     1      -1.280  -0.216  -0.221  1.00  0.00     0.093 N 
HETATM    8  H15 UNL     1      -1.678  -0.285  -1.173  1.00  0.00     0.316 HD
BRANCH   7   9
HETATM    9  C7  UNL     1      -2.130  -0.574   0.859  1.00  0.00     0.306 C 
BRANCH   9  10
HETATM   10  C6  UNL     1      -3.518  -0.031   0.794  1.00  0.00     0.252 C 
HETATM   11  C2  UNL     1      -4.238  -0.520  -0.441  1.00  0.00     0.016 C 
HETATM   12  C1  UNL     1      -4.464  -2.021  -0.216  1.00  0.00     0.012 C 
HETATM   13  C3  UNL     1      -5.620   0.075  -0.543  1.00  0.00     0.008 C 
HETATM   14  C4  UNL     1      -5.609   1.569  -0.298  1.00  0.00     0.030 C 
HETATM   15  C5  UNL     1      -4.166   2.000  -0.306  1.00  0.00     0.270 C 
HETATM   16  N1  UNL     1      -3.515   1.429   0.856  1.00  0.00     0.090 N 
HETATM   17  H11 UNL     1      -3.885   1.814   1.733  1.00  0.00     0.316 HD
ENDBRANCH   9  10
ENDBRANCH   7   9
ENDBRANCH   1   7
BRANCH   4  18
HETATM   18  N3  UNL     1       4.265   0.090   0.099  1.00  0.00    -0.379 N 
BRANCH  18  19
HETATM   19  C12 UNL     1       4.973   0.867  -0.861  1.00  0.00     0.138 C 
BRANCH  19  20
HETATM   20  C13 UNL     1       5.978   0.086  -1.678  1.00  0.00     0.134 C 
HETATM   21 CL1  UNL     1       6.757   1.222  -2.814  1.00  0.00    -0.129 Cl
ENDBRANCH  19  20
ENDBRANCH  18  19
BRANCH  18  22
HETATM   22  C14 UNL     1       5.155  -0.343   1.149  1.00  0.00     0.138 C 
BRANCH  22  23
HETATM   23  C15 UNL     1       5.644   0.800   2.005  1.00  0.00     0.134 C 
HETATM   24 CL2  UNL     1       4.270   1.603   2.762  1.00  0.00    -0.129 Cl
ENDBRANCH  22  23
ENDBRANCH  18  22
ENDBRANCH   4  18
TORSDOF 8
