REMARK  8 active torsions:
REMARK  status: ('A' for Active; 'I' for Inactive)
REMARK       I    between atoms: C1_2  and  N1_3 
REMARK    1  A    between atoms: C1_2  and  C9_11 
REMARK    2  A    between atoms: N1_3  and  C2_4 
REMARK    3  A    between atoms: C2_4  and  C3_5 
REMARK    4  A    between atoms: C12_14  and  N2_15 
REMARK    5  A    between atoms: N2_15  and  C13_16 
REMARK    6  A    between atoms: N2_15  and  C15_19 
REMARK    7  A    between atoms: C13_16  and  C14_17 
REMARK    8  A    between atoms: C15_19  and  C16_20 
ROOT
HETATM    1  C9  UNL     1       0.443   0.167   0.752  1.00  0.00     0.032 A 
HETATM    2  C10 UNL     1      -0.185   1.144  -0.017  1.00  0.00     0.019 A 
HETATM    3  C11 UNL     1      -1.544   1.097  -0.104  1.00  0.00     0.030 A 
HETATM    4  C12 UNL     1      -2.398   0.193   0.481  1.00  0.00     0.030 A 
HETATM    5  C17 UNL     1      -1.724  -0.746   1.226  1.00  0.00     0.030 A 
HETATM    6  C18 UNL     1      -0.338  -0.779   1.373  1.00  0.00     0.019 A 
ENDROOT
BRANCH   1   7
HETATM    7  C1  UNL     1       1.888   0.111   0.927  1.00  0.00     0.251 C 
HETATM    8  O1  UNL     1       2.420  -0.825   1.615  1.00  0.00    -0.268 OA
HETATM    9  N1  UNL     1       2.830   1.028   0.390  1.00  0.00    -0.353 N 
HETATM   10  H1  UNL     1       2.427   1.808  -0.179  1.00  0.00     0.163 HD
BRANCH   9  11
HETATM   11  C2  UNL     1       4.264   0.986   0.550  1.00  0.00     0.161 C 
BRANCH  11  12
HETATM   12  C3  UNL     1       4.925  -0.031  -0.315  1.00  0.00    -0.041 A 
HETATM   13  C4  UNL     1       5.289   0.443  -1.579  1.00  0.00     0.009 A 
HETATM   14  C5  UNL     1       5.924  -0.348  -2.545  1.00  0.00     0.001 A 
HETATM   15  C6  UNL     1       6.207  -1.666  -2.238  1.00  0.00     0.000 A 
HETATM   16  C7  UNL     1       5.838  -2.110  -0.985  1.00  0.00     0.001 A 
HETATM   17  C8  UNL     1       5.213  -1.345  -0.024  1.00  0.00     0.009 A 
ENDBRANCH  11  12
ENDBRANCH   9  11
ENDBRANCH   1   7
BRANCH   4  18
HETATM   18  N2  UNL     1      -3.829   0.195   0.358  1.00  0.00    -0.379 N 
BRANCH  18  19
HETATM   19  C13 UNL     1      -4.639  -0.792   0.995  1.00  0.00     0.138 C 
BRANCH  19  20
HETATM   20  C14 UNL     1      -5.477  -0.349   2.152  1.00  0.00     0.134 C 
HETATM   21 CL1  UNL     1      -6.702   0.852   1.829  1.00  0.00    -0.129 Cl
ENDBRANCH  19  20
ENDBRANCH  18  19
BRANCH  18  22
HETATM   22  C15 UNL     1      -4.551   1.167  -0.389  1.00  0.00     0.138 C 
BRANCH  22  23
HETATM   23  C16 UNL     1      -5.243   0.593  -1.608  1.00  0.00     0.134 C 
HETATM   24 CL2  UNL     1      -6.095   1.922  -2.429  1.00  0.00    -0.129 Cl
ENDBRANCH  22  23
ENDBRANCH  18  22
ENDBRANCH   4  18
TORSDOF 8
