REMARK  7 active torsions:
REMARK  status: ('A' for Active; 'I' for Inactive)
REMARK       I    between atoms: C1_2  and  N1_3 
REMARK    1  A    between atoms: C1_2  and  C12_14 
REMARK    2  A    between atoms: N1_3  and  C2_4 
REMARK    3  A    between atoms: C14_16  and  N2_17 
REMARK    4  A    between atoms: N2_17  and  C15_18 
REMARK    5  A    between atoms: N2_17  and  C17_21 
REMARK    6  A    between atoms: C15_18  and  C16_19 
REMARK    7  A    between atoms: C17_21  and  C18_22 
ROOT
HETATM    1  O1  UNL     1       1.102   1.258  -0.562  1.00  0.00    -0.268 OA
HETATM    2  C1  UNL     1       0.926   0.490   0.443  1.00  0.00     0.252 C 
HETATM    3  N1  UNL     1       2.016   0.126   1.281  1.00  0.00    -0.322 N 
HETATM    4  H1  UNL     1       1.866  -0.503   2.102  1.00  0.00     0.169 HD
ENDROOT
BRANCH   2   5
HETATM    5  C12 UNL     1      -0.436   0.017   0.677  1.00  0.00     0.015 A 
HETATM    6  C13 UNL     1      -1.456   0.350  -0.097  1.00  0.00     0.042 A 
HETATM    7  C14 UNL     1      -2.667  -0.306   0.435  1.00  0.00     0.027 A 
HETATM    8  C19 UNL     1      -2.334  -1.021   1.523  1.00  0.00     0.007 A 
HETATM    9  C20 UNL     1      -0.875  -0.880   1.778  1.00  0.00     0.073 A 
BRANCH   7  10
HETATM   10  N2  UNL     1      -3.996  -0.203  -0.116  1.00  0.00    -0.379 N 
BRANCH  10  11
HETATM   11  C15 UNL     1      -4.571   1.091  -0.452  1.00  0.00     0.138 C 
BRANCH  11  12
HETATM   12  C16 UNL     1      -4.750   1.281  -1.944  1.00  0.00     0.134 C 
HETATM   13 CL1  UNL     1      -5.456   2.868  -2.340  1.00  0.00    -0.129 Cl
ENDBRANCH  11  12
ENDBRANCH  10  11
BRANCH  10  14
HETATM   14  C17 UNL     1      -4.862  -1.345  -0.381  1.00  0.00     0.138 C 
BRANCH  14  15
HETATM   15  C18 UNL     1      -6.055  -1.352   0.553  1.00  0.00     0.134 C 
HETATM   16 CL2  UNL     1      -7.104  -2.760   0.212  1.00  0.00    -0.129 Cl
ENDBRANCH  14  15
ENDBRANCH  10  14
ENDBRANCH   7  10
ENDBRANCH   2   5
BRANCH   3  17
HETATM   17  C2  UNL     1       3.323   0.628   0.992  1.00  0.00     0.046 A 
HETATM   18  C3  UNL     1       3.656   1.836   1.588  1.00  0.00     0.030 A 
HETATM   19  C4  UNL     1       4.906   2.388   1.356  1.00  0.00     0.003 A 
HETATM   20  C5  UNL     1       5.813   1.740   0.539  1.00  0.00     0.012 A 
HETATM   21  C6  UNL     1       5.450   0.545  -0.034  1.00  0.00    -0.024 A 
HETATM   22  C7  UNL     1       6.314  -0.140  -0.853  1.00  0.00     0.012 A 
HETATM   23  C11 UNL     1       4.215  -0.030   0.176  1.00  0.00     0.001 A 
HETATM   24  C8  UNL     1       5.972  -1.340  -1.439  1.00  0.00     0.001 A 
HETATM   25  C9  UNL     1       4.725  -1.890  -1.208  1.00  0.00     0.001 A 
HETATM   26  C10 UNL     1       3.846  -1.229  -0.397  1.00  0.00     0.014 A 
ENDBRANCH   3  17
TORSDOF 7
