REMARK  8 active torsions:
REMARK  status: ('A' for Active; 'I' for Inactive)
REMARK    1  A    between atoms: C7_7  and  C8_8 
REMARK    2  A    between atoms: C8_8  and  N1_11 
REMARK       I    between atoms: N1_11  and  C10_12 
REMARK    3  A    between atoms: C10_12  and  C11_14 
REMARK    4  A    between atoms: C14_17  and  N2_18 
REMARK    5  A    between atoms: N2_18  and  C15_19 
REMARK    6  A    between atoms: N2_18  and  C17_22 
REMARK    7  A    between atoms: C15_19  and  C16_20 
REMARK    8  A    between atoms: C17_22  and  C18_23 
ROOT
HETATM    1  N1  UNL     1      -1.969   0.896  -0.499  1.00  0.00    -0.320 N 
HETATM    2  C10 UNL     1      -1.164  -0.267  -0.367  1.00  0.00     0.256 C 
HETATM    3  O1  UNL     1      -1.725  -1.413  -0.443  1.00  0.00    -0.267 OA
HETATM    4  H9  UNL     1      -1.545   1.838  -0.447  1.00  0.00     0.169 HD
ENDROOT
BRANCH   2   5
HETATM    5  C11 UNL     1       0.277  -0.245  -0.147  1.00  0.00     0.032 A 
HETATM    6  C12 UNL     1       0.928  -1.430   0.030  1.00  0.00     0.019 A 
HETATM    7  C13 UNL     1       2.287  -1.393   0.240  1.00  0.00     0.030 A 
HETATM    8  C14 UNL     1       3.095  -0.281   0.293  1.00  0.00     0.030 A 
HETATM    9  C19 UNL     1       2.372   0.874   0.106  1.00  0.00     0.030 A 
HETATM   10  C20 UNL     1       1.013   0.918  -0.107  1.00  0.00     0.019 A 
BRANCH   8  11
HETATM   11  N2  UNL     1       4.500  -0.209   0.478  1.00  0.00    -0.379 N 
BRANCH  11  12
HETATM   12  C15 UNL     1       5.111   1.103   0.575  1.00  0.00     0.138 C 
BRANCH  12  13
HETATM   13  C16 UNL     1       5.880   1.407  -0.684  1.00  0.00     0.134 C 
HETATM   14 CL1  UNL     1       6.590   3.058  -0.585  1.00  0.00    -0.129 Cl
ENDBRANCH  12  13
ENDBRANCH  11  12
BRANCH  11  15
HETATM   15  C17 UNL     1       5.556  -1.148   0.574  1.00  0.00     0.138 C 
BRANCH  15  16
HETATM   16  C18 UNL     1       5.200  -2.617   0.598  1.00  0.00     0.134 C 
HETATM   17 CL2  UNL     1       6.734  -3.573   0.741  1.00  0.00    -0.129 Cl
ENDBRANCH  15  16
ENDBRANCH  11  15
ENDBRANCH   8  11
ENDBRANCH   2   5
BRANCH   1  18
HETATM   18  C8  UNL     1      -3.372   0.861  -0.705  1.00  0.00     0.071 C 
HETATM   19  C9  UNL     1      -3.689   1.410  -1.858  1.00  0.00     0.431 C 
HETATM   20  F1  UNL     1      -3.031   1.995  -2.887  1.00  0.00    -0.429 F 
BRANCH  18  21
HETATM   21  C7  UNL     1      -4.401   0.325   0.155  1.00  0.00    -0.001 A 
HETATM   22  C2  UNL     1      -5.706   0.339  -0.225  1.00  0.00    -0.050 A 
HETATM   23  C1  UNL     1      -6.186   0.874  -1.504  1.00  0.00     0.049 C 
HETATM   24  C3  UNL     1      -6.595  -0.207   0.711  1.00  0.00     0.007 A 
HETATM   25  C4  UNL     1      -6.265  -0.736   1.937  1.00  0.00     0.001 A 
HETATM   26  C5  UNL     1      -4.906  -0.709   2.243  1.00  0.00     0.001 A 
HETATM   27  C6  UNL     1      -4.001  -0.180   1.349  1.00  0.00     0.014 A 
ENDBRANCH  18  21
ENDBRANCH   1  18
TORSDOF 8
