REMARK  10 active torsions:
REMARK  status: ('A' for Active; 'I' for Inactive)
REMARK    1  A    between atoms: C2_2  and  C3_3 
REMARK    2  A    between atoms: C3_3  and  C4_4 
REMARK    3  A    between atoms: C4_4  and  N2_15 
REMARK    4  A    between atoms: C5_5  and  C6_6 
REMARK    5  A    between atoms: C6_6  and  C7_7 
REMARK       I    between atoms: C7_7  and  N1_9 
REMARK    6  A    between atoms: N1_9  and  C8_10 
REMARK    7  A    between atoms: N2_15  and  C13_16 
REMARK    8  A    between atoms: N2_15  and  C15_19 
REMARK    9  A    between atoms: C13_16  and  C14_17 
REMARK   10  A    between atoms: C15_19  and  C16_20 
ROOT
HETATM    1  C4  UNL     1      -1.023   0.881   0.670  1.00  0.00     0.004 C 
HETATM    2  C5  UNL     1       0.027   0.982  -0.154  1.00  0.00     0.007 C 
ENDROOT
BRANCH   1   3
HETATM    3  C3  UNL     1      -1.141   1.897   1.749  1.00  0.00     0.056 C 
BRANCH   3   4
HETATM    4  C2  UNL     1      -2.400   2.740   1.639  1.00  0.00     0.002 C 
HETATM    5  C1  UNL     1      -2.391   3.483   0.320  1.00  0.00     0.005 C 
ENDBRANCH   3   4
ENDBRANCH   1   3
BRANCH   1   6
HETATM    6  N2  UNL     1      -1.854  -0.229   0.359  1.00  0.00    -0.382 N 
BRANCH   6   7
HETATM    7  C13 UNL     1      -3.021  -0.456  -0.430  1.00  0.00     0.137 C 
BRANCH   7   8
HETATM    8  C14 UNL     1      -3.645   0.629  -1.174  1.00  0.00     0.134 C 
HETATM    9 CL1  UNL     1      -5.063  -0.113  -2.022  1.00  0.00    -0.129 Cl
ENDBRANCH   7   8
ENDBRANCH   6   7
BRANCH   6  10
HETATM   10  C15 UNL     1      -1.394  -1.448   1.014  1.00  0.00     0.137 C 
BRANCH  10  11
HETATM   11  C16 UNL     1      -2.344  -1.935   2.081  1.00  0.00     0.134 C 
HETATM   12 CL2  UNL     1      -1.601  -3.427   2.758  1.00  0.00    -0.129 Cl
ENDBRANCH  10  11
ENDBRANCH   6  10
ENDBRANCH   1   6
BRANCH   2  13
HETATM   13  C6  UNL     1       0.431   0.163  -1.296  1.00  0.00     0.132 C 
BRANCH  13  14
HETATM   14  C7  UNL     1       1.774  -0.390  -0.969  1.00  0.00     0.225 C 
HETATM   15  O1  UNL     1       1.862   0.149   0.156  1.00  0.00    -0.273 OA
HETATM   16  N1  UNL     1       2.686  -1.235  -1.648  1.00  0.00    -0.330 N 
HETATM   17  H11 UNL     1       2.237  -1.476  -2.578  1.00  0.00     0.168 HD
BRANCH  16  18
HETATM   18  C8  UNL     1       3.903  -1.552  -0.995  1.00  0.00     0.015 A 
HETATM   19  C9  UNL     1       4.407  -2.736  -0.632  1.00  0.00     0.025 A 
HETATM   20  C10 UNL     1       5.703  -2.446   0.009  1.00  0.00    -0.002 A 
HETATM   21  C11 UNL     1       5.957  -1.146   0.026  1.00  0.00    -0.021 A 
HETATM   22  C12 UNL     1       4.809  -0.436  -0.627  1.00  0.00     0.084 A 
ENDBRANCH  16  18
ENDBRANCH  13  14
ENDBRANCH   2  13
TORSDOF 10
