REMARK  5 active torsions:
REMARK  status: ('A' for Active; 'I' for Inactive)
REMARK    1  A    between atoms: C2_2  and  N1_3 
REMARK    2  A    between atoms: N1_3  and  C3_4 
REMARK    3  A    between atoms: N1_3  and  C16_20 
REMARK    4  A    between atoms: C4_5  and  C5_7 
REMARK       I    between atoms: C5_7  and  N2_9 
REMARK    5  A    between atoms: N2_9  and  C6_10 
ROOT
HETATM    1  C5  UNL     1      -0.344   0.828   0.066  1.00  0.00     0.269 C 
HETATM    2  O1  UNL     1      -0.365   0.650  -1.179  1.00  0.00    -0.266 OA
HETATM    3  N2  UNL     1       0.719   1.133   0.950  1.00  0.00    -0.321 N 
HETATM    4  H7  UNL     1       0.511   1.239   1.963  1.00  0.00     0.169 HD
ENDROOT
BRANCH   3   5
HETATM    5  C6  UNL     1       2.010   1.274   0.378  1.00  0.00     0.046 A 
HETATM    6  C7  UNL     1       2.531   2.479  -0.096  1.00  0.00     0.030 A 
HETATM    7  C8  UNL     1       3.802   2.551  -0.645  1.00  0.00     0.003 A 
HETATM    8  C9  UNL     1       4.593   1.421  -0.738  1.00  0.00     0.012 A 
HETATM    9  C10 UNL     1       4.128   0.218  -0.288  1.00  0.00    -0.024 A 
HETATM   10  C11 UNL     1       4.835  -0.960  -0.336  1.00  0.00     0.012 A 
HETATM   11  C15 UNL     1       2.853   0.180   0.256  1.00  0.00     0.001 A 
HETATM   12  C12 UNL     1       4.377  -2.177   0.114  1.00  0.00     0.001 A 
HETATM   13  C13 UNL     1       3.092  -2.229   0.665  1.00  0.00     0.001 A 
HETATM   14  C14 UNL     1       2.385  -1.036   0.710  1.00  0.00     0.014 A 
ENDBRANCH   3   5
BRANCH   1  15
HETATM   15  C4  UNL     1      -1.685   0.675   0.618  1.00  0.00     0.117 C 
HETATM   16  C3  UNL     1      -2.563   0.392  -0.332  1.00  0.00     0.116 C 
HETATM   17 CL1  UNL     1      -2.311   0.796   2.250  1.00  0.00    -0.077 Cl
BRANCH  16  18
HETATM   18  N1  UNL     1      -3.941   0.146  -0.406  1.00  0.00    -0.376 N 
BRANCH  18  19
HETATM   19  C2  UNL     1      -4.520  -1.183  -0.275  1.00  0.00     0.119 C 
HETATM   20  C1  UNL     1      -3.485  -2.255  -0.053  1.00  0.00     0.026 C 
ENDBRANCH  18  19
BRANCH  18  21
HETATM   21  C16 UNL     1      -4.993   1.122  -0.617  1.00  0.00     0.237 C 
HETATM   22 CL2  UNL     1      -4.357   2.760  -0.785  1.00  0.00    -0.109 Cl
ENDBRANCH  18  21
ENDBRANCH  16  18
ENDBRANCH   1  15
TORSDOF 5
