REMARK  7 active torsions:
REMARK  status: ('A' for Active; 'I' for Inactive)
REMARK    1  A    between atoms: C9_9  and  O1_10 
REMARK    2  A    between atoms: O1_10  and  C10_11 
REMARK    3  A    between atoms: C10_11  and  C11_12 
REMARK    4  A    between atoms: C11_12  and  O2_13 
REMARK    5  A    between atoms: C13_15  and  C14_16 
REMARK    6  A    between atoms: C14_16  and  C15_17 
REMARK    7  A    between atoms: C15_17  and  O3_18 
ROOT
HETATM    1  C1  UNL     1       3.056  -2.854  -3.133  1.00  0.00     0.013 C 
HETATM    2  C2  UNL     1       2.095  -2.577  -2.435  1.00  0.00    -0.105 C 
HETATM    3  C3  UNL     1       0.959  -2.269  -1.629  1.00  0.00     0.051 A 
HETATM    4  C4  UNL     1      -0.148  -3.167  -1.762  1.00  0.00     0.050 A 
HETATM    5  C5  UNL     1      -1.555  -3.707  -1.462  1.00  0.00     0.146 A 
HETATM    6  C6  UNL     1      -0.813  -2.747  -1.102  1.00  0.00     0.264 A 
HETATM    7  C7  UNL     1       0.142  -1.832  -0.881  1.00  0.00     0.123 A 
HETATM    8  C8  UNL     1       1.265  -1.099  -0.885  1.00  0.00     0.052 A 
HETATM    9  C9  UNL     1       0.434  -0.131  -0.088  1.00  0.00     0.065 C 
HETATM   10  C13 UNL     1      -0.478   0.476   0.561  1.00  0.00    -0.025 C 
HETATM   11  C17 UNL     1      -1.832  -0.054   0.713  1.00  0.00     0.022 C 
HETATM   12  C18 UNL     1      -3.032  -0.594   0.812  1.00  0.00     0.016 C 
HETATM   13  C19 UNL     1      -4.347  -0.257   1.372  1.00  0.00     0.192 C 
HETATM   14  N1  UNL     1      -5.361  -1.115   0.927  1.00  0.00    -0.278 NA
HETATM   15  C20 UNL     1      -5.382  -2.201   0.280  1.00  0.00     0.229 C 
HETATM   16  N2  UNL     1      -4.090  -2.728  -0.155  1.00  0.00    -0.218 NA
HETATM   17  C21 UNL     1      -3.113  -1.937   0.150  1.00  0.00     0.237 C 
HETATM   18  N3  UNL     1      -2.252  -2.997  -0.306  1.00  0.00    -0.015 N 
HETATM   19  H23 UNL     1      -1.947  -3.602   0.577  1.00  0.00     0.289 HD
ENDROOT
BRANCH   9  20
HETATM   20  O1  UNL     1       1.653   0.454  -0.267  1.00  0.00    -0.352 OA
BRANCH  20  21
HETATM   21  C10 UNL     1       2.725   0.393   0.614  1.00  0.00     0.201 C 
BRANCH  21  22
HETATM   22  C11 UNL     1       4.009   0.778  -0.099  1.00  0.00     0.193 C 
BRANCH  22  23
HETATM   23  O2  UNL     1       5.049   0.713   0.810  1.00  0.00    -0.394 OA
HETATM   24  C12 UNL     1       6.248   1.065   0.155  1.00  0.00     0.201 C 
ENDBRANCH  22  23
ENDBRANCH  21  22
ENDBRANCH  20  21
ENDBRANCH   9  20
BRANCH  10  25
HETATM   25  C14 UNL     1      -0.141   1.845   1.122  1.00  0.00     0.067 C 
BRANCH  25  26
HETATM   26  C15 UNL     1      -1.097   2.910   0.621  1.00  0.00     0.171 C 
BRANCH  26  27
HETATM   27  O3  UNL     1      -0.685   4.096   1.225  1.00  0.00    -0.396 OA
HETATM   28  C16 UNL     1      -1.478   5.177   0.872  1.00  0.00     0.201 C 
ENDBRANCH  26  27
ENDBRANCH  25  26
ENDBRANCH  10  25
TORSDOF 7
