REMARK  0 active torsions:
REMARK  status: ('A' for Active; 'I' for Inactive)
ROOT
HETATM    1  C1  UNL     1       5.043   2.687  -1.400  1.00  0.00     0.048 C 
HETATM    2  C2  UNL     1       3.718   2.592  -0.789  1.00  0.00    -0.060 C 
HETATM    3  C3  UNL     1       2.681   3.362  -0.516  1.00  0.00     0.006 C 
HETATM    4  C4  UNL     1       1.460   4.025  -0.135  1.00  0.00    -0.002 C 
HETATM    5  C5  UNL     1       0.480   3.341   0.480  1.00  0.00    -0.007 C 
HETATM    6  C6  UNL     1      -0.275   2.259   1.093  1.00  0.00     0.148 C 
HETATM    7  N1  UNL     1      -1.572   1.986   0.513  1.00  0.00    -0.374 N 
HETATM    8  C7  UNL     1      -2.167   1.088   1.369  1.00  0.00     0.114 A 
HETATM    9  N2  UNL     1      -2.981   1.059   2.506  1.00  0.00    -0.238 NA
HETATM   10  C8  UNL     1      -3.059  -0.326   2.789  1.00  0.00     0.187 A 
HETATM   11  N3  UNL     1      -2.945  -1.673   2.793  1.00  0.00    -0.279 NA
HETATM   12  C9  UNL     1      -2.108  -2.025   1.657  1.00  0.00     0.090 A 
HETATM   13  C10 UNL     1      -2.113  -0.387   1.469  1.00  0.00     0.106 A 
HETATM   14  C11 UNL     1      -1.771  -1.462   1.191  1.00  0.00     0.077 A 
HETATM   15  C12 UNL     1      -3.087  -0.694   1.301  1.00  0.00     0.182 C 
HETATM   16  O1  UNL     1      -4.167  -1.621   1.110  1.00  0.00    -0.379 OA
HETATM   17  C13 UNL     1      -4.603  -1.494  -0.217  1.00  0.00     0.195 C 
HETATM   18  C14 UNL     1      -3.543  -1.853  -1.186  1.00  0.00     0.200 C 
HETATM   19  O2  UNL     1      -2.347  -1.063  -1.132  1.00  0.00    -0.358 OA
HETATM   20  C15 UNL     1      -1.154  -1.780  -1.494  1.00  0.00     0.167 C 
HETATM   21  C16 UNL     1      -0.655  -2.539  -0.535  1.00  0.00     0.075 C 
HETATM   22  C17 UNL     1      -1.196  -2.671   0.808  1.00  0.00     0.086 C 
HETATM   23  O3  UNL     1       0.468  -3.369  -0.536  1.00  0.00    -0.351 OA
HETATM   24  C18 UNL     1       1.547  -2.804   0.260  1.00  0.00     0.202 C 
HETATM   25  C19 UNL     1       2.436  -1.980  -0.617  1.00  0.00     0.201 C 
HETATM   26  O4  UNL     1       3.498  -1.399   0.158  1.00  0.00    -0.361 OA
HETATM   27  C20 UNL     1       4.029  -0.173  -0.319  1.00  0.00     0.135 C 
HETATM   28  C21 UNL     1       3.836   1.119  -0.519  1.00  0.00     0.030 C 
HETATM   29  H9  UNL     1      -2.340   2.082  -0.161  1.00  0.00     0.161 HD
ENDROOT
TORSDOF 0
