REMARK  3 active torsions:
REMARK  status: ('A' for Active; 'I' for Inactive)
REMARK    1  A    between atoms: C3_5  and  N2_6 
REMARK    2  A    between atoms: N2_6  and  C4_7 
REMARK    3  A    between atoms: C4_7  and  C5_8 
ROOT
HETATM    1 BR1  UNL     1       1.036  -1.159  -4.018  1.00  0.00    -0.049 Br
HETATM    2  C1  UNL     1      -0.444  -0.411  -3.120  1.00  0.00     0.043 C 
HETATM    3  C2  UNL     1      -1.037   0.749  -3.333  1.00  0.00     0.106 C 
HETATM    4  N1  UNL     1      -0.871   1.595  -2.371  1.00  0.00    -0.227 NA
HETATM    5  C3  UNL     1       0.122   1.255  -1.417  1.00  0.00     0.139 C 
HETATM    6  C11 UNL     1      -0.423   2.207  -0.630  1.00  0.00     0.134 C 
HETATM    7  N3  UNL     1      -1.505   2.788  -1.289  1.00  0.00    -0.392 N 
HETATM    8  C12 UNL     1      -2.626   2.207  -0.588  1.00  0.00     0.159 C 
HETATM    9  C13 UNL     1      -2.810   0.774  -0.706  1.00  0.00    -0.019 C 
HETATM   10  C14 UNL     1      -4.033   0.561  -0.205  1.00  0.00    -0.017 C 
HETATM   11  C15 UNL     1      -4.048  -0.141   0.933  1.00  0.00     0.013 C 
HETATM   12  C16 UNL     1      -3.505  -1.492   0.668  1.00  0.00     0.002 C 
HETATM   13  C17 UNL     1      -2.606  -1.647  -0.316  1.00  0.00     0.012 C 
HETATM   14  C18 UNL     1      -2.162  -0.478  -1.125  1.00  0.00    -0.026 C 
HETATM   15  C19 UNL     1      -1.293  -0.824  -2.036  1.00  0.00     0.033 C 
HETATM   16  H10 UNL     1      -1.111   3.417  -2.014  1.00  0.00     0.159 HD
ENDROOT
BRANCH   5  17
HETATM   17  N2  UNL     1       1.228   0.619  -0.798  1.00  0.00    -0.369 N 
HETATM   18  H1  UNL     1       2.151   0.547  -1.322  1.00  0.00     0.161 HD
BRANCH  17  19
HETATM   19  C4  UNL     1       0.991   0.108   0.537  1.00  0.00     0.160 C 
BRANCH  19  20
HETATM   20  C5  UNL     1       2.246  -0.508   1.016  1.00  0.00    -0.041 A 
HETATM   21  C6  UNL     1       3.174   0.279   1.702  1.00  0.00     0.009 A 
HETATM   22  C7  UNL     1       4.359  -0.244   2.170  1.00  0.00     0.001 A 
HETATM   23  C8  UNL     1       4.633  -1.575   1.954  1.00  0.00     0.000 A 
HETATM   24  C9  UNL     1       3.699  -2.330   1.272  1.00  0.00     0.001 A 
HETATM   25  C10 UNL     1       2.499  -1.838   0.789  1.00  0.00     0.009 A 
ENDBRANCH  19  20
ENDBRANCH  17  19
ENDBRANCH   5  17
TORSDOF 3
