REMARK  9 active torsions:
REMARK  status: ('A' for Active; 'I' for Inactive)
REMARK    1  A    between atoms: C2_2  and  C4_4 
REMARK    2  A    between atoms: C7_7  and  N1_8 
REMARK       I    between atoms: N1_8  and  C8_9 
REMARK       I    between atoms: C8_9  and  N2_11 
REMARK    3  A    between atoms: N2_11  and  C9_12 
REMARK    4  A    between atoms: C12_15  and  C13_16 
REMARK    5  A    between atoms: C13_16  and  N3_17 
REMARK    6  A    between atoms: N3_17  and  C14_18 
REMARK    7  A    between atoms: N3_17  and  C16_21 
REMARK    8  A    between atoms: C14_18  and  C15_19 
REMARK    9  A    between atoms: C16_21  and  C17_22 
ROOT
HETATM    1  N1  UNL     1       2.252   0.273  -1.516  1.00  0.00    -0.309 N 
HETATM    2  C8  UNL     1       0.905   0.294  -1.066  1.00  0.00     0.325 C 
HETATM    3  O1  UNL     1       0.599   0.271   0.140  1.00  0.00    -0.247 OA
HETATM    4  N2  UNL     1      -0.029   0.343  -2.116  1.00  0.00    -0.309 N 
HETATM    5  H10 UNL     1       2.568   0.291  -2.507  1.00  0.00     0.170 HD
HETATM    6  H11 UNL     1       0.176   0.363  -3.145  1.00  0.00     0.170 HD
ENDROOT
BRANCH   4   7
HETATM    7  C9  UNL     1      -1.410   0.371  -1.808  1.00  0.00     0.033 A 
HETATM    8  C10 UNL     1      -2.182   1.370  -2.186  1.00  0.00     0.007 A 
HETATM    9  C11 UNL     1      -3.603   1.192  -1.752  1.00  0.00     0.065 A 
HETATM   10  C12 UNL     1      -3.608  -0.103  -1.037  1.00  0.00    -0.057 A 
HETATM   11  C18 UNL     1      -2.327  -0.496  -1.115  1.00  0.00     0.034 A 
BRANCH  10  12
HETATM   12  C13 UNL     1      -4.573  -0.985  -0.348  1.00  0.00     0.151 C 
BRANCH  12  13
HETATM   13  N3  UNL     1      -5.219  -0.378   0.772  1.00  0.00    -0.407 N 
BRANCH  13  14
HETATM   14  C14 UNL     1      -6.172   0.634   0.490  1.00  0.00     0.132 C 
BRANCH  14  15
HETATM   15  C15 UNL     1      -6.765   1.153   1.801  1.00  0.00     0.134 C 
HETATM   16 CL1  UNL     1      -5.503   1.804   2.861  1.00  0.00    -0.129 Cl
ENDBRANCH  14  15
ENDBRANCH  13  14
BRANCH  13  17
HETATM   17  C16 UNL     1      -5.540  -1.290   1.819  1.00  0.00     0.132 C 
BRANCH  17  18
HETATM   18  C17 UNL     1      -6.630  -2.264   1.462  1.00  0.00     0.134 C 
HETATM   19 CL2  UNL     1      -6.932  -3.345   2.859  1.00  0.00    -0.129 Cl
ENDBRANCH  17  18
ENDBRANCH  13  17
ENDBRANCH  12  13
ENDBRANCH  10  12
ENDBRANCH   4   7
BRANCH   1  20
HETATM   20  C7  UNL     1       3.543   0.226  -0.930  1.00  0.00     0.036 A 
HETATM   21  C6  UNL     1       4.143   1.452  -0.627  1.00  0.00     0.030 A 
HETATM   22  C5  UNL     1       5.387   1.579  -0.059  1.00  0.00     0.010 A 
HETATM   23  C4  UNL     1       6.052   0.404   0.212  1.00  0.00    -0.055 A 
HETATM   24  C20 UNL     1       5.526  -0.841  -0.057  1.00  0.00     0.010 A 
HETATM   25  C19 UNL     1       4.270  -0.896  -0.628  1.00  0.00     0.030 A 
BRANCH  23  26
HETATM   26  C2  UNL     1       7.407   0.487   0.829  1.00  0.00     0.010 C 
HETATM   27  C1  UNL     1       7.436  -0.285   2.124  1.00  0.00     0.015 C 
HETATM   28  C3  UNL     1       8.446  -0.080  -0.099  1.00  0.00     0.015 C 
ENDBRANCH  23  26
ENDBRANCH   1  20
TORSDOF 9
