REMARK  8 active torsions:
REMARK  status: ('A' for Active; 'I' for Inactive)
REMARK    1  A    between atoms: C2_2  and  C4_4 
REMARK    2  A    between atoms: C7_7  and  N1_8 
REMARK       I    between atoms: N1_8  and  C8_9 
REMARK    3  A    between atoms: C8_9  and  C9_11 
REMARK    4  A    between atoms: C12_14  and  N2_15 
REMARK    5  A    between atoms: N2_15  and  C13_16 
REMARK    6  A    between atoms: N2_15  and  C15_19 
REMARK    7  A    between atoms: C13_16  and  C14_17 
REMARK    8  A    between atoms: C15_19  and  C16_20 
ROOT
HETATM    1  C9  UNL     1      -1.031   0.608   0.188  1.00  0.00     0.032 A 
HETATM    2  C10 UNL     1      -1.556  -0.556  -0.331  1.00  0.00     0.019 A 
HETATM    3  C11 UNL     1      -2.915  -0.661  -0.483  1.00  0.00     0.030 A 
HETATM    4  C12 UNL     1      -3.849   0.282  -0.171  1.00  0.00     0.030 A 
HETATM    5  C17 UNL     1      -3.258   1.429   0.348  1.00  0.00     0.030 A 
HETATM    6  C18 UNL     1      -1.911   1.602   0.526  1.00  0.00     0.019 A 
ENDROOT
BRANCH   1   7
HETATM    7  C8  UNL     1       0.383   0.837   0.393  1.00  0.00     0.256 C 
HETATM    8  N1  UNL     1       1.330  -0.151   0.041  1.00  0.00    -0.323 N 
HETATM    9  H10 UNL     1       1.124  -1.072  -0.370  1.00  0.00     0.169 HD
HETATM   10  O1  UNL     1       0.833   1.910   0.887  1.00  0.00    -0.267 OA
BRANCH   8  11
HETATM   11  C7  UNL     1       2.746  -0.220   0.118  1.00  0.00     0.035 A 
HETATM   12  C6  UNL     1       3.453  -0.717   1.202  1.00  0.00     0.030 A 
HETATM   13  C5  UNL     1       4.824  -0.757   1.219  1.00  0.00     0.010 A 
HETATM   14  C4  UNL     1       5.479  -0.274   0.092  1.00  0.00    -0.055 A 
HETATM   15  C20 UNL     1       4.824   0.233  -1.016  1.00  0.00     0.010 A 
HETATM   16  C19 UNL     1       3.452   0.253  -0.988  1.00  0.00     0.030 A 
BRANCH  14  17
HETATM   17  C2  UNL     1       6.973  -0.282   0.017  1.00  0.00     0.010 C 
HETATM   18  C1  UNL     1       7.434   1.164   0.081  1.00  0.00     0.015 C 
HETATM   19  C3  UNL     1       7.478  -0.984  -1.213  1.00  0.00     0.015 C 
ENDBRANCH  14  17
ENDBRANCH   8  11
ENDBRANCH   1   7
BRANCH   4  20
HETATM   20  N2  UNL     1      -5.271   0.112  -0.339  1.00  0.00    -0.379 N 
BRANCH  20  21
HETATM   21  C13 UNL     1      -6.066   1.259   0.034  1.00  0.00     0.138 C 
BRANCH  21  22
HETATM   22  C14 UNL     1      -6.823   1.173   1.306  1.00  0.00     0.134 C 
HETATM   23 CL1  UNL     1      -7.708   2.734   1.545  1.00  0.00    -0.129 Cl
ENDBRANCH  21  22
ENDBRANCH  20  21
BRANCH  20  24
HETATM   24  C15 UNL     1      -5.739  -1.164  -0.810  1.00  0.00     0.138 C 
BRANCH  24  25
HETATM   25  C16 UNL     1      -6.432  -2.046   0.164  1.00  0.00     0.134 C 
HETATM   26 CL2  UNL     1      -6.824  -3.573  -0.740  1.00  0.00    -0.129 Cl
ENDBRANCH  24  25
ENDBRANCH  20  24
ENDBRANCH   4  20
TORSDOF 8
