REMARK  2 active torsions:
REMARK  status: ('A' for Active; 'I' for Inactive)
REMARK    1  A    between atoms: O1_2  and  C2_3 
REMARK    2  A    between atoms: C3_4  and  C4_5 
ROOT
HETATM    1  C4  UNL     1      -0.080  -0.382  -0.032  1.00  0.00     0.115 A 
HETATM    2  N1  UNL     1       0.920  -0.453   0.836  1.00  0.00    -0.232 NA
HETATM    3  C5  UNL     1       2.184  -0.240   0.742  1.00  0.00     0.115 A 
HETATM    4  S1  UNL     1       3.240  -0.479   2.298  1.00  0.00    -0.069 SA
HETATM    5  C6  UNL     1       4.817  -0.005   1.373  1.00  0.00     0.018 A 
HETATM    6  C7  UNL     1       6.108   0.054   1.891  1.00  0.00     0.020 A 
HETATM    7  C8  UNL     1       7.097   0.419   1.036  1.00  0.00     0.008 A 
HETATM    8  C9  UNL     1       6.707   0.691  -0.258  1.00  0.00    -0.061 A 
HETATM    9  C10 UNL     1       7.795   1.108  -1.222  1.00  0.00     0.048 C 
HETATM   10  C11 UNL     1       5.444   0.632  -0.763  1.00  0.00     0.020 A 
HETATM   11  C12 UNL     1       4.407   0.270   0.056  1.00  0.00    -0.001 A 
HETATM   12  C13 UNL     1       3.069   0.128  -0.176  1.00  0.00     0.069 A 
HETATM   13  C14 UNL     1       2.366   0.321  -1.341  1.00  0.00     0.229 A 
HETATM   14  O2  UNL     1       2.935   0.684  -2.434  1.00  0.00    -0.279 OA
HETATM   15  S2  UNL     1       0.695   0.102  -1.464  1.00  0.00    -0.026 SA
ENDROOT
BRANCH   1  16
HETATM   16  C3  UNL     1      -1.490  -0.683   0.369  1.00  0.00     0.033 C 
HETATM   17  C2  UNL     1      -2.252  -1.381  -0.454  1.00  0.00     0.085 C 
HETATM   18  C20 UNL     1      -3.593  -1.720  -0.023  1.00  0.00     0.275 C 
HETATM   19  O5  UNL     1      -4.705  -1.290  -0.669  1.00  0.00    -0.234 OA
HETATM   20  O4  UNL     1      -5.727  -1.064   0.179  1.00  0.00    -0.241 OA
HETATM   21  C19 UNL     1      -6.219   0.239   0.091  1.00  0.00     0.212 C 
HETATM   22  C18 UNL     1      -6.187   0.917   1.532  1.00  0.00     0.056 C 
HETATM   23  C17 UNL     1      -4.792   0.636   1.835  1.00  0.00     0.176 C 
HETATM   24  O3  UNL     1      -3.963   0.934   2.869  1.00  0.00    -0.363 OA
HETATM   25  C16 UNL     1      -2.591   0.700   2.401  1.00  0.00     0.135 C 
HETATM   26  C15 UNL     1      -1.810   0.114   1.505  1.00  0.00     0.041 C 
BRANCH  17  27
HETATM   27  O1  UNL     1      -1.906  -1.862  -1.694  1.00  0.00    -0.357 OA
HETATM   28  C1  UNL     1      -2.400  -1.175  -2.830  1.00  0.00     0.209 C 
ENDBRANCH  17  27
ENDBRANCH   1  16
TORSDOF 2
