REMARK  3 active torsions:
REMARK  status: ('A' for Active; 'I' for Inactive)
REMARK    1  A    between atoms: O1_2  and  C2_3 
REMARK    2  A    between atoms: C3_4  and  O2_5 
REMARK    3  A    between atoms: O2_5  and  C4_6 
ROOT
HETATM    1  C4  UNL     1       1.803  -0.821   1.066  1.00  0.00     0.156 C 
HETATM    2  C5  UNL     1       1.085  -1.817   0.179  1.00  0.00     0.005 C 
HETATM    3  C6  UNL     1       1.351  -2.996  -0.359  1.00  0.00    -0.005 C 
HETATM    4  C7  UNL     1       0.847  -4.053  -1.183  1.00  0.00    -0.017 C 
HETATM    5  C8  UNL     1      -0.380  -3.535  -1.464  1.00  0.00     0.044 C 
HETATM    6  C9  UNL     1      -1.484  -4.113  -2.297  1.00  0.00     0.007 C 
HETATM    7  C10 UNL     1      -2.375  -3.104  -2.157  1.00  0.00     0.131 C 
HETATM    8  O3  UNL     1      -2.481  -1.881  -1.534  1.00  0.00    -0.359 OA
HETATM    9  C11 UNL     1      -3.267  -1.697  -0.385  1.00  0.00     0.210 C 
HETATM   10  C12 UNL     1      -3.460  -0.206  -0.279  1.00  0.00    -0.037 C 
HETATM   11  C13 UNL     1      -3.889   0.393  -1.393  1.00  0.00     0.093 C 
HETATM   12  N1  UNL     1      -3.759   1.787  -1.747  1.00  0.00    -0.369 N 
HETATM   13  C14 UNL     1      -3.086   2.615  -0.776  1.00  0.00     0.009 C 
HETATM   14  C15 UNL     1      -2.903   4.068  -1.052  1.00  0.00     0.068 C 
HETATM   15  C16 UNL     1      -2.654   2.026   0.343  1.00  0.00    -0.030 C 
HETATM   16  C17 UNL     1      -1.555   2.669   1.061  1.00  0.00     0.204 C 
HETATM   17  O4  UNL     1      -0.302   2.198   0.786  1.00  0.00    -0.386 OA
HETATM   18  C18 UNL     1      -0.083   0.861   1.078  1.00  0.00     0.175 C 
HETATM   19  C19 UNL     1       1.369   0.565   0.762  1.00  0.00     0.039 C 
HETATM   20  C20 UNL     1       1.605   0.846  -0.725  1.00  0.00     0.015 C 
HETATM   21  C21 UNL     1      -3.279   0.780   0.832  1.00  0.00     0.076 C 
HETATM   22  H16 UNL     1      -4.127   2.145  -2.639  1.00  0.00     0.165 HD
ENDROOT
BRANCH   1  23
HETATM   23  O2  UNL     1       3.203  -0.917   0.798  1.00  0.00    -0.352 OA
BRANCH  23  24
HETATM   24  C3  UNL     1       4.151  -0.112   1.413  1.00  0.00     0.159 C 
HETATM   25  C2  UNL     1       4.725   1.079   1.388  1.00  0.00     0.158 C 
BRANCH  25  26
HETATM   26  O1  UNL     1       5.684   1.213   2.399  1.00  0.00    -0.366 OA
HETATM   27  C1  UNL     1       7.011   0.825   2.058  1.00  0.00     0.209 C 
ENDBRANCH  25  26
ENDBRANCH  23  24
ENDBRANCH   1  23
TORSDOF 3
