REMARK  3 active torsions:
REMARK  status: ('A' for Active; 'I' for Inactive)
REMARK    1  A    between atoms: C3_3  and  C4_4 
REMARK    2  A    between atoms: C10_10  and  C11_11 
REMARK    3  A    between atoms: C18_22  and  O2_23 
ROOT
HETATM    1  C4  UNL     1      -1.639   0.223   0.468  1.00  0.00     0.055 C 
HETATM    2  C5  UNL     1      -0.848   0.276  -0.573  1.00  0.00     0.085 C 
HETATM    3  C6  UNL     1      -0.428   0.747  -1.879  1.00  0.00    -0.071 C 
HETATM    4  C7  UNL     1      -0.682   1.613  -3.059  1.00  0.00     0.044 C 
HETATM    5  C8  UNL     1       0.706   0.189  -2.273  1.00  0.00     0.018 C 
HETATM    6  C9  UNL     1       1.017  -0.674  -1.147  1.00  0.00     0.011 A 
HETATM    7  C10 UNL     1       2.075  -0.194  -0.445  1.00  0.00    -0.021 A 
HETATM    8  C15 UNL     1       2.507  -0.808   0.740  1.00  0.00     0.015 A 
HETATM    9  C16 UNL     1       1.751  -1.932   1.110  1.00  0.00     0.040 A 
HETATM   10  C17 UNL     1       0.662  -2.389   0.345  1.00  0.00     0.102 A 
HETATM   11  C18 UNL     1       0.270  -1.764  -0.816  1.00  0.00     0.112 A 
HETATM   12  O3  UNL     1       0.182  -3.472   1.009  1.00  0.00    -0.348 OA
HETATM   13  C20 UNL     1      -1.024  -3.846   1.504  1.00  0.00     0.178 C 
HETATM   14  C21 UNL     1      -1.602  -2.911   2.520  1.00  0.00     0.053 C 
HETATM   15  C22 UNL     1      -2.084  -1.598   2.023  1.00  0.00     0.177 C 
HETATM   16  O4  UNL     1      -1.195  -0.699   1.464  1.00  0.00    -0.355 OA
ENDROOT
BRANCH   7  17
HETATM   17  C11 UNL     1       2.838   0.988  -0.908  1.00  0.00     0.037 C 
HETATM   18  C12 UNL     1       3.340   2.050  -0.307  1.00  0.00     0.077 C 
HETATM   19  S1  UNL     1       4.268   3.420  -1.068  1.00  0.00    -0.047 SA
HETATM   20  C14 UNL     1       3.322   2.485   1.094  1.00  0.00     0.264 C 
HETATM   21  C13 UNL     1       5.228   3.782   0.428  1.00  0.00     0.167 C 
HETATM   22  N1  UNL     1       6.399   4.254   0.601  1.00  0.00    -0.278 NA
HETATM   23  N2  UNL     1       4.324   3.396   1.459  1.00  0.00    -0.301 N 
HETATM   24  H12 UNL     1       7.034   4.525  -0.172  1.00  0.00     0.189 HD
HETATM   25  H13 UNL     1       4.431   3.794   2.442  1.00  0.00     0.171 HD
HETATM   26  O1  UNL     1       2.442   2.054   1.921  1.00  0.00    -0.267 OA
ENDBRANCH   7  17
BRANCH  11  27
HETATM   27  O2  UNL     1      -0.791  -2.290  -1.485  1.00  0.00    -0.352 OA
HETATM   28  C19 UNL     1      -0.785  -3.264  -2.483  1.00  0.00     0.210 C 
ENDBRANCH  11  27
BRANCH   1  29
HETATM   29  C3  UNL     1      -2.900   0.861   0.915  1.00  0.00     0.028 C 
HETATM   30  C2  UNL     1      -3.603   1.770   0.230  1.00  0.00    -0.028 C 
HETATM   31  C1  UNL     1      -4.870   2.441   0.629  1.00  0.00     0.036 C 
ENDBRANCH   1  29
TORSDOF 3
