REMARK  2 active torsions:
REMARK  status: ('A' for Active; 'I' for Inactive)
REMARK    1  A    between atoms: O1_2  and  C2_3 
REMARK    2  A    between atoms: C4_5  and  C5_6 
ROOT
HETATM    1  C2  UNL     1       1.120   0.353  -1.296  1.00  0.00     0.074 A 
HETATM    2  C3  UNL     1       1.186  -0.939  -1.033  1.00  0.00     0.030 A 
HETATM    3  C4  UNL     1       0.566  -0.675   0.283  1.00  0.00     0.058 A 
HETATM    4  C9  UNL     1      -0.875  -1.122   0.325  1.00  0.00    -0.036 A 
HETATM    5  C10 UNL     1      -1.240  -2.090  -0.568  1.00  0.00     0.015 A 
HETATM    6  C11 UNL     1      -2.628  -2.124  -0.692  1.00  0.00    -0.059 A 
HETATM    7  C12 UNL     1      -3.236  -3.113  -1.612  1.00  0.00     0.048 C 
HETATM    8  C13 UNL     1      -3.463  -1.275   0.005  1.00  0.00     0.043 A 
HETATM    9  C14 UNL     1      -2.804  -0.403   0.832  1.00  0.00     0.069 A 
HETATM   10  C15 UNL     1      -1.478  -0.209   1.115  1.00  0.00     0.045 A 
HETATM   11  O3  UNL     1      -3.593   0.544   1.549  1.00  0.00    -0.351 OA
HETATM   12  C16 UNL     1      -3.019   1.854   1.598  1.00  0.00     0.178 C 
HETATM   13  C17 UNL     1      -2.681   2.504   0.320  1.00  0.00     0.053 C 
HETATM   14  C18 UNL     1      -1.684   1.782  -0.594  1.00  0.00     0.171 C 
HETATM   15  O4  UNL     1      -0.614   1.447   0.045  1.00  0.00    -0.377 OA
HETATM   16  C19 UNL     1       0.517   0.839  -0.039  1.00  0.00     0.198 A 
ENDROOT
BRANCH   3  17
HETATM   17  C5  UNL     1       1.267  -1.064   1.490  1.00  0.00     0.019 C 
HETATM   18  C6  UNL     1       2.534  -0.799   1.589  1.00  0.00     0.074 C 
HETATM   19  S1  UNL     1       3.572   0.031   0.356  1.00  0.00    -0.047 SA
HETATM   20  C8  UNL     1       3.467  -1.074   2.674  1.00  0.00     0.264 C 
HETATM   21  C7  UNL     1       5.139  -0.524   1.077  1.00  0.00     0.167 C 
HETATM   22  N1  UNL     1       6.321  -0.557   0.520  1.00  0.00    -0.278 NA
HETATM   23  N2  UNL     1       4.830  -0.930   2.401  1.00  0.00    -0.301 N 
HETATM   24  H6  UNL     1       6.500  -0.256  -0.439  1.00  0.00     0.189 HD
HETATM   25  H7  UNL     1       5.586  -1.100   3.100  1.00  0.00     0.171 HD
HETATM   26  O2  UNL     1       2.992  -1.432   3.807  1.00  0.00    -0.267 OA
ENDBRANCH   3  17
BRANCH   1  27
HETATM   27  O1  UNL     1       1.472   1.170  -2.367  1.00  0.00    -0.358 OA
HETATM   28  C1  UNL     1       2.107   2.401  -2.266  1.00  0.00     0.209 C 
ENDBRANCH   1  27
TORSDOF 2
