REMARK  6 active torsions:
REMARK  status: ('A' for Active; 'I' for Inactive)
REMARK    1  A    between atoms: O1_2  and  C2_3 
REMARK    2  A    between atoms: C4_5  and  C5_6 
REMARK    3  A    between atoms: C18_23  and  O3_24 
REMARK    4  A    between atoms: O3_24  and  C19_25 
REMARK    5  A    between atoms: C19_25  and  C20_26 
REMARK    6  A    between atoms: C20_26  and  O5_28 
ROOT
HETATM    1  C5  UNL     1       0.226  -1.253   0.643  1.00  0.00     0.136 C 
HETATM    2  N1  UNL     1       0.251  -1.403   1.946  1.00  0.00    -0.262 NA
HETATM    3  C6  UNL     1      -0.911  -1.811   2.673  1.00  0.00     0.230 C 
HETATM    4  S1  UNL     1      -2.250  -0.703   2.889  1.00  0.00    -0.107 SA
HETATM    5  C7  UNL     1      -3.293  -0.236   1.590  1.00  0.00     0.009 A 
HETATM    6  C8  UNL     1      -3.705   1.051   2.024  1.00  0.00     0.019 A 
HETATM    7  C9  UNL     1      -4.600   1.914   1.349  1.00  0.00     0.008 A 
HETATM    8  C10 UNL     1      -5.105   1.423   0.153  1.00  0.00    -0.061 A 
HETATM    9  C11 UNL     1      -6.057   2.124  -0.748  1.00  0.00     0.048 C 
HETATM   10  C12 UNL     1      -4.761   0.190  -0.340  1.00  0.00     0.015 A 
HETATM   11  C13 UNL     1      -3.894  -0.584   0.362  1.00  0.00    -0.032 A 
HETATM   12  C14 UNL     1      -3.444  -1.927  -0.153  1.00  0.00     0.143 C 
HETATM   13  C15 UNL     1      -2.138  -1.605  -0.871  1.00  0.00     0.227 C 
HETATM   14  O2  UNL     1      -1.531  -1.381  -1.919  1.00  0.00    -0.273 OA
HETATM   15  N2  UNL     1      -0.961  -1.430  -0.118  1.00  0.00    -0.311 N 
HETATM   16  H15 UNL     1      -1.305  -1.533   0.784  1.00  0.00     0.170 HD
ENDROOT
BRANCH   1  17
HETATM   17  C4  UNL     1       1.452  -0.846   0.030  1.00  0.00     0.012 A 
HETATM   18  C3  UNL     1       2.505  -0.665   0.895  1.00  0.00     0.055 A 
HETATM   19  C2  UNL     1       3.780  -0.260   0.477  1.00  0.00     0.102 A 
HETATM   20  C18 UNL     1       3.929  -0.049  -0.869  1.00  0.00     0.102 A 
HETATM   21  C17 UNL     1       2.944  -0.203  -1.813  1.00  0.00     0.040 A 
HETATM   22  C16 UNL     1       1.741  -0.600  -1.288  1.00  0.00     0.018 A 
BRANCH  19  23
HETATM   23  O1  UNL     1       4.797  -0.096   1.406  1.00  0.00    -0.353 OA
HETATM   24  C1  UNL     1       4.579  -0.330   2.782  1.00  0.00     0.210 C 
ENDBRANCH  19  23
BRANCH  20  25
HETATM   25  O3  UNL     1       5.189   0.349  -1.239  1.00  0.00    -0.338 OA
BRANCH  25  26
HETATM   26  C19 UNL     1       5.502   0.625  -2.575  1.00  0.00     0.285 C 
BRANCH  26  27
HETATM   27  C20 UNL     1       4.680   1.763  -3.111  1.00  0.00     0.164 C 
HETATM   28  O4  UNL     1       4.688   2.257  -4.250  1.00  0.00    -0.648 OA
BRANCH  27  29
HETATM   29  O5  UNL     1       3.711   2.572  -2.526  1.00  0.00    -0.775 OA
HETATM   30  H20 UNL     1       3.887   3.534  -2.292  1.00  0.00     0.167 HD
ENDBRANCH  27  29
ENDBRANCH  26  27
ENDBRANCH  25  26
ENDBRANCH  20  25
ENDBRANCH   1  17
TORSDOF 6
