REMARK  5 active torsions:
REMARK  status: ('A' for Active; 'I' for Inactive)
REMARK    1  A    between atoms: O1_2  and  C2_3 
REMARK    2  A    between atoms: C6_8  and  C7_9 
REMARK    3  A    between atoms: C17_21  and  C18_22 
REMARK    4  A    between atoms: C18_22  and  C19_23 
REMARK    5  A    between atoms: C19_23  and  O4_25 
ROOT
HETATM    1  C2  UNL     1      -3.539  -0.932  -0.214  1.00  0.00     0.073 C 
HETATM    2  C3  UNL     1      -2.558  -1.801  -0.392  1.00  0.00     0.018 C 
HETATM    3  C4  UNL     1      -1.121  -1.740  -0.643  1.00  0.00     0.109 C 
HETATM    4  C5  UNL     1      -0.467  -0.464  -0.353  1.00  0.00     0.117 A 
HETATM    5  N1  UNL     1       0.880  -0.633  -0.264  1.00  0.00    -0.234 NA
HETATM    6  C6  UNL     1       1.726   0.373  -0.007  1.00  0.00     0.074 A 
HETATM    7  C14 UNL     1       1.183   1.628   0.172  1.00  0.00     0.107 A 
HETATM    8  C15 UNL     1      -0.172   1.875   0.097  1.00  0.00     0.255 A 
HETATM    9  O2  UNL     1      -0.687   3.012   0.257  1.00  0.00    -0.268 OA
HETATM   10  N2  UNL     1      -0.942   0.797  -0.167  1.00  0.00    -0.276 N 
HETATM   11  C16 UNL     1      -2.297   1.229  -0.209  1.00  0.00     0.112 C 
HETATM   12  C17 UNL     1      -3.402   0.501  -0.229  1.00  0.00     0.001 C 
ENDROOT
BRANCH   6  13
HETATM   13  C7  UNL     1       3.154   0.101   0.072  1.00  0.00    -0.007 A 
HETATM   14  C8  UNL     1       3.606  -1.178  -0.119  1.00  0.00     0.014 A 
HETATM   15  C9  UNL     1       4.942  -1.495  -0.056  1.00  0.00     0.007 A 
HETATM   16  C10 UNL     1       5.908  -0.528   0.206  1.00  0.00    -0.062 A 
HETATM   17  C11 UNL     1       7.370  -0.744   0.300  1.00  0.00     0.048 C 
HETATM   18  C12 UNL     1       5.465   0.768   0.401  1.00  0.00     0.007 A 
HETATM   19  C13 UNL     1       4.113   1.040   0.328  1.00  0.00     0.014 A 
ENDBRANCH   6  13
BRANCH   1  20
HETATM   20  O1  UNL     1      -4.825  -1.364   0.008  1.00  0.00    -0.356 OA
HETATM   21  C1  UNL     1      -5.287  -2.679  -0.083  1.00  0.00     0.210 C 
ENDBRANCH   1  20
BRANCH  12  22
HETATM   22  C18 UNL     1      -4.701   1.263  -0.273  1.00  0.00     0.152 C 
BRANCH  22  23
HETATM   23  C19 UNL     1      -4.509   2.716  -0.289  1.00  0.00     0.143 C 
HETATM   24  O3  UNL     1      -4.221   3.240  -1.418  1.00  0.00    -0.650 OA
BRANCH  23  25
HETATM   25  O4  UNL     1      -4.597   3.611   0.758  1.00  0.00    -0.776 OA
HETATM   26  H18 UNL     1      -4.706   4.611   0.642  1.00  0.00     0.167 HD
ENDBRANCH  23  25
ENDBRANCH  22  23
ENDBRANCH  12  22
TORSDOF 5
