REMARK  2 active torsions:
REMARK  status: ('A' for Active; 'I' for Inactive)
REMARK    1  A    between atoms: C4_5  and  N2_6 
REMARK    2  A    between atoms: N2_6  and  C5_7 
ROOT
HETATM    1  C1  UNL     1      -2.153   2.737   1.489  1.00  0.00     0.180 C 
HETATM    2  N1  UNL     1      -3.066   1.618   1.374  1.00  0.00    -0.271 NA
HETATM    3  C2  UNL     1      -2.787   0.592   0.640  1.00  0.00     0.167 C 
HETATM    4  C3  UNL     1      -1.559   0.776   0.051  1.00  0.00     0.117 C 
HETATM    5  C4  UNL     1      -0.412   0.052   0.012  1.00  0.00     0.241 C 
HETATM    6  N3  UNL     1      -0.424  -1.059  -0.732  1.00  0.00     0.107 N 
HETATM    7  C11 UNL     1      -1.587  -1.631  -1.168  1.00  0.00     0.193 A 
HETATM    8  C12 UNL     1      -2.653  -1.107  -1.875  1.00  0.00     0.041 C 
HETATM    9  C13 UNL     1      -3.962  -1.158  -1.441  1.00  0.00     0.027 C 
HETATM   10  C14 UNL     1      -4.545  -0.482  -0.390  1.00  0.00     0.144 C 
HETATM   11  O1  UNL     1      -3.641  -0.400   0.562  1.00  0.00    -0.304 OA
HETATM   12  C15 UNL     1      -0.778  -2.652  -0.449  1.00  0.00     0.443 A 
HETATM   13  N4  UNL     1       0.185  -2.138  -1.427  1.00  0.00    -0.209 N 
HETATM   14  H18 UNL     1       0.899  -1.939  -2.161  1.00  0.00     0.190 HD
ENDROOT
BRANCH   5  15
HETATM   15  N2  UNL     1       0.821   0.364   0.698  1.00  0.00    -0.359 N 
HETATM   16  H5  UNL     1       0.706   1.265   1.256  1.00  0.00     0.161 HD
BRANCH  15  17
HETATM   17  C5  UNL     1       2.127  -0.212   0.820  1.00  0.00     0.109 A 
HETATM   18  C6  UNL     1       3.038   0.566   1.725  1.00  0.00    -0.002 A 
HETATM   19  C7  UNL     1       4.224   1.089   1.489  1.00  0.00    -0.002 A 
HETATM   20  C8  UNL     1       4.802   0.924   0.163  1.00  0.00    -0.004 A 
HETATM   21  C9  UNL     1       4.063   0.248  -0.700  1.00  0.00    -0.024 A 
HETATM   22  C10 UNL     1       2.728  -0.383  -0.551  1.00  0.00     0.056 A 
ENDBRANCH  15  17
ENDBRANCH   5  15
TORSDOF 2
