REMARK  3 active torsions:
REMARK  status: ('A' for Active; 'I' for Inactive)
REMARK    1  A    between atoms: C3_3  and  C4_4 
REMARK    2  A    between atoms: C5_5  and  C6_6 
REMARK    3  A    between atoms: C6_6  and  N1_7 
ROOT
HETATM    1  N1  UNL     1      -0.871  -0.816  -0.474  1.00  0.00    -0.270 N 
HETATM    2  N2  UNL     1      -1.553  -2.040  -0.326  1.00  0.00    -0.168 NA
HETATM    3  C7  UNL     1      -0.941  -3.049   0.240  1.00  0.00     0.257 A 
HETATM    4  N3  UNL     1       0.395  -2.984   0.720  1.00  0.00    -0.216 NA
HETATM    5  C8  UNL     1       1.024  -1.840   0.574  1.00  0.00     0.191 A 
HETATM    6  O1  UNL     1       2.312  -2.014   1.117  1.00  0.00    -0.291 OA
HETATM    7  C9  UNL     1       3.288  -1.026   1.192  1.00  0.00     0.085 A 
HETATM    8  C10 UNL     1       4.229  -1.081   2.226  1.00  0.00     0.039 A 
HETATM    9  C11 UNL     1       5.201  -0.142   2.345  1.00  0.00     0.022 A 
HETATM   10  C12 UNL     1       5.312   0.895   1.473  1.00  0.00     0.011 A 
HETATM   11 BR1  UNL     1       6.669   2.237   1.606  1.00  0.00    -0.051 Br
HETATM   12  C13 UNL     1       4.396   0.972   0.444  1.00  0.00     0.030 A 
HETATM   13  C14 UNL     1       3.368   0.033   0.267  1.00  0.00    -0.006 A 
HETATM   14  C15 UNL     1       2.566   0.405  -0.926  1.00  0.00     0.158 C 
HETATM   15  N4  UNL     1       1.262  -0.022  -1.041  1.00  0.00    -0.390 N 
HETATM   16  C16 UNL     1       0.493  -0.601  -0.041  1.00  0.00     0.276 A 
HETATM   17  H16 UNL     1       0.945  -0.386  -1.966  1.00  0.00     0.156 HD
ENDROOT
BRANCH   1  18
HETATM   18  C6  UNL     1      -1.597   0.278  -1.089  1.00  0.00     0.174 C 
BRANCH  18  19
HETATM   19  C5  UNL     1      -1.888   1.359  -0.114  1.00  0.00    -0.009 C 
HETATM   20  C4  UNL     1      -2.992   1.967   0.385  1.00  0.00    -0.023 C 
BRANCH  20  21
HETATM   21  C3  UNL     1      -4.045   1.259  -0.317  1.00  0.00     0.020 C 
HETATM   22  C2  UNL     1      -5.376   1.139  -0.491  1.00  0.00    -0.006 C 
HETATM   23  C1  UNL     1      -5.753   0.096  -1.468  1.00  0.00     0.011 C 
ENDBRANCH  20  21
ENDBRANCH  18  19
ENDBRANCH   1  18
TORSDOF 3
