REMARK  7 active torsions:
REMARK  status: ('A' for Active; 'I' for Inactive)
REMARK    1  A    between atoms: N1_1  and  C1_2 
REMARK    2  A    between atoms: C1_2  and  C2_3 
REMARK    3  A    between atoms: C2_3  and  C3_4 
REMARK    4  A    between atoms: C8_10  and  O1_11 
REMARK    5  A    between atoms: O1_11  and  C9_12 
REMARK    6  A    between atoms: C9_12  and  C10_13 
REMARK    7  A    between atoms: C13_16  and  O2_17 
ROOT
HETATM    1  C3  UNL     1      -3.164  -0.639  -0.102  1.00  0.00    -0.053 C 
HETATM    2  C4  UNL     1      -3.767  -1.737  -0.522  1.00  0.00     0.091 C 
HETATM    3  N2  UNL     1      -2.901  -2.808  -0.848  1.00  0.00    -0.368 N 
HETATM    4  C5  UNL     1      -1.576  -2.350  -0.636  1.00  0.00     0.017 C 
HETATM    5  C6  UNL     1      -0.316  -2.730  -0.746  1.00  0.00     0.028 C 
HETATM    6  C7  UNL     1       0.878  -1.955  -0.445  1.00  0.00     0.034 C 
HETATM    7  C8  UNL     1       0.639  -0.728  -0.041  1.00  0.00     0.048 C 
HETATM    8  C15 UNL     1      -0.714  -0.121   0.085  1.00  0.00     0.080 C 
HETATM    9  C16 UNL     1      -1.788  -1.118   0.140  1.00  0.00     0.072 C 
HETATM   10  H8  UNL     1      -3.120  -3.754  -1.180  1.00  0.00     0.165 HD
ENDROOT
BRANCH   7  11
HETATM   11  O1  UNL     1       1.694   0.096   0.287  1.00  0.00    -0.351 OA
BRANCH  11  12
HETATM   12  C9  UNL     1       3.035  -0.272   0.043  1.00  0.00     0.214 C 
BRANCH  12  13
HETATM   13  C10 UNL     1       4.013   0.762   0.473  1.00  0.00    -0.020 C 
HETATM   14  C11 UNL     1       3.919   1.955   1.035  1.00  0.00    -0.014 C 
HETATM   15  C12 UNL     1       5.035   2.659   0.942  1.00  0.00     0.049 C 
HETATM   16  C13 UNL     1       6.061   1.673   0.568  1.00  0.00     0.067 C 
HETATM   17  C14 UNL     1       5.459   0.512   0.280  1.00  0.00     0.046 C 
BRANCH  16  18
HETATM   18  O2  UNL     1       7.460   1.796   0.487  1.00  0.00    -0.361 OA
HETATM   19  H14 UNL     1       7.938   1.723  -0.404  1.00  0.00     0.217 HD
ENDBRANCH  16  18
ENDBRANCH  12  13
ENDBRANCH  11  12
ENDBRANCH   7  11
BRANCH   1  20
HETATM   20  C2  UNL     1      -3.456   0.722   0.342  1.00  0.00     0.066 C 
BRANCH  20  21
HETATM   21  C1  UNL     1      -4.927   1.058   0.322  1.00  0.00     0.271 C 
BRANCH  21  22
HETATM   22  N1  UNL     1      -5.137   2.421   0.773  1.00  0.00     0.078 N 
HETATM   23  H1  UNL     1      -4.882   2.552   1.770  1.00  0.00     0.312 HD
HETATM   24  H2  UNL     1      -4.713   3.128   0.137  1.00  0.00     0.312 HD
ENDBRANCH  21  22
ENDBRANCH  20  21
ENDBRANCH   1  20
TORSDOF 7
