REMARK  2 active torsions:
REMARK  status: ('A' for Active; 'I' for Inactive)
REMARK    1  A    between atoms: O1_1  and  C1_2 
REMARK    2  A    between atoms: C9_11  and  C10_12 
ROOT
HETATM    1  C1  UNL     1      -1.454   3.634  -1.830  1.00  0.00     0.066 A 
HETATM    2  C2  UNL     1      -2.710   3.069  -1.699  1.00  0.00     0.037 A 
HETATM    3  C3  UNL     1      -2.901   2.185  -0.657  1.00  0.00     0.010 A 
HETATM    4  C4  UNL     1      -1.914   1.844   0.243  1.00  0.00    -0.051 A 
HETATM    5  C5  UNL     1      -0.655   2.398   0.128  1.00  0.00    -0.048 A 
HETATM    6  C6  UNL     1      -0.481   3.279  -0.919  1.00  0.00     0.044 A 
HETATM    7  C7  UNL     1       0.453   2.092   1.048  1.00  0.00     0.058 C 
HETATM    8  C8  UNL     1       1.816   2.435   0.541  1.00  0.00     0.124 C 
HETATM    9  N1  UNL     1       2.237   1.688  -0.615  1.00  0.00    -0.389 N 
HETATM   10  C9  UNL     1       2.570   0.310  -0.695  1.00  0.00     0.034 C 
HETATM   11  C16 UNL     1       1.827  -0.653  -1.153  1.00  0.00     0.007 C 
HETATM   12  C17 UNL     1       0.460  -0.560  -1.705  1.00  0.00     0.057 C 
HETATM   13  C18 UNL     1      -0.489  -1.269  -0.883  1.00  0.00    -0.013 C 
HETATM   14  C19 UNL     1      -1.391  -2.063  -0.442  1.00  0.00    -0.031 C 
HETATM   15  C20 UNL     1      -1.985  -3.027  -1.411  1.00  0.00     0.159 C 
HETATM   16  N2  UNL     1      -2.440  -4.209  -0.636  1.00  0.00    -0.385 N 
HETATM   17  C21 UNL     1      -2.816  -3.724   0.648  1.00  0.00     0.036 C 
HETATM   18  C22 UNL     1      -3.452  -3.731   1.861  1.00  0.00     0.007 C 
HETATM   19  C23 UNL     1      -3.826  -2.434   2.602  1.00  0.00     0.064 C 
HETATM   20  C24 UNL     1      -3.501  -1.334   1.649  1.00  0.00    -0.064 C 
HETATM   21  C25 UNL     1      -2.168  -1.578   1.623  1.00  0.00    -0.009 C 
HETATM   22  C26 UNL     1      -2.134  -2.472   0.632  1.00  0.00     0.009 C 
HETATM   23  C27 UNL     1      -3.072  -0.287   0.720  1.00  0.00     0.040 C 
HETATM   24  C28 UNL     1      -2.342   0.872   1.274  1.00  0.00     0.043 C 
HETATM   25  H9  UNL     1       2.425   1.837  -1.628  1.00  0.00     0.159 HD
HETATM   26  H21 UNL     1      -2.597  -5.252  -0.658  1.00  0.00     0.160 HD
ENDROOT
BRANCH  10  27
HETATM   27  C10 UNL     1       3.895  -0.050  -0.214  1.00  0.00    -0.010 A 
HETATM   28  C11 UNL     1       4.407  -1.314  -0.165  1.00  0.00     0.013 A 
HETATM   29  C12 UNL     1       5.659  -1.665   0.273  1.00  0.00     0.001 A 
HETATM   30  C13 UNL     1       6.510  -0.683   0.713  1.00  0.00     0.000 A 
HETATM   31  C14 UNL     1       6.076   0.623   0.699  1.00  0.00     0.001 A 
HETATM   32  C15 UNL     1       4.811   0.891   0.246  1.00  0.00     0.013 A 
ENDBRANCH  10  27
BRANCH   1  33
HETATM   33  O1  UNL     1      -1.242   4.527  -2.874  1.00  0.00    -0.361 OA
HETATM   34  H1  UNL     1      -1.165   5.522  -2.641  1.00  0.00     0.217 HD
ENDBRANCH   1  33
TORSDOF 2
