REMARK  8 active torsions:
REMARK  status: ('A' for Active; 'I' for Inactive)
REMARK    1  A    between atoms: C6_6  and  C7_7 
REMARK    2  A    between atoms: C7_7  and  C8_8 
REMARK    3  A    between atoms: C8_8  and  C9_9 
REMARK    4  A    between atoms: C12_12  and  O1_13 
REMARK    5  A    between atoms: N1_16  and  C15_17 
REMARK    6  A    between atoms: C15_17  and  C16_18 
REMARK    7  A    between atoms: C16_18  and  N2_19 
REMARK    8  A    between atoms: N2_19  and  O2_20 
ROOT
HETATM    1  C1  UNL     1      -0.554  -1.182   1.613  1.00  0.00     0.027 C 
HETATM    2  C2  UNL     1      -1.141  -0.566   0.379  1.00  0.00     0.028 A 
HETATM    3  C3  UNL     1      -1.456  -1.501  -0.672  1.00  0.00    -0.002 A 
HETATM    4  C4  UNL     1      -1.866  -0.262  -0.695  1.00  0.00     0.063 A 
HETATM    5  C5  UNL     1      -1.122   1.068  -0.535  1.00  0.00     0.011 C 
HETATM    6  C6  UNL     1      -0.109   0.252  -0.366  1.00  0.00    -0.066 C 
HETATM    7  N1  UNL     1      -3.095   0.352  -0.710  1.00  0.00    -0.393 N 
HETATM    8  C17 UNL     1      -2.491   0.023   0.610  1.00  0.00     0.154 A 
ENDROOT
BRANCH   6   9
HETATM    9  C7  UNL     1       1.370   0.242  -0.696  1.00  0.00     0.040 C 
BRANCH   9  10
HETATM   10  C8  UNL     1       2.185   0.124   0.579  1.00  0.00     0.043 C 
BRANCH  10  11
HETATM   11  C9  UNL     1       3.631   0.124   0.153  1.00  0.00    -0.058 A 
HETATM   12  C10 UNL     1       4.262   1.371   0.068  1.00  0.00     0.010 A 
HETATM   13  C11 UNL     1       5.601   1.478  -0.315  1.00  0.00     0.037 A 
HETATM   14  C12 UNL     1       6.258   0.305  -0.601  1.00  0.00     0.065 A 
HETATM   15  C13 UNL     1       5.666  -0.934  -0.526  1.00  0.00     0.037 A 
HETATM   16  C14 UNL     1       4.331  -1.039  -0.144  1.00  0.00     0.010 A 
BRANCH  14  17
HETATM   17  O1  UNL     1       7.599   0.414  -0.985  1.00  0.00    -0.361 OA
HETATM   18  H12 UNL     1       8.026   1.267  -1.267  1.00  0.00     0.217 HD
ENDBRANCH  14  17
ENDBRANCH  10  11
ENDBRANCH   9  10
ENDBRANCH   6   9
BRANCH   7  19
HETATM   19  C15 UNL     1      -4.379   0.995  -0.563  1.00  0.00     0.134 C 
BRANCH  19  20
HETATM   20  C16 UNL     1      -5.417   0.066  -0.008  1.00  0.00     0.136 C 
BRANCH  20  21
HETATM   21  N2  UNL     1      -5.628  -1.074  -0.844  1.00  0.00    -0.207 NA
HETATM   22  H19 UNL     1      -6.229  -1.791  -0.416  1.00  0.00     0.153 HD
BRANCH  21  23
HETATM   23  O2  UNL     1      -6.039  -0.723  -2.096  1.00  0.00    -0.316 OA
HETATM   24  H20 UNL     1      -6.842  -0.141  -1.943  1.00  0.00     0.236 HD
ENDBRANCH  21  23
ENDBRANCH  20  21
ENDBRANCH  19  20
ENDBRANCH   7  19
TORSDOF 8
