REMARK  4 active torsions:
REMARK  status: ('A' for Active; 'I' for Inactive)
REMARK    1  A    between atoms: C6_6  and  O1_7 
REMARK    2  A    between atoms: C8_9  and  C9_10 
REMARK    3  A    between atoms: C9_10  and  C10_11 
REMARK    4  A    between atoms: C10_11  and  N1_12 
ROOT
HETATM    1  C1  UNL     1      -4.692   1.874   1.802  1.00  0.00     0.012 C 
HETATM    2  C2  UNL     1      -3.859   1.523   1.008  1.00  0.00    -0.109 C 
HETATM    3  C3  UNL     1      -2.835   1.119   0.051  1.00  0.00     0.039 C 
HETATM    4  C4  UNL     1      -1.822   0.661   0.867  1.00  0.00     0.101 C 
HETATM    5  C5  UNL     1      -0.510   0.128   0.378  1.00  0.00    -0.038 C 
HETATM    6  C6  UNL     1      -0.101  -0.121   1.649  1.00  0.00     0.135 C 
HETATM    7  C7  UNL     1       0.510  -0.233  -0.661  1.00  0.00     0.096 A 
HETATM    8  C8  UNL     1       1.865  -0.241  -0.059  1.00  0.00    -0.049 A 
HETATM    9  C11 UNL     1       2.499  -1.398  -0.127  1.00  0.00     0.092 A 
HETATM   10  N2  UNL     1       1.584  -2.235  -0.820  1.00  0.00    -0.368 N 
HETATM   11  C12 UNL     1       0.373  -1.569  -1.205  1.00  0.00     0.018 A 
HETATM   12  C13 UNL     1      -0.561  -2.131  -1.996  1.00  0.00     0.007 C 
HETATM   13  C14 UNL     1      -1.530  -1.100  -2.277  1.00  0.00     0.052 C 
HETATM   14  C15 UNL     1      -2.579  -0.459  -2.744  1.00  0.00     0.159 C 
HETATM   15  O2  UNL     1      -2.331   0.781  -2.158  1.00  0.00    -0.381 OA
HETATM   16  C16 UNL     1      -3.383   1.328  -1.360  1.00  0.00     0.186 C 
HETATM   17  H13 UNL     1       1.851  -3.228  -0.989  1.00  0.00     0.165 HD
ENDROOT
BRANCH   6  18
HETATM   18  O1  UNL     1       0.782  -0.558   2.657  1.00  0.00    -0.372 OA
HETATM   19  H4  UNL     1       1.412  -1.351   2.504  1.00  0.00     0.216 HD
ENDBRANCH   6  18
BRANCH   8  20
HETATM   20  C9  UNL     1       2.315   1.057   0.478  1.00  0.00     0.066 C 
BRANCH  20  21
HETATM   21  C10 UNL     1       3.733   0.938   1.009  1.00  0.00     0.271 C 
BRANCH  21  22
HETATM   22  N1  UNL     1       3.826  -0.036   2.064  1.00  0.00     0.078 N 
HETATM   23  H10 UNL     1       4.741  -0.539   2.008  1.00  0.00     0.312 HD
HETATM   24  H11 UNL     1       3.702   0.381   3.025  1.00  0.00     0.312 HD
ENDBRANCH  21  22
ENDBRANCH  20  21
ENDBRANCH   8  20
TORSDOF 4
