REMARK  5 active torsions:
REMARK  status: ('A' for Active; 'I' for Inactive)
REMARK    1  A    between atoms: O1_1  and  C1_2 
REMARK    2  A    between atoms: C4_5  and  C5_6 
REMARK    3  A    between atoms: C5_6  and  C6_7 
REMARK    4  A    between atoms: C6_7  and  O2_8 
REMARK    5  A    between atoms: O2_8  and  C7_9 
ROOT
HETATM    1  C7  UNL     1      -0.652   0.564  -0.205  1.00  0.00     0.070 A 
HETATM    2  C8  UNL     1      -0.804  -0.316  -1.224  1.00  0.00     0.038 A 
HETATM    3  C9  UNL     1      -1.989  -0.815  -1.712  1.00  0.00     0.016 A 
HETATM    4  C10 UNL     1      -3.131  -0.359  -1.087  1.00  0.00    -0.010 A 
HETATM    5  C11 UNL     1      -3.092   0.537  -0.041  1.00  0.00     0.041 A 
HETATM    6  C12 UNL     1      -1.844   0.996   0.396  1.00  0.00     0.066 A 
HETATM    7  N1  UNL     1      -4.229   1.045   0.645  1.00  0.00    -0.389 N 
HETATM    8  C13 UNL     1      -5.623   1.003   0.220  1.00  0.00     0.123 C 
HETATM    9  C14 UNL     1      -6.097  -0.411  -0.021  1.00  0.00     0.047 C 
HETATM   10  C15 UNL     1      -5.536  -0.995  -1.258  1.00  0.00    -0.024 C 
HETATM   11  C16 UNL     1      -4.288  -0.984  -1.725  1.00  0.00     0.010 C 
HETATM   12  H11 UNL     1      -3.948   1.493   1.566  1.00  0.00     0.159 HD
ENDROOT
BRANCH   1  13
HETATM   13  O2  UNL     1       0.376   1.170   0.425  1.00  0.00    -0.351 OA
BRANCH  13  14
HETATM   14  C6  UNL     1       1.737   1.111   0.271  1.00  0.00     0.180 C 
BRANCH  14  15
HETATM   15  C5  UNL     1       2.250  -0.279   0.542  1.00  0.00     0.065 C 
BRANCH  15  16
HETATM   16  C4  UNL     1       3.745  -0.322   0.367  1.00  0.00    -0.056 A 
HETATM   17  C3  UNL     1       4.574  -0.063   1.446  1.00  0.00     0.010 A 
HETATM   18  C2  UNL     1       5.953  -0.095   1.315  1.00  0.00     0.037 A 
HETATM   19  C1  UNL     1       6.531  -0.388   0.096  1.00  0.00     0.065 A 
HETATM   20  C18 UNL     1       5.715  -0.648  -0.989  1.00  0.00     0.037 A 
HETATM   21  C17 UNL     1       4.342  -0.617  -0.863  1.00  0.00     0.010 A 
BRANCH  19  22
HETATM   22  O1  UNL     1       7.899  -0.435  -0.100  1.00  0.00    -0.361 OA
HETATM   23  H1  UNL     1       8.550   0.245   0.274  1.00  0.00     0.217 HD
ENDBRANCH  19  22
ENDBRANCH  15  16
ENDBRANCH  14  15
ENDBRANCH  13  14
ENDBRANCH   1  13
TORSDOF 5
