REMARK  5 active torsions:
REMARK  status: ('A' for Active; 'I' for Inactive)
REMARK    1  A    between atoms: N1_1  and  C1_2 
REMARK    2  A    between atoms: C1_2  and  P1_3 
REMARK    3  A    between atoms: P1_3  and  N2_4 
REMARK    4  A    between atoms: C11_16  and  C12_17 
REMARK    5  A    between atoms: C12_17  and  C13_18 
ROOT
HETATM    1  N2  UNL     1      -0.330   1.888   0.719  1.00  0.00    -0.213 NA
HETATM    2  C2  UNL     1      -0.850   0.798   0.253  1.00  0.00     0.197 C 
HETATM    3  O1  UNL     1      -2.052   0.878  -0.480  1.00  0.00    -0.290 OA
HETATM    4  C3  UNL     1      -3.085  -0.057  -0.525  1.00  0.00     0.086 A 
HETATM    5  C4  UNL     1      -4.320   0.522  -0.734  1.00  0.00     0.038 A 
HETATM    6  C5  UNL     1      -5.404  -0.334  -0.792  1.00  0.00     0.003 A 
HETATM    7  C6  UNL     1      -5.290  -1.682  -0.654  1.00  0.00     0.001 A 
HETATM    8  C7  UNL     1      -4.021  -2.195  -0.446  1.00  0.00     0.011 A 
HETATM    9  C8  UNL     1      -2.863  -1.410  -0.372  1.00  0.00    -0.007 A 
HETATM   10  C9  UNL     1      -1.725  -2.293  -0.148  1.00  0.00     0.161 C 
HETATM   11  N3  UNL     1      -0.622  -1.708   0.586  1.00  0.00    -0.382 N 
HETATM   12  C10 UNL     1      -0.072  -0.385   0.577  1.00  0.00     0.078 C 
HETATM   13  C11 UNL     1       1.217  -0.294   0.881  1.00  0.00     0.012 C 
HETATM   14  H8  UNL     1      -0.143  -2.394   1.242  1.00  0.00     0.160 HD
ENDROOT
BRANCH  13  15
HETATM   15  C12 UNL     1       2.306   0.654   1.039  1.00  0.00     0.069 C 
BRANCH  15  16
HETATM   16  C13 UNL     1       3.407   0.289   0.077  1.00  0.00    -0.037 A 
HETATM   17  C14 UNL     1       4.532  -0.350   0.583  1.00  0.00     0.009 A 
HETATM   18  C15 UNL     1       5.638  -0.760  -0.153  1.00  0.00     0.001 A 
HETATM   19  C16 UNL     1       5.574  -0.488  -1.513  1.00  0.00     0.001 A 
HETATM   20  C17 UNL     1       4.479   0.141  -2.041  1.00  0.00     0.019 A 
HETATM   21  C18 UNL     1       3.393   0.536  -1.276  1.00  0.00     0.017 A 
HETATM   22 BR1  UNL     1       1.873   1.411  -2.006  1.00  0.00    -0.051 Br
ENDBRANCH  15  16
ENDBRANCH  13  15
BRANCH   1  23
HETATM   23  P1  UNL     1      -1.212   3.414   0.375  1.00  0.00     0.167 P 
BRANCH  23  24
HETATM   24  C1  UNL     1      -1.645   4.344   1.660  1.00  0.00     0.009 C 
BRANCH  24  25
HETATM   25  N1  UNL     1      -1.836   5.107   2.664  1.00  0.00    -0.256 NA
HETATM   26  H1  UNL     1      -1.057   5.265   3.372  1.00  0.00     0.197 HD
ENDBRANCH  24  25
ENDBRANCH  23  24
ENDBRANCH   1  23
TORSDOF 5
