REMARK  8 active torsions:
REMARK  status: ('A' for Active; 'I' for Inactive)
REMARK    1  A    between atoms: N1_1  and  C1_2 
REMARK    2  A    between atoms: C7_10  and  C8_11 
REMARK    3  A    between atoms: C11_14  and  O2_15 
REMARK    4  A    between atoms: C16_20  and  C17_21 
REMARK    5  A    between atoms: C17_21  and  C18_22 
REMARK    6  A    between atoms: C18_22  and  C19_23 
REMARK    7  A    between atoms: C19_23  and  C20_24 
REMARK    8  A    between atoms: C20_24  and  C21_25 
ROOT
HETATM    1  C1  UNL     1      -2.827  -0.337  -1.058  1.00  0.00     0.212 C 
HETATM    2  C2  UNL     1      -3.628  -1.569  -1.427  1.00  0.00    -0.018 C 
HETATM    3  B1  UNL     1      -3.671  -2.745  -0.438  1.00  0.00     0.158 B 
HETATM    4  C3  UNL     1      -2.404  -3.654  -0.133  1.00  0.00    -0.063 C 
HETATM    5  C4  UNL     1      -1.158  -3.720   0.354  1.00  0.00     0.028 C 
HETATM    6  C5  UNL     1       0.004  -3.073   0.967  1.00  0.00     0.134 C 
HETATM    7  O1  UNL     1      -0.257  -2.704   2.262  1.00  0.00    -0.380 OA
HETATM    8  C6  UNL     1      -0.994  -1.578   2.469  1.00  0.00     0.207 C 
HETATM    9  C7  UNL     1      -1.129  -0.663   1.286  1.00  0.00    -0.021 C 
HETATM   10  C14 UNL     1      -0.672  -0.986   0.053  1.00  0.00    -0.062 C 
HETATM   11  C15 UNL     1      -1.342  -0.479  -1.117  1.00  0.00     0.069 C 
HETATM   12  C16 UNL     1       0.539  -1.851   0.196  1.00  0.00     0.045 C 
HETATM   13  H6  UNL     1      -4.692  -3.156  -0.012  1.00  0.00    -0.026 HD
ENDROOT
BRANCH  12  14
HETATM   14  C17 UNL     1       1.275  -2.214  -0.995  1.00  0.00     0.011 C 
BRANCH  14  15
HETATM   15  C18 UNL     1       1.856  -1.130  -1.808  1.00  0.00     0.001 C 
BRANCH  15  16
HETATM   16  C19 UNL     1       2.884  -0.205  -1.328  1.00  0.00     0.005 C 
BRANCH  16  17
HETATM   17  C20 UNL     1       2.674   0.715  -0.201  1.00  0.00     0.038 C 
BRANCH  17  18
HETATM   18  C21 UNL     1       3.930   1.595  -0.034  1.00  0.00    -0.058 A 
HETATM   19  C22 UNL     1       4.945   1.191   0.807  1.00  0.00     0.007 A 
HETATM   20  C23 UNL     1       6.080   1.915   1.005  1.00  0.00     0.001 A 
HETATM   21  C24 UNL     1       6.163   3.110   0.300  1.00  0.00     0.000 A 
HETATM   22  C25 UNL     1       5.177   3.557  -0.552  1.00  0.00     0.001 A 
HETATM   23  C26 UNL     1       4.032   2.793  -0.730  1.00  0.00     0.007 A 
ENDBRANCH  17  18
ENDBRANCH  16  17
ENDBRANCH  15  16
ENDBRANCH  14  15
ENDBRANCH  12  14
BRANCH   9  24
HETATM   24  C8  UNL     1      -1.793   0.612   1.629  1.00  0.00    -0.027 A 
HETATM   25  C9  UNL     1      -1.377   1.858   1.138  1.00  0.00     0.015 A 
HETATM   26  C10 UNL     1      -2.060   2.987   1.528  1.00  0.00     0.037 A 
HETATM   27  C11 UNL     1      -3.142   2.979   2.380  1.00  0.00     0.065 A 
HETATM   28  C12 UNL     1      -3.565   1.743   2.876  1.00  0.00     0.037 A 
HETATM   29  C13 UNL     1      -2.884   0.609   2.489  1.00  0.00     0.015 A 
BRANCH  27  30
HETATM   30  O2  UNL     1      -3.810   4.133   2.754  1.00  0.00    -0.361 OA
HETATM   31  H14 UNL     1      -4.766   4.282   2.445  1.00  0.00     0.217 HD
ENDBRANCH  27  30
ENDBRANCH   9  24
BRANCH   1  32
HETATM   32  N1  UNL     1      -3.171   0.533  -2.294  1.00  0.00     0.082 N 
HETATM   33  H1  UNL     1      -2.904  -0.073  -3.114  1.00  0.00     0.313 HD
HETATM   34  H2  UNL     1      -4.235   0.555  -2.279  1.00  0.00     0.313 HD
ENDBRANCH   1  32
TORSDOF 8
