REMARK  3 active torsions:
REMARK  status: ('A' for Active; 'I' for Inactive)
REMARK    1  A    between atoms: O1_1  and  C1_2 
REMARK    2  A    between atoms: C4_5  and  C5_6 
REMARK    3  A    between atoms: C5_6  and  C6_7 
ROOT
HETATM    1  C6  UNL     1       0.937  -1.309   1.298  1.00  0.00     0.158 A 
HETATM    2  C7  UNL     1       0.339   0.021   1.063  1.00  0.00     0.040 A 
HETATM    3  C8  UNL     1      -0.850  -0.106   0.522  1.00  0.00     0.088 A 
HETATM    4  N1  UNL     1      -1.830   0.819   0.102  1.00  0.00    -0.263 NA
HETATM    5  C9  UNL     1      -2.314   0.854  -1.102  1.00  0.00     0.092 C 
HETATM    6  C10 UNL     1      -3.340   1.780  -1.596  1.00  0.00     0.066 C 
HETATM    7  C11 UNL     1      -4.499   1.082  -2.280  1.00  0.00     0.119 C 
HETATM    8  N2  UNL     1      -5.144   0.062  -1.416  1.00  0.00    -0.411 N 
HETATM    9  C12 UNL     1      -4.427  -1.135  -1.113  1.00  0.00     0.125 C 
HETATM   10  C13 UNL     1      -3.457  -2.023  -0.680  1.00  0.00     0.003 C 
HETATM   11  C14 UNL     1      -2.129  -2.294  -0.066  1.00  0.00     0.037 C 
HETATM   12  C15 UNL     1      -1.140  -1.558   0.391  1.00  0.00     0.098 A 
HETATM   13  O2  UNL     1      -0.039  -2.229   0.895  1.00  0.00    -0.339 OA
HETATM   14  H13 UNL     1      -6.081  -0.010  -0.924  1.00  0.00     0.153 HD
ENDROOT
BRANCH   1  15
HETATM   15  C5  UNL     1       2.166  -1.397   0.434  1.00  0.00     0.075 C 
BRANCH  15  16
HETATM   16  C4  UNL     1       3.175  -0.389   0.706  1.00  0.00    -0.055 A 
HETATM   17  C3  UNL     1       3.082   0.817   0.001  1.00  0.00     0.010 A 
HETATM   18  C2  UNL     1       4.054   1.758   0.281  1.00  0.00     0.037 A 
HETATM   19  C1  UNL     1       5.065   1.557   1.190  1.00  0.00     0.065 A 
HETATM   20  C17 UNL     1       5.156   0.355   1.891  1.00  0.00     0.037 A 
HETATM   21  C16 UNL     1       4.177  -0.579   1.602  1.00  0.00     0.010 A 
BRANCH  19  22
HETATM   22  O1  UNL     1       6.057   2.495   1.488  1.00  0.00    -0.361 OA
HETATM   23  H1  UNL     1       6.334   2.606   2.453  1.00  0.00     0.217 HD
ENDBRANCH  19  22
ENDBRANCH  15  16
ENDBRANCH   1  15
TORSDOF 3
