REMARK  4 active torsions:
REMARK  status: ('A' for Active; 'I' for Inactive)
REMARK    1  A    between atoms: C16_18  and  N1_19 
REMARK    2  A    between atoms: N2_21  and  C18_22 
REMARK    3  A    between atoms: C18_22  and  C19_23 
REMARK    4  A    between atoms: C19_23  and  C20_24 
ROOT
HETATM    1  C1  UNL     1      -3.383   0.102  -2.720  1.00  0.00     0.036 C 
HETATM    2  C2  UNL     1      -2.530   0.418  -1.548  1.00  0.00    -0.023 C 
HETATM    3  C3  UNL     1      -2.669   0.054  -0.247  1.00  0.00    -0.046 C 
HETATM    4  C4  UNL     1      -3.877  -0.756  -0.201  1.00  0.00     0.032 C 
HETATM    5  C5  UNL     1      -4.507  -1.396   0.795  1.00  0.00     0.135 C 
HETATM    6  O1  UNL     1      -4.008  -1.347   2.035  1.00  0.00    -0.356 OA
HETATM    7  C6  UNL     1      -3.699  -2.373   2.988  1.00  0.00     0.252 C 
HETATM    8  C7  UNL     1      -2.140  -2.515   3.029  1.00  0.00     0.154 C 
HETATM    9  O2  UNL     1      -1.471  -3.074   3.906  1.00  0.00    -0.295 OA
HETATM   10  C8  UNL     1      -1.622  -1.887   1.871  1.00  0.00     0.109 C 
HETATM   11  C9  UNL     1      -0.397  -1.457   1.362  1.00  0.00     0.007 C 
HETATM   12  C10 UNL     1      -0.389  -0.232   0.763  1.00  0.00     0.021 A 
HETATM   13  C11 UNL     1      -1.639   0.570   0.672  1.00  0.00     0.099 A 
HETATM   14  C12 UNL     1      -1.056   1.812   0.013  1.00  0.00    -0.041 A 
HETATM   15  C13 UNL     1       0.234   1.715  -0.279  1.00  0.00     0.015 A 
HETATM   16  C14 UNL     1       0.930   2.879  -0.942  1.00  0.00     0.059 C 
HETATM   17  C15 UNL     1       0.331   4.134  -0.355  1.00  0.00     0.041 C 
HETATM   18  C16 UNL     1      -1.113   4.140  -0.836  1.00  0.00     0.222 C 
HETATM   19  C17 UNL     1      -1.887   2.999  -0.218  1.00  0.00     0.072 C 
HETATM   20  N2  UNL     1       0.688   0.419   0.188  1.00  0.00    -0.353 N 
ENDROOT
BRANCH  20  21
HETATM   21  C18 UNL     1       2.069   0.130  -0.042  1.00  0.00     0.129 C 
BRANCH  21  22
HETATM   22  C19 UNL     1       2.616  -1.156   0.448  1.00  0.00     0.029 C 
BRANCH  22  23
HETATM   23  C20 UNL     1       4.114  -1.289   0.108  1.00  0.00     0.013 A 
HETATM   24  C21 UNL     1       4.340  -1.245  -1.346  1.00  0.00    -0.022 A 
HETATM   25  C22 UNL     1       4.949  -2.152  -2.128  1.00  0.00    -0.004 A 
HETATM   26  C23 UNL     1       5.484  -3.366  -1.539  1.00  0.00    -0.004 A 
HETATM   27  C24 UNL     1       5.301  -3.443  -0.242  1.00  0.00    -0.026 A 
HETATM   28  C25 UNL     1       4.660  -2.535   0.711  1.00  0.00     0.035 A 
ENDBRANCH  22  23
ENDBRANCH  21  22
ENDBRANCH  20  21
BRANCH  18  29
HETATM   29  N1  UNL     1      -1.708   5.402  -0.499  1.00  0.00     0.083 N 
HETATM   30  H18 UNL     1      -0.966   6.081  -0.200  1.00  0.00     0.313 HD
HETATM   31  H19 UNL     1      -2.433   5.260   0.237  1.00  0.00     0.313 HD
ENDBRANCH  18  29
TORSDOF 4
