REMARK  2 active torsions:
REMARK  status: ('A' for Active; 'I' for Inactive)
REMARK    1  A    between atoms: C6_6  and  N1_7 
REMARK    2  A    between atoms: C18_21  and  O2_22 
ROOT
HETATM    1  C1  UNL     1       1.298   3.158   0.651  1.00  0.00     0.048 C 
HETATM    2  C2  UNL     1       1.010   1.753   0.410  1.00  0.00    -0.029 C 
HETATM    3  C3  UNL     1       1.311   0.633   1.184  1.00  0.00     0.014 C 
HETATM    4  C4  UNL     1       2.804   0.383   1.315  1.00  0.00     0.060 C 
HETATM    5  C5  UNL     1       3.451   0.181  -0.022  1.00  0.00     0.046 C 
HETATM    6  C6  UNL     1       2.864  -0.894  -0.891  1.00  0.00     0.251 C 
HETATM    7  C7  UNL     1       1.358  -0.739  -1.013  1.00  0.00    -0.024 C 
HETATM    8  C8  UNL     1       0.960   0.414  -1.694  1.00  0.00     0.018 C 
HETATM    9  C9  UNL     1       0.252   1.520  -0.914  1.00  0.00     0.175 C 
HETATM   10  O1  UNL     1      -0.967   1.149  -0.497  1.00  0.00    -0.377 OA
HETATM   11  C10 UNL     1      -2.003   0.823  -1.285  1.00  0.00     0.180 C 
HETATM   12  C11 UNL     1      -3.181   0.386  -0.365  1.00  0.00     0.065 C 
HETATM   13  C12 UNL     1      -3.954  -0.719  -0.909  1.00  0.00    -0.017 C 
HETATM   14  C13 UNL     1      -3.623  -1.996  -0.619  1.00  0.00    -0.003 C 
HETATM   15  C14 UNL     1      -2.415  -2.324   0.194  1.00  0.00     0.012 C 
HETATM   16  C15 UNL     1      -1.713  -1.267   0.598  1.00  0.00    -0.002 C 
HETATM   17  C16 UNL     1      -0.233  -1.138   0.684  1.00  0.00     0.041 C 
HETATM   18  C17 UNL     1       0.417  -1.787  -0.369  1.00  0.00     0.039 C 
HETATM   19  N2  UNL     1       0.298  -0.307   1.813  1.00  0.00    -0.359 N 
HETATM   20  C18 UNL     1      -2.541  -0.046   0.973  1.00  0.00     0.163 C 
HETATM   21  H20 UNL     1      -0.082  -0.498   2.740  1.00  0.00     0.166 HD
ENDROOT
BRANCH   6  22
HETATM   22  N1  UNL     1       3.311  -2.150  -0.389  1.00  0.00     0.087 N 
HETATM   23  H9  UNL     1       2.933  -2.981  -0.882  1.00  0.00     0.313 HD
HETATM   24  H10 UNL     1       3.149  -2.215   0.661  1.00  0.00     0.313 HD
ENDBRANCH   6  22
BRANCH  20  25
HETATM   25  O2  UNL     1      -3.511  -0.390   1.884  1.00  0.00    -0.390 OA
HETATM   26  H22 UNL     1      -3.529   0.243   2.653  1.00  0.00     0.210 HD
ENDBRANCH  20  25
TORSDOF 2
