REMARK  5 active torsions:
REMARK  status: ('A' for Active; 'I' for Inactive)
REMARK    1  A    between atoms: O1_1  and  C1_2 
REMARK    2  A    between atoms: C4_5  and  C5_6 
REMARK    3  A    between atoms: C5_6  and  C6_7 
REMARK    4  A    between atoms: C13_16  and  N2_17 
REMARK    5  A    between atoms: N2_17  and  P1_18 
ROOT
HETATM    1  C6  UNL     1      -0.475  -0.422   0.582  1.00  0.00     0.051 C 
HETATM    2  C7  UNL     1      -1.289  -1.022  -0.273  1.00  0.00     0.035 C 
HETATM    3  C8  UNL     1      -0.786  -1.570  -1.530  1.00  0.00     0.032 C 
HETATM    4  C9  UNL     1       0.513  -1.427  -1.716  1.00  0.00     0.064 C 
HETATM    5  N1  UNL     1       1.431  -1.774  -2.755  1.00  0.00    -0.267 N 
HETATM    6  O2  UNL     1       2.483  -0.877  -2.836  1.00  0.00    -0.266 OA
HETATM    7  C10 UNL     1       2.384  -0.096  -1.664  1.00  0.00     0.123 C 
HETATM    8  C11 UNL     1       1.861   1.280  -1.918  1.00  0.00     0.046 C 
HETATM    9  C12 UNL     1       2.844   2.238  -1.235  1.00  0.00     0.030 C 
HETATM   10  C13 UNL     1       4.149   1.503  -1.537  1.00  0.00     0.110 C 
HETATM   11  C14 UNL     1       3.801   0.095  -1.164  1.00  0.00     0.071 C 
HETATM   12  C15 UNL     1       1.544  -0.898  -0.734  1.00  0.00     0.217 C 
HETATM   13  O3  UNL     1       0.877  -0.288   0.294  1.00  0.00    -0.341 OA
HETATM   14  H8  UNL     1       1.345  -2.595  -3.407  1.00  0.00     0.194 HD
ENDROOT
BRANCH   1  15
HETATM   15  C5  UNL     1      -1.014   0.119   1.858  1.00  0.00     0.103 C 
BRANCH  15  16
HETATM   16  C4  UNL     1      -2.477  -0.121   1.965  1.00  0.00    -0.052 A 
HETATM   17  C3  UNL     1      -3.369   0.833   1.472  1.00  0.00     0.010 A 
HETATM   18  C2  UNL     1      -4.716   0.557   1.598  1.00  0.00     0.037 A 
HETATM   19  C1  UNL     1      -5.232  -0.601   2.180  1.00  0.00     0.065 A 
HETATM   20  C17 UNL     1      -4.330  -1.532   2.662  1.00  0.00     0.037 A 
HETATM   21  C16 UNL     1      -2.987  -1.265   2.540  1.00  0.00     0.010 A 
BRANCH  19  22
HETATM   22  O1  UNL     1      -6.582  -0.844   2.290  1.00  0.00    -0.361 OA
HETATM   23  H1  UNL     1      -7.279  -0.352   1.736  1.00  0.00     0.217 HD
ENDBRANCH  19  22
ENDBRANCH  15  16
ENDBRANCH   1  15
BRANCH  10  24
HETATM   24  N2  UNL     1       5.249   2.046  -0.808  1.00  0.00    -0.293 NA
BRANCH  24  25
HETATM   25  P1  UNL     1       5.265   1.876   0.799  1.00  0.00     0.040 P 
HETATM   26  H14 UNL     1       4.200   1.193   1.514  1.00  0.00     0.088 HD
ENDBRANCH  24  25
ENDBRANCH  10  24
TORSDOF 5
