REMARK  8 active torsions:
REMARK  status: ('A' for Active; 'I' for Inactive)
REMARK    1  A    between atoms: C3_3  and  C4_4 
REMARK    2  A    between atoms: C3_3  and  B1_16 
REMARK    3  A    between atoms: C4_4  and  O1_5 
REMARK    4  A    between atoms: O1_5  and  C5_6 
REMARK    5  A    between atoms: C5_6  and  C6_7 
REMARK    6  A    between atoms: C6_7  and  C7_8 
REMARK    7  A    between atoms: C7_8  and  C8_9 
REMARK    8  A    between atoms: C11_12  and  O2_13 
ROOT
HETATM    1  C1  UNL     1      -1.159  -0.836   2.912  1.00  0.00     0.035 C 
HETATM    2  C2  UNL     1      -0.260  -0.285   1.860  1.00  0.00    -0.038 C 
HETATM    3  C3  UNL     1      -0.488   0.118   0.612  1.00  0.00    -0.099 C 
ENDROOT
BRANCH   3   4
HETATM    4  C4  UNL     1       0.017   0.673  -0.666  1.00  0.00     0.189 C 
BRANCH   4   5
HETATM    5  O1  UNL     1       1.350   0.913  -0.610  1.00  0.00    -0.388 OA
BRANCH   5   6
HETATM    6  C5  UNL     1       2.181  -0.167  -0.417  1.00  0.00     0.168 C 
BRANCH   6   7
HETATM    7  C6  UNL     1       3.643   0.242  -0.389  1.00  0.00     0.031 C 
BRANCH   7   8
HETATM    8  C7  UNL     1       4.570  -0.929  -0.171  1.00  0.00     0.041 C 
BRANCH   8   9
HETATM    9  C8  UNL     1       5.966  -0.364  -0.185  1.00  0.00    -0.058 A 
HETATM   10  C9  UNL     1       6.529  -0.327  -1.462  1.00  0.00     0.010 A 
HETATM   11  C10 UNL     1       7.798   0.157  -1.694  1.00  0.00     0.037 A 
HETATM   12  C11 UNL     1       8.530   0.621  -0.601  1.00  0.00     0.065 A 
HETATM   13  C12 UNL     1       7.952   0.574   0.652  1.00  0.00     0.037 A 
HETATM   14  C13 UNL     1       6.692   0.096   0.891  1.00  0.00     0.010 A 
BRANCH  12  15
HETATM   15  O2  UNL     1       9.817   1.112  -0.829  1.00  0.00    -0.361 OA
HETATM   16  H15 UNL     1       9.979   1.846  -1.511  1.00  0.00     0.217 HD
ENDBRANCH  12  15
ENDBRANCH   8   9
ENDBRANCH   7   8
ENDBRANCH   6   7
ENDBRANCH   5   6
ENDBRANCH   4   5
ENDBRANCH   3   4
BRANCH   3  17
HETATM   17  B1  UNL     1      -2.095  -0.094   0.394  1.00  0.00     0.210 B 
HETATM   18  C14 UNL     1      -2.632   1.368   0.866  1.00  0.00    -0.043 C 
HETATM   19  C15 UNL     1      -4.022   1.515   0.738  1.00  0.00    -0.008 C 
HETATM   20  C16 UNL     1      -5.338   1.986   0.748  1.00  0.00     0.018 C 
HETATM   21  C17 UNL     1      -6.185   0.809   0.167  1.00  0.00     0.113 C 
HETATM   22  N1  UNL     1      -6.040   0.472  -1.161  1.00  0.00    -0.421 N 
HETATM   23  C18 UNL     1      -5.978  -0.987  -1.540  1.00  0.00     0.113 C 
HETATM   24  H26 UNL     1      -5.469   1.027  -1.800  1.00  0.00     0.153 HD
HETATM   25  C19 UNL     1      -4.679  -1.403  -1.152  1.00  0.00     0.018 C 
HETATM   26  C20 UNL     1      -3.524  -2.113  -0.855  1.00  0.00    -0.008 C 
HETATM   27  C21 UNL     1      -2.345  -1.202  -0.526  1.00  0.00    -0.043 C 
ENDBRANCH   3  17
TORSDOF 8
