REMARK  6 active torsions:
REMARK  status: ('A' for Active; 'I' for Inactive)
REMARK    1  A    between atoms: C2_2  and  C3_3 
REMARK    2  A    between atoms: C3_3  and  O1_4 
REMARK    3  A    between atoms: C4_5  and  C5_6 
REMARK    4  A    between atoms: C5_6  and  O2_8 
REMARK    5  A    between atoms: O2_8  and  C7_9 
REMARK    6  A    between atoms: C17_20  and  N2_21 
ROOT
HETATM    1  C7  UNL     1       0.696  -0.199  -0.523  1.00  0.00     0.076 A 
HETATM    2  C8  UNL     1       0.690   0.661   0.548  1.00  0.00     0.039 A 
HETATM    3  C9  UNL     1      -0.507   0.901   1.184  1.00  0.00     0.033 A 
HETATM    4  C10 UNL     1      -1.665   0.254   0.707  1.00  0.00     0.039 A 
HETATM    5  C11 UNL     1      -1.597  -0.646  -0.430  1.00  0.00    -0.001 A 
HETATM    6  C12 UNL     1      -0.379  -0.854  -1.033  1.00  0.00     0.051 A 
HETATM    7  C13 UNL     1      -3.014  -1.062  -0.522  1.00  0.00    -0.047 C 
HETATM    8  C14 UNL     1      -3.531  -2.160   0.123  1.00  0.00    -0.017 C 
HETATM    9  C15 UNL     1      -3.947  -1.449   1.362  1.00  0.00     0.055 C 
HETATM   10  C16 UNL     1      -4.066   0.040   1.346  1.00  0.00     0.107 C 
HETATM   11  N1  UNL     1      -2.766   0.715   1.583  1.00  0.00    -0.382 N 
HETATM   12  C17 UNL     1      -4.768   0.471   0.088  1.00  0.00     0.101 C 
HETATM   13  C18 UNL     1      -4.178  -0.234  -1.150  1.00  0.00     0.065 C 
HETATM   14  H15 UNL     1      -2.520   1.474   2.289  1.00  0.00     0.160 HD
ENDROOT
BRANCH   1  15
HETATM   15  O2  UNL     1       1.727  -0.655  -1.380  1.00  0.00    -0.315 OA
BRANCH  15  16
HETATM   16  C5  UNL     1       3.011  -0.242  -1.220  1.00  0.00     0.056 C 
HETATM   17  C6  UNL     1       3.147   0.649  -2.202  1.00  0.00     0.047 C 
BRANCH  16  18
HETATM   18  C4  UNL     1       4.347  -0.077  -0.739  1.00  0.00     0.115 C 
HETATM   19  C3  UNL     1       5.158  -0.507   0.176  1.00  0.00     0.051 C 
BRANCH  19  20
HETATM   20  C2  UNL     1       6.264   0.363  -0.293  1.00  0.00     0.024 C 
HETATM   21  C1  UNL     1       7.542   0.730  -0.077  1.00  0.00     0.016 C 
ENDBRANCH  19  20
BRANCH  19  22
HETATM   22  O1  UNL     1       5.870  -1.086   1.219  1.00  0.00    -0.364 OA
HETATM   23  H4  UNL     1       5.602  -2.015   1.568  1.00  0.00     0.217 HD
ENDBRANCH  19  22
ENDBRANCH  16  18
ENDBRANCH  15  16
ENDBRANCH   1  15
BRANCH  12  24
HETATM   24  N2  UNL     1      -4.693   1.895  -0.029  1.00  0.00    -0.424 N 
HETATM   25  H17 UNL     1      -4.555   2.391   0.874  1.00  0.00     0.150 HD
HETATM   26  H18 UNL     1      -5.344   2.341  -0.682  1.00  0.00     0.150 HD
ENDBRANCH  12  24
TORSDOF 6
