REMARK  9 active torsions:
REMARK  status: ('A' for Active; 'I' for Inactive)
REMARK    1  A    between atoms: C1_2  and  C2_3 
REMARK    2  A    between atoms: C2_3  and  C3_4 
REMARK    3  A    between atoms: C2_3  and  C5_7 
REMARK    4  A    between atoms: C3_4  and  C4_5 
REMARK    5  A    between atoms: C5_7  and  O1_8 
REMARK    6  A    between atoms: O1_8  and  C6_9 
REMARK    7  A    between atoms: C8_11  and  N2_12 
REMARK    8  A    between atoms: N2_12  and  C9_13 
REMARK    9  A    between atoms: C13_17  and  C14_18 
ROOT
HETATM    1  C6  UNL     1      -2.767  -0.237   0.848  1.00  0.00     0.169 A 
HETATM    2  C7  UNL     1      -1.469  -0.632   0.658  1.00  0.00     0.108 A 
HETATM    3  C8  UNL     1      -0.412   0.276   0.512  1.00  0.00     0.133 A 
HETATM    4  N3  UNL     1      -0.795   1.541   0.576  1.00  0.00    -0.224 NA
HETATM    5  C21 UNL     1      -2.062   1.933   0.762  1.00  0.00     0.238 A 
HETATM    6  N4  UNL     1      -3.071   1.054   0.901  1.00  0.00    -0.218 NA
ENDROOT
BRANCH   3   7
HETATM    7  N2  UNL     1       0.894  -0.188   0.323  1.00  0.00    -0.341 N 
HETATM    8  H11 UNL     1       1.031  -1.244   0.306  1.00  0.00     0.167 HD
BRANCH   7   9
HETATM    9  C9  UNL     1       2.076   0.564   0.149  1.00  0.00     0.034 A 
HETATM   10  C10 UNL     1       2.149   1.934   0.056  1.00  0.00     0.029 A 
HETATM   11  C11 UNL     1       3.300   2.673  -0.109  1.00  0.00     0.003 A 
HETATM   12  C12 UNL     1       4.489   1.970  -0.188  1.00  0.00     0.012 A 
HETATM   13  C13 UNL     1       4.495   0.597  -0.103  1.00  0.00    -0.024 A 
HETATM   14  C20 UNL     1       3.305  -0.064   0.061  1.00  0.00     0.041 A 
BRANCH  13  15
HETATM   15  C14 UNL     1       5.756  -0.135  -0.186  1.00  0.00    -0.026 A 
HETATM   16  C15 UNL     1       6.819   0.311  -0.943  1.00  0.00     0.012 A 
HETATM   17  C16 UNL     1       7.982  -0.415  -0.986  1.00  0.00     0.001 A 
HETATM   18  C17 UNL     1       8.129  -1.593  -0.288  1.00  0.00     0.000 A 
HETATM   19  C18 UNL     1       7.086  -2.076   0.485  1.00  0.00     0.001 A 
HETATM   20  C19 UNL     1       5.919  -1.326   0.514  1.00  0.00     0.012 A 
ENDBRANCH  13  15
ENDBRANCH   7   9
ENDBRANCH   3   7
BRANCH   1  21
HETATM   21  O1  UNL     1      -3.710  -1.215   0.977  1.00  0.00    -0.334 OA
BRANCH  21  22
HETATM   22  C5  UNL     1      -5.078  -1.085   1.177  1.00  0.00     0.187 C 
BRANCH  22  23
HETATM   23  C2  UNL     1      -5.672  -0.322   0.016  1.00  0.00     0.052 C 
BRANCH  23  24
HETATM   24  C1  UNL     1      -7.148  -0.174   0.217  1.00  0.00     0.087 C 
HETATM   25  N1  UNL     1      -7.486   0.675   1.098  1.00  0.00    -0.316 NA
HETATM   26  H1  UNL     1      -6.783   1.222   1.634  1.00  0.00     0.185 HD
ENDBRANCH  23  24
BRANCH  23  27
HETATM   27  C3  UNL     1      -5.376  -1.047  -1.273  1.00  0.00     0.043 C 
BRANCH  27  28
HETATM   28  C4  UNL     1      -5.966  -0.242  -2.434  1.00  0.00     0.223 C 
HETATM   29  F1  UNL     1      -5.740  -0.842  -3.650  1.00  0.00    -0.255 F 
ENDBRANCH  27  28
ENDBRANCH  23  27
ENDBRANCH  22  23
ENDBRANCH  21  22
ENDBRANCH   1  21
TORSDOF 9
