REMARK  7 active torsions:
REMARK  status: ('A' for Active; 'I' for Inactive)
REMARK    1  A    between atoms: C3_4  and  C4_5 
REMARK    2  A    between atoms: C6_8  and  N2_9 
REMARK    3  A    between atoms: C12_15  and  O1_16 
REMARK    4  A    between atoms: O1_16  and  C13_17 
REMARK    5  A    between atoms: C13_17  and  C14_18 
REMARK    6  A    between atoms: C14_18  and  C15_19 
REMARK    7  A    between atoms: C18_22  and  O2_23 
ROOT
HETATM    1  C1  UNL     1      -2.579   4.333  -0.123  1.00  0.00     0.155 C 
HETATM    2  N1  UNL     1      -2.617   2.894  -0.047  1.00  0.00    -0.360 N 
HETATM    3  C2  UNL     1      -3.645   2.074   0.061  1.00  0.00     0.099 A 
HETATM    4  C3  UNL     1      -3.413   0.684   0.118  1.00  0.00    -0.020 A 
HETATM    5  C10 UNL     1      -1.986   0.803   0.018  1.00  0.00     0.002 A 
HETATM    6  C11 UNL     1      -0.931  -0.132  -0.005  1.00  0.00     0.051 A 
HETATM    7  C12 UNL     1       0.417   0.114  -0.106  1.00  0.00     0.069 A 
HETATM    8  C21 UNL     1       0.745   1.440  -0.194  1.00  0.00     0.039 A 
HETATM    9  C22 UNL     1      -0.220   2.409  -0.179  1.00  0.00     0.033 A 
HETATM   10  C23 UNL     1      -1.551   2.092  -0.076  1.00  0.00     0.044 A 
ENDROOT
BRANCH   7  11
HETATM   11  O1  UNL     1       1.220  -0.976  -0.106  1.00  0.00    -0.351 OA
BRANCH  11  12
HETATM   12  C13 UNL     1       2.574  -1.148  -0.176  1.00  0.00     0.180 C 
BRANCH  12  13
HETATM   13  C14 UNL     1       3.418  -0.578   0.910  1.00  0.00     0.065 C 
BRANCH  13  14
HETATM   14  C15 UNL     1       4.861  -0.903   0.611  1.00  0.00    -0.056 A 
HETATM   15  C16 UNL     1       5.275  -2.112   1.161  1.00  0.00     0.010 A 
HETATM   16  C17 UNL     1       6.584  -2.477   0.931  1.00  0.00     0.037 A 
HETATM   17  C18 UNL     1       7.457  -1.701   0.197  1.00  0.00     0.065 A 
HETATM   18  C19 UNL     1       7.003  -0.503  -0.333  1.00  0.00     0.037 A 
HETATM   19  C20 UNL     1       5.702  -0.098  -0.129  1.00  0.00     0.010 A 
BRANCH  17  20
HETATM   20  O2  UNL     1       8.762  -2.074  -0.028  1.00  0.00    -0.361 OA
HETATM   21  H19 UNL     1       9.107  -2.150  -0.966  1.00  0.00     0.217 HD
ENDBRANCH  17  20
ENDBRANCH  13  14
ENDBRANCH  12  13
ENDBRANCH  11  12
ENDBRANCH   7  11
BRANCH   4  22
HETATM   22  C4  UNL     1      -4.058  -0.553   0.222  1.00  0.00     0.072 A 
HETATM   23  C5  UNL     1      -5.128  -1.037   1.147  1.00  0.00     0.014 A 
HETATM   24  P1  UNL     1      -4.312  -2.571   0.979  1.00  0.00    -0.048 P 
HETATM   25  C9  UNL     1      -5.458   0.412   0.788  1.00  0.00     0.018 C 
HETATM   26  C6  UNL     1      -4.243  -2.367  -0.939  1.00  0.00     0.019 C 
HETATM   27  C7  UNL     1      -4.859  -1.149  -0.922  1.00  0.00     0.029 C 
HETATM   28  C8  UNL     1      -5.401   0.274  -0.700  1.00  0.00     0.019 C 
BRANCH  26  29
HETATM   29  N2  UNL     1      -3.948  -2.788  -2.323  1.00  0.00    -0.401 N 
HETATM   30  H6  UNL     1      -4.789  -2.958  -2.915  1.00  0.00     0.156 HD
HETATM   31  H7  UNL     1      -3.004  -2.934  -2.742  1.00  0.00     0.156 HD
ENDBRANCH  26  29
ENDBRANCH   4  22
TORSDOF 7
