REMARK  10 active torsions:
REMARK  status: ('A' for Active; 'I' for Inactive)
REMARK    1  A    between atoms: C5_5  and  C6_6 
REMARK    2  A    between atoms: C6_6  and  C7_7 
REMARK    3  A    between atoms: C7_7  and  N1_8 
REMARK    4  A    between atoms: N2_10  and  C9_11 
REMARK    5  A    between atoms: C9_11  and  C10_12 
REMARK    6  A    between atoms: C10_12  and  C11_13 
REMARK    7  A    between atoms: C11_13  and  C12_14 
REMARK    8  A    between atoms: C12_14  and  C13_15 
REMARK    9  A    between atoms: C13_15  and  C14_16 
REMARK   10  A    between atoms: C17_19  and  O1_20 
ROOT
HETATM    1  C9  UNL     1      -1.135  -0.980   1.370  1.00  0.00     0.128 C 
ENDROOT
BRANCH   1   2
HETATM    2  N2  UNL     1      -2.192  -0.734   0.472  1.00  0.00    -0.360 N 
HETATM    3  C3  UNL     1      -2.952  -1.377  -0.528  1.00  0.00     0.011 A 
HETATM    4  C2  UNL     1      -2.780  -2.620  -0.897  1.00  0.00    -0.006 C 
HETATM    5  C4  UNL     1      -4.000  -0.504  -1.105  1.00  0.00     0.092 A 
HETATM    6  C1  UNL     1      -3.717  -3.086  -1.941  1.00  0.00     0.038 C 
HETATM    7  C5  UNL     1      -3.763   0.737  -0.288  1.00  0.00    -0.057 A 
HETATM    8  C8  UNL     1      -2.768   0.573   0.559  1.00  0.00     0.094 A 
BRANCH   7   9
HETATM    9  C6  UNL     1      -4.700   1.803  -0.633  1.00  0.00     0.065 C 
BRANCH   9  10
HETATM   10  C7  UNL     1      -4.527   3.047   0.198  1.00  0.00     0.271 C 
BRANCH  10  11
HETATM   11  N1  UNL     1      -4.739   2.751   1.590  1.00  0.00     0.078 N 
HETATM   12  H11 UNL     1      -4.858   1.733   1.801  1.00  0.00     0.312 HD
HETATM   13  H12 UNL     1      -5.558   3.315   1.928  1.00  0.00     0.312 HD
ENDBRANCH  10  11
ENDBRANCH   9  10
ENDBRANCH   7   9
ENDBRANCH   1   2
BRANCH   1  14
HETATM   14  C10 UNL     1      -0.335  -2.206   1.190  1.00  0.00     0.020 C 
BRANCH  14  15
HETATM   15  C11 UNL     1       0.469  -2.337  -0.048  1.00  0.00     0.002 C 
BRANCH  15  16
HETATM   16  C12 UNL     1       1.503  -1.231  -0.191  1.00  0.00     0.005 C 
BRANCH  16  17
HETATM   17  C13 UNL     1       2.501  -1.207   0.942  1.00  0.00     0.038 C 
BRANCH  17  18
HETATM   18  C14 UNL     1       3.503  -0.097   0.754  1.00  0.00    -0.058 A 
HETATM   19  C15 UNL     1       4.642  -0.379   0.052  1.00  0.00     0.010 A 
HETATM   20  C16 UNL     1       5.574   0.644  -0.124  1.00  0.00     0.037 A 
HETATM   21  C17 UNL     1       5.393   1.929   0.380  1.00  0.00     0.068 A 
HETATM   22  C19 UNL     1       4.233   2.168   1.079  1.00  0.00     0.037 A 
HETATM   23  C20 UNL     1       3.290   1.175   1.271  1.00  0.00     0.010 A 
BRANCH  21  24
HETATM   24  O1  UNL     1       6.381   2.906   0.159  1.00  0.00    -0.356 OA
HETATM   25  C18 UNL     1       7.516   2.462  -0.592  1.00  0.00     0.210 C 
ENDBRANCH  21  24
ENDBRANCH  17  18
ENDBRANCH  16  17
ENDBRANCH  15  16
ENDBRANCH  14  15
ENDBRANCH   1  14
TORSDOF 10
