REMARK  8 active torsions:
REMARK  status: ('A' for Active; 'I' for Inactive)
REMARK    1  A    between atoms: O1_1  and  C1_2 
REMARK    2  A    between atoms: C1_2  and  C2_3 
REMARK    3  A    between atoms: C2_3  and  C3_4 
REMARK    4  A    between atoms: C3_4  and  C4_5 
REMARK    5  A    between atoms: C4_5  and  C5_6 
REMARK    6  A    between atoms: C5_6  and  C6_7 
REMARK    7  A    between atoms: C6_7  and  C7_8 
REMARK    8  A    between atoms: C12_13  and  O2_14 
ROOT
HETATM    1  C7  UNL     1       0.306  -0.613  -0.136  1.00  0.00    -0.062 C 
HETATM    2  C8  UNL     1      -0.759  -0.586  -0.886  1.00  0.00    -0.015 C 
HETATM    3  C9  UNL     1      -1.978  -0.155  -1.549  1.00  0.00     0.067 C 
HETATM    4  C10 UNL     1      -3.232  -0.678  -0.951  1.00  0.00    -0.046 A 
HETATM    5  C11 UNL     1      -3.294  -2.042  -0.820  1.00  0.00     0.044 A 
HETATM    6  C12 UNL     1      -4.339  -2.755  -0.286  1.00  0.00     0.066 A 
HETATM    7  C13 UNL     1      -5.423  -2.008   0.155  1.00  0.00     0.037 A 
HETATM    8  C14 UNL     1      -5.383  -0.637   0.033  1.00  0.00     0.010 A 
HETATM    9  C15 UNL     1      -4.319   0.085  -0.510  1.00  0.00    -0.049 A 
HETATM   10  C16 UNL     1      -4.608   1.519  -0.505  1.00  0.00     0.065 C 
HETATM   11  C17 UNL     1      -3.413   2.432  -0.607  1.00  0.00     0.172 C 
HETATM   12  O3  UNL     1      -2.515   2.548   0.231  1.00  0.00    -0.387 OA
HETATM   13  C18 UNL     1      -1.604   2.665   1.081  1.00  0.00     0.195 C 
HETATM   14  C19 UNL     1      -0.487   1.691   1.143  1.00  0.00    -0.000 C 
HETATM   15  C20 UNL     1      -0.138   0.599   0.517  1.00  0.00     0.005 C 
ENDROOT
BRANCH   1  16
HETATM   16  C6  UNL     1       1.432  -1.529   0.196  1.00  0.00     0.038 C 
BRANCH  16  17
HETATM   17  C5  UNL     1       2.766  -1.008  -0.187  1.00  0.00     0.005 C 
BRANCH  17  18
HETATM   18  C4  UNL     1       3.217   0.273   0.407  1.00  0.00     0.000 C 
BRANCH  18  19
HETATM   19  C3  UNL     1       4.611   0.612  -0.106  1.00  0.00     0.002 C 
BRANCH  19  20
HETATM   20  C2  UNL     1       5.643  -0.417   0.215  1.00  0.00     0.026 C 
BRANCH  20  21
HETATM   21  C1  UNL     1       6.975   0.055  -0.356  1.00  0.00     0.164 C 
BRANCH  21  22
HETATM   22  O1  UNL     1       7.380   1.268   0.166  1.00  0.00    -0.401 OA
HETATM   23  H1  UNL     1       7.806   1.169   1.057  1.00  0.00     0.209 HD
ENDBRANCH  21  22
ENDBRANCH  20  21
ENDBRANCH  19  20
ENDBRANCH  18  19
ENDBRANCH  17  18
ENDBRANCH  16  17
ENDBRANCH   1  16
BRANCH   6  24
HETATM   24  O2  UNL     1      -4.329  -4.120  -0.188  1.00  0.00    -0.361 OA
HETATM   25  H18 UNL     1      -5.179  -4.660  -0.388  1.00  0.00     0.217 HD
ENDBRANCH   6  24
TORSDOF 8
