REMARK  9 active torsions:
REMARK  status: ('A' for Active; 'I' for Inactive)
REMARK    1  A    between atoms: C1_2  and  C2_3 
REMARK    2  A    between atoms: C2_3  and  C3_4 
REMARK    3  A    between atoms: C3_4  and  C4_5 
REMARK    4  A    between atoms: C4_5  and  N1_6 
REMARK    5  A    between atoms: C12_15  and  O2_16 
REMARK    6  A    between atoms: O2_16  and  C13_17 
REMARK    7  A    between atoms: C13_17  and  C14_18 
REMARK    8  A    between atoms: C14_18  and  C15_19 
REMARK    9  A    between atoms: C18_22  and  O3_23 
ROOT
HETATM    1  N1  UNL     1      -2.815  -0.100  -0.422  1.00  0.00    -0.376 N 
HETATM    2  C5  UNL     1      -3.536  -1.125  -0.772  1.00  0.00     0.169 C 
HETATM    3  C6  UNL     1      -4.310  -2.193  -1.159  1.00  0.00     0.103 C 
HETATM    4  N2  UNL     1      -3.962  -3.317  -1.670  1.00  0.00    -0.304 NA
HETATM    5  C7  UNL     1      -2.677  -3.758  -1.993  1.00  0.00     0.148 C 
HETATM    6  C8  UNL     1      -1.443  -3.451  -1.238  1.00  0.00     0.026 C 
HETATM    7  C9  UNL     1      -0.779  -2.221  -1.081  1.00  0.00     0.042 C 
HETATM    8  C10 UNL     1      -0.781  -1.041  -0.352  1.00  0.00    -0.029 A 
HETATM    9  C11 UNL     1       0.383  -0.843   0.442  1.00  0.00     0.046 A 
HETATM   10  C12 UNL     1       0.767   0.463   0.935  1.00  0.00     0.069 A 
HETATM   11  C21 UNL     1      -0.016   1.578   0.709  1.00  0.00     0.039 A 
HETATM   12  C22 UNL     1      -1.212   1.474  -0.044  1.00  0.00     0.033 A 
HETATM   13  C23 UNL     1      -1.350   0.211  -0.407  1.00  0.00     0.037 A 
ENDROOT
BRANCH  10  14
HETATM   14  O2  UNL     1       1.923  -0.220   1.466  1.00  0.00    -0.351 OA
BRANCH  14  15
HETATM   15  C13 UNL     1       3.069   0.386   1.399  1.00  0.00     0.180 C 
BRANCH  15  16
HETATM   16  C14 UNL     1       3.550   1.744   1.583  1.00  0.00     0.065 C 
BRANCH  16  17
HETATM   17  C15 UNL     1       4.970   1.531   0.869  1.00  0.00    -0.056 A 
HETATM   18  C16 UNL     1       5.791   0.867   1.722  1.00  0.00     0.010 A 
HETATM   19  C17 UNL     1       6.936   0.400   1.112  1.00  0.00     0.037 A 
HETATM   20  C18 UNL     1       7.130   0.625  -0.212  1.00  0.00     0.065 A 
HETATM   21  C19 UNL     1       6.275   1.317  -1.097  1.00  0.00     0.037 A 
HETATM   22  C20 UNL     1       5.088   1.802  -0.461  1.00  0.00     0.010 A 
BRANCH  20  23
HETATM   23  O3  UNL     1       8.231   0.209  -0.999  1.00  0.00    -0.361 OA
HETATM   24  H24 UNL     1       8.047  -0.577  -1.665  1.00  0.00     0.217 HD
ENDBRANCH  20  23
ENDBRANCH  16  17
ENDBRANCH  15  16
ENDBRANCH  14  15
ENDBRANCH  10  14
BRANCH   1  25
HETATM   25  C4  UNL     1      -3.747   0.699   0.255  1.00  0.00     0.123 C 
BRANCH  25  26
HETATM   26  C3  UNL     1      -4.729   1.575  -0.407  1.00  0.00     0.026 C 
BRANCH  26  27
HETATM   27  C2  UNL     1      -5.641   2.043   0.723  1.00  0.00     0.071 C 
BRANCH  27  28
HETATM   28  C1  UNL     1      -4.927   2.314   1.972  1.00  0.00     0.231 C 
HETATM   29  O1  UNL     1      -4.250   3.117   2.535  1.00  0.00    -0.307 OA
ENDBRANCH  27  28
ENDBRANCH  26  27
ENDBRANCH  25  26
ENDBRANCH   1  25
TORSDOF 9
