REMARK  5 active torsions:
REMARK  status: ('A' for Active; 'I' for Inactive)
REMARK    1  A    between atoms: N1_1  and  C1_2 
REMARK    2  A    between atoms: C1_2  and  O1_3 
REMARK    3  A    between atoms: O1_3  and  C2_4 
REMARK    4  A    between atoms: C2_4  and  C3_5 
REMARK    5  A    between atoms: C9_12  and  C10_13 
ROOT
HETATM    1  C3  UNL     1       3.611  -0.606   0.273  1.00  0.00    -0.035 A 
HETATM    2  C4  UNL     1       2.728  -1.553   0.506  1.00  0.00     0.096 A 
HETATM    3  N2  UNL     1       1.348  -1.185   0.795  1.00  0.00    -0.360 N 
HETATM    4  C5  UNL     1       0.372  -2.188   1.078  1.00  0.00     0.128 C 
HETATM    5  C6  UNL     1      -0.710  -2.364   0.078  1.00  0.00     0.020 C 
HETATM    6  C7  UNL     1      -1.640  -1.191  -0.108  1.00  0.00     0.002 C 
HETATM    7  C8  UNL     1      -2.315  -0.765   1.127  1.00  0.00     0.014 C 
HETATM    8  C9  UNL     1      -3.038   0.554   1.140  1.00  0.00     0.055 C 
HETATM    9  C16 UNL     1      -2.037   1.677   0.956  1.00  0.00    -0.017 A 
HETATM   10 BR1  UNL     1      -1.378   3.451   0.765  1.00  0.00    -0.121 Br
HETATM   11  C17 UNL     1      -0.686   1.602   0.820  1.00  0.00     0.112 A 
HETATM   12  C18 UNL     1       0.695   1.248   0.702  1.00  0.00     0.019 C 
HETATM   13  C19 UNL     1       1.559   0.217   0.681  1.00  0.00     0.013 A 
HETATM   14  C20 UNL     1       2.933   0.697   0.442  1.00  0.00     0.094 A 
ENDROOT
BRANCH   1  15
HETATM   15  C2  UNL     1       5.050  -0.446  -0.055  1.00  0.00     0.206 C 
BRANCH  15  16
HETATM   16  O1  UNL     1       5.123   0.221  -1.283  1.00  0.00    -0.358 OA
BRANCH  16  17
HETATM   17  C1  UNL     1       6.468   0.376  -1.607  1.00  0.00     0.434 C 
BRANCH  17  18
HETATM   18  N1  UNL     1       6.517   1.067  -2.875  1.00  0.00     0.101 N 
HETATM   19  H1  UNL     1       5.576   1.319  -3.241  1.00  0.00     0.315 HD
HETATM   20  H2  UNL     1       7.114   1.945  -2.844  1.00  0.00     0.315 HD
ENDBRANCH  17  18
ENDBRANCH  16  17
ENDBRANCH  15  16
ENDBRANCH   1  15
BRANCH   8  21
HETATM   21  C10 UNL     1      -4.068   0.670   0.121  1.00  0.00    -0.049 A 
HETATM   22  C11 UNL     1      -5.395   0.603   0.560  1.00  0.00     0.008 A 
HETATM   23  C12 UNL     1      -6.511   0.702  -0.280  1.00  0.00     0.001 A 
HETATM   24  C13 UNL     1      -6.305   0.876  -1.621  1.00  0.00     0.000 A 
HETATM   25  C14 UNL     1      -5.028   0.949  -2.105  1.00  0.00     0.001 A 
HETATM   26  C15 UNL     1      -3.972   0.846  -1.231  1.00  0.00     0.008 A 
ENDBRANCH   8  21
TORSDOF 5
