REMARK  11 active torsions:
REMARK  status: ('A' for Active; 'I' for Inactive)
REMARK    1  A    between atoms: N1_1  and  C1_2 
REMARK    2  A    between atoms: C1_2  and  C2_3 
REMARK    3  A    between atoms: C2_3  and  C3_4 
REMARK    4  A    between atoms: C4_5  and  N2_6 
REMARK    5  A    between atoms: N2_6  and  C5_7 
REMARK    6  A    between atoms: C5_7  and  C6_8 
REMARK    7  A    between atoms: C9_11  and  C10_12 
REMARK    8  A    between atoms: C11_13  and  C12_14 
REMARK    9  A    between atoms: C12_14  and  C13_15 
REMARK   10  A    between atoms: C13_15  and  B1_16 
REMARK   11  A    between atoms: B1_16  and  C14_17 
ROOT
HETATM    1  C6  UNL     1      -0.440  -0.300  -0.335  1.00  0.00    -0.041 A 
HETATM    2  C7  UNL     1       0.148   0.284  -1.439  1.00  0.00     0.009 A 
HETATM    3  C8  UNL     1       1.518   0.125  -1.676  1.00  0.00     0.012 A 
HETATM    4  C9  UNL     1       2.213  -0.633  -0.756  1.00  0.00    -0.036 A 
HETATM    5  C15 UNL     1       1.656  -1.230   0.356  1.00  0.00     0.012 A 
HETATM    6  C16 UNL     1       0.298  -1.054   0.562  1.00  0.00     0.009 A 
ENDROOT
BRANCH   1   7
HETATM    7  C5  UNL     1      -1.899  -0.172  -0.021  1.00  0.00     0.157 C 
BRANCH   7   8
HETATM    8  N2  UNL     1      -2.212   0.953   0.800  1.00  0.00    -0.395 N 
HETATM    9  H9  UNL     1      -1.486   1.618   1.144  1.00  0.00     0.159 HD
BRANCH   8  10
HETATM   10  C4  UNL     1      -3.554   1.226   1.196  1.00  0.00     0.079 C 
HETATM   11  C3  UNL     1      -4.571   0.634   0.602  1.00  0.00    -0.008 C 
BRANCH  11  12
HETATM   12  C2  UNL     1      -6.037   0.700   0.774  1.00  0.00     0.058 C 
BRANCH  12  13
HETATM   13  C1  UNL     1      -6.506  -0.715   1.130  1.00  0.00     0.270 C 
BRANCH  13  14
HETATM   14  N1  UNL     1      -7.929  -0.748   1.317  1.00  0.00     0.078 N 
HETATM   15  H1  UNL     1      -8.254   0.198   1.576  1.00  0.00     0.312 HD
HETATM   16  H2  UNL     1      -8.358  -0.999   0.396  1.00  0.00     0.312 HD
ENDBRANCH  13  14
ENDBRANCH  12  13
ENDBRANCH  11  12
ENDBRANCH   8  10
ENDBRANCH   7   8
ENDBRANCH   1   7
BRANCH   4  17
HETATM   17  C10 UNL     1       3.644  -0.822  -0.968  1.00  0.00     0.012 C 
HETATM   18  C11 UNL     1       4.305  -0.306  -1.992  1.00  0.00     0.007 C 
BRANCH  18  19
HETATM   19  C12 UNL     1       5.737  -0.459  -2.260  1.00  0.00     0.034 C 
BRANCH  19  20
HETATM   20  C13 UNL     1       6.549   0.141  -1.408  1.00  0.00    -0.221 C 
BRANCH  20  21
HETATM   21  B1  UNL     1       7.845   0.456  -0.256  1.00  0.00     0.270 B 
BRANCH  21  22
HETATM   22  C14 UNL     1       9.170   0.632   0.931  1.00  0.00     0.174 C 
HETATM   23  F1  UNL     1       8.864   1.754   1.690  1.00  0.00    -0.265 F 
ENDBRANCH  21  22
ENDBRANCH  20  21
ENDBRANCH  19  20
ENDBRANCH  18  19
ENDBRANCH   4  17
TORSDOF 11
