REMARK  3 active torsions:
REMARK  status: ('A' for Active; 'I' for Inactive)
REMARK    1  A    between atoms: C9_12  and  O2_13 
REMARK    2  A    between atoms: C17_22  and  C18_23 
REMARK       I    between atoms: C18_23  and  N4_25 
REMARK    3  A    between atoms: N4_25  and  C19_26 
ROOT
HETATM    1  C1  UNL     1       2.140   3.825  -0.184  1.00  0.00     0.067 C 
HETATM    2  C2  UNL     1       1.151   2.698  -0.368  1.00  0.00     0.043 C 
HETATM    3  N1  UNL     1      -0.087   3.024  -0.546  1.00  0.00    -0.072 NA
HETATM    4  C3  UNL     1      -0.879   2.328  -1.490  1.00  0.00     0.718 C 
HETATM    5  N2  UNL     1      -0.276   1.402  -2.110  1.00  0.00    -0.099 NA
HETATM    6  C4  UNL     1       0.889   0.663  -1.668  1.00  0.00     0.146 C 
HETATM    7  C5  UNL     1       0.450  -0.797  -1.661  1.00  0.00     0.031 C 
HETATM    8  C6  UNL     1      -0.339  -1.150  -0.453  1.00  0.00     0.028 C 
HETATM    9  C7  UNL     1      -0.949  -2.541  -0.462  1.00  0.00     0.168 C 
HETATM   10  O1  UNL     1      -1.825  -2.671  -1.565  1.00  0.00    -0.385 OA
HETATM   11  C8  UNL     1      -2.751  -1.658  -1.555  1.00  0.00     0.231 C 
HETATM   12  C9  UNL     1      -3.621  -1.587  -0.385  1.00  0.00     0.063 C 
HETATM   13  C10 UNL     1      -4.866  -1.611   0.011  1.00  0.00     0.008 C 
HETATM   14  C11 UNL     1      -6.213  -1.612   0.702  1.00  0.00     0.033 C 
HETATM   15  C12 UNL     1      -6.858  -0.272   0.256  1.00  0.00     0.030 C 
HETATM   16  C13 UNL     1      -5.947   0.776   0.835  1.00  0.00    -0.030 C 
HETATM   17  C14 UNL     1      -5.108   1.749   0.565  1.00  0.00    -0.029 C 
HETATM   18  C15 UNL     1      -4.514   2.440  -0.629  1.00  0.00     0.047 C 
HETATM   19  C16 UNL     1      -3.000   2.225  -0.551  1.00  0.00     0.142 C 
HETATM   20  N3  UNL     1      -2.255   2.726  -1.654  1.00  0.00    -0.223 N 
HETATM   21  C17 UNL     1       1.346   1.204  -0.369  1.00  0.00     0.151 C 
HETATM   22  H25 UNL     1      -2.026   3.212  -2.541  1.00  0.00     0.177 HD
ENDROOT
BRANCH  21  23
HETATM   23  C18 UNL     1       2.756   0.895  -0.033  1.00  0.00     0.234 C 
HETATM   24  O3  UNL     1       3.543   1.857   0.111  1.00  0.00    -0.272 OA
HETATM   25  N4  UNL     1       3.356  -0.353   0.153  1.00  0.00    -0.326 N 
HETATM   26  H27 UNL     1       2.678  -1.148   0.033  1.00  0.00     0.169 HD
BRANCH  25  27
HETATM   27  C19 UNL     1       4.677  -0.730   0.470  1.00  0.00     0.034 A 
HETATM   28  C20 UNL     1       5.751   0.099   0.677  1.00  0.00     0.030 A 
HETATM   29  C21 UNL     1       7.041  -0.263   0.989  1.00  0.00     0.009 A 
HETATM   30  C22 UNL     1       7.276  -1.617   1.106  1.00  0.00    -0.062 A 
HETATM   31  C23 UNL     1       8.617  -2.152   1.439  1.00  0.00     0.048 C 
HETATM   32  C24 UNL     1       6.255  -2.520   0.914  1.00  0.00     0.009 A 
HETATM   33  C25 UNL     1       4.995  -2.066   0.605  1.00  0.00     0.030 A 
ENDBRANCH  25  27
ENDBRANCH  21  23
BRANCH  12  34
HETATM   34  O2  UNL     1      -3.482  -1.446   0.980  1.00  0.00    -0.363 OA
HETATM   35  H13 UNL     1      -2.761  -0.881   1.422  1.00  0.00     0.217 HD
ENDBRANCH  12  34
TORSDOF 3
