REMARK  8 active torsions:
REMARK  status: ('A' for Active; 'I' for Inactive)
REMARK    1  A    between atoms: N1_1  and  C1_2 
REMARK    2  A    between atoms: C1_2  and  C2_3 
REMARK    3  A    between atoms: C2_3  and  C3_4 
REMARK    4  A    between atoms: C7_8  and  O1_9 
REMARK    5  A    between atoms: O1_9  and  C8_10 
REMARK    6  A    between atoms: C8_10  and  C9_11 
REMARK    7  A    between atoms: C9_11  and  C10_12 
REMARK    8  A    between atoms: C13_15  and  O2_16 
ROOT
HETATM    1  C3  UNL     1       4.613  -1.313  -0.293  1.00  0.00     0.054 A 
HETATM    2  C4  UNL     1       3.402  -0.948  -1.090  1.00  0.00    -0.042 A 
HETATM    3  C5  UNL     1       2.307  -0.604  -1.873  1.00  0.00     0.011 A 
HETATM    4  C6  UNL     1       1.089  -0.556  -1.226  1.00  0.00     0.037 A 
HETATM    5  C7  UNL     1       0.910  -0.822   0.113  1.00  0.00     0.069 A 
HETATM    6  C16 UNL     1       2.006  -1.161   0.876  1.00  0.00     0.045 A 
HETATM    7  C17 UNL     1       3.253  -1.228   0.289  1.00  0.00    -0.040 A 
ENDROOT
BRANCH   5   8
HETATM    8  O1  UNL     1      -0.324  -0.768   0.746  1.00  0.00    -0.351 OA
BRANCH   8   9
HETATM    9  C8  UNL     1      -1.527  -0.437   0.098  1.00  0.00     0.180 C 
BRANCH   9  10
HETATM   10  C9  UNL     1      -2.658  -0.477   1.085  1.00  0.00     0.065 C 
BRANCH  10  11
HETATM   11  C10 UNL     1      -3.897  -0.114   0.318  1.00  0.00    -0.056 A 
HETATM   12  C11 UNL     1      -4.194   1.253   0.284  1.00  0.00     0.010 A 
HETATM   13  C12 UNL     1      -5.335   1.566  -0.425  1.00  0.00     0.037 A 
HETATM   14  C13 UNL     1      -6.155   0.684  -1.064  1.00  0.00     0.065 A 
HETATM   15  C14 UNL     1      -5.825  -0.670  -1.007  1.00  0.00     0.037 A 
HETATM   16  C15 UNL     1      -4.692  -1.050  -0.311  1.00  0.00     0.010 A 
BRANCH  14  17
HETATM   17  O2  UNL     1      -7.291   1.059  -1.762  1.00  0.00    -0.361 OA
HETATM   18  H16 UNL     1      -7.336   1.965  -2.208  1.00  0.00     0.217 HD
ENDBRANCH  14  17
ENDBRANCH  10  11
ENDBRANCH   9  10
ENDBRANCH   8   9
ENDBRANCH   5   8
BRANCH   1  19
HETATM   19  C2  UNL     1       5.577  -0.197  -0.090  1.00  0.00     0.044 C 
BRANCH  19  20
HETATM   20  C1  UNL     1       4.975   0.984   0.640  1.00  0.00     0.267 C 
BRANCH  20  21
HETATM   21  N1  UNL     1       5.972   2.046   0.808  1.00  0.00     0.078 N 
HETATM   22  H1  UNL     1       5.734   2.654   1.616  1.00  0.00     0.312 HD
HETATM   23  H2  UNL     1       6.925   1.681   0.897  1.00  0.00     0.312 HD
ENDBRANCH  20  21
ENDBRANCH  19  20
ENDBRANCH   1  19
TORSDOF 8
