REMARK  6 active torsions:
REMARK  status: ('A' for Active; 'I' for Inactive)
REMARK    1  A    between atoms: C5_5  and  N1_6 
REMARK    2  A    between atoms: N1_6  and  C6_7 
REMARK    3  A    between atoms: C6_7  and  C7_8 
REMARK    4  A    between atoms: C7_8  and  C8_10 
REMARK    5  A    between atoms: C8_10  and  C9_11 
REMARK    6  A    between atoms: C13_16  and  O3_17 
ROOT
HETATM    1  C6  UNL     1      -0.019   0.521  -1.844  1.00  0.00     0.197 C 
ENDROOT
BRANCH   1   2
HETATM    2  N1  UNL     1      -0.924   0.610  -0.715  1.00  0.00    -0.391 N 
HETATM    3  H6  UNL     1      -1.284   1.535  -0.455  1.00  0.00     0.159 HD
BRANCH   2   4
HETATM    4  C5  UNL     1      -1.219  -0.621  -0.087  1.00  0.00     0.094 C 
HETATM    5  C4  UNL     1      -2.478  -0.867   0.144  1.00  0.00    -0.021 A 
HETATM    6  C3  UNL     1      -3.544   0.063  -0.215  1.00  0.00     0.015 A 
HETATM    7  C14 UNL     1      -3.038  -2.069   0.798  1.00  0.00     0.009 A 
HETATM    8  C2  UNL     1      -4.852   0.093  -0.103  1.00  0.00    -0.080 A 
HETATM    9  C1  UNL     1      -5.708   1.197  -0.568  1.00  0.00     0.043 C 
HETATM   10  C16 UNL     1      -5.384  -1.127   0.563  1.00  0.00     0.061 A 
HETATM   11  C15 UNL     1      -4.329  -2.064   0.924  1.00  0.00    -0.021 A 
ENDBRANCH   2   4
ENDBRANCH   1   2
BRANCH   1  12
HETATM   12  C7  UNL     1       1.350   0.179  -1.366  1.00  0.00     0.145 C 
HETATM   13  O1  UNL     1       2.044   0.148  -2.396  1.00  0.00    -0.296 OA
BRANCH  12  14
HETATM   14  C8  UNL     1       1.978  -0.100  -0.034  1.00  0.00     0.093 C 
BRANCH  14  15
HETATM   15  C9  UNL     1       3.190   0.709   0.261  1.00  0.00     0.070 C 
HETATM   16  C10 UNL     1       3.655   0.267   1.638  1.00  0.00    -0.019 C 
HETATM   17  C11 UNL     1       4.873  -0.181   1.971  1.00  0.00    -0.004 C 
HETATM   18  C12 UNL     1       5.881  -0.258   0.896  1.00  0.00     0.198 C 
HETATM   19  O2  UNL     1       5.183  -0.527  -0.285  1.00  0.00    -0.357 OA
HETATM   20  C13 UNL     1       4.356   0.564  -0.636  1.00  0.00     0.265 C 
BRANCH  20  21
HETATM   21  O3  UNL     1       5.184   1.696  -0.389  1.00  0.00    -0.371 OA
HETATM   22  H17 UNL     1       4.666   2.434   0.041  1.00  0.00     0.212 HD
ENDBRANCH  20  21
ENDBRANCH  14  15
ENDBRANCH  12  14
ENDBRANCH   1  12
TORSDOF 6
