REMARK  5 active torsions:
REMARK  status: ('A' for Active; 'I' for Inactive)
REMARK    1  A    between atoms: C5_5  and  N1_6 
REMARK       I    between atoms: N1_6  and  C6_7 
REMARK    2  A    between atoms: C6_7  and  C7_9 
REMARK    3  A    between atoms: C9_11  and  S1_12 
REMARK    4  A    between atoms: S1_12  and  C10_13 
REMARK    5  A    between atoms: C10_13  and  C11_14 
ROOT
HETATM    1  C7  UNL     1       0.290   0.359   0.408  1.00  0.00     0.029 C 
HETATM    2  C8  UNL     1      -0.738  -0.342  -0.018  1.00  0.00     0.025 C 
HETATM    3  C9  UNL     1      -1.914   0.248   0.071  1.00  0.00     0.104 C 
HETATM    4  N2  UNL     1      -2.110   0.616   1.452  1.00  0.00    -0.257 NA
HETATM    5  C17 UNL     1      -1.180   1.326   2.040  1.00  0.00     0.095 C 
HETATM    6  C18 UNL     1      -0.036   1.638   1.128  1.00  0.00     0.092 C 
ENDROOT
BRANCH   1   7
HETATM    7  C6  UNL     1       1.694   0.018   0.250  1.00  0.00     0.253 C 
HETATM    8  N1  UNL     1       2.416  -0.587  -0.829  1.00  0.00    -0.323 N 
HETATM    9  H6  UNL     1       1.764  -0.812  -1.640  1.00  0.00     0.169 HD
HETATM   10  O1  UNL     1       2.453   0.297   1.238  1.00  0.00    -0.268 OA
BRANCH   8  11
HETATM   11  C5  UNL     1       3.786  -0.663  -0.393  1.00  0.00     0.035 A 
HETATM   12  C4  UNL     1       4.368  -1.713   0.284  1.00  0.00     0.030 A 
HETATM   13  C3  UNL     1       5.695  -1.614   0.625  1.00  0.00     0.009 A 
HETATM   14  C2  UNL     1       6.380  -0.476   0.276  1.00  0.00    -0.062 A 
HETATM   15  C1  UNL     1       7.805  -0.419   0.664  1.00  0.00     0.048 C 
HETATM   16  C20 UNL     1       5.839   0.593  -0.399  1.00  0.00     0.009 A 
HETATM   17  C19 UNL     1       4.499   0.488  -0.739  1.00  0.00     0.030 A 
ENDBRANCH   8  11
ENDBRANCH   1   7
BRANCH   3  18
HETATM   18  S1  UNL     1      -2.694   0.317  -1.514  1.00  0.00    -0.105 SA
BRANCH  18  19
HETATM   19  C10 UNL     1      -4.303   1.108  -1.469  1.00  0.00     0.119 C 
BRANCH  19  20
HETATM   20  C11 UNL     1      -5.242   0.291  -0.696  1.00  0.00    -0.049 A 
HETATM   21  C12 UNL     1      -5.372   0.521   0.664  1.00  0.00     0.008 A 
HETATM   22  C13 UNL     1      -6.227  -0.189   1.484  1.00  0.00     0.001 A 
HETATM   23  C14 UNL     1      -6.998  -1.198   0.895  1.00  0.00     0.000 A 
HETATM   24  C15 UNL     1      -6.909  -1.473  -0.462  1.00  0.00     0.001 A 
HETATM   25  C16 UNL     1      -6.033  -0.719  -1.214  1.00  0.00     0.008 A 
ENDBRANCH  19  20
ENDBRANCH  18  19
ENDBRANCH   3  18
TORSDOF 5
