REMARK  4 active torsions:
REMARK  status: ('A' for Active; 'I' for Inactive)
REMARK    1  A    between atoms: C6_6  and  C7_7 
REMARK    2  A    between atoms: C7_7  and  O1_8 
REMARK    3  A    between atoms: O1_8  and  C8_9 
REMARK    4  A    between atoms: C18_19  and  O2_20 
ROOT
HETATM    1  O1  UNL     1      -0.053   0.205   1.247  1.00  0.00    -0.353 OA
ENDROOT
BRANCH   1   2
HETATM    2  C7  UNL     1      -0.652  -0.624   0.274  1.00  0.00     0.186 C 
BRANCH   2   3
HETATM    3  C6  UNL     1      -2.092  -0.316   0.031  1.00  0.00     0.065 A 
HETATM    4  C5  UNL     1      -2.277   1.080  -0.436  1.00  0.00    -0.017 A 
HETATM    5  C4  UNL     1      -2.796   1.474  -1.562  1.00  0.00    -0.003 A 
HETATM    6  C3  UNL     1      -3.291   0.517  -2.573  1.00  0.00     0.005 A 
HETATM    7  C2  UNL     1      -3.148  -0.744  -2.200  1.00  0.00    -0.055 A 
HETATM    8  C1  UNL     1      -3.626  -1.751  -3.178  1.00  0.00     0.046 C 
HETATM    9  C18 UNL     1      -2.597  -1.330  -0.976  1.00  0.00     0.156 A 
BRANCH   9  10
HETATM   10  O2  UNL     1      -3.543  -2.191  -0.368  1.00  0.00    -0.390 OA
HETATM   11  H20 UNL     1      -4.243  -1.686   0.110  1.00  0.00     0.210 HD
ENDBRANCH   9  10
ENDBRANCH   2   3
ENDBRANCH   1   2
BRANCH   1  12
HETATM   12  C8  UNL     1       1.336   0.100   1.515  1.00  0.00     0.060 C 
HETATM   13  C9  UNL     1       1.288  -0.959   2.360  1.00  0.00     0.034 C 
HETATM   14  C10 UNL     1       2.675  -1.328   2.756  1.00  0.00     0.006 C 
HETATM   15  C11 UNL     1       3.461  -0.471   2.063  1.00  0.00    -0.063 C 
HETATM   16  C12 UNL     1       4.585   0.217   1.526  1.00  0.00     0.047 C 
HETATM   17  C17 UNL     1       2.763   0.540   1.381  1.00  0.00     0.041 C 
HETATM   18  C13 UNL     1       3.699   0.542   0.304  1.00  0.00    -0.005 C 
HETATM   19  C14 UNL     1       2.813   0.971  -0.650  1.00  0.00     0.002 C 
HETATM   20  C15 UNL     1       1.957   2.066   0.030  1.00  0.00     0.007 C 
HETATM   21  C16 UNL     1       2.713   2.058   1.441  1.00  0.00     0.022 C 
ENDBRANCH   1  12
TORSDOF 4
