REMARK  3 active torsions:
REMARK  status: ('A' for Active; 'I' for Inactive)
REMARK    1  A    between atoms: C2_3  and  N1_4 
REMARK    2  A    between atoms: N1_4  and  C3_5 
REMARK    3  A    between atoms: C16_22  and  C17_23 
ROOT
HETATM    1  C3  UNL     1      -1.164  -1.930  -0.839  1.00  0.00     0.161 A 
HETATM    2  N2  UNL     1      -1.473  -3.252  -0.674  1.00  0.00    -0.222 NA
HETATM    3  C4  UNL     1      -2.798  -3.560  -0.676  1.00  0.00     0.238 A 
HETATM    4  N3  UNL     1      -3.787  -2.644  -0.830  1.00  0.00    -0.215 NA
HETATM    5  C5  UNL     1      -3.480  -1.322  -0.995  1.00  0.00     0.201 A 
HETATM    6  C6  UNL     1      -2.149  -0.983  -0.996  1.00  0.00     0.132 A 
HETATM    7  N4  UNL     1      -1.884   0.403  -1.151  1.00  0.00    -0.359 N 
HETATM    8  C7  UNL     1      -2.252   1.117  -0.002  1.00  0.00     0.088 C 
HETATM    9  C8  UNL     1      -3.225   1.414   0.804  1.00  0.00     0.017 C 
HETATM   10  C9  UNL     1      -4.609   1.274   1.159  1.00  0.00     0.001 C 
HETATM   11  C10 UNL     1      -5.683   0.662   0.726  1.00  0.00     0.002 C 
HETATM   12  C11 UNL     1      -6.299  -0.190  -0.225  1.00  0.00     0.025 C 
HETATM   13  C12 UNL     1      -5.831  -0.817  -1.274  1.00  0.00     0.144 C 
HETATM   14  O1  UNL     1      -4.505  -0.374  -1.156  1.00  0.00    -0.302 OA
HETATM   15  H3  UNL     1      -1.500   0.354  -2.100  1.00  0.00     0.165 HD
ENDROOT
BRANCH   1  16
HETATM   16  N1  UNL     1       0.119  -1.333  -0.887  1.00  0.00    -0.336 N 
HETATM   17  H1  UNL     1       0.338  -1.457  -1.910  1.00  0.00     0.168 HD
BRANCH  16  18
HETATM   18  C2  UNL     1       0.976  -0.721   0.056  1.00  0.00     0.073 A 
HETATM   19  C1  UNL     1       2.177  -0.271  -0.447  1.00  0.00     0.154 A 
HETATM   20  F1  UNL     1       2.511  -0.408  -1.755  1.00  0.00    -0.203 F 
HETATM   21  C16 UNL     1       3.043   0.336   0.444  1.00  0.00     0.015 A 
HETATM   22  C15 UNL     1       2.681   0.465   1.771  1.00  0.00     0.015 A 
HETATM   23  C14 UNL     1       1.468  -0.002   2.225  1.00  0.00     0.003 A 
HETATM   24  C13 UNL     1       0.559  -0.622   1.366  1.00  0.00     0.033 A 
BRANCH  21  25
HETATM   25  C17 UNL     1       4.334   0.830  -0.051  1.00  0.00    -0.023 A 
HETATM   26  C18 UNL     1       5.401   0.514   0.762  1.00  0.00     0.012 A 
HETATM   27  C19 UNL     1       6.683   0.929   0.398  1.00  0.00     0.001 A 
HETATM   28  C20 UNL     1       6.879   1.646  -0.761  1.00  0.00     0.000 A 
HETATM   29  C21 UNL     1       5.803   1.958  -1.571  1.00  0.00     0.001 A 
HETATM   30  C22 UNL     1       4.535   1.548  -1.212  1.00  0.00     0.012 A 
ENDBRANCH  21  25
ENDBRANCH  16  18
ENDBRANCH   1  16
TORSDOF 3
