REMARK  3 active torsions:
REMARK  status: ('A' for Active; 'I' for Inactive)
REMARK    1  A    between atoms: C9_11  and  N2_12 
REMARK    2  A    between atoms: N2_12  and  C10_13 
REMARK    3  A    between atoms: C14_17  and  C15_18 
ROOT
HETATM    1  F1  UNL     1       6.633   2.072   2.644  1.00  0.00    -0.206 F 
HETATM    2  C1  UNL     1       6.117   1.355   1.612  1.00  0.00     0.117 A 
HETATM    3  C2  UNL     1       6.699   1.405   0.342  1.00  0.00     0.045 A 
HETATM    4  C3  UNL     1       6.103   0.649  -0.635  1.00  0.00     0.041 A 
HETATM    5  C4  UNL     1       4.978  -0.115  -0.343  1.00  0.00     0.086 A 
HETATM    6  C5  UNL     1       4.431  -0.142   0.916  1.00  0.00    -0.004 A 
HETATM    7  C6  UNL     1       5.002   0.613   1.953  1.00  0.00     0.054 A 
HETATM    8  C7  UNL     1       3.257  -0.877   1.448  1.00  0.00     0.161 C 
HETATM    9  N1  UNL     1       2.110  -0.835   0.534  1.00  0.00    -0.379 N 
HETATM   10  C8  UNL     1       2.179  -1.232  -0.831  1.00  0.00     0.129 A 
HETATM   11  C9  UNL     1       0.952  -1.702  -1.268  1.00  0.00     0.160 A 
HETATM   12  N4  UNL     1       0.843  -2.131  -2.552  1.00  0.00    -0.222 NA
HETATM   13  C21 UNL     1       1.882  -2.117  -3.415  1.00  0.00     0.238 A 
HETATM   14  N5  UNL     1       3.076  -1.662  -2.996  1.00  0.00    -0.215 NA
HETATM   15  C22 UNL     1       3.256  -1.217  -1.724  1.00  0.00     0.202 A 
HETATM   16  O1  UNL     1       4.558  -0.790  -1.492  1.00  0.00    -0.289 OA
HETATM   17  H6  UNL     1       1.115  -0.527   0.738  1.00  0.00     0.160 HD
ENDROOT
BRANCH  11  18
HETATM   18  N2  UNL     1      -0.236  -1.754  -0.452  1.00  0.00    -0.339 N 
HETATM   19  H7  UNL     1      -0.499  -2.454   0.294  1.00  0.00     0.167 HD
BRANCH  18  20
HETATM   20  C10 UNL     1      -1.189  -0.707  -0.693  1.00  0.00     0.034 A 
HETATM   21  C11 UNL     1      -0.887   0.247  -1.668  1.00  0.00     0.029 A 
HETATM   22  C12 UNL     1      -1.813   1.271  -1.920  1.00  0.00     0.003 A 
HETATM   23  C13 UNL     1      -2.997   1.318  -1.208  1.00  0.00     0.012 A 
HETATM   24  C14 UNL     1      -3.319   0.385  -0.239  1.00  0.00    -0.028 A 
HETATM   25  C20 UNL     1      -2.380  -0.593  -0.032  1.00  0.00     0.041 A 
BRANCH  24  26
HETATM   26  C15 UNL     1      -4.581   0.479   0.476  1.00  0.00    -0.045 C 
HETATM   27  C16 UNL     1      -4.902  -0.397   1.411  1.00  0.00     0.003 C 
HETATM   28  C17 UNL     1      -6.207  -0.317   2.166  1.00  0.00     0.176 C 
HETATM   29  N3  UNL     1      -6.512   1.070   2.417  1.00  0.00    -0.302 NA
HETATM   30  C18 UNL     1      -6.212   1.922   1.490  1.00  0.00     0.088 C 
HETATM   31  C19 UNL     1      -5.575   1.539   0.197  1.00  0.00     0.085 C 
ENDBRANCH  24  26
ENDBRANCH  18  20
ENDBRANCH  11  18
TORSDOF 3
