REMARK  9 active torsions:
REMARK  status: ('A' for Active; 'I' for Inactive)
REMARK    1  A    between atoms: C3_4  and  N2_5 
REMARK    2  A    between atoms: N2_5  and  C4_6 
REMARK    3  A    between atoms: C4_6  and  C5_7 
REMARK    4  A    between atoms: C11_14  and  C12_15 
REMARK    5  A    between atoms: C11_14  and  C18_23 
REMARK    6  A    between atoms: C15_18  and  O1_19 
REMARK    7  A    between atoms: C17_21  and  O2_22 
REMARK    8  A    between atoms: C18_23  and  N4_25 
REMARK    9  A    between atoms: C23_29  and  O3_30 
ROOT
HETATM    1  C1  UNL     1      -1.296   1.623  -2.850  1.00  0.00     0.069 C 
HETATM    2  C2  UNL     1      -0.366   1.054  -1.822  1.00  0.00     0.065 A 
HETATM    3  N1  UNL     1       0.850   0.575  -1.734  1.00  0.00    -0.070 NA
HETATM    4  C3  UNL     1       1.119   0.193  -0.372  1.00  0.00     0.719 A 
HETATM    5  N3  UNL     1       0.088   0.422   0.399  1.00  0.00    -0.081 NA
HETATM    6  C11 UNL     1      -0.938   0.976  -0.466  1.00  0.00     0.162 A 
ENDROOT
BRANCH   6   7
HETATM    7  C12 UNL     1      -1.306   2.364  -0.110  1.00  0.00     0.014 A 
HETATM    8  C13 UNL     1      -2.485   3.001   0.200  1.00  0.00     0.016 A 
HETATM    9  C14 UNL     1      -2.627   4.340   0.463  1.00  0.00     0.037 A 
HETATM   10  C15 UNL     1      -1.517   5.144   0.422  1.00  0.00     0.068 A 
HETATM   11  C16 UNL     1      -0.305   4.559   0.115  1.00  0.00     0.073 A 
HETATM   12  C17 UNL     1      -0.196   3.189  -0.148  1.00  0.00     0.077 A 
BRANCH  10  13
HETATM   13  O1  UNL     1      -1.717   6.488   0.696  1.00  0.00    -0.361 OA
HETATM   14  H14 UNL     1      -1.805   7.139  -0.057  1.00  0.00     0.217 HD
ENDBRANCH  10  13
BRANCH  12  15
HETATM   15  O2  UNL     1       1.148   2.918  -0.421  1.00  0.00    -0.360 OA
HETATM   16  H16 UNL     1       1.898   3.131   0.193  1.00  0.00     0.217 HD
ENDBRANCH  12  15
ENDBRANCH   6   7
BRANCH   6  17
HETATM   17  C18 UNL     1      -2.185   0.119  -0.341  1.00  0.00     0.122 C 
HETATM   18  C19 UNL     1      -2.564   0.212   1.154  1.00  0.00     0.036 C 
BRANCH  17  19
HETATM   19  N4  UNL     1      -2.044  -1.271  -0.616  1.00  0.00    -0.372 N 
HETATM   20  C20 UNL     1      -1.545  -1.678  -1.894  1.00  0.00     0.087 A 
HETATM   21  C21 UNL     1      -1.377  -2.899  -2.385  1.00  0.00     0.019 A 
HETATM   22  C22 UNL     1      -1.716  -4.056  -1.585  1.00  0.00     0.035 A 
HETATM   23  C23 UNL     1      -2.169  -3.708  -0.399  1.00  0.00     0.065 A 
HETATM   24  C24 UNL     1      -2.388  -2.385   0.269  1.00  0.00     0.137 A 
HETATM   25  C25 UNL     1      -3.853  -2.265   0.602  1.00  0.00     0.039 C 
BRANCH  23  26
HETATM   26  O3  UNL     1      -2.560  -4.686   0.531  1.00  0.00    -0.363 OA
HETATM   27  H24 UNL     1      -2.177  -4.768   1.452  1.00  0.00     0.217 HD
ENDBRANCH  23  26
ENDBRANCH  17  19
ENDBRANCH   6  17
BRANCH   4  28
HETATM   28  N2  UNL     1       2.391  -0.352  -0.047  1.00  0.00    -0.218 N 
HETATM   29  H4  UNL     1       3.109  -0.603  -0.753  1.00  0.00     0.178 HD
BRANCH  28  30
HETATM   30  C4  UNL     1       2.694  -0.567   1.353  1.00  0.00     0.176 C 
BRANCH  30  31
HETATM   31  C5  UNL     1       4.024  -1.129   1.579  1.00  0.00    -0.040 A 
HETATM   32  C6  UNL     1       4.350  -2.448   1.640  1.00  0.00     0.009 A 
HETATM   33  C7  UNL     1       5.624  -2.907   1.855  1.00  0.00     0.001 A 
HETATM   34  C8  UNL     1       6.680  -2.009   2.028  1.00  0.00     0.000 A 
HETATM   35  C9  UNL     1       6.399  -0.660   1.974  1.00  0.00     0.001 A 
HETATM   36  C10 UNL     1       5.099  -0.251   1.755  1.00  0.00     0.009 A 
ENDBRANCH  30  31
ENDBRANCH  28  30
ENDBRANCH   4  28
TORSDOF 9
