REMARK  7 active torsions:
REMARK  status: ('A' for Active; 'I' for Inactive)
REMARK    1  A    between atoms: C5_5  and  N1_6 
REMARK       I    between atoms: N1_6  and  C6_7 
REMARK    2  A    between atoms: C6_7  and  C7_9 
REMARK    3  A    between atoms: C7_9  and  C8_10 
REMARK    4  A    between atoms: C7_9  and  C9_12 
REMARK    5  A    between atoms: C9_12  and  C10_13 
REMARK    6  A    between atoms: C13_16  and  O2_17 
REMARK    7  A    between atoms: C15_19  and  O3_20 
ROOT
HETATM    1  C7  UNL     1      -0.915  -1.046   0.294  1.00  0.00     0.096 C 
ENDROOT
BRANCH   1   2
HETATM    2  C6  UNL     1       0.557  -1.025  -0.042  1.00  0.00     0.227 C 
HETATM    3  N1  UNL     1       1.392   0.065   0.275  1.00  0.00    -0.327 N 
HETATM    4  H6  UNL     1       0.878   0.833   0.759  1.00  0.00     0.169 HD
HETATM    5  O1  UNL     1       1.009  -2.018  -0.616  1.00  0.00    -0.273 OA
BRANCH   3   6
HETATM    6  C5  UNL     1       2.772   0.219   0.022  1.00  0.00     0.034 A 
HETATM    7  C4  UNL     1       3.401   1.375   0.421  1.00  0.00     0.030 A 
HETATM    8  C3  UNL     1       4.742   1.606   0.212  1.00  0.00     0.009 A 
HETATM    9  C2  UNL     1       5.532   0.671  -0.418  1.00  0.00    -0.062 A 
HETATM   10  C1  UNL     1       6.981   0.899  -0.654  1.00  0.00     0.048 C 
HETATM   11  C17 UNL     1       4.946  -0.489  -0.828  1.00  0.00     0.009 A 
HETATM   12  C16 UNL     1       3.607  -0.677  -0.599  1.00  0.00     0.030 A 
ENDBRANCH   3   6
ENDBRANCH   1   2
BRANCH   1  13
HETATM   13  C8  UNL     1      -1.404  -2.383  -0.222  1.00  0.00     0.129 C 
HETATM   14 CL1  UNL     1      -3.113  -2.672   0.050  1.00  0.00    -0.130 Cl
ENDBRANCH   1  13
BRANCH   1  15
HETATM   15  C9  UNL     1      -1.618   0.109  -0.333  1.00  0.00     0.056 C 
BRANCH  15  16
HETATM   16  C10 UNL     1      -3.053   0.213  -0.091  1.00  0.00    -0.024 A 
HETATM   17  C11 UNL     1      -4.051  -0.090  -1.024  1.00  0.00     0.012 A 
HETATM   18  C12 UNL     1      -5.402   0.021  -0.778  1.00  0.00     0.037 A 
HETATM   19  C13 UNL     1      -5.834   0.457   0.459  1.00  0.00     0.068 A 
HETATM   20  C14 UNL     1      -4.901   0.774   1.429  1.00  0.00     0.073 A 
HETATM   21  C15 UNL     1      -3.562   0.643   1.125  1.00  0.00     0.074 A 
BRANCH  19  22
HETATM   22  O2  UNL     1      -7.194   0.544   0.634  1.00  0.00    -0.361 OA
HETATM   23  H14 UNL     1      -7.670   0.948   1.426  1.00  0.00     0.217 HD
ENDBRANCH  19  22
BRANCH  21  24
HETATM   24  O3  UNL     1      -2.700   0.992   2.183  1.00  0.00    -0.360 OA
HETATM   25  H16 UNL     1      -2.610   0.368   2.976  1.00  0.00     0.217 HD
ENDBRANCH  21  24
ENDBRANCH  15  16
ENDBRANCH   1  15
TORSDOF 7
