REMARK  4 active torsions:
REMARK  status: ('A' for Active; 'I' for Inactive)
REMARK    1  A    between atoms: C5_7  and  O1_8 
REMARK    2  A    between atoms: C7_10  and  O2_11 
REMARK    3  A    between atoms: C17_22  and  C18_23 
REMARK       I    between atoms: C18_23  and  N4_25 
REMARK    4  A    between atoms: N4_25  and  C19_26 
ROOT
HETATM    1  C1  UNL     1       1.794   0.274   2.606  1.00  0.00     0.066 C 
HETATM    2  C2  UNL     1       0.681   0.526   1.654  1.00  0.00     0.027 C 
HETATM    3  N1  UNL     1      -0.419   1.219   1.873  1.00  0.00    -0.227 NA
HETATM    4  C3  UNL     1      -1.694   0.568   1.695  1.00  0.00     0.202 C 
HETATM    5  N2  UNL     1      -1.398  -0.643   1.336  1.00  0.00    -0.247 NA
HETATM    6  C4  UNL     1      -0.632  -0.835   0.091  1.00  0.00     0.186 C 
HETATM    7  C5  UNL     1      -0.389  -2.264  -0.071  1.00  0.00     0.071 C 
HETATM    8  C6  UNL     1      -1.543  -2.957  -0.118  1.00  0.00     0.066 C 
HETATM    9  C7  UNL     1      -2.957  -3.400  -0.131  1.00  0.00     0.050 C 
HETATM   10  C8  UNL     1      -3.844  -2.377  -0.005  1.00  0.00     0.054 C 
HETATM   11  C9  UNL     1      -5.169  -1.702   0.098  1.00  0.00    -0.007 C 
HETATM   12  C10 UNL     1      -4.662  -0.441   0.200  1.00  0.00     0.058 C 
HETATM   13  C11 UNL     1      -5.126   0.962   0.347  1.00  0.00    -0.031 A 
HETATM   14  C12 UNL     1      -6.156   1.781  -0.097  1.00  0.00     0.009 A 
HETATM   15  C13 UNL     1      -6.330   3.090   0.252  1.00  0.00     0.001 A 
HETATM   16  C14 UNL     1      -5.449   3.672   1.098  1.00  0.00     0.002 A 
HETATM   17  C15 UNL     1      -4.410   2.900   1.562  1.00  0.00     0.024 A 
HETATM   18  C16 UNL     1      -4.186   1.547   1.232  1.00  0.00     0.022 A 
HETATM   19  N3  UNL     1      -3.043   0.942   1.816  1.00  0.00    -0.227 NA
HETATM   20  C17 UNL     1       0.537   0.067   0.216  1.00  0.00     0.157 C 
HETATM   21  H15 UNL     1      -2.744   1.267   0.836  1.00  0.00     0.137 HD
ENDROOT
BRANCH  20  22
HETATM   22  C18 UNL     1       1.805  -0.371  -0.367  1.00  0.00     0.234 C 
HETATM   23  O3  UNL     1       2.704  -1.088  -0.942  1.00  0.00    -0.272 OA
HETATM   24  N4  UNL     1       2.743   0.740  -0.224  1.00  0.00    -0.326 N 
HETATM   25  H17 UNL     1       2.749   1.743   0.174  1.00  0.00     0.169 HD
BRANCH  24  26
HETATM   26  C19 UNL     1       4.097   0.604  -0.713  1.00  0.00     0.034 A 
HETATM   27  C20 UNL     1       5.158   0.113   0.056  1.00  0.00     0.030 A 
HETATM   28  C21 UNL     1       6.372   0.053  -0.565  1.00  0.00     0.009 A 
HETATM   29  C22 UNL     1       6.593   0.438  -1.865  1.00  0.00    -0.062 A 
HETATM   30  C23 UNL     1       7.919   0.362  -2.519  1.00  0.00     0.048 C 
HETATM   31  C24 UNL     1       5.542   0.926  -2.631  1.00  0.00     0.009 A 
HETATM   32  C25 UNL     1       4.302   0.995  -2.017  1.00  0.00     0.030 A 
ENDBRANCH  24  26
ENDBRANCH  20  22
BRANCH   7  33
HETATM   33  O1  UNL     1       0.921  -2.661  -0.146  1.00  0.00    -0.363 OA
HETATM   34  H5  UNL     1       1.464  -2.944   0.667  1.00  0.00     0.217 HD
ENDBRANCH   7  33
BRANCH   9  35
HETATM   35  O2  UNL     1      -3.056  -4.818  -0.275  1.00  0.00    -0.364 OA
HETATM   36  H7  UNL     1      -3.040  -5.178  -1.234  1.00  0.00     0.217 HD
ENDBRANCH   9  35
TORSDOF 4
