REMARK  6 active torsions:
REMARK  status: ('A' for Active; 'I' for Inactive)
REMARK    1  A    between atoms: C5_5  and  N1_6 
REMARK       I    between atoms: N1_6  and  C6_7 
REMARK    2  A    between atoms: C6_7  and  C7_9 
REMARK    3  A    between atoms: C8_11  and  N3_12 
REMARK    4  A    between atoms: N3_12  and  C9_13 
REMARK    5  A    between atoms: C9_13  and  C10_14 
REMARK    6  A    between atoms: C16_20  and  N4_21 
ROOT
HETATM    1  C7  UNL     1      -0.339   1.787   0.856  1.00  0.00     0.229 A 
HETATM    2  N2  UNL     1       0.745   1.903  -0.074  1.00  0.00    -0.356 N 
HETATM    3  C8  UNL     1       1.577   1.019   0.665  1.00  0.00     0.123 A 
HETATM    4  C16 UNL     1       0.607   0.877   1.555  1.00  0.00     0.079 A 
HETATM    5  H8  UNL     1       0.912   2.417  -0.956  1.00  0.00     0.162 HD
ENDROOT
BRANCH   1   6
HETATM    6  C6  UNL     1      -1.541   1.122   0.296  1.00  0.00     0.251 C 
HETATM    7  N1  UNL     1      -2.735   0.889   1.010  1.00  0.00    -0.325 N 
HETATM    8  H6  UNL     1      -2.659   1.248   1.986  1.00  0.00     0.169 HD
HETATM    9  O1  UNL     1      -1.447   0.756  -0.899  1.00  0.00    -0.270 OA
BRANCH   7  10
HETATM   10  C5  UNL     1      -3.926   0.268   0.568  1.00  0.00     0.034 A 
HETATM   11  C4  UNL     1      -4.190  -0.252  -0.662  1.00  0.00     0.030 A 
HETATM   12  C3  UNL     1      -5.375  -0.846  -1.032  1.00  0.00     0.009 A 
HETATM   13  C2  UNL     1      -6.387  -0.939  -0.117  1.00  0.00    -0.062 A 
HETATM   14  C1  UNL     1      -7.707  -1.557  -0.399  1.00  0.00     0.048 C 
HETATM   15  C18 UNL     1      -6.158  -0.424   1.139  1.00  0.00     0.009 A 
HETATM   16  C17 UNL     1      -4.962   0.159   1.462  1.00  0.00     0.030 A 
ENDBRANCH   7  10
ENDBRANCH   1   6
BRANCH   4  17
HETATM   17  N4  UNL     1       0.378   0.165   2.777  1.00  0.00    -0.397 N 
HETATM   18  H17 UNL     1       0.335  -0.844   2.478  1.00  0.00     0.156 HD
HETATM   19  H18 UNL     1       0.309   0.741   3.632  1.00  0.00     0.156 HD
ENDBRANCH   4  17
BRANCH   3  20
HETATM   20  N3  UNL     1       2.894   0.493   0.531  1.00  0.00    -0.371 N 
HETATM   21  H9  UNL     1       3.317  -0.068   1.275  1.00  0.00     0.161 HD
BRANCH  20  22
HETATM   22  C9  UNL     1       3.695   0.707  -0.622  1.00  0.00     0.160 C 
BRANCH  22  23
HETATM   23  C10 UNL     1       5.029   0.081  -0.570  1.00  0.00    -0.041 A 
HETATM   24  C11 UNL     1       5.170  -1.219  -1.055  1.00  0.00     0.009 A 
HETATM   25  C12 UNL     1       6.391  -1.884  -1.044  1.00  0.00     0.001 A 
HETATM   26  C13 UNL     1       7.511  -1.253  -0.540  1.00  0.00     0.000 A 
HETATM   27  C14 UNL     1       7.396   0.036  -0.055  1.00  0.00     0.001 A 
HETATM   28  C15 UNL     1       6.156   0.668  -0.083  1.00  0.00     0.009 A 
ENDBRANCH  22  23
ENDBRANCH  20  22
ENDBRANCH   3  20
TORSDOF 6
