REMARK  3 active torsions:
REMARK  status: ('A' for Active; 'I' for Inactive)
REMARK    1  A    between atoms: N1_1  and  C1_2 
REMARK    2  A    between atoms: C6_8  and  C7_9 
REMARK    3  A    between atoms: C10_13  and  C11_14 
ROOT
HETATM    1  C1  UNL     1       3.012  -0.727   1.685  1.00  0.00     0.170 C 
HETATM    2  N2  UNL     1       3.513   0.117   0.742  1.00  0.00    -0.240 NA
HETATM    3  C2  UNL     1       3.474   1.022  -0.164  1.00  0.00     0.119 C 
HETATM    4  C3  UNL     1       2.097   1.558  -0.446  1.00  0.00     0.022 C 
HETATM    5  C4  UNL     1       0.824   1.106  -0.387  1.00  0.00     0.034 C 
HETATM    6  C5  UNL     1       0.224  -0.194  -0.001  1.00  0.00     0.069 A 
HETATM    7  C6  UNL     1      -1.018  -0.474  -0.454  1.00  0.00     0.086 A 
HETATM    8  N3  UNL     1      -1.405  -1.677   0.077  1.00  0.00    -0.224 NA
HETATM    9  C13 UNL     1      -0.435  -2.082   0.805  1.00  0.00     0.178 A 
HETATM   10  S2  UNL     1       0.085  -3.429   1.903  1.00  0.00    -0.061 SA
HETATM   11  C14 UNL     1       1.729  -2.624   2.246  1.00  0.00     0.087 A 
HETATM   12  C15 UNL     1       1.704  -1.410   1.484  1.00  0.00     0.095 A 
HETATM   13  N4  UNL     1       0.554  -1.226   0.785  1.00  0.00    -0.284 N 
ENDROOT
BRANCH   7  14
HETATM   14  C7  UNL     1      -1.856   0.328  -1.430  1.00  0.00     0.069 A 
HETATM   15  C8  UNL     1      -1.019   0.932  -2.311  1.00  0.00     0.020 A 
HETATM   16  S1  UNL     1      -2.515   1.836  -2.682  1.00  0.00    -0.215 SA
HETATM   17  C9  UNL     1      -3.557   0.827  -1.467  1.00  0.00     0.033 A 
HETATM   18  C11 UNL     1      -3.370   0.606  -1.291  1.00  0.00     0.033 A 
HETATM   19  C10 UNL     1      -4.255   1.606  -2.073  1.00  0.00     0.068 A 
HETATM   20  C12 UNL     1      -4.537   0.207  -0.649  1.00  0.00     0.033 A 
ENDBRANCH   7  14
BRANCH   1  21
HETATM   21  N1  UNL     1       3.556  -1.040   2.786  1.00  0.00    -0.280 NA
HETATM   22  H1  UNL     1       4.455  -0.727   3.171  1.00  0.00     0.188 HD
ENDBRANCH   1  21
TORSDOF 3
