REMARK  6 active torsions:
REMARK  status: ('A' for Active; 'I' for Inactive)
REMARK    1  A    between atoms: O1_2  and  C2_3 
REMARK    2  A    between atoms: C2_3  and  C3_4 
REMARK    3  A    between atoms: C3_4  and  C4_5 
REMARK    4  A    between atoms: C4_5  and  O2_6 
REMARK    5  A    between atoms: C4_5  and  C6_8 
REMARK    6  A    between atoms: C14_18  and  O3_19 
ROOT
HETATM    1  C6  UNL     1       1.088   0.165   0.286  1.00  0.00    -0.027 A 
HETATM    2  C7  UNL     1       0.779  -1.109   0.792  1.00  0.00     0.011 A 
HETATM    3  C8  UNL     1      -0.549  -1.535   0.920  1.00  0.00     0.018 A 
HETATM    4  C9  UNL     1      -1.338  -0.521   0.481  1.00  0.00     0.041 A 
HETATM    5  C10 UNL     1      -2.657  -0.750   0.516  1.00  0.00     0.163 A 
HETATM    6  N1  UNL     1      -3.427   0.153   0.112  1.00  0.00    -0.210 NA
HETATM    7  C11 UNL     1      -3.506   1.259  -0.344  1.00  0.00     0.161 A 
HETATM    8  N2  UNL     1      -2.236   1.514  -0.389  1.00  0.00    -0.230 NA
HETATM    9  C12 UNL     1      -1.191   0.755  -0.032  1.00  0.00     0.073 A 
HETATM   10  C13 UNL     1       0.138   1.109  -0.130  1.00  0.00     0.042 A 
HETATM   11  C14 UNL     1      -4.879   0.981  -0.294  1.00  0.00     0.212 C 
HETATM   12  C15 UNL     1      -5.507  -0.352  -0.133  1.00  0.00     0.014 C 
HETATM   13  C16 UNL     1      -5.493  -1.703   0.142  1.00  0.00     0.018 C 
HETATM   14  C17 UNL     1      -4.324  -2.538   0.654  1.00  0.00     0.119 C 
HETATM   15  N3  UNL     1      -3.090  -2.063   0.993  1.00  0.00    -0.241 NA
ENDROOT
BRANCH   1  16
HETATM   16  C4  UNL     1       2.458   0.667   0.133  1.00  0.00     0.155 C 
BRANCH  16  17
HETATM   17  C3  UNL     1       2.938   0.434  -1.261  1.00  0.00     0.063 C 
BRANCH  17  18
HETATM   18  C2  UNL     1       4.401   0.725  -1.413  1.00  0.00     0.169 C 
BRANCH  18  19
HETATM   19  O1  UNL     1       5.232  -0.030  -0.610  1.00  0.00    -0.396 OA
HETATM   20  C1  UNL     1       5.081  -1.383  -0.890  1.00  0.00     0.201 C 
ENDBRANCH  18  19
ENDBRANCH  17  18
ENDBRANCH  16  17
BRANCH  16  21
HETATM   21  O2  UNL     1       2.631   1.970   0.570  1.00  0.00    -0.386 OA
HETATM   22  C5  UNL     1       3.477   2.079   1.652  1.00  0.00     0.202 C 
ENDBRANCH  16  21
ENDBRANCH   1  16
BRANCH  11  23
HETATM   23  O3  UNL     1      -5.396   1.424  -1.589  1.00  0.00    -0.384 OA
HETATM   24  H16 UNL     1      -6.348   1.156  -1.603  1.00  0.00     0.211 HD
ENDBRANCH  11  23
TORSDOF 6
