REMARK  4 active torsions:
REMARK  status: ('A' for Active; 'I' for Inactive)
REMARK    1  A    between atoms: C3_3  and  C4_4 
REMARK    2  A    between atoms: N1_5  and  C5_6 
REMARK    3  A    between atoms: C5_6  and  N2_7 
REMARK    4  A    between atoms: N2_7  and  C6_8 
ROOT
HETATM    1  C6  UNL     1       1.007   0.240  -0.567  1.00  0.00     0.144 C 
HETATM    2  C7  UNL     1       1.017   1.511  -0.084  1.00  0.00     0.134 C 
HETATM    3  N3  UNL     1      -0.357   1.836   0.120  1.00  0.00    -0.396 N 
HETATM    4  C8  UNL     1      -1.769   2.178   0.204  1.00  0.00     0.122 C 
HETATM    5  C9  UNL     1      -2.217   1.922   1.620  1.00  0.00     0.057 C 
HETATM    6  C10 UNL     1      -3.580   1.352   1.838  1.00  0.00     0.179 C 
HETATM    7  F1  UNL     1      -3.894   1.256   3.129  1.00  0.00    -0.249 F 
HETATM    8  C11 UNL     1      -3.706  -0.081   1.283  1.00  0.00     0.048 C 
HETATM    9  C12 UNL     1      -4.292   0.227  -0.172  1.00  0.00    -0.019 C 
HETATM   10  C13 UNL     1      -4.034  -0.089  -1.477  1.00  0.00    -0.004 C 
HETATM   11  C14 UNL     1      -3.315  -0.749  -2.597  1.00  0.00    -0.003 C 
HETATM   12  C15 UNL     1      -2.237  -1.660  -2.583  1.00  0.00    -0.008 C 
HETATM   13  C16 UNL     1      -1.995  -1.814  -1.090  1.00  0.00     0.030 A 
HETATM   14  C17 UNL     1      -3.287  -2.214  -1.048  1.00  0.00    -0.027 A 
HETATM   15  C18 UNL     1      -2.894  -1.373  -0.032  1.00  0.00     0.035 A 
HETATM   16  C19 UNL     1      -2.300  -0.481   0.959  1.00  0.00    -0.021 A 
HETATM   17  C20 UNL     1      -1.384  -0.868  -0.023  1.00  0.00     0.091 A 
HETATM   18  C21 UNL     1      -0.788  -1.407  -1.081  1.00  0.00     0.010 A 
HETATM   19  N4  UNL     1       0.490  -0.952  -1.037  1.00  0.00    -0.345 N 
HETATM   20  H9  UNL     1      -0.042   1.718   1.117  1.00  0.00     0.159 HD
HETATM   21  H23 UNL     1       0.771  -1.787  -1.469  1.00  0.00     0.167 HD
ENDROOT
BRANCH   1  22
HETATM   22  N2  UNL     1       2.462   0.093  -0.657  1.00  0.00    -0.223 NA
BRANCH  22  23
HETATM   23  C5  UNL     1       2.978  -0.289   0.558  1.00  0.00     0.234 C 
BRANCH  23  24
HETATM   24  N1  UNL     1       3.852  -0.677   1.644  1.00  0.00    -0.254 NA
HETATM   25  C4  UNL     1       5.115  -0.446   1.371  1.00  0.00     0.117 C 
BRANCH  25  26
HETATM   26  C3  UNL     1       5.256   0.118   0.062  1.00  0.00     0.015 C 
HETATM   27  C2  UNL     1       6.447   0.449  -0.459  1.00  0.00    -0.029 C 
HETATM   28  C1  UNL     1       7.765   0.274   0.256  1.00  0.00     0.036 C 
ENDBRANCH  25  26
ENDBRANCH  23  24
ENDBRANCH  22  23
ENDBRANCH   1  22
TORSDOF 4
