REMARK  7 active torsions:
REMARK  status: ('A' for Active; 'I' for Inactive)
REMARK    1  A    between atoms: C5_5  and  N1_6 
REMARK       I    between atoms: N1_6  and  C6_7 
REMARK    2  A    between atoms: C6_7  and  C7_9 
REMARK    3  A    between atoms: C7_9  and  P1_10 
REMARK    4  A    between atoms: C7_9  and  C8_11 
REMARK    5  A    between atoms: C8_11  and  C9_12 
REMARK    6  A    between atoms: C12_15  and  O2_16 
REMARK    7  A    between atoms: C14_18  and  O3_19 
ROOT
HETATM    1  C7  UNL     1      -0.850   0.566  -0.230  1.00  0.00     0.105 C 
ENDROOT
BRANCH   1   2
HETATM    2  C6  UNL     1       0.604   0.277  -0.135  1.00  0.00     0.230 C 
HETATM    3  N1  UNL     1       1.242  -0.970  -0.298  1.00  0.00    -0.327 N 
HETATM    4  H6  UNL     1       0.603  -1.784  -0.512  1.00  0.00     0.169 HD
HETATM    5  O1  UNL     1       1.390   1.254   0.121  1.00  0.00    -0.272 OA
BRANCH   3   6
HETATM    6  C5  UNL     1       2.655  -0.762  -0.118  1.00  0.00     0.034 A 
HETATM    7  C4  UNL     1       3.289  -0.860   1.109  1.00  0.00     0.030 A 
HETATM    8  C3  UNL     1       4.645  -0.637   1.151  1.00  0.00     0.009 A 
HETATM    9  C2  UNL     1       5.360  -0.325   0.022  1.00  0.00    -0.062 A 
HETATM   10  C1  UNL     1       6.816  -0.080   0.035  1.00  0.00     0.048 C 
HETATM   11  C16 UNL     1       4.734  -0.227  -1.203  1.00  0.00     0.009 A 
HETATM   12  C15 UNL     1       3.369  -0.451  -1.248  1.00  0.00     0.030 A 
ENDBRANCH   3   6
ENDBRANCH   1   2
BRANCH   1  13
HETATM   13  P1  UNL     1      -1.367   0.305  -1.989  1.00  0.00    -0.127 P 
HETATM   14  H8  UNL     1      -0.664   1.278  -2.808  1.00  0.00     0.055 HD
HETATM   15  H9  UNL     1      -0.799  -0.996  -2.370  1.00  0.00     0.055 HD
ENDBRANCH   1  13
BRANCH   1  16
HETATM   16  C8  UNL     1      -1.670  -0.178   0.769  1.00  0.00     0.060 C 
BRANCH  16  17
HETATM   17  C9  UNL     1      -3.117   0.112   0.676  1.00  0.00    -0.024 A 
HETATM   18  C10 UNL     1      -3.672   1.031   1.559  1.00  0.00     0.012 A 
HETATM   19  C11 UNL     1      -4.992   1.432   1.601  1.00  0.00     0.037 A 
HETATM   20  C12 UNL     1      -5.849   0.871   0.681  1.00  0.00     0.068 A 
HETATM   21  C13 UNL     1      -5.365  -0.044  -0.219  1.00  0.00     0.073 A 
HETATM   22  C14 UNL     1      -4.043  -0.389  -0.196  1.00  0.00     0.074 A 
BRANCH  20  23
HETATM   23  O2  UNL     1      -7.195   1.208   0.641  1.00  0.00    -0.361 OA
HETATM   24  H14 UNL     1      -7.585   1.619  -0.211  1.00  0.00     0.217 HD
ENDBRANCH  20  23
BRANCH  22  25
HETATM   25  O3  UNL     1      -3.606  -1.321  -1.126  1.00  0.00    -0.360 OA
HETATM   26  H16 UNL     1      -3.252  -2.220  -0.768  1.00  0.00     0.217 HD
ENDBRANCH  22  25
ENDBRANCH  16  17
ENDBRANCH   1  16
TORSDOF 7
