REMARK  7 active torsions:
REMARK  status: ('A' for Active; 'I' for Inactive)
REMARK    1  A    between atoms: B1_2  and  C2_3 
REMARK    2  A    between atoms: B1_2  and  C6_8 
REMARK    3  A    between atoms: C2_3  and  C3_4 
REMARK    4  A    between atoms: C4_5  and  C5_6 
REMARK    5  A    between atoms: C5_6  and  O1_7 
REMARK    6  A    between atoms: C6_8  and  N1_9 
REMARK    7  A    between atoms: N1_9  and  C7_10 
ROOT
HETATM    1  C7  UNL     1      -0.874   0.811   1.049  1.00  0.00     0.053 C 
HETATM    2  C8  UNL     1      -2.039   1.425   1.183  1.00  0.00     0.011 C 
HETATM    3  C9  UNL     1      -3.186   1.891   1.996  1.00  0.00     0.089 C 
HETATM    4  C10 UNL     1      -4.390   1.306   1.228  1.00  0.00     0.049 C 
HETATM    5  N2  UNL     1      -5.683   1.496   1.535  1.00  0.00    -0.257 NA
HETATM    6  C11 UNL     1      -6.586   2.184   0.722  1.00  0.00     0.166 C 
HETATM    7  S1  UNL     1      -6.480   2.318  -1.028  1.00  0.00    -0.093 SA
HETATM    8  C12 UNL     1      -4.956   2.059  -1.829  1.00  0.00     0.064 C 
HETATM    9  C13 UNL     1      -3.960   1.335  -1.219  1.00  0.00     0.000 C 
HETATM   10  C14 UNL     1      -2.777   1.543  -1.986  1.00  0.00     0.130 C 
HETATM   11  N3  UNL     1      -1.456   1.292  -1.571  1.00  0.00    -0.257 NA
HETATM   12  C15 UNL     1      -1.179   0.512  -0.416  1.00  0.00     0.089 C 
HETATM   13  C16 UNL     1      -1.341  -0.889  -0.696  1.00  0.00    -0.017 C 
HETATM   14  C17 UNL     1      -2.565  -1.390  -0.155  1.00  0.00    -0.021 C 
HETATM   15  C18 UNL     1      -3.916  -0.926  -0.025  1.00  0.00     0.024 C 
HETATM   16  C19 UNL     1      -4.104   0.498   0.064  1.00  0.00     0.002 C 
HETATM   17  C20 UNL     1      -2.375  -2.733   0.417  1.00  0.00     0.308 C 
HETATM   18  N4  UNL     1      -1.572  -3.586  -0.433  1.00  0.00     0.087 N 
HETATM   19  C21 UNL     1      -0.300  -3.035  -0.768  1.00  0.00     0.274 C 
HETATM   20  C22 UNL     1      -0.386  -1.680  -1.439  1.00  0.00     0.071 C 
HETATM   21  H23 UNL     1      -1.396  -4.465   0.098  1.00  0.00     0.316 HD
ENDROOT
BRANCH   1  22
HETATM   22  N1  UNL     1       0.339   0.137   1.096  1.00  0.00    -0.397 N 
HETATM   23  H13 UNL     1       0.316  -0.871   1.353  1.00  0.00     0.158 HD
BRANCH  22  24
HETATM   24  C6  UNL     1       1.370   1.114   0.747  1.00  0.00     0.068 C 
BRANCH  24  25
HETATM   25  B1  UNL     1       2.805   0.429   0.784  1.00  0.00     0.197 B 
HETATM   26  C1  UNL     1       2.992  -0.991   1.485  1.00  0.00    -0.052 C 
BRANCH  25  27
HETATM   27  C2  UNL     1       3.862   0.947  -0.295  1.00  0.00    -0.020 C 
BRANCH  27  28
HETATM   28  C3  UNL     1       5.179   0.297  -0.143  1.00  0.00    -0.038 C 
HETATM   29  C4  UNL     1       6.390   0.778   0.103  1.00  0.00    -0.006 C 
BRANCH  29  30
HETATM   30  C5  UNL     1       7.761   0.232   0.275  1.00  0.00     0.191 C 
BRANCH  30  31
HETATM   31  O1  UNL     1       7.765  -1.166   0.140  1.00  0.00    -0.397 OA
HETATM   32  H10 UNL     1       8.716  -1.458   0.043  1.00  0.00     0.209 HD
ENDBRANCH  30  31
ENDBRANCH  29  30
ENDBRANCH  27  28
ENDBRANCH  25  27
ENDBRANCH  24  25
ENDBRANCH  22  24
ENDBRANCH   1  22
TORSDOF 7
