REMARK  8 active torsions:
REMARK  status: ('A' for Active; 'I' for Inactive)
REMARK    1  A    between atoms: C2_2  and  C3_3 
REMARK    2  A    between atoms: C4_4  and  C5_5 
REMARK    3  A    between atoms: C6_6  and  C7_7 
REMARK    4  A    between atoms: C7_7  and  S1_8 
REMARK    5  A    between atoms: S1_8  and  C8_11 
REMARK    6  A    between atoms: C12_15  and  O3_16 
REMARK    7  A    between atoms: C15_19  and  O4_20 
REMARK    8  A    between atoms: C17_23  and  C18_24 
ROOT
HETATM    1  C8  UNL     1      -0.654  -1.411  -0.730  1.00  0.00     0.178 C 
HETATM    2  C9  UNL     1      -1.212  -2.666  -0.193  1.00  0.00     0.022 C 
HETATM    3  C10 UNL     1      -2.151  -3.154   0.638  1.00  0.00     0.002 C 
HETATM    4  C11 UNL     1      -3.221  -2.647   1.524  1.00  0.00     0.033 C 
HETATM    5  C12 UNL     1      -3.652  -1.385   1.767  1.00  0.00     0.057 C 
HETATM    6  C14 UNL     1      -3.646   0.094   1.544  1.00  0.00     0.118 C 
HETATM    7  C15 UNL     1      -2.902   0.792   0.637  1.00  0.00     0.083 C 
HETATM    8  C16 UNL     1      -1.910   0.504  -0.430  1.00  0.00     0.092 C 
HETATM    9  N1  UNL     1      -1.237  -0.375   0.153  1.00  0.00    -0.256 NA
HETATM   10  C17 UNL     1      -1.811   0.971  -1.787  1.00  0.00     0.003 C 
HETATM   11  C19 UNL     1      -0.855   0.335  -2.489  1.00  0.00    -0.011 C 
HETATM   12  C20 UNL     1      -0.843  -1.130  -2.173  1.00  0.00     0.081 C 
ENDROOT
BRANCH   1  13
HETATM   13  S1  UNL     1       1.124  -1.439  -0.468  1.00  0.00     0.180 S 
HETATM   14  O1  UNL     1       1.408  -1.550   1.001  1.00  0.00    -0.225 OA
HETATM   15  O2  UNL     1       1.711  -2.621  -1.183  1.00  0.00    -0.225 OA
BRANCH  13  16
HETATM   16  C7  UNL     1       1.883   0.024  -1.090  1.00  0.00     0.170 C 
BRANCH  16  17
HETATM   17  C6  UNL     1       3.338  -0.039  -0.860  1.00  0.00    -0.012 C 
HETATM   18  C5  UNL     1       4.212   0.702  -0.201  1.00  0.00    -0.003 C 
BRANCH  18  19
HETATM   19  C4  UNL     1       5.619   0.329  -0.187  1.00  0.00    -0.001 C 
HETATM   20  C3  UNL     1       6.459   1.094   0.483  1.00  0.00    -0.004 C 
BRANCH  20  21
HETATM   21  C2  UNL     1       6.100   2.292   1.219  1.00  0.00    -0.026 C 
HETATM   22  C1  UNL     1       7.036   2.986   1.860  1.00  0.00     0.031 C 
ENDBRANCH  20  21
ENDBRANCH  18  19
ENDBRANCH  16  17
ENDBRANCH  13  16
ENDBRANCH   1  13
BRANCH   7  23
HETATM   23  O4  UNL     1      -2.977   2.165   0.531  1.00  0.00    -0.362 OA
HETATM   24  H17 UNL     1      -3.888   2.548   0.301  1.00  0.00     0.217 HD
ENDBRANCH   7  23
BRANCH  10  25
HETATM   25  C18 UNL     1      -2.749   2.029  -2.085  1.00  0.00     0.432 C 
HETATM   26  O5  UNL     1      -3.321   2.897  -2.786  1.00  0.00    -0.426 OA
ENDBRANCH  10  25
BRANCH   5  27
HETATM   27  O3  UNL     1      -4.698  -1.109   2.690  1.00  0.00    -0.359 OA
HETATM   28  C13 UNL     1      -6.060  -1.149   2.309  1.00  0.00     0.209 C 
ENDBRANCH   5  27
TORSDOF 8
