REMARK  5 active torsions:
REMARK  status: ('A' for Active; 'I' for Inactive)
REMARK    1  A    between atoms: C7_7  and  C8_8 
REMARK    2  A    between atoms: C11_11  and  O1_12 
REMARK    3  A    between atoms: O1_12  and  C12_13 
REMARK    4  A    between atoms: C12_13  and  C13_14 
REMARK    5  A    between atoms: C13_14  and  O2_15 
ROOT
HETATM    1  C1  UNL     1      -5.810   2.614  -2.011  1.00  0.00     0.018 C 
HETATM    2  C2  UNL     1      -4.884   2.435  -1.258  1.00  0.00    -0.078 C 
HETATM    3  C3  UNL     1      -3.786   2.208  -0.340  1.00  0.00     0.017 A 
HETATM    4  C4  UNL     1      -3.483   3.213   0.569  1.00  0.00     0.020 A 
HETATM    5  C5  UNL     1      -2.462   3.098   1.482  1.00  0.00     0.002 A 
HETATM    6  C6  UNL     1      -1.754   1.923   1.443  1.00  0.00     0.010 A 
HETATM    7  C7  UNL     1      -2.000   0.885   0.571  1.00  0.00    -0.022 A 
HETATM    8  C18 UNL     1      -3.038   1.072  -0.315  1.00  0.00     0.030 A 
ENDROOT
BRANCH   7   9
HETATM    9  C8  UNL     1      -1.228  -0.434   0.497  1.00  0.00     0.209 C 
HETATM   10  C9  UNL     1      -0.562  -0.379   1.792  1.00  0.00     0.027 C 
HETATM   11  C10 UNL     1       0.694  -0.006   1.580  1.00  0.00     0.009 C 
HETATM   12  C11 UNL     1       1.318  -0.897   0.821  1.00  0.00     0.081 C 
HETATM   13  C15 UNL     1       0.643  -2.026   0.270  1.00  0.00     0.053 C 
HETATM   14  C16 UNL     1      -0.039  -3.025  -0.196  1.00  0.00     0.081 C 
HETATM   15  N1  UNL     1      -1.195  -3.759  -0.378  1.00  0.00    -0.381 NA
HETATM   16  C17 UNL     1      -2.316  -3.205  -0.645  1.00  0.00     0.399 C 
HETATM   17  N2  UNL     1      -2.511  -1.808  -0.788  1.00  0.00    -0.259 N 
HETATM   18  O3  UNL     1      -2.271  -1.343   0.430  1.00  0.00    -0.265 OA
HETATM   19  H17 UNL     1      -2.715  -2.104  -1.777  1.00  0.00     0.195 HD
BRANCH  12  20
HETATM   20  O1  UNL     1       2.524  -0.256   0.908  1.00  0.00    -0.348 OA
BRANCH  20  21
HETATM   21  C12 UNL     1       3.434  -0.111  -0.177  1.00  0.00     0.201 C 
BRANCH  21  22
HETATM   22  C13 UNL     1       4.623   0.711   0.181  1.00  0.00     0.193 C 
BRANCH  22  23
HETATM   23  O2  UNL     1       5.465   0.821  -0.912  1.00  0.00    -0.394 OA
HETATM   24  C14 UNL     1       5.964  -0.347  -1.411  1.00  0.00     0.201 C 
ENDBRANCH  22  23
ENDBRANCH  21  22
ENDBRANCH  20  21
ENDBRANCH  12  20
ENDBRANCH   7   9
TORSDOF 5
