REMARK  1 active torsions:
REMARK  status: ('A' for Active; 'I' for Inactive)
REMARK    1  A    between atoms: C5_6  and  C6_7 
ROOT
HETATM    1  C6  UNL     1       1.195   0.501   0.280  1.00  0.00     0.091 C 
HETATM    2  C7  UNL     1       0.300  -0.490  -0.018  1.00  0.00    -0.000 C 
HETATM    3  C8  UNL     1      -0.058  -0.736   1.349  1.00  0.00     0.013 C 
HETATM    4  C9  UNL     1      -1.132  -1.417   1.000  1.00  0.00     0.007 C 
HETATM    5  C10 UNL     1      -2.103  -1.380  -0.061  1.00  0.00     0.178 C 
HETATM    6  C11 UNL     1      -1.422  -1.598  -1.407  1.00  0.00     0.065 C 
HETATM    7  C12 UNL     1      -0.330  -0.899  -1.242  1.00  0.00     0.044 C 
HETATM    8  N1  UNL     1      -2.405  -2.387  -2.038  1.00  0.00    -0.245 NA
HETATM    9  C13 UNL     1      -3.591  -1.749  -2.213  1.00  0.00     0.223 C 
HETATM   10  N2  UNL     1      -3.849  -0.579  -1.336  1.00  0.00    -0.294 N 
HETATM   11  N3  UNL     1      -2.877  -0.151  -0.342  1.00  0.00    -0.295 N 
HETATM   12  C14 UNL     1      -2.433   1.091   0.360  1.00  0.00     0.107 A 
HETATM   13  C15 UNL     1      -1.824   1.280  -0.852  1.00  0.00     0.084 A 
HETATM   14  C16 UNL     1      -0.524   1.702  -0.905  1.00  0.00    -0.002 A 
HETATM   15  C17 UNL     1      -0.962   1.569   0.387  1.00  0.00     0.116 A 
HETATM   16  C18 UNL     1      -1.645   1.363   1.537  1.00  0.00     0.120 A 
HETATM   17 CL1  UNL     1      -1.120   1.759   3.160  1.00  0.00    -0.108 Cl
HETATM   18  C19 UNL     1      -2.954   0.933   1.595  1.00  0.00     0.014 A 
HETATM   19  O1  UNL     1       0.455   1.830   0.592  1.00  0.00    -0.332 OA
HETATM   20  H9  UNL     1      -4.640   0.146  -1.232  1.00  0.00     0.187 HD
ENDROOT
BRANCH   1  21
HETATM   21  C5  UNL     1       2.640   0.389   0.317  1.00  0.00     0.001 A 
HETATM   22  C4  UNL     1       3.115  -0.801   0.817  1.00  0.00     0.014 A 
HETATM   23  C3  UNL     1       4.510  -0.916   0.855  1.00  0.00     0.004 A 
HETATM   24  C2  UNL     1       5.324   0.121   0.410  1.00  0.00     0.042 A 
HETATM   25  C1  UNL     1       4.781   1.296  -0.083  1.00  0.00     0.117 A 
HETATM   26  F1  UNL     1       5.542   2.323  -0.523  1.00  0.00    -0.206 F 
HETATM   27  C20 UNL     1       3.400   1.448  -0.136  1.00  0.00     0.056 A 
ENDBRANCH   1  21
TORSDOF 1
