REMARK  11 active torsions:
REMARK  status: ('A' for Active; 'I' for Inactive)
REMARK    1  A    between atoms: C2_2  and  O1_3 
REMARK    2  A    between atoms: O1_3  and  C3_4 
REMARK    3  A    between atoms: C3_4  and  C15_21 
REMARK    4  A    between atoms: C4_5  and  C5_6 
REMARK    5  A    between atoms: C6_7  and  C7_8 
REMARK    6  A    between atoms: C10_11  and  N1_12 
REMARK    7  A    between atoms: N1_12  and  C11_13 
REMARK    8  A    between atoms: C11_13  and  C12_14 
REMARK    9  A    between atoms: C12_14  and  S1_15 
REMARK   10  A    between atoms: S1_15  and  C13_18 
REMARK   11  A    between atoms: C15_21  and  N2_22 
ROOT
HETATM    1  C7  UNL     1       0.088   0.994  -0.321  1.00  0.00     0.077 A 
HETATM    2  C8  UNL     1       1.107   1.858  -0.680  1.00  0.00     0.041 A 
HETATM    3  C9  UNL     1       2.256   1.057  -0.627  1.00  0.00     0.059 A 
HETATM    4  C10 UNL     1       1.858  -0.230  -0.243  1.00  0.00     0.144 A 
HETATM    5  O4  UNL     1       0.556  -0.203  -0.076  1.00  0.00    -0.294 OA
ENDROOT
BRANCH   1   6
HETATM    6  C6  UNL     1      -1.310   1.398  -0.239  1.00  0.00     0.037 C 
HETATM    7  C5  UNL     1      -2.252   0.531   0.097  1.00  0.00     0.005 C 
BRANCH   7   8
HETATM    8  C4  UNL     1      -3.648   0.876   0.194  1.00  0.00     0.034 C 
HETATM    9  C3  UNL     1      -4.667   0.096   0.518  1.00  0.00     0.074 C 
BRANCH   9  10
HETATM   10  O1  UNL     1      -5.975   0.565   0.573  1.00  0.00    -0.354 OA
BRANCH  10  11
HETATM   11  C2  UNL     1      -6.728   0.985  -0.538  1.00  0.00     0.171 C 
HETATM   12  C1  UNL     1      -8.089   1.500  -0.131  1.00  0.00     0.034 C 
ENDBRANCH  10  11
ENDBRANCH   9  10
BRANCH   9  13
HETATM   13  C15 UNL     1      -4.647  -1.345   0.871  1.00  0.00     0.330 C 
BRANCH  13  14
HETATM   14  N2  UNL     1      -5.490  -2.051  -0.108  1.00  0.00     0.084 N 
HETATM   15  H23 UNL     1      -5.235  -3.045  -0.037  1.00  0.00     0.313 HD
HETATM   16  H24 UNL     1      -6.487  -1.882   0.098  1.00  0.00     0.313 HD
ENDBRANCH  13  14
ENDBRANCH   9  13
ENDBRANCH   7   8
ENDBRANCH   1   6
BRANCH   4  17
HETATM   17  N1  UNL     1       2.965  -1.121  -0.163  1.00  0.00    -0.370 N 
HETATM   18  H11 UNL     1       3.004  -1.604  -1.098  1.00  0.00     0.161 HD
BRANCH  17  19
HETATM   19  C11 UNL     1       3.624  -1.058   1.125  1.00  0.00     0.136 C 
BRANCH  19  20
HETATM   20  C12 UNL     1       4.818  -1.971   1.233  1.00  0.00     0.160 C 
BRANCH  20  21
HETATM   21  S1  UNL     1       5.983  -1.472  -0.022  1.00  0.00     0.145 S 
HETATM   22  O2  UNL     1       5.306  -1.587  -1.346  1.00  0.00    -0.228 OA
HETATM   23  O3  UNL     1       7.223  -2.321   0.036  1.00  0.00    -0.228 OA
BRANCH  21  24
HETATM   24  C13 UNL     1       6.483   0.221   0.218  1.00  0.00     0.136 C 
HETATM   25  C14 UNL     1       7.471   0.671  -0.841  1.00  0.00     0.021 C 
ENDBRANCH  21  24
ENDBRANCH  20  21
ENDBRANCH  19  20
ENDBRANCH  17  19
ENDBRANCH   4  17
TORSDOF 11
