REMARK  6 active torsions:
REMARK  status: ('A' for Active; 'I' for Inactive)
REMARK    1  A    between atoms: C7_7  and  N1_8 
REMARK    2  A    between atoms: N1_8  and  C8_9 
REMARK    3  A    between atoms: C14_16  and  O1_17 
REMARK    4  A    between atoms: O1_17  and  C15_18 
REMARK    5  A    between atoms: C15_18  and  C16_19 
REMARK    6  A    between atoms: C16_19  and  O2_20 
ROOT
HETATM    1  C1  UNL     1      -7.000  -0.016  -0.413  1.00  0.00     0.018 C 
HETATM    2  C2  UNL     1      -5.932   0.533  -0.261  1.00  0.00    -0.078 C 
HETATM    3  C3  UNL     1      -4.662   1.195  -0.055  1.00  0.00     0.019 A 
HETATM    4  C4  UNL     1      -4.642   2.552   0.090  1.00  0.00     0.021 A 
HETATM    5  C5  UNL     1      -3.425   3.166   0.286  1.00  0.00     0.004 A 
HETATM    6  C6  UNL     1      -2.291   2.392   0.327  1.00  0.00     0.029 A 
HETATM    7  C7  UNL     1      -2.251   1.001   0.184  1.00  0.00     0.029 A 
HETATM    8  C18 UNL     1      -3.519   0.457  -0.010  1.00  0.00     0.049 A 
ENDROOT
BRANCH   7   9
HETATM    9  N1  UNL     1      -1.048   0.245   0.233  1.00  0.00    -0.380 N 
HETATM   10  H5  UNL     1      -0.213   0.817   0.385  1.00  0.00     0.160 HD
BRANCH   9  11
HETATM   11  C8  UNL     1      -1.020  -1.166   0.089  1.00  0.00     0.135 C 
HETATM   12  C9  UNL     1      -1.611  -1.641  -1.303  1.00  0.00     0.111 C 
HETATM   13  N2  UNL     1      -0.405  -1.062  -1.542  1.00  0.00    -0.281 NA
HETATM   14  C10 UNL     1       0.468  -2.080  -0.735  1.00  0.00     0.127 A 
HETATM   15  C11 UNL     1       0.082  -3.202  -0.067  1.00  0.00     0.000 A 
HETATM   16  C14 UNL     1       1.438  -0.946  -0.480  1.00  0.00     0.078 C 
HETATM   17  C12 UNL     1       0.022  -1.962   0.711  1.00  0.00     0.086 A 
HETATM   18  C13 UNL     1       1.545  -1.687   0.677  1.00  0.00     0.021 C 
BRANCH  16  19
HETATM   19  O1  UNL     1       2.284   0.126  -0.366  1.00  0.00    -0.351 OA
BRANCH  19  20
HETATM   20  C15 UNL     1       3.695  -0.210  -0.497  1.00  0.00     0.201 C 
BRANCH  20  21
HETATM   21  C16 UNL     1       4.526   1.002  -0.332  1.00  0.00     0.193 C 
BRANCH  21  22
HETATM   22  O2  UNL     1       5.881   0.752  -0.451  1.00  0.00    -0.394 OA
HETATM   23  C17 UNL     1       6.316  -0.145   0.510  1.00  0.00     0.201 C 
ENDBRANCH  21  22
ENDBRANCH  20  21
ENDBRANCH  19  20
ENDBRANCH  16  19
ENDBRANCH   9  11
ENDBRANCH   7   9
TORSDOF 6
