REMARK  9 active torsions:
REMARK  status: ('A' for Active; 'I' for Inactive)
REMARK    1  A    between atoms: O1_2  and  C2_3 
REMARK    2  A    between atoms: C2_3  and  C3_4 
REMARK    3  A    between atoms: C3_4  and  O2_5 
REMARK    4  A    between atoms: O2_5  and  C4_6 
REMARK    5  A    between atoms: C8_12  and  N3_13 
REMARK    6  A    between atoms: C11_17  and  O3_18 
REMARK    7  A    between atoms: O3_18  and  C12_19 
REMARK    8  A    between atoms: C12_19  and  C13_20 
REMARK    9  A    between atoms: C13_20  and  O4_21 
ROOT
HETATM    1  C4  UNL     1       1.017   0.056   0.448  1.00  0.00     0.104 A 
HETATM    2  C5  UNL     1       0.997   0.514   1.774  1.00  0.00     0.072 A 
HETATM    3  C6  UNL     1      -0.171   0.819   2.437  1.00  0.00     0.075 A 
HETATM    4  N1  UNL     1      -0.201   1.256   3.708  1.00  0.00    -0.241 NA
HETATM    5  C7  UNL     1      -1.368   1.541   4.317  1.00  0.00     0.236 A 
HETATM    6  N2  UNL     1      -2.563   1.397   3.671  1.00  0.00    -0.223 NA
HETATM    7  C8  UNL     1      -2.579   0.963   2.403  1.00  0.00     0.152 A 
HETATM    8  C9  UNL     1      -1.381   0.677   1.793  1.00  0.00     0.042 A 
HETATM    9  C10 UNL     1      -1.349   0.226   0.490  1.00  0.00     0.057 A 
HETATM   10  C11 UNL     1      -0.219  -0.096  -0.231  1.00  0.00     0.103 A 
ENDROOT
BRANCH   1  11
HETATM   11  O2  UNL     1       2.155  -0.244  -0.199  1.00  0.00    -0.346 OA
BRANCH  11  12
HETATM   12  C3  UNL     1       3.488  -0.265   0.081  1.00  0.00     0.201 C 
BRANCH  12  13
HETATM   13  C2  UNL     1       3.799  -1.269   1.161  1.00  0.00     0.193 C 
BRANCH  13  14
HETATM   14  O1  UNL     1       3.424  -2.530   0.789  1.00  0.00    -0.394 OA
HETATM   15  C1  UNL     1       4.023  -3.034  -0.322  1.00  0.00     0.201 C 
ENDBRANCH  13  14
ENDBRANCH  12  13
ENDBRANCH  11  12
ENDBRANCH   1  11
BRANCH  10  16
HETATM   16  O3  UNL     1      -0.060  -0.527  -1.464  1.00  0.00    -0.346 OA
BRANCH  16  17
HETATM   17  C12 UNL     1      -0.832  -0.817  -2.556  1.00  0.00     0.201 C 
BRANCH  17  18
HETATM   18  C13 UNL     1      -1.582   0.296  -3.202  1.00  0.00     0.193 C 
BRANCH  18  19
HETATM   19  O4  UNL     1      -2.489   0.955  -2.423  1.00  0.00    -0.394 OA
HETATM   20  C14 UNL     1      -3.101   1.955  -3.184  1.00  0.00     0.201 C 
ENDBRANCH  18  19
ENDBRANCH  17  18
ENDBRANCH  16  17
ENDBRANCH  10  16
BRANCH   7  21
HETATM   21  N3  UNL     1      -3.836   0.825   1.770  1.00  0.00    -0.282 N 
HETATM   22 CL1  UNL     1      -5.269   1.220   2.672  1.00  0.00     0.012 Cl
HETATM   23  H10 UNL     1      -4.222   0.541   0.864  1.00  0.00     0.182 HD
ENDBRANCH   7  21
TORSDOF 9
