REMARK  5 active torsions:
REMARK  status: ('A' for Active; 'I' for Inactive)
REMARK    1  A    between atoms: C4_4  and  C5_5 
REMARK    2  A    between atoms: C6_6  and  C7_7 
REMARK    3  A    between atoms: C11_11  and  N1_12 
REMARK    4  A    between atoms: N1_12  and  C12_13 
REMARK    5  A    between atoms: C18_22  and  C19_23 
ROOT
HETATM    1  C1  UNL     1       9.680  -0.055  -0.049  1.00  0.00     0.017 C 
HETATM    2  C2  UNL     1       9.118   0.393  -1.027  1.00  0.00    -0.089 C 
HETATM    3  C3  UNL     1       8.440   0.904  -2.175  1.00  0.00     0.063 C 
HETATM    4  C4  UNL     1       7.137   0.934  -2.319  1.00  0.00     0.009 C 
ENDROOT
BRANCH   4   5
HETATM    5  C5  UNL     1       6.195   0.435  -1.300  1.00  0.00     0.001 C 
HETATM    6  C6  UNL     1       4.885   0.468  -1.464  1.00  0.00     0.011 C 
BRANCH   6   7
HETATM    7  C7  UNL     1       3.931  -0.007  -0.493  1.00  0.00    -0.034 A 
HETATM    8  C8  UNL     1       4.296  -0.539   0.722  1.00  0.00     0.011 A 
HETATM    9  C9  UNL     1       3.316  -0.967   1.596  1.00  0.00     0.003 A 
HETATM   10  C10 UNL     1       2.008  -0.847   1.225  1.00  0.00     0.029 A 
HETATM   11  C11 UNL     1       1.549  -0.328   0.032  1.00  0.00     0.034 A 
HETATM   12  C23 UNL     1       2.588   0.075  -0.784  1.00  0.00     0.041 A 
BRANCH  11  13
HETATM   13  N1  UNL     1       0.175  -0.201  -0.317  1.00  0.00    -0.339 N 
HETATM   14  H9  UNL     1       0.109  -0.149  -1.351  1.00  0.00     0.167 HD
BRANCH  13  15
HETATM   15  C12 UNL     1      -0.878  -0.147   0.625  1.00  0.00     0.158 A 
HETATM   16  N2  UNL     1      -0.700  -0.089   1.945  1.00  0.00    -0.222 NA
HETATM   17  C13 UNL     1      -1.710  -0.029   2.821  1.00  0.00     0.236 A 
HETATM   18  N3  UNL     1      -2.975  -0.026   2.375  1.00  0.00    -0.239 NA
HETATM   19  C14 UNL     1      -3.237  -0.084   1.057  1.00  0.00     0.099 A 
HETATM   20  C15 UNL     1      -2.177  -0.145   0.186  1.00  0.00     0.104 A 
HETATM   21  C20 UNL     1      -4.707  -0.063   0.858  1.00  0.00    -0.001 C 
HETATM   22  N4  UNL     1      -2.350  -0.234  -1.215  1.00  0.00    -0.381 N 
HETATM   23  C16 UNL     1      -3.360   0.366  -2.051  1.00  0.00     0.148 C 
HETATM   24  H11 UNL     1      -1.594  -0.848  -1.658  1.00  0.00     0.160 HD
HETATM   25  C17 UNL     1      -4.719  -0.112  -1.707  1.00  0.00     0.003 C 
HETATM   26  C18 UNL     1      -5.255  -0.274  -0.489  1.00  0.00    -0.020 C 
HETATM   27  C21 UNL     1      -5.523   0.142   1.848  1.00  0.00    -0.017 C 
HETATM   28  C22 UNL     1      -6.760   0.312   2.551  1.00  0.00     0.037 C 
BRANCH  26  29
HETATM   29  C19 UNL     1      -6.650  -0.773  -0.548  1.00  0.00     0.261 C 
HETATM   30  F1  UNL     1      -6.834  -1.940   0.125  1.00  0.00    -0.251 F 
ENDBRANCH  26  29
ENDBRANCH  13  15
ENDBRANCH  11  13
ENDBRANCH   6   7
ENDBRANCH   4   5
TORSDOF 5
