REMARK  4 active torsions:
REMARK  status: ('A' for Active; 'I' for Inactive)
REMARK    1  A    between atoms: C2_2  and  O1_3 
REMARK    2  A    between atoms: C4_5  and  C5_6 
REMARK    3  A    between atoms: C6_8  and  C7_9 
REMARK    4  A    between atoms: C12_14  and  C13_15 
ROOT
HETATM    1  C5  UNL     1      -2.734  -0.513  -0.074  1.00  0.00     0.115 A 
HETATM    2  N1  UNL     1      -1.606  -0.313   0.621  1.00  0.00    -0.236 NA
HETATM    3  C6  UNL     1      -1.002  -1.512   0.866  1.00  0.00     0.076 A 
HETATM    4  C21 UNL     1      -1.774  -2.480   0.310  1.00  0.00     0.083 A 
HETATM    5  C22 UNL     1      -1.743  -3.832   0.200  1.00  0.00     0.148 A 
HETATM    6  N3  UNL     1      -2.703  -4.543  -0.440  1.00  0.00    -0.269 NA
HETATM    7  C23 UNL     1      -3.753  -3.878  -1.005  1.00  0.00     0.134 A 
HETATM    8  C24 UNL     1      -3.765  -2.505  -0.882  1.00  0.00     0.118 A 
HETATM    9  N4  UNL     1      -2.813  -1.836  -0.250  1.00  0.00    -0.305 N 
ENDROOT
BRANCH   3  10
HETATM   10  C7  UNL     1       0.263  -1.689   1.600  1.00  0.00     0.088 A 
HETATM   11  C8  UNL     1       1.250  -2.576   1.015  1.00  0.00     0.002 A 
HETATM   12  C9  UNL     1       2.354  -1.847   0.762  1.00  0.00    -0.010 A 
HETATM   13  C10 UNL     1       3.621  -2.098   0.218  1.00  0.00     0.016 A 
HETATM   14  C19 UNL     1       2.154  -0.532   1.148  1.00  0.00     0.064 A 
HETATM   15  C11 UNL     1       4.566  -1.103   0.091  1.00  0.00     0.033 A 
HETATM   16  C12 UNL     1       4.310   0.184   0.491  1.00  0.00     0.067 A 
HETATM   17  N2  UNL     1       3.096   0.417   1.010  1.00  0.00    -0.248 NA
HETATM   18  C20 UNL     1       0.959  -0.386   1.641  1.00  0.00     0.020 A 
BRANCH  16  19
HETATM   19  C13 UNL     1       5.294   1.249   0.365  1.00  0.00    -0.007 A 
HETATM   20  C14 UNL     1       6.547   1.117  -0.145  1.00  0.00     0.014 A 
HETATM   21  C15 UNL     1       7.459   2.149  -0.252  1.00  0.00     0.001 A 
HETATM   22  C16 UNL     1       7.039   3.397   0.202  1.00  0.00     0.000 A 
HETATM   23  C17 UNL     1       5.786   3.628   0.735  1.00  0.00     0.001 A 
HETATM   24  C18 UNL     1       4.950   2.524   0.795  1.00  0.00     0.014 A 
ENDBRANCH  16  19
ENDBRANCH   3  10
BRANCH   1  25
HETATM   25  C4  UNL     1      -3.527   0.669  -0.432  1.00  0.00     0.061 C 
HETATM   26  C3  UNL     1      -3.856   0.870  -1.894  1.00  0.00     0.049 C 
HETATM   27  C2  UNL     1      -5.152   1.515  -1.407  1.00  0.00     0.056 C 
HETATM   28  C1  UNL     1      -4.919   2.973  -1.153  1.00  0.00     0.045 C 
HETATM   29  C25 UNL     1      -4.984   0.684  -0.131  1.00  0.00     0.049 C 
BRANCH  27  30
HETATM   30  O1  UNL     1      -6.266   1.208  -2.169  1.00  0.00    -0.390 OA
HETATM   31  H4  UNL     1      -7.052   1.494  -1.614  1.00  0.00     0.210 HD
ENDBRANCH  27  30
ENDBRANCH   1  25
TORSDOF 4
