REMARK  2 active torsions:
REMARK  status: ('A' for Active; 'I' for Inactive)
REMARK    1  A    between atoms: C3_3  and  C4_5 
REMARK    2  A    between atoms: C4_5  and  C5_6 
ROOT
HETATM    1  C5  UNL     1       0.417  -0.758   1.010  1.00  0.00    -0.036 C 
HETATM    2  C6  UNL     1      -0.214  -2.127   0.797  1.00  0.00     0.213 C 
HETATM    3  O1  UNL     1      -1.622  -2.167   0.437  1.00  0.00    -0.333 OA
HETATM    4  C7  UNL     1      -2.537  -1.189   0.064  1.00  0.00     0.143 C 
HETATM    5  N1  UNL     1      -3.588  -1.067  -0.628  1.00  0.00    -0.222 NA
HETATM    6  C8  UNL     1      -4.346   0.199  -0.822  1.00  0.00     0.230 C 
HETATM    7  N2  UNL     1      -4.028   1.522  -0.811  1.00  0.00    -0.265 NA
HETATM    8  C9  UNL     1      -2.650   1.918  -0.558  1.00  0.00     0.100 A 
HETATM    9  C10 UNL     1      -1.430   2.358  -0.180  1.00  0.00     0.123 A 
HETATM   10  N3  UNL     1      -0.541   1.510   0.571  1.00  0.00    -0.395 N 
HETATM   11  C11 UNL     1       0.347   0.751   1.341  1.00  0.00     0.154 C 
HETATM   12  C12 UNL     1      -1.239   0.617  -0.361  1.00  0.00     0.101 A 
HETATM   13  C13 UNL     1      -1.218   1.468  -1.516  1.00  0.00     0.078 A 
HETATM   14  C14 UNL     1      -2.434   1.097  -1.826  1.00  0.00    -0.007 A 
HETATM   15  C15 UNL     1      -2.258   0.162   0.609  1.00  0.00     0.112 C 
ENDROOT
BRANCH   1  16
HETATM   16  C4  UNL     1       1.706  -1.090   0.765  1.00  0.00     0.048 C 
BRANCH  16  17
HETATM   17  C3  UNL     1       3.144  -1.093   0.571  1.00  0.00     0.112 C 
HETATM   18  C2  UNL     1       4.424  -1.340   0.346  1.00  0.00     0.011 C 
HETATM   19  C1  UNL     1       5.204  -0.067   0.525  1.00  0.00     0.039 C 
HETATM   20  F1  UNL     1       3.376   0.213   0.831  1.00  0.00    -0.206 F 
ENDBRANCH  16  17
ENDBRANCH   1  16
TORSDOF 2
