REMARK  4 active torsions:
REMARK  status: ('A' for Active; 'I' for Inactive)
REMARK    1  A    between atoms: C2_2  and  C3_3 
REMARK    2  A    between atoms: C4_4  and  C5_5 
REMARK    3  A    between atoms: C6_6  and  N1_7 
REMARK    4  A    between atoms: C20_25  and  C21_26 
ROOT
HETATM    1  C21 UNL     1       2.284   0.246   2.314  1.00  0.00     0.151 C 
HETATM    2  C22 UNL     1       3.232   0.989   1.525  1.00  0.00     0.061 C 
HETATM    3  N5  UNL     1       4.000   1.594   0.893  1.00  0.00    -0.197 NA
ENDROOT
BRANCH   1   4
HETATM    4  C20 UNL     1       0.914   0.125   1.661  1.00  0.00     0.120 C 
HETATM    5  N1  UNL     1       1.071  -0.574   0.357  1.00  0.00    -0.382 N 
HETATM    6  C7  UNL     1       0.550   0.171  -0.725  1.00  0.00     0.129 C 
HETATM    7  C8  UNL     1      -0.518  -0.491  -1.471  1.00  0.00     0.026 A 
HETATM    8  C9  UNL     1      -1.868  -0.383  -1.708  1.00  0.00     0.016 A 
HETATM    9  C10 UNL     1      -1.571   0.687  -0.791  1.00  0.00     0.035 A 
HETATM   10  C11 UNL     1      -2.739   0.304  -1.410  1.00  0.00     0.028 A 
HETATM   11  C12 UNL     1      -4.113   0.103  -1.955  1.00  0.00     0.154 C 
HETATM   12  N2  UNL     1      -4.813  -0.876  -1.075  1.00  0.00    -0.301 NA
HETATM   13  C13 UNL     1      -5.445  -0.158  -0.129  1.00  0.00     0.111 C 
HETATM   14  C14 UNL     1      -6.176   0.502   0.949  1.00  0.00     0.032 C 
HETATM   15  C15 UNL     1      -5.674   1.365   1.841  1.00  0.00    -0.008 C 
HETATM   16  C16 UNL     1      -4.790   2.220   1.318  1.00  0.00     0.101 C 
HETATM   17  N3  UNL     1      -3.595   1.652   0.809  1.00  0.00    -0.353 N 
HETATM   18  C17 UNL     1      -2.263   1.477   0.207  1.00  0.00     0.109 C 
HETATM   19  H18 UNL     1      -3.546   0.577   0.919  1.00  0.00     0.166 HD
HETATM   20  N4  UNL     1      -2.009   2.139   1.265  1.00  0.00    -0.264 NA
HETATM   21  C18 UNL     1      -0.686   2.224   1.783  1.00  0.00     0.161 A 
HETATM   22  C19 UNL     1       0.479   2.418   2.344  1.00  0.00     0.001 A 
HETATM   23  O1  UNL     1       0.366   1.403   1.416  1.00  0.00     0.000 OA
BRANCH   5  24
HETATM   24  C6  UNL     1       1.743  -1.813   0.272  1.00  0.00     0.086 C 
HETATM   25  C5  UNL     1       2.854  -2.396  -0.108  1.00  0.00     0.017 C 
BRANCH  25  26
HETATM   26  C4  UNL     1       3.976  -1.689  -0.707  1.00  0.00     0.001 C 
HETATM   27  C3  UNL     1       5.044  -2.393  -1.044  1.00  0.00    -0.001 C 
BRANCH  27  28
HETATM   28  C2  UNL     1       6.141  -1.649  -1.637  1.00  0.00    -0.010 C 
HETATM   29  C1  UNL     1       7.220  -2.325  -1.981  1.00  0.00     0.011 C 
ENDBRANCH  27  28
ENDBRANCH  25  26
ENDBRANCH   5  24
ENDBRANCH   1   4
TORSDOF 4
