REMARK  2 active torsions:
REMARK  status: ('A' for Active; 'I' for Inactive)
REMARK    1  A    between atoms: C4_4  and  C5_5 
REMARK    2  A    between atoms: C15_19  and  C16_20 
ROOT
HETATM    1  C5  UNL     1      -2.811  -0.028  -0.481  1.00  0.00     0.140 A 
HETATM    2  N1  UNL     1      -2.471  -1.312  -0.812  1.00  0.00    -0.234 NA
HETATM    3  C6  UNL     1      -1.564  -1.731   0.086  1.00  0.00     0.071 A 
HETATM    4  C7  UNL     1      -1.385  -0.673   0.951  1.00  0.00     0.113 A 
HETATM    5  C8  UNL     1      -0.597  -0.533   2.104  1.00  0.00     0.179 A 
HETATM    6  N2  UNL     1      -0.659   0.641   2.754  1.00  0.00    -0.238 NA
HETATM    7  C9  UNL     1      -1.437   1.702   2.376  1.00  0.00     0.136 A 
HETATM    8  C10 UNL     1      -2.230   1.559   1.231  1.00  0.00     0.118 A 
HETATM    9  N3  UNL     1      -2.132   0.371   0.619  1.00  0.00    -0.301 N 
HETATM   10  N4  UNL     1       0.214  -1.203   3.023  1.00  0.00    -0.224 NA
HETATM   11  C11 UNL     1       1.236  -1.847   2.847  1.00  0.00     0.101 C 
HETATM   12  C12 UNL     1       2.180  -1.230   2.207  1.00  0.00     0.024 A 
HETATM   13  C13 UNL     1       3.245  -0.565   2.694  1.00  0.00     0.018 A 
HETATM   14  C14 UNL     1       4.019  -0.091   1.686  1.00  0.00     0.033 A 
HETATM   15  C15 UNL     1       3.706  -0.296   0.371  1.00  0.00     0.067 A 
HETATM   16  N5  UNL     1       2.596  -0.987   0.123  1.00  0.00    -0.248 NA
HETATM   17  C22 UNL     1       1.724  -1.522   0.981  1.00  0.00     0.066 A 
HETATM   18  C23 UNL     1       0.767  -2.064   0.295  1.00  0.00     0.012 C 
HETATM   19  C24 UNL     1      -0.549  -2.755   0.583  1.00  0.00     0.091 C 
ENDROOT
BRANCH  15  20
HETATM   20  C16 UNL     1       4.563   0.228  -0.717  1.00  0.00    -0.007 A 
HETATM   21  C17 UNL     1       4.123  -0.057  -2.000  1.00  0.00     0.014 A 
HETATM   22  C18 UNL     1       4.864   0.396  -3.081  1.00  0.00     0.001 A 
HETATM   23  C19 UNL     1       6.020   1.116  -2.869  1.00  0.00     0.000 A 
HETATM   24  C20 UNL     1       6.454   1.397  -1.575  1.00  0.00     0.001 A 
HETATM   25  C21 UNL     1       5.710   0.942  -0.499  1.00  0.00     0.014 A 
ENDBRANCH  15  20
BRANCH   1  26
HETATM   26  C4  UNL     1      -3.796   0.748  -1.272  1.00  0.00     0.194 C 
HETATM   27  C3  UNL     1      -4.891  -0.156  -1.803  1.00  0.00     0.071 C 
HETATM   28  C2  UNL     1      -5.508   0.268  -0.488  1.00  0.00     0.121 C 
HETATM   29  C1  UNL     1      -6.965   0.624  -0.534  1.00  0.00     0.040 C 
HETATM   30  O1  UNL     1      -4.712   1.422  -0.450  1.00  0.00    -0.373 OA
ENDBRANCH   1  26
TORSDOF 2
