REMARK  6 active torsions:
REMARK  status: ('A' for Active; 'I' for Inactive)
REMARK    1  A    between atoms: N1_1  and  C1_2 
REMARK    2  A    between atoms: C2_3  and  O1_4 
REMARK    3  A    between atoms: O1_4  and  C3_5 
REMARK    4  A    between atoms: C5_9  and  C6_10 
REMARK    5  A    between atoms: C8_12  and  N4_13 
REMARK    6  A    between atoms: N4_13  and  C9_14 
ROOT
HETATM    1  C3  UNL     1      -2.694   0.412  -0.246  1.00  0.00     0.196 C 
HETATM    2  N2  UNL     1      -1.506   0.073  -0.310  1.00  0.00    -0.245 NA
HETATM    3  C4  UNL     1      -0.263   0.722  -0.276  1.00  0.00     0.273 C 
HETATM    4  N3  UNL     1       0.689  -0.114   0.441  1.00  0.00    -0.371 N 
HETATM    5  C5  UNL     1       1.630  -1.067   0.984  1.00  0.00     0.035 C 
HETATM    6  C13 UNL     1       1.346  -2.277   1.370  1.00  0.00     0.030 C 
HETATM    7  C14 UNL     1       0.705  -3.527   1.695  1.00  0.00     0.002 C 
HETATM    8  C15 UNL     1      -0.527  -3.952   1.577  1.00  0.00     0.000 C 
HETATM    9  C16 UNL     1      -1.859  -3.668   1.167  1.00  0.00     0.002 C 
HETATM   10  C17 UNL     1      -2.383  -2.620   0.647  1.00  0.00     0.034 C 
HETATM   11  C18 UNL     1      -3.465  -1.858   0.109  1.00  0.00     0.091 A 
HETATM   12  N6  UNL     1      -4.505  -2.687   0.001  1.00  0.00    -0.222 NA
HETATM   13  C19 UNL     1      -5.548  -1.949  -0.527  1.00  0.00     0.178 A 
HETATM   14  S1  UNL     1      -7.217  -1.921  -1.063  1.00  0.00    -0.062 SA
HETATM   15  C20 UNL     1      -7.173  -0.126  -1.529  1.00  0.00     0.071 A 
HETATM   16  C21 UNL     1      -5.843   0.248  -1.208  1.00  0.00     0.107 A 
HETATM   17  N7  UNL     1      -5.052  -0.710  -0.700  1.00  0.00    -0.294 N 
HETATM   18  C22 UNL     1      -3.760  -0.611  -0.318  1.00  0.00     0.123 A 
HETATM   19  H7  UNL     1       0.807   0.323   1.413  1.00  0.00     0.161 HD
ENDROOT
BRANCH   5  20
HETATM   20  C6  UNL     1       3.042  -0.591   1.057  1.00  0.00    -0.026 A 
HETATM   21  C7  UNL     1       3.457   0.600   0.703  1.00  0.00     0.039 A 
HETATM   22  C8  UNL     1       4.883   0.785   0.881  1.00  0.00     0.030 A 
HETATM   23  C11 UNL     1       5.383  -0.314   1.359  1.00  0.00     0.007 A 
HETATM   24  C12 UNL     1       4.273  -1.270   1.510  1.00  0.00     0.070 A 
BRANCH  22  25
HETATM   25  N4  UNL     1       5.592   1.972   0.581  1.00  0.00    -0.344 N 
HETATM   26  H9  UNL     1       5.719   2.694   1.326  1.00  0.00     0.167 HD
BRANCH  25  27
HETATM   27  C9  UNL     1       6.102   2.120  -0.741  1.00  0.00     0.119 A 
HETATM   28  N5  UNL     1       6.123   1.750  -2.013  1.00  0.00    -0.267 NA
HETATM   29  C10 UNL     1       7.001   2.809  -1.688  1.00  0.00     0.229 A 
ENDBRANCH  25  27
ENDBRANCH  22  25
ENDBRANCH   5  20
BRANCH   1  30
HETATM   30  O1  UNL     1      -3.115   1.712  -0.106  1.00  0.00    -0.301 OA
BRANCH  30  31
HETATM   31  C2  UNL     1      -2.465   2.582   0.756  1.00  0.00     0.161 C 
HETATM   32  C1  UNL     1      -2.322   3.747   0.131  1.00  0.00     0.105 C 
BRANCH  32  33
HETATM   33  N1  UNL     1      -2.958   3.304  -1.058  1.00  0.00    -0.406 N 
HETATM   34  H1  UNL     1      -3.441   2.984  -1.927  1.00  0.00     0.155 HD
HETATM   35  H2  UNL     1      -3.534   3.025  -1.888  1.00  0.00     0.155 HD
ENDBRANCH  32  33
ENDBRANCH  30  31
ENDBRANCH   1  30
TORSDOF 6
