REMARK  2 active torsions:
REMARK  status: ('A' for Active; 'I' for Inactive)
REMARK       I    between atoms: C1_2  and  N1_3 
REMARK    1  A    between atoms: C1_2  and  C16_22 
REMARK    2  A    between atoms: N1_3  and  C2_4 
ROOT
HETATM    1  C2  UNL     1      -0.130  -0.050   0.293  1.00  0.00     0.018 C 
HETATM    2  C3  UNL     1      -0.536   1.001  -0.479  1.00  0.00     0.059 C 
HETATM    3  C4  UNL     1      -1.969   1.525  -0.788  1.00  0.00     0.086 C 
HETATM    4  N2  UNL     1      -2.296   1.631  -2.096  1.00  0.00    -0.259 NA
HETATM    5  C5  UNL     1      -3.154   0.549  -2.717  1.00  0.00     0.113 C 
HETATM    6  C6  UNL     1      -3.582  -0.701  -2.304  1.00  0.00    -0.002 C 
HETATM    7  C7  UNL     1      -2.701  -1.268  -1.190  1.00  0.00     0.088 C 
HETATM    8  C8  UNL     1      -2.935  -0.657   0.127  1.00  0.00     0.051 A 
HETATM    9  C9  UNL     1      -3.219  -1.265   1.318  1.00  0.00     0.083 A 
HETATM   10  N3  UNL     1      -3.600  -0.586   2.406  1.00  0.00    -0.222 NA
HETATM   11  C10 UNL     1      -3.561   0.833   1.897  1.00  0.00     0.178 A 
HETATM   12  S1  UNL     1      -3.661   2.457   2.342  1.00  0.00    -0.061 SA
HETATM   13  C11 UNL     1      -3.051   3.129   0.633  1.00  0.00     0.085 A 
HETATM   14  C12 UNL     1      -3.000   1.790   0.336  1.00  0.00     0.077 A 
HETATM   15  N4  UNL     1      -3.182   0.511   0.700  1.00  0.00    -0.289 N 
HETATM   16  C13 UNL     1      -2.660  -2.576   0.838  1.00  0.00     0.030 C 
HETATM   17  C14 UNL     1      -1.257  -2.315   0.801  1.00  0.00    -0.018 C 
HETATM   18  C15 UNL     1      -0.770  -0.995   1.204  1.00  0.00     0.084 C 
ENDROOT
BRANCH   1  19
HETATM   19  N1  UNL     1       1.285  -0.049   0.183  1.00  0.00    -0.326 N 
HETATM   20  C1  UNL     1       2.374   0.594  -0.416  1.00  0.00     0.262 C 
HETATM   21  O1  UNL     1       1.924   1.529  -1.132  1.00  0.00    -0.267 OA
HETATM   22  H1  UNL     1       1.710  -0.831   0.772  1.00  0.00     0.169 HD
BRANCH  20  23
HETATM   23  C16 UNL     1       3.792   0.343  -0.322  1.00  0.00     0.109 A 
HETATM   24  C17 UNL     1       4.471  -0.613   0.396  1.00  0.00     0.135 A 
HETATM   25  F1  UNL     1       3.745  -1.467   1.138  1.00  0.00    -0.205 F 
HETATM   26  C18 UNL     1       5.835  -0.781   0.428  1.00  0.00     0.043 A 
HETATM   27  C19 UNL     1       6.555   0.105  -0.340  1.00  0.00     0.006 A 
HETATM   28  C20 UNL     1       5.950   1.090  -1.086  1.00  0.00     0.043 A 
HETATM   29  C21 UNL     1       4.584   1.187  -1.060  1.00  0.00     0.135 A 
HETATM   30  F2  UNL     1       4.078   2.202  -1.838  1.00  0.00    -0.205 F 
ENDBRANCH  20  23
ENDBRANCH   1  19
TORSDOF 2
