REMARK  5 active torsions:
REMARK  status: ('A' for Active; 'I' for Inactive)
REMARK    1  A    between atoms: N1_1  and  C1_2 
REMARK    2  A    between atoms: C3_5  and  C4_6 
REMARK    3  A    between atoms: C4_6  and  N2_7 
REMARK    4  A    between atoms: N2_7  and  C5_8 
REMARK    5  A    between atoms: C10_13  and  C11_14 
ROOT
HETATM    1  C5  UNL     1       1.496   1.131   1.006  1.00  0.00     0.085 C 
HETATM    2  C6  UNL     1       0.689   0.992  -0.084  1.00  0.00    -0.032 C 
HETATM    3  C7  UNL     1      -0.434   1.929  -0.133  1.00  0.00     0.067 C 
HETATM    4  C8  UNL     1      -1.776   1.368  -0.084  1.00  0.00    -0.021 C 
HETATM    5  C9  UNL     1      -2.261   0.147  -0.033  1.00  0.00     0.008 C 
HETATM    6  C10 UNL     1      -2.137  -1.331   0.005  1.00  0.00    -0.033 C 
HETATM    7  C19 UNL     1      -1.117  -2.177  -0.043  1.00  0.00    -0.010 C 
HETATM    8  C20 UNL     1       0.323  -2.607  -0.145  1.00  0.00     0.064 C 
HETATM    9  C21 UNL     1       1.047  -1.338  -0.630  1.00  0.00    -0.040 C 
HETATM   10  C22 UNL     1       1.353  -0.102  -0.766  1.00  0.00    -0.018 C 
HETATM   11  C23 UNL     1       2.413   0.352  -1.731  1.00  0.00     0.309 C 
HETATM   12  N3  UNL     1       2.518  -0.952  -2.454  1.00  0.00     0.091 N 
HETATM   13  C24 UNL     1       2.234  -1.908  -1.415  1.00  0.00     0.305 C 
HETATM   14  H22 UNL     1       1.759  -0.996  -3.183  1.00  0.00     0.316 HD
ENDROOT
BRANCH   1  15
HETATM   15  N2  UNL     1       2.633   0.624   1.631  1.00  0.00    -0.397 NA
BRANCH  15  16
HETATM   16  C4  UNL     1       3.784   1.157   1.684  1.00  0.00     0.277 C 
BRANCH  16  17
HETATM   17  C3  UNL     1       4.891   2.049   1.525  1.00  0.00    -0.084 C 
HETATM   18  B1  UNL     1       4.947   3.780   2.397  1.00  0.00     0.215 B 
HETATM   19  C2  UNL     1       5.824   4.856   1.286  1.00  0.00    -0.052 C 
HETATM   20  C1  UNL     1       6.805   4.158   0.576  1.00  0.00     0.011 C 
HETATM   21  C26 UNL     1       6.893   2.817   0.352  1.00  0.00     0.027 C 
HETATM   22  C25 UNL     1       6.027   1.852   0.784  1.00  0.00    -0.002 C 
BRANCH  20  23
HETATM   23  N1  UNL     1       7.913   4.831  -0.027  1.00  0.00    -0.400 N 
HETATM   24  H1  UNL     1       7.672   5.666  -0.565  1.00  0.00     0.156 HD
HETATM   25  H2  UNL     1       8.940   4.655  -0.048  1.00  0.00     0.156 HD
ENDBRANCH  20  23
ENDBRANCH  16  17
ENDBRANCH  15  16
ENDBRANCH   1  15
BRANCH   6  26
HETATM   26  C11 UNL     1      -3.421  -1.988   0.144  1.00  0.00    -0.040 A 
HETATM   27  O1  UNL     1      -4.596  -1.587   0.248  1.00  0.00     0.000 OA
HETATM   28  C12 UNL     1      -4.331  -3.135   0.257  1.00  0.00     0.059 A 
HETATM   29  C13 UNL     1      -5.733  -2.641   0.384  1.00  0.00     0.014 A 
HETATM   30  C14 UNL     1      -6.650  -2.415  -0.621  1.00  0.00    -0.011 A 
HETATM   31  C18 UNL     1      -6.132  -2.392   1.689  1.00  0.00    -0.011 A 
HETATM   32  C15 UNL     1      -7.933  -1.944  -0.323  1.00  0.00    -0.003 A 
HETATM   33  C16 UNL     1      -8.331  -1.695   0.966  1.00  0.00    -0.001 A 
HETATM   34  C17 UNL     1      -7.428  -1.913   1.999  1.00  0.00    -0.003 A 
ENDBRANCH   6  26
TORSDOF 5
