REMARK  3 active torsions:
REMARK  status: ('A' for Active; 'I' for Inactive)
REMARK    1  A    between atoms: C10_13  and  C11_14 
REMARK    2  A    between atoms: C17_20  and  C18_21 
REMARK    3  A    between atoms: N5_30  and  N6_31 
ROOT
HETATM    1  C1  UNL     1      -1.701   1.726   0.799  1.00  0.00     0.049 C 
HETATM    2  C2  UNL     1      -2.867   0.787   0.641  1.00  0.00     0.091 C 
HETATM    3  C3  UNL     1      -3.831   0.789   1.810  1.00  0.00     0.067 C 
HETATM    4  C4  UNL     1      -4.946   0.711   0.794  1.00  0.00     0.107 C 
HETATM    5  C5  UNL     1      -3.997   1.325  -0.207  1.00  0.00     0.067 C 
HETATM    6  N1  UNL     1      -5.253  -0.675   0.411  1.00  0.00    -0.308 N 
HETATM    7  N2  UNL     1      -6.169  -0.494  -0.663  1.00  0.00    -0.175 NA
HETATM    8  C6  UNL     1      -6.121  -1.235  -1.688  1.00  0.00     0.125 C 
HETATM    9  C7  UNL     1      -5.563  -2.415  -1.462  1.00  0.00     0.152 C 
HETATM   10  N3  UNL     1      -4.185  -2.062  -1.202  1.00  0.00    -0.271 NA
HETATM   11  C8  UNL     1      -3.382  -3.090  -1.072  1.00  0.00     0.118 C 
HETATM   12  C9  UNL     1      -1.957  -2.988  -0.809  1.00  0.00     0.053 C 
HETATM   13  C10 UNL     1      -1.137  -1.972  -0.643  1.00  0.00     0.087 C 
HETATM   14  N5  UNL     1      -1.903  -0.770  -0.760  1.00  0.00    -0.185 N 
HETATM   15  O1  UNL     1      -2.597  -0.506   0.340  1.00  0.00    -0.251 OA
HETATM   16  H9  UNL     1      -4.752  -1.412   0.993  1.00  0.00     0.182 HD
ENDROOT
BRANCH  13  17
HETATM   17  C11 UNL     1       0.296  -1.954  -0.380  1.00  0.00    -0.003 A 
HETATM   18  C12 UNL     1       1.007  -3.117  -0.241  1.00  0.00     0.015 A 
HETATM   19  C13 UNL     1       2.377  -3.150   0.003  1.00  0.00     0.014 A 
HETATM   20  C14 UNL     1       2.991  -1.909   0.098  1.00  0.00    -0.007 A 
HETATM   21  C15 UNL     1       4.349  -1.871   0.337  1.00  0.00     0.016 A 
HETATM   22  C24 UNL     1       2.265  -0.735  -0.044  1.00  0.00     0.068 A 
HETATM   23  C16 UNL     1       5.032  -0.679   0.444  1.00  0.00     0.033 A 
HETATM   24  C17 UNL     1       4.286   0.470   0.299  1.00  0.00     0.067 A 
HETATM   25  N4  UNL     1       2.965   0.408   0.066  1.00  0.00    -0.248 NA
HETATM   26  C25 UNL     1       0.909  -0.734  -0.285  1.00  0.00     0.046 A 
BRANCH  24  27
HETATM   27  C18 UNL     1       4.924   1.773   0.395  1.00  0.00    -0.007 A 
HETATM   28  C19 UNL     1       6.264   1.972   0.629  1.00  0.00     0.014 A 
HETATM   29  C20 UNL     1       6.835   3.224   0.715  1.00  0.00     0.001 A 
HETATM   30  C21 UNL     1       6.027   4.341   0.559  1.00  0.00     0.000 A 
HETATM   31  C22 UNL     1       4.666   4.235   0.320  1.00  0.00     0.001 A 
HETATM   32  C23 UNL     1       4.203   2.931   0.255  1.00  0.00     0.014 A 
ENDBRANCH  24  27
ENDBRANCH  13  17
BRANCH  14  33
HETATM   33  N6  UNL     1      -1.491  -0.478  -2.071  1.00  0.00    -0.222 NA
HETATM   34  H23 UNL     1      -2.392  -0.453  -2.640  1.00  0.00     0.145 HD
HETATM   35  H24 UNL     1      -1.128   0.502  -2.157  1.00  0.00     0.145 HD
ENDBRANCH  14  33
TORSDOF 3
