REMARK  2 active torsions:
REMARK  status: ('A' for Active; 'I' for Inactive)
REMARK    1  A    between atoms: C2_3  and  C3_4 
REMARK    2  A    between atoms: C3_4  and  C4_5 
ROOT
HETATM    1  B1  UNL     1       2.481   4.390   1.319  1.00  0.00     0.195 B 
HETATM    2  C1  UNL     1       3.187   2.223   1.187  1.00  0.00    -0.236 C 
HETATM    3  C2  UNL     1       3.645   0.839   1.095  1.00  0.00     0.030 C 
ENDROOT
BRANCH   3   4
HETATM    4  C3  UNL     1       2.561   0.344   0.643  1.00  0.00    -0.010 C 
BRANCH   4   5
HETATM    5  C4  UNL     1       1.209   0.136   0.153  1.00  0.00     0.003 C 
HETATM    6  C5  UNL     1       1.070   1.465   0.333  1.00  0.00     0.083 C 
HETATM    7  C6  UNL     1      -0.283   2.020  -0.021  1.00  0.00    -0.067 A 
HETATM    8  C7  UNL     1      -0.764   3.265  -0.365  1.00  0.00     0.000 A 
HETATM    9  C11 UNL     1      -1.632   1.516  -0.059  1.00  0.00     0.056 A 
HETATM   10  C8  UNL     1      -2.102   3.611  -0.595  1.00  0.00    -0.018 A 
HETATM   11  C9  UNL     1      -2.993   2.539  -0.449  1.00  0.00     0.050 A 
HETATM   12  C10 UNL     1      -3.058   1.218  -0.154  1.00  0.00     0.075 A 
HETATM   13  N1  UNL     1      -2.593  -0.050   0.161  1.00  0.00    -0.348 N 
HETATM   14  C12 UNL     1      -1.927  -0.817   1.145  1.00  0.00     0.222 C 
HETATM   15  H8  UNL     1      -3.084  -0.161  -0.778  1.00  0.00     0.163 HD
HETATM   16  O1  UNL     1      -1.965   0.208   1.827  1.00  0.00    -0.273 OA
HETATM   17  C13 UNL     1      -1.625  -2.236   0.743  1.00  0.00     0.141 C 
HETATM   18  C14 UNL     1      -0.263  -2.064   0.081  1.00  0.00    -0.042 A 
HETATM   19  C15 UNL     1      -0.106  -3.304  -0.553  1.00  0.00     0.008 A 
HETATM   20  C19 UNL     1       0.835  -1.280  -0.213  1.00  0.00    -0.043 A 
HETATM   21  C16 UNL     1       0.931  -3.729  -1.342  1.00  0.00     0.001 A 
HETATM   22  C17 UNL     1       2.014  -2.944  -1.629  1.00  0.00     0.001 A 
HETATM   23  C18 UNL     1       1.876  -1.709  -1.007  1.00  0.00     0.008 A 
ENDBRANCH   4   5
ENDBRANCH   3   4
TORSDOF 2
