REMARK  5 active torsions:
REMARK  status: ('A' for Active; 'I' for Inactive)
REMARK    1  A    between atoms: C2_2  and  N1_3 
REMARK    2  A    between atoms: N2_6  and  C5_7 
REMARK    3  A    between atoms: C12_15  and  C13_16 
REMARK    4  A    between atoms: C13_16  and  C14_17 
REMARK    5  A    between atoms: C14_17  and  O1_18 
ROOT
HETATM    1  C5  UNL     1      -0.247  -1.886   0.366  1.00  0.00     0.038 A 
HETATM    2  C6  UNL     1      -0.009  -2.825   1.406  1.00  0.00     0.026 A 
HETATM    3  C7  UNL     1       1.183  -3.587   1.455  1.00  0.00     0.010 A 
HETATM    4  C8  UNL     1       1.847  -3.168   0.354  1.00  0.00     0.089 A 
HETATM    5  C9  UNL     1       2.080  -2.478  -0.770  1.00  0.00     0.067 A 
HETATM    6  C10 UNL     1       0.857  -1.973  -0.420  1.00  0.00     0.105 A 
HETATM    7  N3  UNL     1       1.158  -0.577  -1.020  1.00  0.00    -0.400 N 
HETATM    8  C11 UNL     1       2.300  -0.182  -0.318  1.00  0.00     0.172 C 
HETATM    9  C12 UNL     1       3.364   0.571   0.066  1.00  0.00     0.031 C 
HETATM   10  N4  UNL     1       4.409  -0.154   0.498  1.00  0.00    -0.333 NA
HETATM   11  B1  UNL     1       4.317  -1.968   0.528  1.00  0.00     0.460 B 
HETATM   12  N5  UNL     1       3.354  -3.095   0.474  1.00  0.00    -0.352 NA
HETATM   13  H13 UNL     1       0.436  -0.378  -1.722  1.00  0.00     0.154 HD
ENDROOT
BRANCH   1  14
HETATM   14  N2  UNL     1      -1.353  -1.039   0.158  1.00  0.00    -0.379 N 
HETATM   15  C4  UNL     1      -2.268  -0.984  -0.965  1.00  0.00     0.153 C 
HETATM   16  C3  UNL     1      -3.631  -0.557  -0.425  1.00  0.00     0.292 C 
HETATM   17  N1  UNL     1      -3.552   0.839   0.031  1.00  0.00     0.091 N 
HETATM   18  C16 UNL     1      -2.233   1.131   0.566  1.00  0.00     0.292 C 
HETATM   19  C15 UNL     1      -1.627  -0.077   1.212  1.00  0.00     0.153 C 
BRANCH  17  20
HETATM   20  C2  UNL     1      -3.857   1.671  -1.096  1.00  0.00     0.268 C 
HETATM   21  C1  UNL     1      -3.811   3.146  -0.766  1.00  0.00     0.037 C 
ENDBRANCH  17  20
ENDBRANCH   1  14
BRANCH   9  22
HETATM   22  C13 UNL     1       3.742   1.966   0.214  1.00  0.00     0.052 C 
BRANCH  22  23
HETATM   23  C14 UNL     1       4.948   2.136   0.706  1.00  0.00     0.161 C 
BRANCH  23  24
HETATM   24  O1  UNL     1       5.367   3.460   0.871  1.00  0.00    -0.253 OA
HETATM   25 CL1  UNL     1       5.038   4.715  -0.240  1.00  0.00     0.066 Cl
ENDBRANCH  23  24
ENDBRANCH  22  23
ENDBRANCH   9  22
TORSDOF 5
