REMARK  3 active torsions:
REMARK  status: ('A' for Active; 'I' for Inactive)
REMARK    1  A    between atoms: C9_11  and  N2_12 
REMARK    2  A    between atoms: N2_12  and  C10_13 
REMARK    3  A    between atoms: C14_17  and  C15_18 
ROOT
HETATM    1  F1  UNL     1       7.694  -2.702   0.586  1.00  0.00    -0.206 F 
HETATM    2  C1  UNL     1       6.814  -1.692   0.372  1.00  0.00     0.117 A 
HETATM    3  C2  UNL     1       7.202  -0.656  -0.435  1.00  0.00     0.045 A 
HETATM    4  C3  UNL     1       6.338   0.368  -0.665  1.00  0.00     0.040 A 
HETATM    5  C4  UNL     1       5.083   0.368  -0.095  1.00  0.00     0.078 A 
HETATM    6  C5  UNL     1       4.631  -0.660   0.736  1.00  0.00    -0.004 A 
HETATM    7  C6  UNL     1       5.555  -1.689   0.941  1.00  0.00     0.054 A 
HETATM    8  C7  UNL     1       3.433  -1.011   1.493  1.00  0.00     0.161 C 
HETATM    9  N1  UNL     1       2.227  -0.371   1.030  1.00  0.00    -0.383 N 
HETATM   10  C8  UNL     1       2.060   0.773   0.208  1.00  0.00     0.086 A 
HETATM   11  C9  UNL     1       0.998   1.003  -0.553  1.00  0.00     0.153 A 
HETATM   12  N3  UNL     1       1.205   2.257  -1.229  1.00  0.00    -0.242 NA
HETATM   13  C22 UNL     1       2.341   2.772  -0.895  1.00  0.00     0.130 A 
HETATM   14  C23 UNL     1       3.033   1.879   0.072  1.00  0.00     0.222 A 
HETATM   15  O1  UNL     1       4.285   1.465  -0.400  1.00  0.00    -0.334 OA
HETATM   16  H6  UNL     1       1.340  -0.829   1.355  1.00  0.00     0.160 HD
ENDROOT
BRANCH  11  17
HETATM   17  N2  UNL     1      -0.127   0.127  -0.651  1.00  0.00    -0.339 N 
HETATM   18  H7  UNL     1      -0.068  -0.885  -0.904  1.00  0.00     0.167 HD
BRANCH  17  19
HETATM   19  C10 UNL     1      -1.414   0.672  -0.387  1.00  0.00     0.034 A 
HETATM   20  C11 UNL     1      -1.608   1.985  -0.049  1.00  0.00     0.029 A 
HETATM   21  C12 UNL     1      -2.873   2.493   0.204  1.00  0.00     0.003 A 
HETATM   22  C13 UNL     1      -3.995   1.704   0.129  1.00  0.00     0.012 A 
HETATM   23  C14 UNL     1      -3.843   0.370  -0.209  1.00  0.00    -0.024 A 
HETATM   24  C21 UNL     1      -2.557  -0.096  -0.455  1.00  0.00     0.041 A 
BRANCH  23  25
HETATM   25  C15 UNL     1      -4.976  -0.545  -0.313  1.00  0.00    -0.026 A 
HETATM   26  C16 UNL     1      -5.059  -1.630  -1.169  1.00  0.00     0.012 A 
HETATM   27  C17 UNL     1      -6.205  -2.410  -1.152  1.00  0.00     0.001 A 
HETATM   28  C18 UNL     1      -7.248  -2.111  -0.296  1.00  0.00     0.000 A 
HETATM   29  C19 UNL     1      -7.169  -1.018   0.569  1.00  0.00     0.001 A 
HETATM   30  C20 UNL     1      -6.019  -0.239   0.549  1.00  0.00     0.012 A 
ENDBRANCH  23  25
ENDBRANCH  17  19
ENDBRANCH  11  17
TORSDOF 3
