REMARK  2 active torsions:
REMARK  status: ('A' for Active; 'I' for Inactive)
REMARK    1  A    between atoms: N1_2  and  C3_4 
REMARK    2  A    between atoms: C3_4  and  C4_5 
ROOT
HETATM    1  C4  UNL     1      -0.367   1.488  -0.928  1.00  0.00     0.133 C 
HETATM    2  N2  UNL     1      -0.391   1.788   0.567  1.00  0.00    -0.298 NA
HETATM    3  C5  UNL     1       0.526   1.317   1.269  1.00  0.00     0.090 C 
HETATM    4  C6  UNL     1       1.125   1.169   2.607  1.00  0.00     0.106 C 
HETATM    5  C7  UNL     1       1.735  -0.187   2.774  1.00  0.00     0.059 A 
HETATM    6  C8  UNL     1       2.619  -0.715   3.618  1.00  0.00     0.048 A 
HETATM    7  C9  UNL     1       3.141  -2.014   3.727  1.00  0.00     0.138 A 
HETATM    8  N3  UNL     1       2.573  -2.768   2.746  1.00  0.00    -0.075 NA
HETATM    9  C10 UNL     1       1.695  -2.429   1.833  1.00  0.00     0.727 A 
HETATM   10  N4  UNL     1       1.493  -1.209   2.076  1.00  0.00    -0.067 NA
HETATM   11  N5  UNL     1       1.192  -3.380   0.841  1.00  0.00    -0.188 N 
HETATM   12  C11 UNL     1       0.598  -2.303   0.184  1.00  0.00     0.045 A 
HETATM   13  C12 UNL     1       1.417  -1.568  -0.737  1.00  0.00     0.010 A 
HETATM   14  C13 UNL     1       1.227  -0.306  -1.404  1.00  0.00     0.071 A 
HETATM   15  C14 UNL     1      -0.068  -0.015  -0.825  1.00  0.00    -0.001 A 
HETATM   16  C15 UNL     1      -1.116  -0.486   0.060  1.00  0.00    -0.017 A 
HETATM   17  C16 UNL     1      -0.608  -1.726   0.513  1.00  0.00     0.026 A 
HETATM   18  H15 UNL     1       1.394  -4.369   0.919  1.00  0.00     0.184 HD
ENDROOT
BRANCH   1  19
HETATM   19  C3  UNL     1      -1.695   1.863  -1.418  1.00  0.00     0.143 C 
BRANCH  19  20
HETATM   20  N1  UNL     1      -1.918   1.687  -2.803  1.00  0.00    -0.419 N 
HETATM   21  C1  UNL     1      -2.034   0.330  -3.280  1.00  0.00     0.142 C 
HETATM   22  C2  UNL     1      -2.900   2.549  -3.406  1.00  0.00     0.142 C 
ENDBRANCH  19  20
ENDBRANCH   1  19
TORSDOF 2
