REMARK  5 active torsions:
REMARK  status: ('A' for Active; 'I' for Inactive)
REMARK    1  A    between atoms: C7_7  and  N1_8 
REMARK    2  A    between atoms: N1_8  and  C8_9 
REMARK    3  A    between atoms: C8_9  and  C9_10 
REMARK    4  A    between atoms: C13_14  and  O1_15 
REMARK    5  A    between atoms: C18_21  and  O2_22 
ROOT
HETATM    1  C1  UNL     1       7.055  -0.775   2.276  1.00  0.00     0.018 C 
HETATM    2  C2  UNL     1       6.194  -0.421   1.508  1.00  0.00    -0.078 C 
HETATM    3  C3  UNL     1       5.160   0.023   0.603  1.00  0.00     0.019 A 
HETATM    4  C4  UNL     1       5.457   0.765  -0.520  1.00  0.00     0.021 A 
HETATM    5  C5  UNL     1       4.439   1.170  -1.359  1.00  0.00     0.004 A 
HETATM    6  C6  UNL     1       3.146   0.812  -1.038  1.00  0.00     0.029 A 
HETATM    7  C7  UNL     1       2.777   0.074   0.065  1.00  0.00     0.029 A 
HETATM    8  C20 UNL     1       3.847  -0.299   0.864  1.00  0.00     0.049 A 
ENDROOT
BRANCH   7   9
HETATM    9  N1  UNL     1       1.419  -0.264   0.344  1.00  0.00    -0.389 N 
HETATM   10  H5  UNL     1       1.293  -0.837   1.231  1.00  0.00     0.159 HD
BRANCH   9  11
HETATM   11  C8  UNL     1       0.466   0.257  -0.661  1.00  0.00     0.134 C 
BRANCH  11  12
HETATM   12  C9  UNL     1      -0.859  -0.194  -0.247  1.00  0.00     0.032 A 
HETATM   13  C10 UNL     1      -1.427   0.925  -0.090  1.00  0.00     0.037 A 
HETATM   14  C11 UNL     1      -2.408   1.468   0.202  1.00  0.00     0.076 A 
HETATM   15  C16 UNL     1      -2.936   0.093   0.388  1.00  0.00     0.092 A 
HETATM   16  C12 UNL     1      -3.177   1.869   0.432  1.00  0.00    -0.136 A 
HETATM   17  C13 UNL     1      -4.260   2.398   0.756  1.00  0.00     0.195 A 
HETATM   18  C15 UNL     1      -4.425   0.482   0.839  1.00  0.00     0.068 A 
HETATM   19  N2  UNL     1      -3.224  -1.439   0.500  1.00  0.00    -0.289 NA
HETATM   20  C17 UNL     1      -2.221  -2.175   0.202  1.00  0.00     0.117 A 
HETATM   21  C18 UNL     1      -0.883  -1.687  -0.219  1.00  0.00     0.172 A 
BRANCH  17  22
HETATM   22  O1  UNL     1      -5.301   2.483  -0.168  1.00  0.00    -0.379 OA
HETATM   23  C14 UNL     1      -6.491   2.466   0.561  1.00  0.00     0.203 C 
ENDBRANCH  17  22
BRANCH  21  24
HETATM   24  O2  UNL     1      -0.598  -2.136  -1.520  1.00  0.00    -0.385 OA
HETATM   25  C19 UNL     1       0.524  -2.921  -1.602  1.00  0.00     0.202 C 
ENDBRANCH  21  24
ENDBRANCH  11  12
ENDBRANCH   9  11
ENDBRANCH   7   9
TORSDOF 5
