REMARK  7 active torsions:
REMARK  status: ('A' for Active; 'I' for Inactive)
REMARK    1  A    between atoms: C2_2  and  N1_3 
REMARK    2  A    between atoms: C5_6  and  C6_7 
REMARK    3  A    between atoms: C6_7  and  C7_8 
REMARK    4  A    between atoms: C8_9  and  C9_10 
REMARK    5  A    between atoms: C10_11  and  O1_12 
REMARK    6  A    between atoms: C13_16  and  C14_17 
REMARK    7  A    between atoms: C15_18  and  C16_19 
ROOT
HETATM    1  C9  UNL     1       1.674  -0.810   0.597  1.00  0.00    -0.009 A 
HETATM    2  C10 UNL     1       2.322  -1.930   0.624  1.00  0.00     0.077 A 
HETATM    3  C12 UNL     1       3.666  -2.422   0.651  1.00  0.00     0.118 A 
HETATM    4  P1  UNL     1       5.312  -1.984   0.683  1.00  0.00    -0.077 P 
HETATM    5  C13 UNL     1       5.700  -0.126   0.690  1.00  0.00    -0.048 A 
HETATM    6  C17 UNL     1       5.068   1.082   0.673  1.00  0.00     0.108 A 
HETATM    7  C18 UNL     1       3.571   1.186   0.635  1.00  0.00     0.253 A 
HETATM    8  N2  UNL     1       2.349   1.565   0.604  1.00  0.00    -0.442 NA
HETATM    9  C19 UNL     1       1.285   0.595   0.573  1.00  0.00     0.144 A 
ENDROOT
BRANCH   1  10
HETATM   10  C8  UNL     1       0.356  -1.526   0.594  1.00  0.00     0.007 C 
HETATM   11  C7  UNL     1      -0.937  -1.205   0.575  1.00  0.00    -0.024 C 
BRANCH  11  12
HETATM   12  C6  UNL     1      -2.416  -1.374   0.561  1.00  0.00     0.062 C 
BRANCH  12  13
HETATM   13  C5  UNL     1      -3.023  -0.766  -0.667  1.00  0.00     0.227 C 
HETATM   14  C4  UNL     1      -2.787   0.692  -0.806  1.00  0.00     0.066 C 
HETATM   15  C3  UNL     1      -3.765   1.406   0.138  1.00  0.00     0.277 C 
HETATM   16  N1  UNL     1      -5.068   1.292  -0.494  1.00  0.00     0.116 N 
HETATM   17  C20 UNL     1      -5.232   0.047  -1.171  1.00  0.00     0.540 C 
HETATM   18  N3  UNL     1      -4.445  -1.043  -0.647  1.00  0.00     0.116 N 
HETATM   19  H27 UNL     1      -4.748  -1.350   0.301  1.00  0.00     0.318 HD
BRANCH  16  20
HETATM   20  C2  UNL     1      -6.071   1.598   0.480  1.00  0.00     0.270 C 
HETATM   21  C1  UNL     1      -7.475   1.509  -0.079  1.00  0.00     0.037 C 
ENDBRANCH  16  20
ENDBRANCH  12  13
ENDBRANCH  11  12
ENDBRANCH   1  10
BRANCH   2  22
HETATM   22  O1  UNL     1       1.902  -3.242   0.641  1.00  0.00    -0.355 OA
HETATM   23  C11 UNL     1       1.677  -4.018  -0.520  1.00  0.00     0.210 C 
ENDBRANCH   2  22
BRANCH   5  24
HETATM   24  C14 UNL     1       7.081   0.314   0.727  1.00  0.00     0.005 C 
HETATM   25  C15 UNL     1       7.576   1.538   0.739  1.00  0.00    -0.011 C 
BRANCH  25  26
HETATM   26  C16 UNL     1       7.341   2.983   0.732  1.00  0.00     0.141 C 
HETATM   27 CL1  UNL     1       8.102   3.721  -0.697  1.00  0.00    -0.126 Cl
ENDBRANCH  25  26
ENDBRANCH   5  24
TORSDOF 7
