REMARK  3 active torsions:
REMARK  status: ('A' for Active; 'I' for Inactive)
REMARK    1  A    between atoms: C7_7  and  C8_8 
REMARK    2  A    between atoms: C14_15  and  C15_16 
REMARK    3  A    between atoms: C15_16  and  O1_17 
ROOT
HETATM    1  C1  UNL     1      -4.020  -3.574   1.185  1.00  0.00     0.018 C 
HETATM    2  C2  UNL     1      -3.439  -2.842   0.409  1.00  0.00    -0.077 C 
HETATM    3  C3  UNL     1      -2.738  -1.978  -0.487  1.00  0.00     0.023 A 
HETATM    4  C4  UNL     1      -2.948  -2.056  -1.835  1.00  0.00     0.021 A 
HETATM    5  C5  UNL     1      -2.276  -1.228  -2.698  1.00  0.00     0.002 A 
HETATM    6  C6  UNL     1      -1.402  -0.342  -2.126  1.00  0.00     0.012 A 
HETATM    7  C7  UNL     1      -1.097  -0.160  -0.765  1.00  0.00    -0.021 A 
HETATM    8  C17 UNL     1      -1.839  -1.047  -0.042  1.00  0.00    -0.032 A 
HETATM    9  C18 UNL     1      -1.700  -0.947   1.419  1.00  0.00     0.050 C 
ENDROOT
BRANCH   7  10
HETATM   10  C8  UNL     1      -0.181   0.873  -0.350  1.00  0.00    -0.029 C 
HETATM   11  C9  UNL     1      -0.061   1.848  -1.269  1.00  0.00     0.028 C 
HETATM   12  C10 UNL     1       0.676   3.093  -1.362  1.00  0.00     0.117 C 
HETATM   13  N1  UNL     1       1.392   3.387  -0.284  1.00  0.00    -0.265 NA
HETATM   14  C11 UNL     1       1.265   2.419   0.783  1.00  0.00     0.046 A 
HETATM   15  C12 UNL     1       1.445   2.201   2.069  1.00  0.00     0.003 A 
HETATM   16  C14 UNL     1       0.859   1.003   0.641  1.00  0.00     0.056 A 
HETATM   17  C13 UNL     1       0.911   0.764   2.052  1.00  0.00     0.052 A 
BRANCH  16  18
HETATM   18  C15 UNL     1       2.188   0.369  -0.052  1.00  0.00     0.188 C 
BRANCH  18  19
HETATM   19  O1  UNL     1       3.206   0.481   0.874  1.00  0.00    -0.394 OA
HETATM   20  C16 UNL     1       4.382  -0.048   0.340  1.00  0.00     0.201 C 
ENDBRANCH  18  19
ENDBRANCH  16  18
ENDBRANCH   7  10
TORSDOF 3
