REMARK  7 active torsions:
REMARK  status: ('A' for Active; 'I' for Inactive)
REMARK    1  A    between atoms: C2_2  and  O1_3 
REMARK    2  A    between atoms: O1_3  and  C3_4 
REMARK    3  A    between atoms: C3_4  and  C4_5 
REMARK    4  A    between atoms: C9_10  and  N1_11 
REMARK    5  A    between atoms: C9_10  and  N2_22 
REMARK    6  A    between atoms: N1_11  and  C10_12 
REMARK    7  A    between atoms: C12_14  and  O2_15 
ROOT
HETATM    1  C4  UNL     1       3.279   0.902   0.250  1.00  0.00     0.041 C 
HETATM    2  C5  UNL     1       2.039   1.782  -0.003  1.00  0.00     0.035 C 
HETATM    3  C6  UNL     1       1.054   1.181  -0.880  1.00  0.00    -0.030 C 
HETATM    4  C7  UNL     1      -0.161   0.705  -1.039  1.00  0.00    -0.024 C 
HETATM    5  C8  UNL     1      -0.980   0.762   0.196  1.00  0.00     0.117 C 
HETATM    6  C9  UNL     1      -1.435  -0.604   0.644  1.00  0.00     0.337 C 
HETATM    7  N4  UNL     1      -0.357  -1.504   0.938  1.00  0.00     0.175 N 
HETATM    8  C18 UNL     1       0.215  -2.232  -0.134  1.00  0.00     0.311 C 
HETATM    9  C19 UNL     1       1.744  -2.117   0.141  1.00  0.00     0.305 C 
HETATM   10  N5  UNL     1       1.747  -0.846   0.754  1.00  0.00     0.124 N 
HETATM   11  C20 UNL     1       2.902  -0.221   1.190  1.00  0.00     0.282 C 
HETATM   12  C21 UNL     1       0.670  -0.930   1.728  1.00  0.00     0.458 C 
HETATM   13  C22 UNL     1       1.029  -1.884   2.854  1.00  0.00     0.077 C 
ENDROOT
BRANCH   6  14
HETATM   14  N1  UNL     1      -2.328  -1.139  -0.332  1.00  0.00    -0.335 N 
HETATM   15  H15 UNL     1      -1.958  -1.995  -0.845  1.00  0.00     0.164 HD
BRANCH  14  16
HETATM   16  C10 UNL     1      -3.614  -0.790  -0.777  1.00  0.00     0.056 A 
HETATM   17  C11 UNL     1      -4.368   0.218  -0.213  1.00  0.00     0.069 A 
HETATM   18  C12 UNL     1      -5.635   0.583  -0.605  1.00  0.00     0.092 A 
HETATM   19  C14 UNL     1      -6.228  -0.096  -1.646  1.00  0.00     0.069 A 
HETATM   20 CL1  UNL     1      -7.817   0.255  -2.244  1.00  0.00    -0.081 Cl
HETATM   21  C15 UNL     1      -5.526  -1.113  -2.249  1.00  0.00     0.052 A 
HETATM   22  C16 UNL     1      -4.264  -1.447  -1.828  1.00  0.00     0.062 A 
HETATM   23 CL2  UNL     1      -3.422  -2.753  -2.639  1.00  0.00    -0.082 Cl
BRANCH  18  24
HETATM   24  O2  UNL     1      -6.385   1.590  -0.040  1.00  0.00    -0.354 OA
HETATM   25  C13 UNL     1      -5.862   2.335   1.024  1.00  0.00     0.210 C 
ENDBRANCH  18  24
ENDBRANCH  14  16
ENDBRANCH   6  14
BRANCH   6  26
HETATM   26  N2  UNL     1      -2.171  -0.420   1.882  1.00  0.00    -0.203 N 
HETATM   27  C17 UNL     1      -1.948   0.110   3.207  1.00  0.00     0.255 A 
HETATM   28  N3  UNL     1      -3.118  -0.372   2.937  1.00  0.00    -0.161 NA
ENDBRANCH   6  26
BRANCH   1  29
HETATM   29  C3  UNL     1       3.784   0.501  -1.082  1.00  0.00     0.174 C 
BRANCH  29  30
HETATM   30  O1  UNL     1       4.934  -0.304  -0.966  1.00  0.00    -0.391 OA
BRANCH  30  31
HETATM   31  C2  UNL     1       5.959   0.346  -0.323  1.00  0.00     0.163 C 
HETATM   32  C1  UNL     1       6.389   1.615  -1.041  1.00  0.00     0.033 C 
ENDBRANCH  30  31
ENDBRANCH  29  30
ENDBRANCH   1  29
TORSDOF 7
