REMARK  6 active torsions:
REMARK  status: ('A' for Active; 'I' for Inactive)
REMARK    1  A    between atoms: O1_2  and  C2_3 
REMARK    2  A    between atoms: C3_4  and  C4_5 
REMARK    3  A    between atoms: C5_6  and  C6_7 
REMARK    4  A    between atoms: C6_7  and  C7_8 
REMARK    5  A    between atoms: C7_8  and  N1_9 
REMARK    6  A    between atoms: C24_30  and  O2_31 
ROOT
HETATM    1  C2  UNL     1      -1.479  -1.149   2.134  1.00  0.00     0.059 C 
HETATM    2  C3  UNL     1      -1.418  -0.643   0.888  1.00  0.00    -0.007 C 
HETATM    3  C13 UNL     1      -2.036  -0.408  -0.397  1.00  0.00     0.160 C 
HETATM    4  C14 UNL     1      -1.635  -1.381  -1.427  1.00  0.00     0.073 C 
HETATM    5  N3  UNL     1      -1.329  -2.145  -2.229  1.00  0.00    -0.196 NA
HETATM    6  C15 UNL     1      -3.509  -0.291  -0.461  1.00  0.00    -0.026 C 
HETATM    7  C16 UNL     1      -4.273  -1.222   0.151  1.00  0.00     0.009 C 
HETATM    8  C17 UNL     1      -4.604  -1.913   1.431  1.00  0.00     0.025 C 
HETATM    9  C18 UNL     1      -3.901  -1.386   2.428  1.00  0.00     0.012 C 
HETATM   10  C19 UNL     1      -2.598  -1.577   3.049  1.00  0.00     0.121 C 
HETATM   11  N4  UNL     1      -4.645  -0.294   3.023  1.00  0.00    -0.374 N 
HETATM   12  C20 UNL     1      -5.813   0.370   2.568  1.00  0.00     0.246 A 
HETATM   13  C21 UNL     1      -6.247   0.973   1.453  1.00  0.00     0.063 A 
HETATM   14 CL1  UNL     1      -7.592   1.111   2.603  1.00  0.00    -0.183 Cl
HETATM   15  C22 UNL     1      -6.333   1.512   0.065  1.00  0.00    -0.005 C 
HETATM   16  C23 UNL     1      -5.329   1.334  -0.751  1.00  0.00     0.007 C 
HETATM   17  C24 UNL     1      -4.017   0.887  -1.228  1.00  0.00     0.174 C 
HETATM   18  H26 UNL     1      -4.236   0.040   3.919  1.00  0.00     0.161 HD
ENDROOT
BRANCH   2  19
HETATM   19  C4  UNL     1      -0.049  -0.059   0.837  1.00  0.00     0.007 C 
HETATM   20  C5  UNL     1       0.632   0.590  -0.126  1.00  0.00    -0.024 C 
BRANCH  20  21
HETATM   21  C6  UNL     1       2.007   1.187  -0.201  1.00  0.00     0.057 C 
BRANCH  21  22
HETATM   22  C7  UNL     1       2.785   0.520  -1.291  1.00  0.00     0.276 C 
BRANCH  22  23
HETATM   23  N1  UNL     1       4.112   1.014  -1.447  1.00  0.00     0.092 N 
HETATM   24  C8  UNL     1       4.861   0.377  -2.503  1.00  0.00     0.302 C 
HETATM   25  C9  UNL     1       5.755  -0.712  -1.983  1.00  0.00     0.302 C 
HETATM   26  N2  UNL     1       6.765  -0.116  -1.130  1.00  0.00     0.087 N 
HETATM   27  C10 UNL     1       8.032   0.001  -1.808  1.00  0.00     0.310 C 
HETATM   28  C11 UNL     1       6.322   1.150  -0.579  1.00  0.00     0.302 C 
HETATM   29  C12 UNL     1       4.851   1.115  -0.216  1.00  0.00     0.302 C 
ENDBRANCH  22  23
ENDBRANCH  21  22
ENDBRANCH  20  21
ENDBRANCH   2  19
BRANCH   1  30
HETATM   30  O1  UNL     1      -0.253  -1.341   2.767  1.00  0.00    -0.359 OA
HETATM   31  C1  UNL     1      -0.036  -2.659   3.289  1.00  0.00     0.209 C 
ENDBRANCH   1  30
BRANCH  17  32
HETATM   32  O2  UNL     1      -4.042   0.574  -2.597  1.00  0.00    -0.382 OA
HETATM   33  C25 UNL     1      -3.191   1.415  -3.299  1.00  0.00     0.202 C 
ENDBRANCH  17  32
TORSDOF 6
