REMARK  3 active torsions:
REMARK  status: ('A' for Active; 'I' for Inactive)
REMARK    1  A    between atoms: N1_7  and  C7_8 
REMARK    2  A    between atoms: C12_14  and  O1_15 
REMARK    3  A    between atoms: C14_17  and  O2_18 
ROOT
HETATM    1  C1  UNL     1      -3.700   2.228   2.974  1.00  0.00     0.017 C 
HETATM    2  C2  UNL     1      -3.201   1.979   1.903  1.00  0.00    -0.080 C 
HETATM    3  C3  UNL     1      -2.592   1.690   0.651  1.00  0.00     0.013 C 
HETATM    4  C4  UNL     1      -3.343   1.841  -0.451  1.00  0.00    -0.007 C 
HETATM    5  C5  UNL     1      -2.606   1.511  -1.723  1.00  0.00     0.048 C 
HETATM    6  C6  UNL     1      -1.854   0.238  -1.557  1.00  0.00     0.127 C 
HETATM    7  N1  UNL     1      -1.218   0.060  -0.235  1.00  0.00    -0.374 N 
HETATM    8  C17 UNL     1      -1.154   1.228   0.508  1.00  0.00     0.121 C 
HETATM    9  C18 UNL     1      -0.543   1.455   1.796  1.00  0.00     0.038 C 
ENDROOT
BRANCH   7  10
HETATM   10  C7  UNL     1      -0.804  -1.233   0.032  1.00  0.00     0.025 C 
HETATM   11  C8  UNL     1      -1.421  -2.424   0.260  1.00  0.00     0.045 C 
HETATM   12  C9  UNL     1      -0.878  -3.747   0.556  1.00  0.00     0.119 C 
HETATM   13  N2  UNL     1       0.436  -3.823   0.650  1.00  0.00    -0.264 NA
HETATM   14  C10 UNL     1       1.112  -2.559   0.466  1.00  0.00     0.053 A 
HETATM   15  C11 UNL     1       2.362  -2.298   0.894  1.00  0.00     0.067 A 
HETATM   16  C16 UNL     1       0.609  -1.337  -0.193  1.00  0.00     0.147 A 
HETATM   17  C12 UNL     1       2.696  -0.907   0.534  1.00  0.00     0.100 A 
HETATM   18  C14 UNL     1       1.624  -0.391  -0.098  1.00  0.00     0.095 A 
BRANCH  17  19
HETATM   19  O1  UNL     1       3.948  -0.348   0.855  1.00  0.00    -0.353 OA
HETATM   20  C13 UNL     1       5.001  -0.569  -0.063  1.00  0.00     0.210 C 
ENDBRANCH  17  19
BRANCH  18  21
HETATM   21  O2  UNL     1       1.762   0.937  -0.511  1.00  0.00    -0.356 OA
HETATM   22  C15 UNL     1       1.975   1.156  -1.894  1.00  0.00     0.209 C 
ENDBRANCH  18  21
ENDBRANCH   7  10
TORSDOF 3
