REMARK  2 active torsions:
REMARK  status: ('A' for Active; 'I' for Inactive)
REMARK    1  A    between atoms: C11_13  and  O1_14 
REMARK    2  A    between atoms: O1_14  and  C12_15 
ROOT
HETATM    1  C1  UNL     1       5.741   0.358  -0.659  1.00  0.00     0.031 C 
HETATM    2  C2  UNL     1       4.948  -0.537  -0.079  1.00  0.00     0.010 C 
HETATM    3  C3  UNL     1       4.172   0.467   0.468  1.00  0.00    -0.069 C 
HETATM    4  C4  UNL     1       3.519   1.284   0.908  1.00  0.00    -0.086 C 
HETATM    5  C5  UNL     1       2.691   2.283   1.445  1.00  0.00     0.139 A 
HETATM    6  C6  UNL     1       2.647   3.684   0.969  1.00  0.00     0.023 A 
HETATM    7  C7  UNL     1       1.912   2.867   0.281  1.00  0.00     0.028 A 
HETATM    8  N1  UNL     1       1.064   2.120  -0.573  1.00  0.00    -0.343 N 
HETATM    9  C8  UNL     1      -0.301   1.762  -0.469  1.00  0.00     0.134 A 
HETATM   10  N2  UNL     1      -1.102   2.691  -0.197  1.00  0.00    -0.267 NA
HETATM   11  C9  UNL     1      -2.494   2.277  -0.100  1.00  0.00     0.195 A 
HETATM   12  C10 UNL     1      -2.411   0.824  -0.385  1.00  0.00     0.034 A 
HETATM   13  C11 UNL     1      -3.382  -0.098  -0.438  1.00  0.00     0.194 C 
HETATM   14  O2  UNL     1      -3.265  -1.479  -0.719  1.00  0.00    -0.297 OA
HETATM   15  C14 UNL     1      -2.204  -2.329  -0.343  1.00  0.00     0.181 C 
HETATM   16  C15 UNL     1      -0.959  -1.891  -0.303  1.00  0.00     0.092 C 
HETATM   17  C16 UNL     1      -0.384  -0.653  -0.909  1.00  0.00     0.054 C 
HETATM   18  C17 UNL     1      -0.985   0.495  -0.622  1.00  0.00     0.025 A 
HETATM   19  O3  UNL     1       0.135  -2.443   0.301  1.00  0.00    -0.347 OA
HETATM   20  C18 UNL     1       1.297  -2.863  -0.414  1.00  0.00     0.201 C 
HETATM   21  C19 UNL     1       2.522  -2.182   0.209  1.00  0.00     0.194 C 
HETATM   22  O4  UNL     1       3.665  -2.560  -0.443  1.00  0.00    -0.384 OA
HETATM   23  C20 UNL     1       4.829  -2.005   0.023  1.00  0.00     0.214 C 
HETATM   24  H5  UNL     1       1.294   1.673  -1.484  1.00  0.00     0.167 HD
ENDROOT
BRANCH  13  25
HETATM   25  O1  UNL     1      -4.627   0.433  -0.175  1.00  0.00    -0.330 OA
BRANCH  25  26
HETATM   26  C12 UNL     1      -5.725  -0.292   0.321  1.00  0.00     0.173 C 
HETATM   27  C13 UNL     1      -6.918   0.660   0.478  1.00  0.00     0.034 C 
ENDBRANCH  25  26
ENDBRANCH  13  25
TORSDOF 2
