REMARK  3 active torsions:
REMARK  status: ('A' for Active; 'I' for Inactive)
REMARK    1  A    between atoms: C6_6  and  C7_7 
REMARK    2  A    between atoms: C12_14  and  O2_15 
REMARK    3  A    between atoms: C13_16  and  O3_17 
ROOT
HETATM    1  C1  UNL     1       6.210   2.192  -0.923  1.00  0.00     0.018 C 
HETATM    2  C2  UNL     1       5.185   1.804  -0.435  1.00  0.00    -0.077 C 
HETATM    3  C3  UNL     1       3.970   1.344   0.156  1.00  0.00     0.030 A 
HETATM    4  C4  UNL     1       3.839   0.307   0.952  1.00  0.00    -0.002 A 
HETATM    5  C5  UNL     1       2.669  -0.287   1.633  1.00  0.00     0.060 A 
HETATM    6  C6  UNL     1       1.439   0.452   1.351  1.00  0.00     0.145 A 
HETATM    7  N2  UNL     1       1.570   1.578   0.488  1.00  0.00    -0.290 NA
HETATM    8  C17 UNL     1       2.664   1.953  -0.020  1.00  0.00     0.131 A 
ENDROOT
BRANCH   6   9
HETATM    9  C7  UNL     1       0.337  -0.456   0.886  1.00  0.00    -0.013 C 
HETATM   10  C8  UNL     1       0.717  -1.725   0.833  1.00  0.00    -0.015 C 
HETATM   11  C9  UNL     1       0.601  -2.231  -0.387  1.00  0.00     0.034 C 
HETATM   12  C10 UNL     1      -0.716  -2.087  -1.051  1.00  0.00     0.147 C 
HETATM   13  N1  UNL     1      -1.168  -3.000  -0.295  1.00  0.00    -0.146 NA
HETATM   14  O1  UNL     1      -2.431  -3.432  -0.344  1.00  0.00    -0.250 OA
HETATM   15  C11 UNL     1      -3.509  -2.577  -0.581  1.00  0.00     0.271 C 
HETATM   16  C12 UNL     1      -3.125  -1.169  -0.282  1.00  0.00     0.103 C 
HETATM   17  C13 UNL     1      -2.417  -0.076   0.079  1.00  0.00     0.106 C 
HETATM   18  C15 UNL     1      -1.047  -0.336   0.471  1.00  0.00    -0.013 C 
HETATM   19  C16 UNL     1      -0.823   0.946   0.707  1.00  0.00     0.047 C 
BRANCH  16  20
HETATM   20  O2  UNL     1      -4.412  -0.644  -0.619  1.00  0.00    -0.360 OA
HETATM   21  H10 UNL     1      -4.983  -0.413   0.200  1.00  0.00     0.217 HD
ENDBRANCH  16  20
BRANCH  17  22
HETATM   22  O3  UNL     1      -3.073   1.180   0.036  1.00  0.00    -0.353 OA
HETATM   23  C14 UNL     1      -3.220   1.892  -1.165  1.00  0.00     0.210 C 
ENDBRANCH  17  22
ENDBRANCH   6   9
TORSDOF 3
