REMARK  2 active torsions:
REMARK  status: ('A' for Active; 'I' for Inactive)
REMARK    1  A    between atoms: O1_2  and  C2_3 
REMARK    2  A    between atoms: C3_4  and  O2_5 
ROOT
HETATM    1  C2  UNL     1      -1.318  -1.204  -0.499  1.00  0.00     0.080 C 
HETATM    2  C3  UNL     1      -1.198  -0.080  -1.265  1.00  0.00     0.118 A 
HETATM    3  C5  UNL     1      -0.325   1.053  -1.826  1.00  0.00     0.087 A 
HETATM    4  C6  UNL     1       0.885   1.115  -0.851  1.00  0.00     0.129 A 
HETATM    5  C7  UNL     1       0.575  -0.141  -1.141  1.00  0.00     0.158 A 
HETATM    6  C8  UNL     1       0.164  -1.503  -1.526  1.00  0.00     0.137 C 
HETATM    7  N1  UNL     1       0.611  -1.194  -0.351  1.00  0.00    -0.311 NA
HETATM    8  C9  UNL     1       0.632  -2.311   0.543  1.00  0.00     0.066 C 
HETATM    9  C10 UNL     1      -0.678  -2.270   0.368  1.00  0.00     0.105 C 
HETATM   10  C11 UNL     1       2.169  -2.520   1.016  1.00  0.00     0.113 C 
HETATM   11  C12 UNL     1       2.511  -1.071   0.967  1.00  0.00    -0.164 C 
HETATM   12  C13 UNL     1       2.739  -0.010   0.916  1.00  0.00     0.102 A 
HETATM   13  C14 UNL     1       3.006   1.341   0.833  1.00  0.00     0.190 A 
HETATM   14  C15 UNL     1       3.213   0.904  -0.370  1.00  0.00     0.260 A 
HETATM   15  N2  UNL     1       2.055   1.630   0.113  1.00  0.00    -0.020 N 
HETATM   16  C16 UNL     1       0.835   2.366   0.532  1.00  0.00     0.201 C 
HETATM   17  C17 UNL     1       1.297   2.586   1.878  1.00  0.00     0.001 C 
HETATM   18  C18 UNL     1       2.806   2.111   2.124  1.00  0.00     0.072 C 
ENDROOT
BRANCH   1  19
HETATM   19  O1  UNL     1      -2.364  -1.984  -0.189  1.00  0.00    -0.357 OA
HETATM   20  C1  UNL     1      -3.512  -1.819   0.529  1.00  0.00     0.209 C 
ENDBRANCH   1  19
BRANCH   2  21
HETATM   21  O2  UNL     1      -2.538  -0.204  -1.497  1.00  0.00    -0.378 OA
HETATM   22  C4  UNL     1      -3.435   0.831  -1.206  1.00  0.00     0.203 C 
ENDBRANCH   2  21
TORSDOF 2
