REMARK  6 active torsions:
REMARK  status: ('A' for Active; 'I' for Inactive)
REMARK    1  A    between atoms: O1_2  and  C2_3 
REMARK    2  A    between atoms: C2_3  and  O2_4 
REMARK    3  A    between atoms: C8_11  and  N2_12 
REMARK    4  A    between atoms: N2_12  and  C9_13 
REMARK    5  A    between atoms: C13_17  and  C14_18 
REMARK    6  A    between atoms: C14_18  and  S1_19 
ROOT
HETATM    1  C2  UNL     1      -3.448   0.412  -0.044  1.00  0.00     0.205 A 
HETATM    2  C4  UNL     1      -3.661  -1.026  -0.345  1.00  0.00     0.077 A 
HETATM    3  C5  UNL     1      -2.504  -1.660  -0.449  1.00  0.00     0.070 A 
HETATM    4  N1  UNL     1      -2.346  -2.972  -0.715  1.00  0.00    -0.260 NA
HETATM    5  C6  UNL     1      -1.091  -3.455  -0.785  1.00  0.00     0.119 A 
HETATM    6  C7  UNL     1      -0.051  -2.579  -0.580  1.00  0.00     0.049 A 
HETATM    7  C8  UNL     1      -0.157  -1.236  -0.306  1.00  0.00     0.046 A 
HETATM    8  C16 UNL     1      -1.460  -0.789  -0.245  1.00  0.00     0.021 A 
HETATM    9  C17 UNL     1      -1.957   0.437  -0.003  1.00  0.00     0.061 A 
ENDROOT
BRANCH   7  10
HETATM   10  N2  UNL     1       0.891  -0.343  -0.082  1.00  0.00    -0.355 N 
HETATM   11  H10 UNL     1       0.635   0.674   0.084  1.00  0.00     0.166 HD
BRANCH  10  12
HETATM   12  C9  UNL     1       2.282  -0.454  -0.011  1.00  0.00     0.033 A 
HETATM   13  C10 UNL     1       2.976  -1.542   0.514  1.00  0.00     0.029 A 
HETATM   14  C11 UNL     1       4.342  -1.669   0.563  1.00  0.00     0.003 A 
HETATM   15  C12 UNL     1       5.095  -0.643   0.054  1.00  0.00     0.008 A 
HETATM   16  C13 UNL     1       4.513   0.479  -0.489  1.00  0.00    -0.047 A 
HETATM   17  C15 UNL     1       3.143   0.517  -0.494  1.00  0.00     0.037 A 
BRANCH  16  18
HETATM   18  C14 UNL     1       5.328   1.585  -1.037  1.00  0.00     0.109 C 
BRANCH  18  19
HETATM   19  S1  UNL     1       5.680   2.793   0.271  1.00  0.00    -0.178 SA
HETATM   20  H16 UNL     1       5.501   4.087  -0.195  1.00  0.00     0.101 HD
ENDBRANCH  18  19
ENDBRANCH  16  18
ENDBRANCH  10  12
ENDBRANCH   7  10
BRANCH   1  21
HETATM   21  O1  UNL     1      -4.003   0.803   1.168  1.00  0.00    -0.353 OA
HETATM   22  C1  UNL     1      -3.687   2.120   1.392  1.00  0.00     0.206 C 
ENDBRANCH   1  21
BRANCH   1  23
HETATM   23  O2  UNL     1      -3.923   1.161  -1.096  1.00  0.00    -0.353 OA
HETATM   24  C3  UNL     1      -5.286   1.043  -1.215  1.00  0.00     0.206 C 
ENDBRANCH   1  23
TORSDOF 6
