REMARK  9 active torsions:
REMARK  status: ('A' for Active; 'I' for Inactive)
REMARK    1  A    between atoms: C7_7  and  N1_8 
REMARK    2  A    between atoms: N1_8  and  C8_9 
REMARK    3  A    between atoms: C13_16  and  O1_17 
REMARK    4  A    between atoms: O1_17  and  C14_18 
REMARK    5  A    between atoms: C14_18  and  C15_19 
REMARK    6  A    between atoms: C15_19  and  O2_20 
REMARK    7  A    between atoms: O2_20  and  C16_21 
REMARK    8  A    between atoms: C16_21  and  C17_22 
REMARK    9  A    between atoms: C17_22  and  O3_23 
ROOT
HETATM    1  C1  UNL     1      -6.980   2.889   1.888  1.00  0.00     0.018 C 
HETATM    2  C2  UNL     1      -6.248   2.325   1.114  1.00  0.00    -0.078 C 
HETATM    3  C3  UNL     1      -5.383   1.644   0.167  1.00  0.00     0.019 A 
HETATM    4  C4  UNL     1      -5.091   2.155  -1.076  1.00  0.00     0.021 A 
HETATM    5  C5  UNL     1      -4.258   1.468  -1.948  1.00  0.00     0.004 A 
HETATM    6  C6  UNL     1      -3.705   0.241  -1.566  1.00  0.00     0.029 A 
HETATM    7  C7  UNL     1      -4.035  -0.219  -0.309  1.00  0.00     0.035 A 
HETATM    8  C20 UNL     1      -4.856   0.423   0.594  1.00  0.00     0.050 A 
ENDROOT
BRANCH   7   9
HETATM    9  N1  UNL     1      -3.494  -1.456   0.109  1.00  0.00    -0.340 N 
HETATM   10  H5  UNL     1      -3.669  -1.904   1.032  1.00  0.00     0.167 HD
BRANCH   9  11
HETATM   11  C8  UNL     1      -2.629  -2.292  -0.647  1.00  0.00     0.141 A 
HETATM   12  N2  UNL     1      -3.022  -3.272  -1.480  1.00  0.00    -0.224 NA
HETATM   13  C9  UNL     1      -2.108  -3.993  -2.138  1.00  0.00     0.236 A 
HETATM   14  N3  UNL     1      -0.758  -3.815  -2.036  1.00  0.00    -0.239 NA
HETATM   15  C10 UNL     1      -0.342  -2.838  -1.207  1.00  0.00     0.094 A 
HETATM   16  C11 UNL     1      -1.278  -2.090  -0.524  1.00  0.00     0.042 A 
HETATM   17  C19 UNL     1       0.953  -2.618  -1.066  1.00  0.00     0.171 A 
HETATM   18  C12 UNL     1      -0.719  -1.174   0.247  1.00  0.00     0.051 A 
HETATM   19  C13 UNL     1       0.697  -0.818   0.500  1.00  0.00     0.290 A 
HETATM   20  O4  UNL     1       1.526  -1.657  -0.258  1.00  0.00    -0.327 OA
BRANCH  19  21
HETATM   21  O1  UNL     1       1.016  -0.767   1.825  1.00  0.00    -0.355 OA
BRANCH  21  22
HETATM   22  C14 UNL     1       1.441   0.426   2.332  1.00  0.00     0.197 C 
BRANCH  22  23
HETATM   23  C15 UNL     1       2.718   0.843   1.637  1.00  0.00     0.194 C 
BRANCH  23  24
HETATM   24  O2  UNL     1       3.643  -0.161   1.881  1.00  0.00    -0.387 OA
BRANCH  24  25
HETATM   25  C16 UNL     1       4.890   0.072   1.293  1.00  0.00     0.193 C 
BRANCH  25  26
HETATM   26  C17 UNL     1       5.541   1.323   1.766  1.00  0.00     0.193 C 
BRANCH  26  27
HETATM   27  O3  UNL     1       6.765   1.507   1.165  1.00  0.00    -0.394 OA
HETATM   28  C18 UNL     1       6.761   1.625  -0.207  1.00  0.00     0.201 C 
ENDBRANCH  26  27
ENDBRANCH  25  26
ENDBRANCH  24  25
ENDBRANCH  23  24
ENDBRANCH  22  23
ENDBRANCH  21  22
ENDBRANCH  19  21
ENDBRANCH   9  11
ENDBRANCH   7   9
TORSDOF 9
