REMARK  4 active torsions:
REMARK  status: ('A' for Active; 'I' for Inactive)
REMARK    1  A    between atoms: C16_19  and  O3_20 
REMARK    2  A    between atoms: O3_20  and  C17_21 
REMARK    3  A    between atoms: C17_21  and  C18_22 
REMARK    4  A    between atoms: C18_22  and  O4_23 
ROOT
HETATM    1  C1  UNL     1      -2.153   4.301  -2.379  1.00  0.00     0.018 C 
HETATM    2  C2  UNL     1      -2.595   3.203  -2.428  1.00  0.00    -0.078 C 
HETATM    3  C3  UNL     1      -3.103   1.959  -2.507  1.00  0.00     0.018 C 
HETATM    4  C4  UNL     1      -3.611   0.919  -3.081  1.00  0.00     0.020 C 
HETATM    5  C5  UNL     1      -4.070  -0.346  -2.619  1.00  0.00    -0.001 C 
HETATM    6  C6  UNL     1      -4.294  -1.148  -1.623  1.00  0.00    -0.001 C 
HETATM    7  C7  UNL     1      -4.653  -2.267  -0.743  1.00  0.00     0.195 C 
HETATM    8  O1  UNL     1      -3.621  -2.750   0.023  1.00  0.00    -0.385 OA
HETATM    9  C8  UNL     1      -2.473  -3.090  -0.626  1.00  0.00     0.194 C 
HETATM   10  C9  UNL     1      -1.472  -3.667   0.344  1.00  0.00     0.196 C 
HETATM   11  O2  UNL     1      -1.190  -2.709   1.361  1.00  0.00    -0.361 OA
HETATM   12  C10 UNL     1      -0.628  -1.589   0.801  1.00  0.00     0.261 C 
HETATM   13  C11 UNL     1      -1.188  -0.249   1.221  1.00  0.00     0.178 C 
HETATM   14  N1  UNL     1      -0.560   0.774   0.351  1.00  0.00    -0.382 N 
HETATM   15  C12 UNL     1      -1.309   1.740  -0.448  1.00  0.00     0.087 C 
HETATM   16  C13 UNL     1      -2.137   1.503  -1.410  1.00  0.00     0.037 C 
HETATM   17  C14 UNL     1       0.836   0.820   0.174  1.00  0.00     0.152 C 
HETATM   18  C15 UNL     1       1.808   1.018   1.202  1.00  0.00     0.025 C 
HETATM   19  C16 UNL     1       2.757   1.275   2.133  1.00  0.00     0.049 C 
HETATM   20  C20 UNL     1       2.247   0.062   2.838  1.00  0.00     0.110 C 
HETATM   21  C21 UNL     1       1.151  -0.563   2.066  1.00  0.00     0.093 C 
HETATM   22  N2  UNL     1       0.803  -1.528   1.271  1.00  0.00    -0.272 NA
ENDROOT
BRANCH  19  23
HETATM   23  O3  UNL     1       3.748   2.280   2.263  1.00  0.00    -0.353 OA
BRANCH  23  24
HETATM   24  C17 UNL     1       5.090   1.900   1.946  1.00  0.00     0.201 C 
BRANCH  24  25
HETATM   25  C18 UNL     1       5.178   1.466   0.465  1.00  0.00     0.193 C 
BRANCH  25  26
HETATM   26  O4  UNL     1       4.335   0.370   0.278  1.00  0.00    -0.394 OA
HETATM   27  C19 UNL     1       4.330  -0.108  -1.010  1.00  0.00     0.201 C 
ENDBRANCH  25  26
ENDBRANCH  24  25
ENDBRANCH  23  24
ENDBRANCH  19  23
TORSDOF 4
