REMARK  7 active torsions:
REMARK  status: ('A' for Active; 'I' for Inactive)
REMARK    1  A    between atoms: C7_7  and  N1_8 
REMARK    2  A    between atoms: N1_8  and  C8_9 
REMARK    3  A    between atoms: C13_16  and  C14_17 
REMARK    4  A    between atoms: C14_17  and  O1_18 
REMARK    5  A    between atoms: O1_18  and  C15_19 
REMARK    6  A    between atoms: C15_19  and  C16_20 
REMARK    7  A    between atoms: C16_20  and  O2_21 
ROOT
HETATM    1  C1  UNL     1      -5.969   3.397   2.804  1.00  0.00     0.018 C 
HETATM    2  C2  UNL     1      -5.610   2.325   2.352  1.00  0.00    -0.078 C 
HETATM    3  C3  UNL     1      -5.184   1.073   1.797  1.00  0.00     0.019 A 
HETATM    4  C4  UNL     1      -5.991  -0.036   1.902  1.00  0.00     0.021 A 
HETATM    5  C5  UNL     1      -5.525  -1.208   1.348  1.00  0.00     0.004 A 
HETATM    6  C6  UNL     1      -4.305  -1.234   0.728  1.00  0.00     0.029 A 
HETATM    7  C7  UNL     1      -3.460  -0.164   0.594  1.00  0.00     0.035 A 
HETATM    8  C20 UNL     1      -3.971   0.983   1.163  1.00  0.00     0.050 A 
ENDROOT
BRANCH   7   9
HETATM    9  N1  UNL     1      -2.215  -0.237  -0.054  1.00  0.00    -0.340 N 
HETATM   10  H5  UNL     1      -1.723   0.672  -0.000  1.00  0.00     0.167 HD
BRANCH   9  11
HETATM   11  C8  UNL     1      -1.637  -1.346  -0.710  1.00  0.00     0.142 A 
HETATM   12  N2  UNL     1      -2.166  -2.554  -0.857  1.00  0.00    -0.224 NA
HETATM   13  C9  UNL     1      -1.644  -3.608  -1.466  1.00  0.00     0.236 A 
HETATM   14  N3  UNL     1      -0.413  -3.458  -2.017  1.00  0.00    -0.241 NA
HETATM   15  C10 UNL     1       0.222  -2.275  -1.931  1.00  0.00     0.072 A 
HETATM   16  C11 UNL     1       1.467  -2.202  -2.515  1.00  0.00     0.033 A 
HETATM   17  C19 UNL     1      -0.400  -1.233  -1.277  1.00  0.00     0.039 A 
HETATM   18  C12 UNL     1       2.175  -1.020  -2.464  1.00  0.00     0.012 A 
HETATM   19  C13 UNL     1       1.613   0.055  -1.827  1.00  0.00    -0.034 A 
HETATM   20  C18 UNL     1       0.362  -0.085  -1.263  1.00  0.00     0.027 A 
BRANCH  19  21
HETATM   21  C14 UNL     1       2.370   1.344  -1.762  1.00  0.00     0.206 C 
BRANCH  21  22
HETATM   22  O1  UNL     1       3.166   1.426  -0.638  1.00  0.00    -0.385 OA
BRANCH  22  23
HETATM   23  C15 UNL     1       4.124   0.442  -0.530  1.00  0.00     0.194 C 
BRANCH  23  24
HETATM   24  C16 UNL     1       4.894   0.687   0.750  1.00  0.00     0.193 C 
BRANCH  24  25
HETATM   25  O2  UNL     1       5.514   1.920   0.758  1.00  0.00    -0.394 OA
HETATM   26  C17 UNL     1       6.182   2.002   2.001  1.00  0.00     0.201 C 
ENDBRANCH  24  25
ENDBRANCH  23  24
ENDBRANCH  22  23
ENDBRANCH  21  22
ENDBRANCH  19  21
ENDBRANCH   9  11
ENDBRANCH   7   9
TORSDOF 7
