REMARK  10 active torsions:
REMARK  status: ('A' for Active; 'I' for Inactive)
REMARK    1  A    between atoms: C7_7  and  N1_8 
REMARK    2  A    between atoms: N1_8  and  C8_9 
REMARK    3  A    between atoms: C11_14  and  O1_15 
REMARK    4  A    between atoms: O1_15  and  C12_16 
REMARK    5  A    between atoms: C12_16  and  C13_17 
REMARK    6  A    between atoms: C13_17  and  O2_18 
REMARK    7  A    between atoms: C15_20  and  O3_21 
REMARK    8  A    between atoms: O3_21  and  C16_22 
REMARK    9  A    between atoms: C16_22  and  C17_23 
REMARK   10  A    between atoms: C17_23  and  O4_24 
ROOT
HETATM    1  C1  UNL     1       2.539   2.890  -5.039  1.00  0.00     0.018 C 
HETATM    2  C2  UNL     1       3.129   2.066  -4.402  1.00  0.00    -0.078 C 
HETATM    3  C3  UNL     1       3.854   1.095  -3.635  1.00  0.00     0.019 A 
HETATM    4  C4  UNL     1       5.252   1.075  -3.709  1.00  0.00     0.021 A 
HETATM    5  C5  UNL     1       5.930   0.141  -2.966  1.00  0.00     0.004 A 
HETATM    6  C6  UNL     1       5.323  -0.787  -2.143  1.00  0.00     0.029 A 
HETATM    7  C7  UNL     1       3.925  -0.779  -2.059  1.00  0.00     0.034 A 
HETATM    8  C21 UNL     1       3.270   0.163  -2.811  1.00  0.00     0.050 A 
ENDROOT
BRANCH   7   9
HETATM    9  N1  UNL     1       3.270  -1.710  -1.212  1.00  0.00    -0.344 N 
HETATM   10  H5  UNL     1       3.891  -2.351  -0.629  1.00  0.00     0.167 HD
BRANCH   9  11
HETATM   11  C8  UNL     1       1.854  -1.874  -1.056  1.00  0.00     0.112 A 
HETATM   12  N2  UNL     1       1.229  -1.859  -2.186  1.00  0.00    -0.229 NA
HETATM   13  C9  UNL     1      -0.184  -2.010  -2.233  1.00  0.00     0.229 A 
HETATM   14  N3  UNL     1      -0.730  -2.156  -1.093  1.00  0.00    -0.270 NA
HETATM   15  C10 UNL     1      -0.198  -2.197   0.216  1.00  0.00     0.180 A 
HETATM   16  C11 UNL     1      -0.709  -0.966   0.924  1.00  0.00     0.101 C 
HETATM   17  C20 UNL     1       1.280  -2.029   0.314  1.00  0.00     0.093 A 
HETATM   18  C15 UNL     1       0.216  -0.211   1.451  1.00  0.00     0.078 C 
HETATM   19  C19 UNL     1       1.510  -0.843   1.170  1.00  0.00     0.082 C 
BRANCH  16  20
HETATM   20  O1  UNL     1      -2.065  -0.707   0.981  1.00  0.00    -0.349 OA
BRANCH  20  21
HETATM   21  C12 UNL     1      -2.984  -1.020  -0.051  1.00  0.00     0.201 C 
BRANCH  21  22
HETATM   22  C13 UNL     1      -4.399  -0.731   0.452  1.00  0.00     0.193 C 
BRANCH  22  23
HETATM   23  O2  UNL     1      -5.282  -1.038  -0.554  1.00  0.00    -0.394 OA
HETATM   24  C14 UNL     1      -6.624  -0.827  -0.226  1.00  0.00     0.201 C 
ENDBRANCH  22  23
ENDBRANCH  21  22
ENDBRANCH  20  21
ENDBRANCH  16  20
BRANCH  18  25
HETATM   25  O3  UNL     1       0.187   0.967   2.163  1.00  0.00    -0.351 OA
BRANCH  25  26
HETATM   26  C16 UNL     1      -0.937   1.437   2.911  1.00  0.00     0.201 C 
BRANCH  26  27
HETATM   27  C17 UNL     1      -0.831   2.893   3.221  1.00  0.00     0.193 C 
BRANCH  27  28
HETATM   28  O4  UNL     1      -1.909   3.361   3.928  1.00  0.00    -0.394 OA
HETATM   29  C18 UNL     1      -2.066   2.736   5.130  1.00  0.00     0.201 C 
ENDBRANCH  27  28
ENDBRANCH  26  27
ENDBRANCH  25  26
ENDBRANCH  18  25
ENDBRANCH   9  11
ENDBRANCH   7   9
TORSDOF 10
