REMARK  11 active torsions:
REMARK  status: ('A' for Active; 'I' for Inactive)
REMARK    1  A    between atoms: C2_2  and  C3_3 
REMARK    2  A    between atoms: C7_7  and  N1_8 
REMARK    3  A    between atoms: N1_8  and  C8_9 
REMARK    4  A    between atoms: C13_15  and  O1_16 
REMARK    5  A    between atoms: O1_16  and  C14_17 
REMARK    6  A    between atoms: C14_17  and  C15_18 
REMARK    7  A    between atoms: C15_18  and  O2_19 
REMARK    8  A    between atoms: C17_21  and  O3_22 
REMARK    9  A    between atoms: O3_22  and  C18_23 
REMARK   10  A    between atoms: C18_23  and  C19_24 
REMARK   11  A    between atoms: C19_24  and  O4_25 
ROOT
HETATM    1  C8  UNL     1      -1.537  -1.290  -0.761  1.00  0.00     0.043 A 
HETATM    2  C9  UNL     1      -1.987  -2.526  -1.159  1.00  0.00     0.049 A 
HETATM    3  C10 UNL     1      -1.106  -3.595  -1.355  1.00  0.00     0.119 A 
HETATM    4  N2  UNL     1       0.217  -3.414  -1.151  1.00  0.00    -0.260 NA
HETATM    5  C11 UNL     1       0.709  -2.216  -0.759  1.00  0.00     0.071 A 
HETATM    6  C12 UNL     1       2.069  -2.061  -0.558  1.00  0.00     0.072 A 
HETATM    7  C13 UNL     1       2.592  -0.851  -0.159  1.00  0.00     0.104 A 
HETATM    8  C17 UNL     1       1.690   0.177   0.023  1.00  0.00     0.103 A 
HETATM    9  C21 UNL     1       0.330   0.040  -0.173  1.00  0.00     0.055 A 
HETATM   10  C22 UNL     1      -0.179  -1.177  -0.572  1.00  0.00     0.022 A 
ENDROOT
BRANCH   1  11
HETATM   11  N1  UNL     1      -2.476  -0.242  -0.575  1.00  0.00    -0.378 N 
HETATM   12  H10 UNL     1      -2.296   0.728  -0.290  1.00  0.00     0.160 HD
BRANCH  11  13
HETATM   13  C7  UNL     1      -3.871  -0.569  -0.816  1.00  0.00     0.134 A 
HETATM   14  C3  UNL     1      -4.768   0.587  -0.633  1.00  0.00    -0.054 A 
HETATM   15  C4  UNL     1      -5.644   0.399   0.353  1.00  0.00     0.005 A 
HETATM   16  C5  UNL     1      -5.388  -0.941   0.920  1.00  0.00    -0.001 A 
HETATM   17  C6  UNL     1      -4.381  -1.496   0.259  1.00  0.00     0.003 A 
BRANCH  14  18
HETATM   18  C2  UNL     1      -4.525   1.717  -1.568  1.00  0.00     0.032 C 
HETATM   19  C1  UNL     1      -5.533   2.826  -1.245  1.00  0.00     0.010 C 
ENDBRANCH  14  18
ENDBRANCH  11  13
ENDBRANCH   1  11
BRANCH   8  20
HETATM   20  O3  UNL     1       2.202   1.408   0.426  1.00  0.00    -0.346 OA
BRANCH  20  21
HETATM   21  C18 UNL     1       1.363   2.534   0.643  1.00  0.00     0.201 C 
BRANCH  21  22
HETATM   22  C19 UNL     1       2.119   3.745   1.069  1.00  0.00     0.193 C 
BRANCH  22  23
HETATM   23  O4  UNL     1       1.240   4.798   1.256  1.00  0.00    -0.394 OA
HETATM   24  C20 UNL     1       0.270   4.604   2.204  1.00  0.00     0.201 C 
ENDBRANCH  22  23
ENDBRANCH  21  22
ENDBRANCH  20  21
ENDBRANCH   8  20
BRANCH   7  25
HETATM   25  O1  UNL     1       3.958  -0.684   0.046  1.00  0.00    -0.346 OA
BRANCH  25  26
HETATM   26  C14 UNL     1       4.770  -1.844  -0.184  1.00  0.00     0.201 C 
BRANCH  26  27
HETATM   27  C15 UNL     1       6.210  -1.543   0.068  1.00  0.00     0.193 C 
BRANCH  27  28
HETATM   28  O2  UNL     1       6.968  -2.668  -0.159  1.00  0.00    -0.394 OA
HETATM   29  C16 UNL     1       6.658  -3.753   0.628  1.00  0.00     0.201 C 
ENDBRANCH  27  28
ENDBRANCH  26  27
ENDBRANCH  25  26
ENDBRANCH   7  25
TORSDOF 11
