REMARK  7 active torsions:
REMARK  status: ('A' for Active; 'I' for Inactive)
REMARK    1  A    between atoms: N1_2  and  C3_4 
REMARK    2  A    between atoms: C3_4  and  C4_5 
REMARK    3  A    between atoms: C4_5  and  C5_6 
REMARK    4  A    between atoms: C5_6  and  C6_7 
REMARK       I    between atoms: C6_7  and  N2_9 
REMARK    5  A    between atoms: N2_9  and  C7_10 
REMARK    6  A    between atoms: C13_17  and  C14_18 
REMARK    7  A    between atoms: C17_21  and  N4_22 
ROOT
HETATM    1  C7  UNL     1      -0.561   2.146   0.073  1.00  0.00     0.035 A 
HETATM    2  C8  UNL     1      -0.720   3.132   1.052  1.00  0.00     0.032 A 
HETATM    3  C9  UNL     1      -1.889   3.082   1.807  1.00  0.00     0.035 A 
HETATM    4  C10 UNL     1      -2.845   2.109   1.603  1.00  0.00     0.067 A 
HETATM    5  N3  UNL     1      -3.989   2.095   2.342  1.00  0.00    -0.260 NA
HETATM    6  C11 UNL     1      -4.912   1.122   2.086  1.00  0.00     0.118 A 
HETATM    7  C12 UNL     1      -4.712   0.178   1.122  1.00  0.00     0.028 A 
HETATM    8  C13 UNL     1      -3.567   0.120   0.321  1.00  0.00    -0.033 A 
HETATM    9  C19 UNL     1      -2.695   1.135   0.643  1.00  0.00     0.002 A 
HETATM   10  C20 UNL     1      -1.539   1.199  -0.094  1.00  0.00     0.044 A 
ENDROOT
BRANCH   1  11
HETATM   11  N2  UNL     1       0.642   2.205  -0.698  1.00  0.00    -0.327 N 
HETATM   12  C6  UNL     1       1.885   1.566  -0.392  1.00  0.00     0.222 C 
HETATM   13  O1  UNL     1       1.708   0.953   0.670  1.00  0.00    -0.273 OA
HETATM   14  H13 UNL     1       0.278   2.832  -1.478  1.00  0.00     0.169 HD
BRANCH  12  15
HETATM   15  C5  UNL     1       2.867   1.888  -1.451  1.00  0.00     0.105 C 
BRANCH  15  16
HETATM   16  C4  UNL     1       4.189   1.212  -1.131  1.00  0.00     0.039 C 
BRANCH  16  17
HETATM   17  C3  UNL     1       3.942  -0.270  -1.082  1.00  0.00     0.271 C 
BRANCH  17  18
HETATM   18  N1  UNL     1       5.163  -0.973  -0.781  1.00  0.00     0.080 N 
HETATM   19  C1  UNL     1       4.949  -2.395  -0.729  1.00  0.00     0.309 C 
HETATM   20  C2  UNL     1       5.727  -0.561   0.469  1.00  0.00     0.309 C 
ENDBRANCH  17  18
ENDBRANCH  16  17
ENDBRANCH  15  16
ENDBRANCH  12  15
ENDBRANCH   1  11
BRANCH   8  21
HETATM   21  C14 UNL     1      -3.426  -0.960  -0.631  1.00  0.00     0.067 A 
HETATM   22  C15 UNL     1      -2.145  -1.684  -0.405  1.00  0.00    -0.011 A 
HETATM   23  C16 UNL     1      -2.415  -2.964  -0.072  1.00  0.00     0.025 A 
HETATM   24  C17 UNL     1      -3.876  -3.189  -0.053  1.00  0.00     0.022 A 
HETATM   25  C18 UNL     1      -4.434  -2.010  -0.382  1.00  0.00     0.015 A 
BRANCH  24  26
HETATM   26  N4  UNL     1      -4.802  -4.235   0.199  1.00  0.00    -0.399 N 
HETATM   27  H21 UNL     1      -5.349  -4.802  -0.458  1.00  0.00     0.156 HD
HETATM   28  H22 UNL     1      -5.027  -4.545   1.174  1.00  0.00     0.156 HD
ENDBRANCH  24  26
ENDBRANCH   8  21
TORSDOF 7
