REMARK  8 active torsions:
REMARK  status: ('A' for Active; 'I' for Inactive)
REMARK    1  A    between atoms: N1_2  and  C2_3 
REMARK    2  A    between atoms: C2_3  and  B1_4 
REMARK    3  A    between atoms: B1_4  and  C3_5 
REMARK    4  A    between atoms: C3_5  and  C4_6 
REMARK    5  A    between atoms: C4_6  and  C5_7 
REMARK       I    between atoms: C5_7  and  N2_9 
REMARK    6  A    between atoms: N2_9  and  C6_10 
REMARK    7  A    between atoms: C12_17  and  N4_18 
REMARK    8  A    between atoms: N4_18  and  C13_19 
ROOT
HETATM    1  C6  UNL     1      -0.267  -1.614   0.567  1.00  0.00     0.035 A 
HETATM    2  C7  UNL     1       0.187  -2.864   0.183  1.00  0.00     0.032 A 
HETATM    3  C8  UNL     1      -0.739  -3.849  -0.091  1.00  0.00     0.035 A 
HETATM    4  C9  UNL     1      -2.083  -3.570   0.021  1.00  0.00     0.069 A 
HETATM    5  N3  UNL     1      -2.991  -4.527  -0.240  1.00  0.00    -0.260 NA
HETATM    6  C10 UNL     1      -4.316  -4.336  -0.149  1.00  0.00     0.119 A 
HETATM    7  C11 UNL     1      -4.732  -3.079   0.235  1.00  0.00     0.049 A 
HETATM    8  C12 UNL     1      -3.893  -2.000   0.534  1.00  0.00     0.046 A 
HETATM    9  C19 UNL     1      -2.565  -2.336   0.401  1.00  0.00     0.021 A 
HETATM   10  C20 UNL     1      -1.608  -1.380   0.666  1.00  0.00     0.045 A 
ENDROOT
BRANCH   1  11
HETATM   11  N2  UNL     1       0.770  -0.675   0.825  1.00  0.00    -0.327 N 
HETATM   12  C5  UNL     1       1.381   0.221  -0.087  1.00  0.00     0.224 C 
HETATM   13  O1  UNL     1       0.957   0.189  -1.291  1.00  0.00    -0.273 OA
HETATM   14  H10 UNL     1       0.985  -0.792   1.853  1.00  0.00     0.169 HD
BRANCH  12  15
HETATM   15  C4  UNL     1       2.438   1.057   0.554  1.00  0.00     0.114 C 
BRANCH  15  16
HETATM   16  C3  UNL     1       3.005   1.951  -0.491  1.00  0.00    -0.101 C 
BRANCH  16  17
HETATM   17  B1  UNL     1       4.752   2.305  -0.430  1.00  0.00     0.201 B 
BRANCH  17  18
HETATM   18  C2  UNL     1       6.485   2.478  -0.127  1.00  0.00     0.208 C 
BRANCH  18  19
HETATM   19  N1  UNL     1       7.110   1.179  -0.310  1.00  0.00     0.070 N 
HETATM   20  C1  UNL     1       8.532   1.192  -0.089  1.00  0.00     0.305 C 
HETATM   21  H4  UNL     1       6.814   0.824  -1.242  1.00  0.00     0.314 HD
ENDBRANCH  18  19
ENDBRANCH  17  18
ENDBRANCH  16  17
ENDBRANCH  15  16
ENDBRANCH  12  15
ENDBRANCH   1  11
BRANCH   8  22
HETATM   22  N4  UNL     1      -4.377  -0.740   0.924  1.00  0.00    -0.355 N 
HETATM   23  H15 UNL     1      -4.883  -0.960   1.800  1.00  0.00     0.166 HD
BRANCH  22  24
HETATM   24  C13 UNL     1      -4.295   0.555   0.398  1.00  0.00     0.033 A 
HETATM   25  C14 UNL     1      -3.730   0.892  -0.806  1.00  0.00     0.029 A 
HETATM   26  C15 UNL     1      -3.658   2.184  -1.310  1.00  0.00     0.004 A 
HETATM   27  C16 UNL     1      -4.191   3.195  -0.547  1.00  0.00     0.019 A 
HETATM   28  C17 UNL     1      -4.762   2.867   0.665  1.00  0.00     0.013 A 
HETATM   29 BR1  UNL     1      -5.508   4.266   1.738  1.00  0.00    -0.051 Br
HETATM   30  C18 UNL     1      -4.824   1.581   1.148  1.00  0.00     0.048 A 
ENDBRANCH  22  24
ENDBRANCH   8  22
TORSDOF 8
