REMARK  3 active torsions:
REMARK  status: ('A' for Active; 'I' for Inactive)
REMARK       I    between atoms: C2_2  and  N1_4 
REMARK    1  A    between atoms: N1_4  and  C3_5 
REMARK    2  A    between atoms: C8_12  and  N4_13 
REMARK    3  A    between atoms: N4_13  and  C9_14 
ROOT
HETATM    1  C3  UNL     1       2.222  -0.522   0.199  1.00  0.00     0.035 A 
HETATM    2  C4  UNL     1       2.803  -1.673   0.717  1.00  0.00     0.032 A 
HETATM    3  C5  UNL     1       2.040  -2.816   0.805  1.00  0.00     0.035 A 
HETATM    4  C6  UNL     1       0.734  -2.849   0.399  1.00  0.00     0.072 A 
HETATM    5  N2  UNL     1      -0.017  -3.958   0.481  1.00  0.00    -0.241 NA
HETATM    6  C7  UNL     1      -1.302  -3.972   0.076  1.00  0.00     0.236 A 
HETATM    7  N3  UNL     1      -1.848  -2.851  -0.423  1.00  0.00    -0.224 NA
HETATM    8  C8  UNL     1      -1.147  -1.686  -0.537  1.00  0.00     0.142 A 
HETATM    9  C15 UNL     1       0.170  -1.693  -0.115  1.00  0.00     0.041 A 
HETATM   10  C16 UNL     1       0.901  -0.512  -0.224  1.00  0.00     0.047 A 
ENDROOT
BRANCH   8  11
HETATM   11  N4  UNL     1      -1.786  -0.521  -1.077  1.00  0.00    -0.340 N 
HETATM   12  H8  UNL     1      -1.659  -0.482  -2.131  1.00  0.00     0.167 HD
BRANCH  11  13
HETATM   13  C9  UNL     1      -2.511   0.505  -0.415  1.00  0.00     0.035 A 
HETATM   14  C10 UNL     1      -3.065   1.571  -1.112  1.00  0.00     0.029 A 
HETATM   15  C11 UNL     1      -3.743   2.497  -0.358  1.00  0.00     0.004 A 
HETATM   16  C12 UNL     1      -3.907   2.439   1.023  1.00  0.00     0.019 A 
HETATM   17  C13 UNL     1      -3.332   1.352   1.665  1.00  0.00     0.013 A 
HETATM   18 BR1  UNL     1      -3.560   1.276   3.566  1.00  0.00    -0.051 Br
HETATM   19  C14 UNL     1      -2.639   0.390   0.961  1.00  0.00     0.048 A 
ENDBRANCH  11  13
ENDBRANCH   8  11
BRANCH   1  20
HETATM   20  N1  UNL     1       2.903   0.720   0.056  1.00  0.00    -0.327 N 
HETATM   21  C2  UNL     1       3.658   1.268  -0.990  1.00  0.00     0.218 C 
HETATM   22  C1  UNL     1       4.256   2.621  -0.834  1.00  0.00     0.117 C 
HETATM   23  O1  UNL     1       3.896   0.734  -2.080  1.00  0.00    -0.274 OA
HETATM   24  H4  UNL     1       2.718   1.202   0.976  1.00  0.00     0.169 HD
ENDBRANCH   1  20
TORSDOF 3
