REMARK  6 active torsions:
REMARK  status: ('A' for Active; 'I' for Inactive)
REMARK    1  A    between atoms: C1_2  and  C2_3 
REMARK    2  A    between atoms: C2_3  and  N1_4 
REMARK    3  A    between atoms: N1_4  and  C3_5 
REMARK    4  A    between atoms: C3_5  and  C4_6 
REMARK    5  A    between atoms: C9_13  and  N4_14 
REMARK    6  A    between atoms: N4_14  and  C10_15 
ROOT
HETATM    1  C4  UNL     1       2.196  -0.145  -1.370  1.00  0.00     0.034 C 
HETATM    2  C5  UNL     1       2.376   0.903  -2.162  1.00  0.00     0.028 C 
HETATM    3  C6  UNL     1       1.462   2.030  -2.220  1.00  0.00     0.032 C 
HETATM    4  C7  UNL     1       0.400   2.062  -1.455  1.00  0.00     0.066 C 
HETATM    5  N2  UNL     1      -0.506   3.180  -1.543  1.00  0.00    -0.244 NA
HETATM    6  C8  UNL     1      -1.678   3.036  -0.970  1.00  0.00     0.235 C 
HETATM    7  N3  UNL     1      -2.003   1.855  -0.290  1.00  0.00    -0.226 NA
HETATM    8  C9  UNL     1      -1.236   0.863  -0.138  1.00  0.00     0.134 C 
HETATM    9  C16 UNL     1       0.196   1.005  -0.481  1.00  0.00     0.204 C 
HETATM   10  N5  UNL     1       0.955  -0.181  -0.631  1.00  0.00    -0.375 N 
HETATM   11  H16 UNL     1       0.643  -1.091  -0.224  1.00  0.00     0.160 HD
ENDROOT
BRANCH   8  12
HETATM   12  N4  UNL     1      -1.549  -0.341   0.523  1.00  0.00    -0.342 N 
HETATM   13  H10 UNL     1      -0.970  -1.081   0.956  1.00  0.00     0.167 HD
BRANCH  12  14
HETATM   14  C10 UNL     1      -2.960  -0.626   0.644  1.00  0.00     0.034 A 
HETATM   15  C11 UNL     1      -3.616  -1.038  -0.513  1.00  0.00     0.029 A 
HETATM   16  C12 UNL     1      -4.966  -1.330  -0.409  1.00  0.00     0.004 A 
HETATM   17  C13 UNL     1      -5.639  -1.217   0.791  1.00  0.00     0.019 A 
HETATM   18  C14 UNL     1      -4.972  -0.807   1.923  1.00  0.00     0.013 A 
HETATM   19 BR1  UNL     1      -5.757  -0.607   3.656  1.00  0.00    -0.051 Br
HETATM   20  C15 UNL     1      -3.644  -0.519   1.829  1.00  0.00     0.048 A 
ENDBRANCH  12  14
ENDBRANCH   8  12
BRANCH   1  21
HETATM   21  C3  UNL     1       3.062  -1.349  -1.217  1.00  0.00     0.326 C 
BRANCH  21  22
HETATM   22  N1  UNL     1       3.539  -1.467   0.152  1.00  0.00     0.095 N 
HETATM   23  H4  UNL     1       4.052  -2.382   0.203  1.00  0.00     0.316 HD
BRANCH  22  24
HETATM   24  C2  UNL     1       4.469  -0.422   0.507  1.00  0.00     0.339 C 
BRANCH  24  25
HETATM   25  C1  UNL     1       4.927  -0.524   1.933  1.00  0.00     0.261 C 
HETATM   26  O1  UNL     1       5.704   0.338   2.259  1.00  0.00    -0.305 OA
ENDBRANCH  24  25
ENDBRANCH  22  24
ENDBRANCH  21  22
ENDBRANCH   1  21
TORSDOF 6
