REMARK  9 active torsions:
REMARK  status: ('A' for Active; 'I' for Inactive)
REMARK    1  A    between atoms: C2_2  and  C3_3 
REMARK    2  A    between atoms: C3_3  and  C4_4 
REMARK    3  A    between atoms: C3_3  and  N3_18 
REMARK    4  A    between atoms: C9_10  and  N2_11 
REMARK    5  A    between atoms: N2_11  and  C10_12 
REMARK       I    between atoms: N3_18  and  C15_19 
REMARK    6  A    between atoms: C15_19  and  C16_21 
REMARK    7  A    between atoms: C16_21  and  C17_22 
REMARK    8  A    between atoms: C17_22  and  C18_23 
REMARK    9  A    between atoms: C18_23  and  N4_24 
ROOT
HETATM    1  C4  UNL     1      -1.665  -0.890   0.287  1.00  0.00     0.009 C 
HETATM    2  C5  UNL     1      -1.636  -1.965  -0.451  1.00  0.00    -0.013 A 
HETATM    3  C6  UNL     1      -0.599  -2.973  -0.111  1.00  0.00     0.189 A 
HETATM    4  N1  UNL     1      -0.710  -4.105  -0.981  1.00  0.00    -0.297 NA
HETATM    5  C7  UNL     1      -1.566  -4.218  -1.907  1.00  0.00     0.113 A 
HETATM    6  C8  UNL     1      -2.565  -3.232  -2.236  1.00  0.00     0.049 A 
HETATM    7  C9  UNL     1      -2.601  -2.123  -1.523  1.00  0.00     0.041 A 
ENDROOT
BRANCH   1   8
HETATM    8  C3  UNL     1      -0.763  -0.614   1.411  1.00  0.00     0.107 C 
BRANCH   8   9
HETATM    9  C2  UNL     1      -1.465  -0.525   2.752  1.00  0.00     0.025 C 
HETATM   10  C1  UNL     1      -2.503   0.562   2.805  1.00  0.00     0.007 C 
ENDBRANCH   8   9
BRANCH   8  11
HETATM   11  N3  UNL     1       0.036   0.580   1.232  1.00  0.00    -0.353 N 
HETATM   12  C15 UNL     1       1.445   0.494   1.224  1.00  0.00     0.218 C 
HETATM   13  O1  UNL     1       2.053  -0.596   1.362  1.00  0.00    -0.274 OA
HETATM   14  H17 UNL     1      -0.573   1.418   1.121  1.00  0.00     0.163 HD
BRANCH  12  15
HETATM   15  C16 UNL     1       2.140   1.793   1.041  1.00  0.00     0.104 C 
BRANCH  15  16
HETATM   16  C17 UNL     1       3.634   1.673   0.983  1.00  0.00     0.039 C 
BRANCH  16  17
HETATM   17  C18 UNL     1       4.144   0.824  -0.139  1.00  0.00     0.271 C 
BRANCH  17  18
HETATM   18  N4  UNL     1       5.610   0.834  -0.022  1.00  0.00     0.080 N 
HETATM   19  C19 UNL     1       6.149   2.132  -0.312  1.00  0.00     0.309 C 
HETATM   20  C20 UNL     1       6.143  -0.170  -0.915  1.00  0.00     0.309 C 
ENDBRANCH  17  18
ENDBRANCH  16  17
ENDBRANCH  15  16
ENDBRANCH  12  15
ENDBRANCH   8  11
ENDBRANCH   1   8
BRANCH   7  21
HETATM   21  N2  UNL     1      -3.603  -1.196  -1.893  1.00  0.00    -0.358 N 
HETATM   22  H12 UNL     1      -4.217  -1.346  -2.717  1.00  0.00     0.166 HD
BRANCH  21  23
HETATM   23  C10 UNL     1      -4.133   0.042  -1.465  1.00  0.00     0.030 A 
HETATM   24  C11 UNL     1      -4.977   0.291  -0.480  1.00  0.00     0.033 A 
HETATM   25 BR1  UNL     1      -5.670  -1.133   0.616  1.00  0.00    -0.049 Br
HETATM   26  C12 UNL     1      -5.298   1.696  -0.334  1.00  0.00     0.017 A 
HETATM   27  C13 UNL     1      -4.605   2.304  -1.284  1.00  0.00    -0.019 A 
HETATM   28  C14 UNL     1      -3.797   1.366  -2.103  1.00  0.00     0.085 A 
ENDBRANCH  21  23
ENDBRANCH   7  21
TORSDOF 9
