REMARK  4 active torsions:
REMARK  status: ('A' for Active; 'I' for Inactive)
REMARK    1  A    between atoms: C2_2  and  C3_3 
REMARK       I    between atoms: C3_3  and  N1_5 
REMARK    2  A    between atoms: N1_5  and  C4_6 
REMARK    3  A    between atoms: C10_13  and  N3_14 
REMARK    4  A    between atoms: N3_14  and  C11_15 
ROOT
HETATM    1  C4  UNL     1       2.339  -0.322   0.131  1.00  0.00     0.074 C 
HETATM    2  C5  UNL     1       2.547   0.933   0.413  1.00  0.00     0.039 C 
HETATM    3  C6  UNL     1       1.542   1.878   0.831  1.00  0.00     0.031 C 
HETATM    4  C7  UNL     1       0.291   1.675   0.984  1.00  0.00     0.049 A 
HETATM    5  N2  UNL     1      -1.001   1.714   1.213  1.00  0.00    -0.335 N 
HETATM    6  C8  UNL     1      -1.928   2.390   1.729  1.00  0.00     0.095 C 
HETATM    7  C9  UNL     1      -2.628   1.193   1.194  1.00  0.00     0.045 C 
HETATM    8  C10 UNL     1      -1.785   0.346   0.578  1.00  0.00     0.047 C 
HETATM    9  C17 UNL     1      -0.378   0.507   0.295  1.00  0.00     0.219 A 
HETATM   10  S1  UNL     1       0.695  -0.915   0.474  1.00  0.00    -0.077 SA
ENDROOT
BRANCH   8  11
HETATM   11  N3  UNL     1      -2.346  -0.867   0.016  1.00  0.00    -0.357 N 
HETATM   12  H11 UNL     1      -1.935  -1.798  -0.168  1.00  0.00     0.166 HD
BRANCH  11  13
HETATM   13  C11 UNL     1      -3.739  -0.743  -0.361  1.00  0.00     0.033 A 
HETATM   14  C12 UNL     1      -4.825  -1.238   0.324  1.00  0.00     0.029 A 
HETATM   15  C13 UNL     1      -6.097  -0.971  -0.195  1.00  0.00     0.004 A 
HETATM   16  C14 UNL     1      -6.316  -0.240  -1.352  1.00  0.00     0.019 A 
HETATM   17  C15 UNL     1      -5.160   0.226  -1.989  1.00  0.00     0.013 A 
HETATM   18 BR1  UNL     1      -5.435   1.246  -3.594  1.00  0.00    -0.051 Br
HETATM   19  C16 UNL     1      -3.876   0.004  -1.539  1.00  0.00     0.048 A 
ENDBRANCH  11  13
ENDBRANCH   8  11
BRANCH   1  20
HETATM   20  N1  UNL     1       3.273  -1.261  -0.285  1.00  0.00    -0.322 N 
HETATM   21  C3  UNL     1       4.639  -0.983  -0.422  1.00  0.00     0.222 C 
HETATM   22  O1  UNL     1       5.262   0.085  -0.214  1.00  0.00    -0.273 OA
HETATM   23  H6  UNL     1       3.194  -2.235  -0.549  1.00  0.00     0.169 HD
BRANCH  21  24
HETATM   24  C2  UNL     1       5.930  -1.546  -0.790  1.00  0.00     0.098 C 
HETATM   25  C1  UNL     1       7.009  -0.469  -0.570  1.00  0.00     0.014 C 
ENDBRANCH  21  24
ENDBRANCH   1  20
TORSDOF 4
