REMARK  5 active torsions:
REMARK  status: ('A' for Active; 'I' for Inactive)
REMARK    1  A    between atoms: C11_16  and  C12_17 
REMARK    2  A    between atoms: C13_18  and  N5_19 
REMARK    3  A    between atoms: N5_19  and  C14_20 
REMARK    4  A    between atoms: C14_20  and  C15_21 
REMARK    5  A    between atoms: C15_21  and  C16_23 
ROOT
HETATM    1  C1  UNL     1      -0.682   2.522   0.039  1.00  0.00     0.313 A 
HETATM    2  C2  UNL     1      -0.229   1.337   0.141  1.00  0.00     0.229 A 
HETATM    3  N1  UNL     1      -1.286   1.235  -0.869  1.00  0.00     0.029 N 
HETATM    4  N2  UNL     1      -2.647   0.906  -0.628  1.00  0.00    -0.215 N 
HETATM    5  C3  UNL     1      -3.619   0.054  -1.186  1.00  0.00     0.083 A 
HETATM    6  C4  UNL     1      -4.912   0.276  -0.772  1.00  0.00     0.052 A 
HETATM    7  C5  UNL     1      -5.864  -0.551  -1.328  1.00  0.00     0.013 A 
HETATM    8 BR1  UNL     1      -7.696  -0.322  -0.813  1.00  0.00    -0.051 Br
HETATM    9  C6  UNL     1      -5.611  -1.552  -2.244  1.00  0.00     0.021 A 
HETATM   10  C7  UNL     1      -4.302  -1.748  -2.639  1.00  0.00     0.033 A 
HETATM   11  C8  UNL     1      -3.338  -0.935  -2.096  1.00  0.00     0.061 A 
HETATM   12  N3  UNL     1      -2.013  -1.192  -2.536  1.00  0.00    -0.349 N 
HETATM   13  C9  UNL     1      -1.046  -1.512  -1.558  1.00  0.00     0.207 C 
HETATM   14  N4  UNL     1      -0.241  -1.300  -0.617  1.00  0.00    -0.249 NA
HETATM   15  C10 UNL     1      -0.052  -0.050  -0.080  1.00  0.00     0.066 A 
HETATM   16  C11 UNL     1       0.848   0.156   0.845  1.00  0.00     0.107 A 
HETATM   17  H3  UNL     1      -1.475   1.321  -1.919  1.00  0.00     0.310 HD
HETATM   18  H4  UNL     1      -2.859   1.515   0.189  1.00  0.00     0.194 HD
HETATM   19  H8  UNL     1      -1.852  -1.130  -3.559  1.00  0.00     0.167 HD
ENDROOT
BRANCH  16  20
HETATM   20  C12 UNL     1       1.676   0.796   1.823  1.00  0.00     0.004 C 
HETATM   21  C13 UNL     1       2.624   0.780   2.732  1.00  0.00     0.080 C 
BRANCH  21  22
HETATM   22  N5  UNL     1       3.413  -0.307   3.187  1.00  0.00    -0.392 N 
HETATM   23  H13 UNL     1       2.904  -1.050   3.685  1.00  0.00     0.159 HD
BRANCH  22  24
HETATM   24  C14 UNL     1       4.849  -0.230   2.888  1.00  0.00     0.200 C 
BRANCH  24  25
HETATM   25  C15 UNL     1       4.978  -0.375   1.413  1.00  0.00     0.172 C 
HETATM   26  O1  UNL     1       4.080  -0.528   0.616  1.00  0.00    -0.294 OA
BRANCH  25  27
HETATM   27  C16 UNL     1       6.357  -0.326   0.869  1.00  0.00     0.302 C 
HETATM   28  F1  UNL     1       6.725   0.981   0.547  1.00  0.00    -0.247 F 
ENDBRANCH  25  27
ENDBRANCH  24  25
ENDBRANCH  22  24
ENDBRANCH  21  22
ENDBRANCH  16  20
TORSDOF 5
