REMARK  7 active torsions:
REMARK  status: ('A' for Active; 'I' for Inactive)
REMARK    1  A    between atoms: C2_2  and  C3_3 
REMARK    2  A    between atoms: C3_3  and  N1_4 
REMARK    3  A    between atoms: C4_5  and  C5_6 
REMARK    4  A    between atoms: N2_7  and  C6_8 
REMARK    5  A    between atoms: C6_8  and  C11_15 
REMARK    6  A    between atoms: C7_9  and  N3_10 
REMARK       I    between atoms: N3_10  and  C8_11 
REMARK    7  A    between atoms: C8_11  and  C9_13 
ROOT
HETATM    1  C6  UNL     1      -0.504   1.179   0.469  1.00  0.00     0.082 C 
HETATM    2  C7  UNL     1      -1.491   0.404   0.056  1.00  0.00     0.123 C 
ENDROOT
BRANCH   1   3
HETATM    3  N2  UNL     1       0.379   0.689   1.462  1.00  0.00    -0.259 NA
HETATM    4  C5  UNL     1       1.335  -0.086   1.040  1.00  0.00     0.119 C 
BRANCH   4   5
HETATM    5  C4  UNL     1       1.543  -0.465  -0.352  1.00  0.00     0.042 C 
HETATM    6  C3  UNL     1       2.529  -1.256  -0.743  1.00  0.00     0.003 C 
BRANCH   6   7
HETATM    7  C2  UNL     1       3.475  -1.797   0.226  1.00  0.00    -0.003 C 
HETATM    8  C1  UNL     1       4.448  -2.584  -0.207  1.00  0.00     0.033 C 
ENDBRANCH   6   7
BRANCH   6   9
HETATM    9  N1  UNL     1       2.637  -1.562  -2.127  1.00  0.00    -0.303 NA
HETATM   10  H4  UNL     1       2.769  -0.779  -2.826  1.00  0.00     0.124 HD
HETATM   11  H5  UNL     1       2.768  -0.774  -2.810  1.00  0.00     0.124 HD
ENDBRANCH   6   9
ENDBRANCH   4   5
ENDBRANCH   1   3
BRANCH   1  12
HETATM   12  C11 UNL     1      -0.264   2.516  -0.036  1.00  0.00    -0.005 A 
HETATM   13  C12 UNL     1       0.780   3.316   0.411  1.00  0.00     0.014 A 
HETATM   14  C13 UNL     1       1.014   4.588  -0.065  1.00  0.00     0.002 A 
HETATM   15  C14 UNL     1       0.198   5.129  -1.030  1.00  0.00     0.019 A 
HETATM   16  C15 UNL     1      -0.855   4.383  -1.514  1.00  0.00     0.011 A 
HETATM   17 BR1  UNL     1      -1.952   5.164  -2.840  1.00  0.00    -0.051 Br
HETATM   18  C16 UNL     1      -1.041   3.117  -1.001  1.00  0.00     0.032 A 
ENDBRANCH   1  12
BRANCH   2  19
HETATM   19  N3  UNL     1      -1.616  -0.890   0.634  1.00  0.00    -0.335 N 
HETATM   20  C8  UNL     1      -2.672  -1.778   0.224  1.00  0.00     0.221 C 
HETATM   21  O1  UNL     1      -3.459  -1.336  -0.665  1.00  0.00    -0.273 OA
HETATM   22  H9  UNL     1      -0.963  -1.238   1.361  1.00  0.00     0.168 HD
BRANCH  20  23
HETATM   23  C9  UNL     1      -2.867  -3.142   0.781  1.00  0.00     0.098 C 
HETATM   24  C10 UNL     1      -4.072  -3.727   0.087  1.00  0.00     0.014 C 
ENDBRANCH  20  23
ENDBRANCH   2  19
TORSDOF 7
