REMARK  2 active torsions:
REMARK  status: ('A' for Active; 'I' for Inactive)
REMARK    1  A    between atoms: C2_2  and  C3_3 
REMARK       I    between atoms: C3_3  and  N1_5 
REMARK    2  A    between atoms: N1_5  and  C4_6 
ROOT
HETATM    1  C4  UNL     1       1.353   1.338   0.692  1.00  0.00     0.032 A 
HETATM    2  C5  UNL     1       0.844   2.026   1.713  1.00  0.00     0.009 A 
HETATM    3  C6  UNL     1      -0.553   2.181   2.193  1.00  0.00     0.089 A 
HETATM    4  C7  UNL     1      -1.431   1.364   1.332  1.00  0.00     0.043 A 
HETATM    5  N2  UNL     1      -2.705   1.344   1.641  1.00  0.00    -0.292 NA
HETATM    6  C8  UNL     1      -3.691   0.587   0.896  1.00  0.00     0.158 C 
HETATM    7  C9  UNL     1      -3.046  -0.605   0.193  1.00  0.00     0.044 A 
HETATM    8  C10 UNL     1      -4.044  -1.347  -0.651  1.00  0.00     0.038 A 
HETATM    9  C11 UNL     1      -3.610  -1.314  -2.063  1.00  0.00    -0.025 A 
HETATM   10  C12 UNL     1      -2.621  -0.838  -2.799  1.00  0.00     0.015 A 
HETATM   11  C13 UNL     1      -1.648  -0.116  -1.957  1.00  0.00     0.018 A 
HETATM   12 BR1  UNL     1      -0.191   0.704  -2.862  1.00  0.00    -0.051 Br
HETATM   13  C14 UNL     1      -1.965  -0.100  -0.675  1.00  0.00    -0.022 A 
HETATM   14  C15 UNL     1      -0.973   0.633   0.146  1.00  0.00    -0.001 A 
HETATM   15  C16 UNL     1       0.351   0.606  -0.120  1.00  0.00     0.043 A 
ENDROOT
BRANCH   1  16
HETATM   16  N1  UNL     1       2.730   1.273   0.339  1.00  0.00    -0.327 N 
HETATM   17  C3  UNL     1       3.481   0.065   0.298  1.00  0.00     0.221 C 
HETATM   18  O1  UNL     1       3.124  -1.113   0.543  1.00  0.00    -0.273 OA
HETATM   19  H6  UNL     1       3.157   2.173   0.111  1.00  0.00     0.169 HD
BRANCH  17  20
HETATM   20  C2  UNL     1       4.903   0.184  -0.091  1.00  0.00     0.098 C 
HETATM   21  C1  UNL     1       5.601  -1.152  -0.102  1.00  0.00     0.014 C 
ENDBRANCH  17  20
ENDBRANCH   1  16
TORSDOF 2
