REMARK  7 active torsions:
REMARK  status: ('A' for Active; 'I' for Inactive)
REMARK    1  A    between atoms: C3_3  and  N1_4 
REMARK    2  A    between atoms: N1_4  and  C4_5 
REMARK    3  A    between atoms: C12_15  and  C13_16 
REMARK    4  A    between atoms: C13_16  and  C14_17 
REMARK    5  A    between atoms: C15_18  and  N3_19 
REMARK    6  A    between atoms: N3_19  and  C16_20 
REMARK    7  A    between atoms: C16_20  and  C17_21 
ROOT
HETATM    1  C1  UNL     1       0.539   0.174   0.454  1.00  0.00     0.028 C 
HETATM    2  C2  UNL     1       0.699  -1.058   0.056  1.00  0.00     0.010 A 
HETATM    3  C3  UNL     1       1.941  -1.634   0.215  1.00  0.00     0.045 A 
HETATM    4  C10 UNL     1       2.044  -2.942  -0.222  1.00  0.00     0.049 A 
HETATM    5  C11 UNL     1       0.980  -3.622  -0.778  1.00  0.00     0.119 A 
HETATM    6  N2  UNL     1      -0.189  -2.968  -0.888  1.00  0.00    -0.260 NA
HETATM    7  C12 UNL     1      -0.391  -1.695  -0.492  1.00  0.00     0.068 A 
ENDROOT
BRANCH   3   8
HETATM    8  N1  UNL     1       3.066  -1.011   0.772  1.00  0.00    -0.355 N 
HETATM    9  H3  UNL     1       3.344  -1.576   1.627  1.00  0.00     0.166 HD
BRANCH   8  10
HETATM   10  C4  UNL     1       3.834   0.132   0.436  1.00  0.00     0.033 A 
HETATM   11  C5  UNL     1       4.898   0.525   1.256  1.00  0.00     0.029 A 
HETATM   12  C6  UNL     1       5.583   1.644   0.843  1.00  0.00     0.004 A 
HETATM   13  C7  UNL     1       5.338   2.407  -0.275  1.00  0.00     0.019 A 
HETATM   14  C8  UNL     1       4.275   1.976  -1.053  1.00  0.00     0.013 A 
HETATM   15 BR1  UNL     1       3.878   2.991  -2.622  1.00  0.00    -0.051 Br
HETATM   16  C9  UNL     1       3.543   0.861  -0.699  1.00  0.00     0.048 A 
ENDBRANCH   8  10
ENDBRANCH   3   8
BRANCH   7  17
HETATM   17  C13 UNL     1      -1.580  -1.135  -0.643  1.00  0.00     0.034 C 
BRANCH  17  18
HETATM   18  C14 UNL     1      -2.669  -1.901  -1.237  1.00  0.00     0.019 C 
HETATM   19  C15 UNL     1      -3.865  -1.360  -1.398  1.00  0.00     0.083 C 
BRANCH  19  20
HETATM   20  N3  UNL     1      -4.177  -0.031  -1.017  1.00  0.00    -0.399 N 
HETATM   21  H13 UNL     1      -4.185   0.812  -1.638  1.00  0.00     0.158 HD
BRANCH  20  22
HETATM   22  C16 UNL     1      -4.507   0.093   0.394  1.00  0.00     0.118 C 
BRANCH  22  23
HETATM   23  C17 UNL     1      -4.832   1.527   0.728  1.00  0.00     0.015 C 
HETATM   24  C18 UNL     1      -3.698   2.462   0.452  1.00  0.00     0.006 C 
ENDBRANCH  22  23
ENDBRANCH  20  22
ENDBRANCH  19  20
ENDBRANCH  17  18
ENDBRANCH   7  17
TORSDOF 7
