REMARK  5 active torsions:
REMARK  status: ('A' for Active; 'I' for Inactive)
REMARK    1  A    between atoms: C2_2  and  C3_3 
REMARK    2  A    between atoms: C3_3  and  P1_5 
REMARK    3  A    between atoms: P1_5  and  C4_6 
REMARK    4  A    between atoms: C10_13  and  N2_14 
REMARK    5  A    between atoms: N2_14  and  C11_15 
ROOT
HETATM    1  C4  UNL     1       1.281   0.498  -0.151  1.00  0.00    -0.025 A 
HETATM    2  C5  UNL     1       2.000   1.308  -1.006  1.00  0.00     0.015 A 
HETATM    3  C6  UNL     1       1.368   1.801  -2.154  1.00  0.00     0.033 A 
HETATM    4  C7  UNL     1       0.038   1.491  -2.445  1.00  0.00     0.069 A 
HETATM    5  N1  UNL     1      -0.553   1.968  -3.552  1.00  0.00    -0.260 NA
HETATM    6  C8  UNL     1      -1.833   1.650  -3.811  1.00  0.00     0.119 A 
HETATM    7  C9  UNL     1      -2.506   0.837  -2.922  1.00  0.00     0.049 A 
HETATM    8  C10 UNL     1      -1.935   0.315  -1.754  1.00  0.00     0.046 A 
HETATM    9  C17 UNL     1      -0.620   0.680  -1.552  1.00  0.00     0.020 A 
HETATM   10  C18 UNL     1      -0.035   0.174  -0.411  1.00  0.00     0.028 A 
ENDROOT
BRANCH   8  11
HETATM   11  N2  UNL     1      -2.752  -0.510  -0.937  1.00  0.00    -0.355 N 
HETATM   12  H11 UNL     1      -3.018  -1.322  -1.495  1.00  0.00     0.166 HD
BRANCH  11  13
HETATM   13  C11 UNL     1      -3.179  -0.333   0.407  1.00  0.00     0.033 A 
HETATM   14  C12 UNL     1      -2.965   0.779   1.190  1.00  0.00     0.029 A 
HETATM   15  C13 UNL     1      -3.413   0.871   2.490  1.00  0.00     0.004 A 
HETATM   16  C14 UNL     1      -4.106  -0.163   3.078  1.00  0.00     0.019 A 
HETATM   17  C15 UNL     1      -4.305  -1.254   2.283  1.00  0.00     0.013 A 
HETATM   18 BR1  UNL     1      -5.265  -2.742   3.027  1.00  0.00    -0.051 Br
HETATM   19  C16 UNL     1      -3.871  -1.375   0.984  1.00  0.00     0.048 A 
ENDBRANCH  11  13
ENDBRANCH   8  11
BRANCH   1  20
HETATM   20  P1  UNL     1       2.075  -0.160   1.352  1.00  0.00    -0.022 P 
HETATM   21  H6  UNL     1       1.946   0.831   2.401  1.00  0.00     0.070 HD
BRANCH  20  22
HETATM   22  C3  UNL     1       3.826  -0.562   1.121  1.00  0.00     0.153 C 
HETATM   23  O1  UNL     1       3.458  -1.725   1.016  1.00  0.00    -0.293 OA
BRANCH  22  24
HETATM   24  C2  UNL     1       5.285  -0.625   0.962  1.00  0.00     0.079 C 
HETATM   25  C1  UNL     1       5.746  -2.059   0.738  1.00  0.00     0.013 C 
ENDBRANCH  22  24
ENDBRANCH  20  22
ENDBRANCH   1  20
TORSDOF 5
