REMARK  3 active torsions:
REMARK  status: ('A' for Active; 'I' for Inactive)
REMARK    1  A    between atoms: C2_2  and  N1_3 
REMARK    2  A    between atoms: C10_12  and  N3_13 
REMARK    3  A    between atoms: C15_19  and  O1_20 
ROOT
HETATM    1  N1  UNL     1      -2.728   0.517  -0.156  1.00  0.00     0.117 N 
HETATM    2  C3  UNL     1      -1.784   0.277   0.942  1.00  0.00     0.315 C 
HETATM    3  C4  UNL     1      -0.647  -0.554   0.329  1.00  0.00    -0.007 C 
HETATM    4  C5  UNL     1      -1.073  -1.837   0.102  1.00  0.00    -0.012 C 
HETATM    5  C6  UNL     1      -1.971  -1.613  -1.074  1.00  0.00     0.087 C 
HETATM    6  C7  UNL     1      -2.384  -0.210  -1.343  1.00  0.00     0.347 C 
HETATM    7  N2  UNL     1      -1.568   0.514  -2.293  1.00  0.00    -0.266 NA
HETATM    8  C8  UNL     1      -0.298   0.860  -2.376  1.00  0.00     0.115 C 
HETATM    9  C9  UNL     1       0.751   0.549  -1.326  1.00  0.00     0.049 C 
HETATM   10  C10 UNL     1       0.731  -0.073  -0.093  1.00  0.00     0.041 C 
ENDROOT
BRANCH  10  11
HETATM   11  N3  UNL     1       2.075  -0.038   0.365  1.00  0.00    -0.350 N 
HETATM   12  C11 UNL     1       2.486   1.309   0.709  1.00  0.00     0.154 C 
HETATM   13  C12 UNL     1       3.948   1.454   0.678  1.00  0.00     0.008 C 
HETATM   14  C13 UNL     1       4.734   0.453   0.285  1.00  0.00    -0.009 C 
HETATM   15 BR1  UNL     1       6.632   0.744   0.280  1.00  0.00    -0.056 Br
HETATM   16  C14 UNL     1       4.251  -0.874  -0.150  1.00  0.00     0.099 C 
HETATM   17  C15 UNL     1       2.932  -1.189   0.484  1.00  0.00     0.225 C 
BRANCH  17  18
HETATM   18  O1  UNL     1       2.358  -2.344   0.014  1.00  0.00    -0.376 OA
HETATM   19  H20 UNL     1       2.515  -3.066   0.676  1.00  0.00     0.212 HD
ENDBRANCH  17  18
ENDBRANCH  10  11
BRANCH   1  20
HETATM   20  C2  UNL     1      -4.068   0.371   0.293  1.00  0.00     0.271 C 
HETATM   21  C1  UNL     1      -4.363   1.518   1.265  1.00  0.00     0.037 C 
ENDBRANCH   1  20
TORSDOF 3
