REMARK  6 active torsions:
REMARK  status: ('A' for Active; 'I' for Inactive)
REMARK    1  A    between atoms: C2_2  and  C3_3 
REMARK       I    between atoms: C3_3  and  N1_5 
REMARK    2  A    between atoms: N1_5  and  C4_6 
REMARK    3  A    between atoms: C7_9  and  N2_10 
REMARK    4  A    between atoms: C9_12  and  C10_13 
REMARK    5  A    between atoms: C10_13  and  N3_14 
REMARK    6  A    between atoms: N3_14  and  C11_15 
ROOT
HETATM    1  C4  UNL     1       2.288   0.572   0.403  1.00  0.00     0.035 A 
HETATM    2  C5  UNL     1       2.558   1.905   0.178  1.00  0.00     0.032 A 
HETATM    3  C6  UNL     1       1.475   2.703  -0.098  1.00  0.00     0.032 A 
HETATM    4  C7  UNL     1       0.172   2.217  -0.152  1.00  0.00     0.035 A 
HETATM    5  C9  UNL     1      -0.080   0.866   0.078  1.00  0.00    -0.012 A 
HETATM    6  C17 UNL     1       1.008   0.065   0.355  1.00  0.00     0.040 A 
ENDROOT
BRANCH   5   7
HETATM    7  C10 UNL     1      -1.515   0.567  -0.027  1.00  0.00     0.160 C 
BRANCH   7   8
HETATM    8  N3  UNL     1      -1.788  -0.831   0.209  1.00  0.00    -0.386 N 
HETATM    9  H15 UNL     1      -1.159  -1.656   0.439  1.00  0.00     0.160 HD
BRANCH   8  10
HETATM   10  C11 UNL     1      -3.164  -1.212   0.126  1.00  0.00     0.029 A 
HETATM   11  C12 UNL     1      -3.634  -2.515   0.323  1.00  0.00     0.029 A 
HETATM   12  C13 UNL     1      -4.952  -2.875   0.242  1.00  0.00     0.004 A 
HETATM   13  C14 UNL     1      -5.895  -1.919  -0.048  1.00  0.00     0.019 A 
HETATM   14  C15 UNL     1      -5.523  -0.615  -0.255  1.00  0.00     0.013 A 
HETATM   15 BR1  UNL     1      -6.812   0.735  -0.660  1.00  0.00    -0.051 Br
HETATM   16  C16 UNL     1      -4.181  -0.328  -0.158  1.00  0.00     0.048 A 
ENDBRANCH   8  10
ENDBRANCH   7   8
ENDBRANCH   5   7
BRANCH   4  17
HETATM   17  N2  UNL     1      -0.794   3.233  -0.457  1.00  0.00    -0.394 N 
HETATM   18  C8  UNL     1      -0.494   4.645  -0.694  1.00  0.00     0.146 C 
HETATM   19  H9  UNL     1      -1.783   2.878  -0.500  1.00  0.00     0.159 HD
ENDBRANCH   4  17
BRANCH   1  20
HETATM   20  N1  UNL     1       3.277  -0.407   0.703  1.00  0.00    -0.327 N 
HETATM   21  C3  UNL     1       3.949  -1.166  -0.312  1.00  0.00     0.221 C 
HETATM   22  O1  UNL     1       3.631  -0.934  -1.493  1.00  0.00    -0.273 OA
HETATM   23  H6  UNL     1       3.341  -0.390   1.759  1.00  0.00     0.169 HD
BRANCH  21  24
HETATM   24  C2  UNL     1       4.928  -2.111   0.283  1.00  0.00     0.098 C 
HETATM   25  C1  UNL     1       5.656  -2.927  -0.728  1.00  0.00     0.014 C 
ENDBRANCH  21  24
ENDBRANCH   1  20
TORSDOF 6
