REMARK  4 active torsions:
REMARK  status: ('A' for Active; 'I' for Inactive)
REMARK    1  A    between atoms: C4_5  and  N2_6 
REMARK    2  A    between atoms: N2_6  and  C5_7 
REMARK    3  A    between atoms: C6_8  and  C7_9 
REMARK    4  A    between atoms: C8_10  and  C9_12 
ROOT
HETATM    1  C1  UNL     1      -1.195  -1.734   1.800  1.00  0.00     0.057 C 
HETATM    2  C2  UNL     1      -0.568  -0.538   1.134  1.00  0.00    -0.008 C 
HETATM    3  C3  UNL     1       0.436  -1.028   0.434  1.00  0.00     0.103 C 
HETATM    4  N1  UNL     1       1.232  -0.165  -0.321  1.00  0.00    -0.352 N 
HETATM    5  C4  UNL     1       1.191  -0.311  -1.733  1.00  0.00     0.101 C 
HETATM    6  C12 UNL     1       0.349  -0.552  -2.725  1.00  0.00     0.030 C 
HETATM    7  C13 UNL     1      -1.071  -0.748  -2.265  1.00  0.00     0.054 C 
HETATM    8  C14 UNL     1      -2.220  -1.014  -2.960  1.00  0.00     0.159 C 
HETATM    9  O1  UNL     1      -3.227  -1.087  -1.994  1.00  0.00    -0.383 OA
HETATM   10  C15 UNL     1      -4.566  -0.973  -2.332  1.00  0.00     0.170 C 
HETATM   11  C16 UNL     1      -5.613  -0.954  -1.301  1.00  0.00     0.046 C 
HETATM   12  C17 UNL     1      -5.723   0.162  -0.356  1.00  0.00     0.119 C 
HETATM   13  N3  UNL     1      -4.750   0.444   0.606  1.00  0.00    -0.407 N 
HETATM   14  C18 UNL     1      -5.076   0.205   1.970  1.00  0.00     0.143 C 
HETATM   15  C19 UNL     1      -4.324   1.158   2.857  1.00  0.00     0.189 C 
HETATM   16  O2  UNL     1      -2.969   1.052   2.621  1.00  0.00    -0.372 OA
HETATM   17  C20 UNL     1      -2.702   1.486   1.347  1.00  0.00     0.205 C 
HETATM   18  C21 UNL     1      -3.412   0.597   0.280  1.00  0.00     0.160 C 
HETATM   19  S1  UNL     1      -0.900   1.249   1.025  1.00  0.00    -0.100 SA
HETATM   20  H5  UNL     1       1.709   0.437   0.353  1.00  0.00     0.166 HD
ENDROOT
BRANCH   5  21
HETATM   21  N2  UNL     1       2.605  -0.083  -1.965  1.00  0.00    -0.353 N 
HETATM   22  H6  UNL     1       2.957  -1.064  -2.142  1.00  0.00     0.166 HD
BRANCH  21  23
HETATM   23  C5  UNL     1       3.501   1.043  -2.006  1.00  0.00     0.090 C 
HETATM   24  C6  UNL     1       4.552   1.060  -1.149  1.00  0.00     0.020 C 
BRANCH  24  25
HETATM   25  C7  UNL     1       4.530  -0.130  -0.345  1.00  0.00     0.039 C 
HETATM   26  C8  UNL     1       5.516  -0.211   0.532  1.00  0.00     0.097 C 
HETATM   27  F1  UNL     1       5.712  -1.242   1.409  1.00  0.00    -0.210 F 
BRANCH  26  28
HETATM   28  C9  UNL     1       6.596   0.808   0.734  1.00  0.00     0.040 C 
HETATM   29  C10 UNL     1       7.921   0.237   0.287  1.00  0.00     0.017 C 
HETATM   30  C11 UNL     1       6.616   1.367   2.124  1.00  0.00     0.017 C 
ENDBRANCH  26  28
ENDBRANCH  24  25
ENDBRANCH  21  23
ENDBRANCH   5  21
TORSDOF 4
