REMARK  7 active torsions:
REMARK  status: ('A' for Active; 'I' for Inactive)
REMARK    1  A    between atoms: N1_7  and  C6_8 
REMARK    2  A    between atoms: C6_8  and  C7_9 
REMARK    3  A    between atoms: C7_9  and  C8_10 
REMARK    4  A    between atoms: C8_10  and  C9_11 
REMARK    5  A    between atoms: N4_19  and  C15_20 
REMARK    6  A    between atoms: C20_27  and  C21_28 
REMARK    7  A    between atoms: C21_28  and  O2_29 
ROOT
HETATM    1  C9  UNL     1      -0.205  -1.567  -0.127  1.00  0.00    -0.068 A 
HETATM    2  C10 UNL     1      -0.616  -0.319  -0.286  1.00  0.00     0.006 A 
HETATM    3  C11 UNL     1      -1.977   0.193  -0.250  1.00  0.00     0.034 A 
HETATM    4  C12 UNL     1      -2.969  -0.644  -0.036  1.00  0.00     0.079 A 
HETATM    5  C13 UNL     1      -2.549  -2.019   0.144  1.00  0.00     0.074 A 
HETATM    6  N2  UNL     1      -3.454  -2.919   0.361  1.00  0.00    -0.242 NA
HETATM    7  C14 UNL     1      -4.819  -2.455   0.403  1.00  0.00     0.255 A 
HETATM    8  N3  UNL     1      -5.222  -1.244   0.247  1.00  0.00    -0.164 NA
HETATM    9  N4  UNL     1      -4.292  -0.193   0.004  1.00  0.00    -0.255 N 
HETATM   10  C20 UNL     1      -1.199  -2.634   0.134  1.00  0.00     0.092 A 
ENDROOT
BRANCH   1  11
HETATM   11  C8  UNL     1       1.185  -2.040  -0.165  1.00  0.00     0.036 C 
BRANCH  11  12
HETATM   12  C7  UNL     1       2.263  -1.030  -0.286  1.00  0.00     0.024 C 
BRANCH  12  13
HETATM   13  C6  UNL     1       2.459  -0.083   0.839  1.00  0.00     0.123 C 
BRANCH  13  14
HETATM   14  N1  UNL     1       3.564   0.805   0.470  1.00  0.00    -0.381 N 
HETATM   15  C2  UNL     1       3.514   2.195   0.173  1.00  0.00     0.021 C 
HETATM   16  C1  UNL     1       2.409   2.791   0.590  1.00  0.00     0.040 C 
HETATM   17  C3  UNL     1       4.756   2.623  -0.548  1.00  0.00     0.223 C 
HETATM   18  O1  UNL     1       5.890   2.354   0.184  1.00  0.00    -0.384 OA
HETATM   19  C4  UNL     1       5.842   1.217   0.949  1.00  0.00     0.187 C 
HETATM   20  C5  UNL     1       4.885   0.158   0.403  1.00  0.00     0.149 C 
ENDBRANCH  13  14
ENDBRANCH  12  13
ENDBRANCH  11  12
ENDBRANCH   1  11
BRANCH  10  21
HETATM   21  C21 UNL     1      -1.181  -3.789  -0.803  1.00  0.00     0.179 C 
BRANCH  21  22
HETATM   22  O2  UNL     1      -0.011  -4.485  -0.829  1.00  0.00    -0.400 OA
HETATM   23  H24 UNL     1      -0.084  -5.460  -0.677  1.00  0.00     0.209 HD
ENDBRANCH  21  22
ENDBRANCH  10  21
BRANCH   9  24
HETATM   24  C15 UNL     1      -4.747   1.120  -0.168  1.00  0.00     0.161 A 
HETATM   25  C16 UNL     1      -4.501   1.822  -1.425  1.00  0.00     0.048 A 
HETATM   26  C17 UNL     1      -4.119   3.097  -1.207  1.00  0.00     0.136 A 
HETATM   27  F1  UNL     1      -3.758   4.232  -1.854  1.00  0.00    -0.205 F 
HETATM   28  C18 UNL     1      -4.084   3.266   0.265  1.00  0.00     0.070 A 
HETATM   29 CL1  UNL     1      -3.693   4.580   1.365  1.00  0.00    -0.081 Cl
HETATM   30  C19 UNL     1      -4.443   2.119   0.875  1.00  0.00     0.031 A 
ENDBRANCH   9  24
TORSDOF 7
