REMARK  6 active torsions:
REMARK  status: ('A' for Active; 'I' for Inactive)
REMARK    1  A    between atoms: C3_3  and  C4_4 
REMARK    2  A    between atoms: C5_5  and  C6_6 
REMARK    3  A    between atoms: C6_6  and  C7_7 
REMARK    4  A    between atoms: C11_11  and  N1_12 
REMARK    5  A    between atoms: N1_12  and  C12_13 
REMARK    6  A    between atoms: C17_21  and  C18_22 
ROOT
HETATM    1  C1  UNL     1       8.187  -1.529  -1.834  1.00  0.00     0.096 C 
HETATM    2  C2  UNL     1       7.295  -1.410  -0.880  1.00  0.00    -0.155 C 
HETATM    3  C3  UNL     1       6.527  -1.143   0.159  1.00  0.00     0.050 C 
ENDROOT
BRANCH   3   4
HETATM    4  C4  UNL     1       6.003   0.224   0.226  1.00  0.00     0.004 C 
HETATM    5  C5  UNL     1       4.795   0.384  -0.332  1.00  0.00    -0.022 C 
BRANCH   5   6
HETATM    6  C6  UNL     1       3.863  -0.572  -1.020  1.00  0.00     0.066 C 
BRANCH   6   7
HETATM    7  C7  UNL     1       2.597  -0.563  -0.206  1.00  0.00    -0.053 A 
HETATM    8  C8  UNL     1       2.438  -1.431   0.855  1.00  0.00     0.007 A 
HETATM    9  C9  UNL     1       1.258  -1.359   1.563  1.00  0.00     0.003 A 
HETATM   10  C10 UNL     1       0.246  -0.479   1.268  1.00  0.00     0.029 A 
HETATM   11  C11 UNL     1       0.430   0.382   0.199  1.00  0.00     0.034 A 
HETATM   12  C20 UNL     1       1.599   0.329  -0.521  1.00  0.00     0.037 A 
BRANCH  11  13
HETATM   13  N1  UNL     1      -0.512   1.356  -0.217  1.00  0.00    -0.339 N 
HETATM   14  H11 UNL     1      -0.501   1.810  -1.131  1.00  0.00     0.167 HD
BRANCH  13  15
HETATM   15  C12 UNL     1      -1.636   1.946   0.414  1.00  0.00     0.160 A 
HETATM   16  N2  UNL     1      -1.509   3.194   0.962  1.00  0.00    -0.222 NA
HETATM   17  C13 UNL     1      -2.571   3.781   1.579  1.00  0.00     0.238 A 
HETATM   18  N3  UNL     1      -3.782   3.196   1.691  1.00  0.00    -0.216 NA
HETATM   19  C14 UNL     1      -3.916   1.968   1.155  1.00  0.00     0.196 A 
HETATM   20  C15 UNL     1      -2.867   1.307   0.507  1.00  0.00     0.128 A 
HETATM   21  O1  UNL     1      -5.185   1.423   1.304  1.00  0.00    -0.332 OA
HETATM   22  N4  UNL     1      -2.831  -0.001  -0.111  1.00  0.00    -0.383 N 
HETATM   23  C16 UNL     1      -3.768  -1.023   0.320  1.00  0.00     0.129 C 
HETATM   24  H13 UNL     1      -2.060  -0.021  -0.848  1.00  0.00     0.159 HD
HETATM   25  C17 UNL     1      -5.195  -0.756   0.129  1.00  0.00     0.056 C 
HETATM   26  C19 UNL     1      -5.817   0.512   0.469  1.00  0.00     0.186 C 
BRANCH  25  27
HETATM   27  C18 UNL     1      -5.538  -1.160  -1.317  1.00  0.00     0.230 C 
HETATM   28  F1  UNL     1      -4.769  -0.400  -2.156  1.00  0.00    -0.255 F 
ENDBRANCH  25  27
ENDBRANCH  13  15
ENDBRANCH  11  13
ENDBRANCH   6   7
ENDBRANCH   5   6
ENDBRANCH   3   4
TORSDOF 6
