REMARK  5 active torsions:
REMARK  status: ('A' for Active; 'I' for Inactive)
REMARK    1  A    between atoms: C3_3  and  C4_4 
REMARK    2  A    between atoms: C4_4  and  C5_5 
REMARK    3  A    between atoms: C9_9  and  C10_10 
REMARK    4  A    between atoms: N3_18  and  C16_19 
REMARK    5  A    between atoms: C16_19  and  C17_20 
ROOT
HETATM    1  C10 UNL     1      -0.114   0.459   2.241  1.00  0.00     0.085 A 
HETATM    2  C11 UNL     1      -0.506   0.461   3.474  1.00  0.00     0.130 A 
HETATM    3  N1  UNL     1       0.522  -0.248   3.824  1.00  0.00    -0.311 N 
HETATM    4  C12 UNL     1       0.268  -0.370   5.247  1.00  0.00     0.117 A 
HETATM    5  C13 UNL     1       1.297  -1.129   5.853  1.00  0.00     0.136 A 
HETATM    6  N2  UNL     1       2.184  -1.495   4.901  1.00  0.00    -0.238 NA
HETATM    7  C14 UNL     1       1.747  -0.990   3.706  1.00  0.00     0.180 A 
HETATM    8  C15 UNL     1       1.784  -0.713   2.203  1.00  0.00     0.171 A 
HETATM    9  N3  UNL     1       2.915  -1.428   2.140  1.00  0.00    -0.367 N 
HETATM   10  N5  UNL     1       0.917   0.003   1.320  1.00  0.00    -0.226 NA
HETATM   11  H12 UNL     1       2.936  -1.432   1.030  1.00  0.00     0.161 HD
ENDROOT
BRANCH   1  12
HETATM   12  C9  UNL     1      -0.835   1.001   0.990  1.00  0.00    -0.011 C 
HETATM   13  C8  UNL     1      -1.881  -0.037   0.425  1.00  0.00    -0.007 C 
HETATM   14  C7  UNL     1      -2.438   0.359  -0.745  1.00  0.00     0.058 C 
HETATM   15  C6  UNL     1      -3.341  -0.666  -1.198  1.00  0.00     0.029 C 
HETATM   16  C5  UNL     1      -3.578   0.304  -2.210  1.00  0.00     0.010 C 
HETATM   17  N7  UNL     1      -3.355   1.659  -2.718  1.00  0.00    -0.316 N 
HETATM   18  C24 UNL     1      -2.427   2.439  -2.071  1.00  0.00     0.382 A 
HETATM   19  H23 UNL     1      -3.358   2.518  -3.221  1.00  0.00     0.169 HD
HETATM   20  N6  UNL     1      -1.499   3.251  -1.430  1.00  0.00     0.125 N 
HETATM   21  O1  UNL     1      -1.535   2.170  -1.250  1.00  0.00    -0.104 OA
HETATM   22  C23 UNL     1      -0.343   3.303  -0.568  1.00  0.00     0.311 C 
HETATM   23  H22 UNL     1      -1.951   4.138  -1.886  1.00  0.00     0.330 HD
HETATM   24  C22 UNL     1      -0.400   2.200   0.451  1.00  0.00     0.017 C 
BRANCH  16  25
HETATM   25  C4  UNL     1      -4.532   0.024  -3.315  1.00  0.00     0.003 C 
BRANCH  25  26
HETATM   26  C3  UNL     1      -5.436  -0.527  -4.172  1.00  0.00     0.015 A 
HETATM   27  C2  UNL     1      -6.368  -0.549  -5.413  1.00  0.00    -0.002 A 
HETATM   28  C1  UNL     1      -6.501  -1.773  -4.861  1.00  0.00     0.014 A 
ENDBRANCH  25  26
ENDBRANCH  16  25
ENDBRANCH   1  12
BRANCH   9  29
HETATM   29  C16 UNL     1       4.132  -2.194   2.045  1.00  0.00     0.160 C 
BRANCH  29  30
HETATM   30  C17 UNL     1       5.168  -1.388   1.289  1.00  0.00    -0.038 A 
HETATM   31  C18 UNL     1       6.053  -0.450   1.862  1.00  0.00     0.028 A 
HETATM   32  C19 UNL     1       6.868   0.141   0.929  1.00  0.00     0.116 A 
HETATM   33  N4  UNL     1       6.834  -0.139  -0.424  1.00  0.00    -0.273 NA
HETATM   34  C20 UNL     1       5.956  -1.055  -0.926  1.00  0.00     0.116 A 
HETATM   35  C21 UNL     1       5.134  -1.666  -0.031  1.00  0.00     0.028 A 
ENDBRANCH  29  30
ENDBRANCH   9  29
TORSDOF 5
