REMARK  8 active torsions:
REMARK  status: ('A' for Active; 'I' for Inactive)
REMARK    1  A    between atoms: O1_2  and  C2_3 
REMARK    2  A    between atoms: C7_10  and  N3_11 
REMARK    3  A    between atoms: N3_11  and  C8_12 
REMARK    4  A    between atoms: C16_22  and  O2_23 
REMARK    5  A    between atoms: O2_23  and  C17_24 
REMARK    6  A    between atoms: C17_24  and  C18_25 
REMARK    7  A    between atoms: C18_25  and  C19_26 
REMARK    8  A    between atoms: C19_26  and  N4_27 
ROOT
HETATM    1  C2  UNL     1      -1.896  -3.700  -0.072  1.00  0.00     0.078 C 
HETATM    2  C3  UNL     1      -1.011  -4.678   0.278  1.00  0.00     0.017 C 
HETATM    3  C4  UNL     1      -0.567  -4.379   1.718  1.00  0.00     0.092 C 
HETATM    4  C5  UNL     1      -0.642  -2.880   1.959  1.00  0.00     0.073 C 
HETATM    5  N1  UNL     1      -1.188  -2.340   3.051  1.00  0.00    -0.243 NA
HETATM    6  C6  UNL     1      -2.285  -1.344   3.153  1.00  0.00     0.235 C 
HETATM    7  N2  UNL     1      -2.754  -0.342   2.374  1.00  0.00    -0.224 NA
HETATM    8  C7  UNL     1      -3.072  -0.542   0.939  1.00  0.00     0.130 C 
HETATM    9  C14 UNL     1      -2.576  -1.451  -0.008  1.00  0.00     0.067 C 
HETATM   10  C15 UNL     1      -1.343  -2.306   0.243  1.00  0.00     0.036 C 
HETATM   11  C16 UNL     1      -0.077  -2.131   0.783  1.00  0.00     0.106 C 
ENDROOT
BRANCH   8  12
HETATM   12  N3  UNL     1      -4.013   0.176   0.179  1.00  0.00    -0.341 N 
HETATM   13  H8  UNL     1      -4.843  -0.451  -0.028  1.00  0.00     0.167 HD
BRANCH  12  14
HETATM   14  C8  UNL     1      -4.079   1.481  -0.335  1.00  0.00     0.035 A 
HETATM   15  C9  UNL     1      -3.637   1.862  -1.585  1.00  0.00     0.032 A 
HETATM   16  C10 UNL     1      -3.723   3.167  -2.052  1.00  0.00     0.046 A 
HETATM   17  C11 UNL     1      -4.293   4.093  -1.171  1.00  0.00     0.138 A 
HETATM   18  F1  UNL     1      -4.388   5.392  -1.609  1.00  0.00    -0.204 F 
HETATM   19  C12 UNL     1      -4.749   3.754   0.091  1.00  0.00     0.074 A 
HETATM   20 CL1  UNL     1      -5.444   5.035   1.085  1.00  0.00    -0.081 Cl
HETATM   21  C13 UNL     1      -4.644   2.430   0.523  1.00  0.00     0.056 A 
ENDBRANCH  12  14
ENDBRANCH   8  12
BRANCH   1  22
HETATM   22  O1  UNL     1      -3.183  -3.746  -0.660  1.00  0.00    -0.355 OA
HETATM   23  C1  UNL     1      -4.150  -4.681  -0.328  1.00  0.00     0.210 C 
ENDBRANCH   1  22
BRANCH  11  24
HETATM   24  O2  UNL     1       1.131  -1.482   0.277  1.00  0.00    -0.348 OA
BRANCH  24  25
HETATM   25  C17 UNL     1       1.458  -0.205   0.778  1.00  0.00     0.177 C 
BRANCH  25  26
HETATM   26  C18 UNL     1       2.771   0.249   0.177  1.00  0.00     0.057 C 
BRANCH  26  27
HETATM   27  C19 UNL     1       3.137   1.609   0.699  1.00  0.00     0.274 C 
BRANCH  27  28
HETATM   28  N4  UNL     1       4.369   2.124   0.189  1.00  0.00     0.092 N 
HETATM   29  C20 UNL     1       4.336   2.445  -1.203  1.00  0.00     0.298 C 
HETATM   30  C21 UNL     1       5.739   2.546  -1.754  1.00  0.00     0.198 C 
HETATM   31  O3  UNL     1       6.621   3.070  -0.832  1.00  0.00    -0.388 OA
HETATM   32  C22 UNL     1       6.755   2.262   0.290  1.00  0.00     0.198 C 
HETATM   33  C23 UNL     1       5.540   1.377   0.526  1.00  0.00     0.298 C 
ENDBRANCH  27  28
ENDBRANCH  26  27
ENDBRANCH  25  26
ENDBRANCH  24  25
ENDBRANCH  11  24
TORSDOF 8
