REMARK  1 active torsions:
REMARK  status: ('A' for Active; 'I' for Inactive)
REMARK    1  A    between atoms: O1_2  and  C2_3 
ROOT
HETATM    1  C2  UNL     1      -2.051   1.969  -1.179  1.00  0.00     0.103 A 
HETATM    2  C3  UNL     1      -3.259   1.639  -0.603  1.00  0.00     0.072 A 
HETATM    3  C4  UNL     1      -3.632   0.457  -0.059  1.00  0.00     0.073 A 
HETATM    4  C5  UNL     1      -2.741  -0.582  -0.051  1.00  0.00     0.020 A 
HETATM    5  C6  UNL     1      -1.495  -0.328  -0.621  1.00  0.00     0.055 A 
HETATM    6  C7  UNL     1      -1.183   0.902  -1.154  1.00  0.00     0.103 A 
HETATM    7  O2  UNL     1       0.071   1.242  -1.736  1.00  0.00    -0.348 OA
HETATM    8  C8  UNL     1       0.887   2.064  -0.840  1.00  0.00     0.177 C 
HETATM    9  C9  UNL     1       2.206   2.334  -1.469  1.00  0.00     0.046 C 
HETATM   10  C10 UNL     1       2.955   1.013  -1.650  1.00  0.00     0.125 C 
HETATM   11  N1  UNL     1       3.205   0.495  -0.290  1.00  0.00    -0.381 N 
HETATM   12  C11 UNL     1       3.161   0.932   1.096  1.00  0.00     0.149 C 
HETATM   13  C12 UNL     1       4.544   0.640   1.680  1.00  0.00     0.187 C 
HETATM   14  O3  UNL     1       5.482   0.459   0.661  1.00  0.00    -0.384 OA
HETATM   15  C13 UNL     1       5.096  -0.461  -0.293  1.00  0.00     0.224 C 
HETATM   16  C14 UNL     1       3.675  -0.878  -0.126  1.00  0.00     0.028 C 
HETATM   17  C15 UNL     1       3.227  -2.149   0.068  1.00  0.00     0.009 C 
HETATM   18  C16 UNL     1       1.728  -2.240   0.145  1.00  0.00     0.153 C 
HETATM   19  C17 UNL     1       1.155  -3.483   0.338  1.00  0.00     0.125 C 
HETATM   20  F1  UNL     1       1.236  -4.891   0.531  1.00  0.00    -0.242 F 
HETATM   21  C18 UNL     1      -0.314  -3.285   0.425  1.00  0.00     0.033 A 
HETATM   22 CL1  UNL     1      -1.475  -4.644   0.542  1.00  0.00    -0.171 Cl
HETATM   23  C19 UNL     1      -1.599  -3.030   0.493  1.00  0.00     0.163 A 
HETATM   24  C20 UNL     1      -2.513  -1.841   0.432  1.00  0.00     0.042 C 
HETATM   25  N2  UNL     1      -3.424  -2.418   1.425  1.00  0.00    -0.373 N 
HETATM   26  C21 UNL     1      -4.757  -2.496   1.982  1.00  0.00     0.271 C 
HETATM   27  N3  UNL     1      -5.619  -1.454   1.586  1.00  0.00    -0.263 NA
HETATM   28  C22 UNL     1      -5.773  -0.336   1.018  1.00  0.00     0.229 C 
HETATM   29  N4  UNL     1      -4.869   0.572   0.367  1.00  0.00    -0.242 NA
HETATM   30  H21 UNL     1      -2.746  -3.039   1.967  1.00  0.00     0.161 HD
ENDROOT
BRANCH   1  31
HETATM   31  O1  UNL     1      -1.786   3.227  -1.702  1.00  0.00    -0.353 OA
HETATM   32  C1  UNL     1      -2.802   4.199  -1.623  1.00  0.00     0.210 C 
ENDBRANCH   1  31
TORSDOF 1
