REMARK  5 active torsions:
REMARK  status: ('A' for Active; 'I' for Inactive)
REMARK    1  A    between atoms: C4_4  and  C5_5 
REMARK    2  A    between atoms: C9_11  and  O1_12 
REMARK    3  A    between atoms: O1_12  and  C10_13 
REMARK    4  A    between atoms: C10_13  and  C11_14 
REMARK    5  A    between atoms: C11_14  and  O2_15 
ROOT
HETATM    1  C1  UNL     1       7.932  -0.575   0.539  1.00  0.00     0.017 C 
HETATM    2  C2  UNL     1       6.871  -0.323   0.031  1.00  0.00    -0.089 C 
HETATM    3  C3  UNL     1       5.600  -0.017  -0.552  1.00  0.00     0.063 C 
HETATM    4  C4  UNL     1       4.450  -0.511  -0.109  1.00  0.00     0.011 C 
ENDROOT
BRANCH   4   5
HETATM    5  C5  UNL     1       3.217  -0.157  -0.749  1.00  0.00     0.028 C 
HETATM    6  C6  UNL     1       2.062  -0.632  -0.330  1.00  0.00     0.045 C 
HETATM    7  N1  UNL     1       1.974  -1.531   0.788  1.00  0.00    -0.353 N 
HETATM    8  C15 UNL     1       0.743  -0.320  -0.935  1.00  0.00     0.297 C 
HETATM    9  C7  UNL     1       0.745  -1.431   1.495  1.00  0.00     0.201 C 
HETATM   10  H5  UNL     1       2.767  -2.168   1.012  1.00  0.00     0.166 HD
HETATM   11  N2  UNL     1      -0.235  -0.650   1.233  1.00  0.00    -0.274 NA
HETATM   12  C8  UNL     1      -0.144   0.248   0.118  1.00  0.00     0.177 C 
HETATM   13  C9  UNL     1      -1.491   0.651  -0.445  1.00  0.00     0.150 C 
HETATM   14  C13 UNL     1      -1.171   1.697  -1.517  1.00  0.00     0.064 C 
HETATM   15  C14 UNL     1      -0.300   1.088  -2.570  1.00  0.00     0.273 C 
HETATM   16  N3  UNL     1       0.958   0.593  -2.043  1.00  0.00     0.096 N 
HETATM   17  H20 UNL     1       1.392   0.022  -2.811  1.00  0.00     0.316 HD
BRANCH  13  18
HETATM   18  O1  UNL     1      -2.303   1.146   0.540  1.00  0.00    -0.382 OA
BRANCH  18  19
HETATM   19  C10 UNL     1      -3.472   0.382   0.585  1.00  0.00     0.194 C 
BRANCH  19  20
HETATM   20  C11 UNL     1      -4.425   0.848   1.634  1.00  0.00     0.193 C 
BRANCH  20  21
HETATM   21  O2  UNL     1      -5.555   0.074   1.642  1.00  0.00    -0.394 OA
HETATM   22  C12 UNL     1      -5.387  -1.262   1.891  1.00  0.00     0.201 C 
ENDBRANCH  20  21
ENDBRANCH  19  20
ENDBRANCH  18  19
ENDBRANCH  13  18
ENDBRANCH   4   5
TORSDOF 5
