REMARK  10 active torsions:
REMARK  status: ('A' for Active; 'I' for Inactive)
REMARK    1  A    between atoms: O1_2  and  C2_3 
REMARK    2  A    between atoms: C2_3  and  C3_4 
REMARK    3  A    between atoms: C3_4  and  O2_5 
REMARK    4  A    between atoms: O2_5  and  C4_6 
REMARK    5  A    between atoms: C8_12  and  N3_13 
REMARK    6  A    between atoms: N3_13  and  C9_14 
REMARK    7  A    between atoms: C18_23  and  O3_24 
REMARK    8  A    between atoms: O3_24  and  C19_25 
REMARK    9  A    between atoms: C19_25  and  C20_26 
REMARK   10  A    between atoms: C20_26  and  O4_27 
ROOT
HETATM    1  C4  UNL     1      -2.444  -1.008  -0.897  1.00  0.00     0.104 A 
HETATM    2  C5  UNL     1      -1.717  -2.174  -0.913  1.00  0.00     0.072 A 
HETATM    3  C6  UNL     1      -0.349  -2.223  -0.788  1.00  0.00     0.075 A 
HETATM    4  N1  UNL     1       0.173  -3.471  -0.830  1.00  0.00    -0.241 NA
HETATM    5  C7  UNL     1       1.505  -3.586  -0.714  1.00  0.00     0.236 A 
HETATM    6  N2  UNL     1       2.240  -2.479  -0.565  1.00  0.00    -0.224 NA
HETATM    7  C8  UNL     1       1.772  -1.229  -0.518  1.00  0.00     0.142 A 
HETATM    8  C16 UNL     1       0.409  -1.082  -0.634  1.00  0.00     0.042 A 
HETATM    9  C17 UNL     1      -0.268   0.103  -0.612  1.00  0.00     0.057 A 
HETATM   10  C18 UNL     1      -1.650   0.140  -0.739  1.00  0.00     0.103 A 
ENDROOT
BRANCH   7  11
HETATM   11  N3  UNL     1       2.573  -0.075  -0.360  1.00  0.00    -0.340 N 
HETATM   12  H10 UNL     1       2.158   0.874  -0.302  1.00  0.00     0.167 HD
BRANCH  11  13
HETATM   13  C9  UNL     1       3.985   0.021  -0.257  1.00  0.00     0.034 A 
HETATM   14  C10 UNL     1       4.814  -1.056  -0.486  1.00  0.00     0.029 A 
HETATM   15  C11 UNL     1       6.188  -1.024  -0.392  1.00  0.00     0.003 A 
HETATM   16  C12 UNL     1       6.811   0.156  -0.048  1.00  0.00     0.007 A 
HETATM   17  C13 UNL     1       6.022   1.259   0.190  1.00  0.00    -0.060 A 
HETATM   18  C14 UNL     1       6.650   2.552   0.564  1.00  0.00     0.048 C 
HETATM   19  C15 UNL     1       4.663   1.152   0.078  1.00  0.00     0.036 A 
ENDBRANCH  11  13
ENDBRANCH   7  11
BRANCH  10  20
HETATM   20  O3  UNL     1      -2.227   1.424  -0.701  1.00  0.00    -0.346 OA
BRANCH  20  21
HETATM   21  C19 UNL     1      -1.426   2.574  -0.543  1.00  0.00     0.201 C 
BRANCH  21  22
HETATM   22  C20 UNL     1      -2.336   3.793  -0.541  1.00  0.00     0.193 C 
BRANCH  22  23
HETATM   23  O4  UNL     1      -3.235   3.710   0.494  1.00  0.00    -0.394 OA
HETATM   24  C21 UNL     1      -2.657   3.648   1.738  1.00  0.00     0.201 C 
ENDBRANCH  22  23
ENDBRANCH  21  22
ENDBRANCH  20  21
ENDBRANCH  10  20
BRANCH   1  25
HETATM   25  O2  UNL     1      -3.761  -0.709  -0.996  1.00  0.00    -0.346 OA
BRANCH  25  26
HETATM   26  C3  UNL     1      -4.842  -1.568  -1.131  1.00  0.00     0.201 C 
BRANCH  26  27
HETATM   27  C2  UNL     1      -5.035  -2.488   0.033  1.00  0.00     0.193 C 
BRANCH  27  28
HETATM   28  O1  UNL     1      -5.246  -1.738   1.193  1.00  0.00    -0.394 OA
HETATM   29  C1  UNL     1      -5.426  -2.580   2.281  1.00  0.00     0.201 C 
ENDBRANCH  27  28
ENDBRANCH  26  27
ENDBRANCH  25  26
ENDBRANCH   1  25
TORSDOF 10
