REMARK  2 active torsions:
REMARK  status: ('A' for Active; 'I' for Inactive)
REMARK    1  A    between atoms: C2_2  and  O1_3 
REMARK    2  A    between atoms: O1_3  and  C3_4 
ROOT
HETATM    1  C3  UNL     1      -1.973  -1.795  -0.748  1.00  0.00     0.191 C 
HETATM    2  C4  UNL     1      -0.796  -2.402  -1.475  1.00  0.00     0.125 C 
HETATM    3  N1  UNL     1       0.360  -2.709  -1.952  1.00  0.00    -0.256 NA
HETATM    4  C5  UNL     1       1.573  -2.049  -1.644  1.00  0.00     0.232 C 
HETATM    5  N2  UNL     1       2.162  -0.919  -1.450  1.00  0.00    -0.238 NA
HETATM    6  C6  UNL     1       3.512  -0.735  -1.137  1.00  0.00     0.104 A 
HETATM    7  C7  UNL     1       4.068  -0.250   0.020  1.00  0.00     0.049 A 
HETATM    8  C8  UNL     1       5.428  -0.125   0.183  1.00  0.00     0.030 A 
HETATM    9  C9  UNL     1       6.343  -0.482  -0.814  1.00  0.00     0.046 A 
HETATM   10  C10 UNL     1       5.753  -0.970  -1.974  1.00  0.00     0.140 A 
HETATM   11  F1  UNL     1       6.629  -1.317  -2.944  1.00  0.00    -0.204 F 
HETATM   12  C11 UNL     1       4.390  -1.087  -2.118  1.00  0.00     0.103 A 
HETATM   13 CL1  UNL     1       3.866  -1.732  -3.682  1.00  0.00    -0.078 Cl
HETATM   14  N3  UNL     1       3.101   0.097   1.002  1.00  0.00    -0.229 NA
HETATM   15  S1  UNL     1       2.273   1.416   1.822  1.00  0.00    -0.106 SA
HETATM   16  C12 UNL     1       0.494   1.096   1.811  1.00  0.00     0.061 C 
HETATM   17  C13 UNL     1      -0.072  -0.120   1.912  1.00  0.00     0.154 C 
HETATM   18  O2  UNL     1      -1.100  -0.731   1.166  1.00  0.00    -0.354 OA
HETATM   19  C14 UNL     1      -1.515  -0.499  -0.189  1.00  0.00     0.163 C 
HETATM   20  C15 UNL     1      -2.520   0.619  -0.220  1.00  0.00     0.066 C 
HETATM   21  C16 UNL     1      -1.752   1.932  -0.067  1.00  0.00     0.279 C 
HETATM   22  N4  UNL     1      -1.541   2.316   1.291  1.00  0.00     0.124 N 
HETATM   23  C17 UNL     1      -1.942   3.710   1.451  1.00  0.00     0.302 C 
HETATM   24  C18 UNL     1      -1.150   4.127   2.675  1.00  0.00     0.201 C 
HETATM   25  O3  UNL     1      -0.115   3.174   2.809  1.00  0.00    -0.351 OA
HETATM   26  C19 UNL     1      -0.131   2.431   1.659  1.00  0.00     0.402 C 
HETATM   27  H11 UNL     1       3.258   1.138   0.839  1.00  0.00     0.227 HD
ENDROOT
BRANCH   1  28
HETATM   28  O1  UNL     1      -3.018  -1.753  -1.631  1.00  0.00    -0.378 OA
BRANCH  28  29
HETATM   29  C2  UNL     1      -3.996  -2.650  -1.219  1.00  0.00     0.164 C 
HETATM   30  C1  UNL     1      -4.564  -2.375   0.139  1.00  0.00     0.033 C 
ENDBRANCH  28  29
ENDBRANCH   1  28
TORSDOF 2
