REMARK  5 active torsions:
REMARK  status: ('A' for Active; 'I' for Inactive)
REMARK    1  A    between atoms: C2_2  and  N1_3 
REMARK    2  A    between atoms: C2_2  and  C5_8 
REMARK    3  A    between atoms: C3_4  and  C4_6 
REMARK    4  A    between atoms: C9_14  and  O1_15 
REMARK    5  A    between atoms: C11_17  and  O2_18 
ROOT
HETATM    1  O2  UNL     1      -1.299  -1.310   2.455  1.00  0.00    -0.238 OA
HETATM    2  C12 UNL     1      -0.112  -1.552   3.086  1.00  0.00     0.234 C 
HETATM    3  N4  UNL     1       0.907  -1.749   3.638  1.00  0.00    -0.164 NA
ENDROOT
BRANCH   1   4
HETATM    4  C11 UNL     1      -1.350  -0.787   1.169  1.00  0.00     0.123 A 
HETATM    5  C9  UNL     1      -2.586  -0.569   0.596  1.00  0.00     0.105 A 
HETATM    6  C8  UNL     1      -2.740  -0.052  -0.679  1.00  0.00     0.072 A 
HETATM    7  C7  UNL     1      -1.622   0.267  -1.427  1.00  0.00     0.073 A 
HETATM    8  N3  UNL     1      -1.671   0.772  -2.669  1.00  0.00    -0.241 NA
HETATM    9  C14 UNL     1      -0.386   0.051  -0.857  1.00  0.00     0.027 A 
HETATM   10  C6  UNL     1      -0.575   1.077  -3.387  1.00  0.00     0.234 A 
HETATM   11  N2  UNL     1       0.666   0.875  -2.851  1.00  0.00    -0.239 NA
HETATM   12  C5  UNL     1       0.723   0.370  -1.607  1.00  0.00     0.098 A 
HETATM   13  C13 UNL     1      -0.244  -0.465   0.413  1.00  0.00     0.057 A 
BRANCH   5  14
HETATM   14  O1  UNL     1      -3.722  -0.881   1.327  1.00  0.00    -0.353 OA
HETATM   15  C10 UNL     1      -4.979  -0.648   0.716  1.00  0.00     0.210 C 
ENDBRANCH   5  14
BRANCH  12  16
HETATM   16  C2  UNL     1       2.085   0.194  -1.134  1.00  0.00     0.078 C 
HETATM   17  C1  UNL     1       3.119   0.509  -1.899  1.00  0.00     0.048 C 
BRANCH  16  18
HETATM   18  N1  UNL     1       2.881  -0.228  -0.054  1.00  0.00    -0.237 NA
HETATM   19  C3  UNL     1       3.298   0.677   0.791  1.00  0.00     0.132 C 
HETATM   20 CL1  UNL     1       3.039   2.409   0.837  1.00  0.00    -0.065 Cl
BRANCH  19  21
HETATM   21  C4  UNL     1       4.149   0.286   1.960  1.00  0.00     0.294 C 
HETATM   22  F1  UNL     1       4.349  -1.074   1.919  1.00  0.00    -0.248 F 
ENDBRANCH  19  21
ENDBRANCH  16  18
ENDBRANCH  12  16
ENDBRANCH   1   4
TORSDOF 5
