REMARK  6 active torsions:
REMARK  status: ('A' for Active; 'I' for Inactive)
REMARK    1  A    between atoms: N1_2  and  C2_3 
REMARK    2  A    between atoms: C3_4  and  N2_5 
REMARK    3  A    between atoms: N2_5  and  C4_6 
REMARK    4  A    between atoms: C6_8  and  C7_9 
REMARK    5  A    between atoms: C17_22  and  O1_23 
REMARK    6  A    between atoms: O1_23  and  C18_24 
ROOT
HETATM    1  C2  UNL     1       2.347  -0.429  -0.439  1.00  0.00     0.128 A 
HETATM    2  C3  UNL     1       1.171   0.285  -0.378  1.00  0.00     0.160 A 
HETATM    3  N3  UNL     1       1.217   1.648  -0.338  1.00  0.00    -0.222 NA
HETATM    4  C16 UNL     1       2.425   2.280  -0.360  1.00  0.00     0.238 A 
HETATM    5  N4  UNL     1       3.549   1.544  -0.420  1.00  0.00    -0.215 NA
HETATM    6  C17 UNL     1       3.572   0.200  -0.462  1.00  0.00     0.201 A 
ENDROOT
BRANCH   2   7
HETATM    7  N2  UNL     1      -0.105  -0.304  -0.344  1.00  0.00    -0.336 N 
HETATM    8  H5  UNL     1      -0.169  -0.550  -1.374  1.00  0.00     0.168 HD
BRANCH   7   9
HETATM    9  C4  UNL     1      -1.220  -0.662   0.436  1.00  0.00     0.073 A 
HETATM   10  C5  UNL     1      -2.371  -0.055  -0.036  1.00  0.00     0.045 A 
HETATM   11  C6  UNL     1      -3.609  -0.263   0.584  1.00  0.00    -0.024 A 
HETATM   12  C13 UNL     1      -3.575  -1.105   1.680  1.00  0.00     0.015 A 
HETATM   13  C14 UNL     1      -2.468  -1.737   2.197  1.00  0.00     0.045 A 
HETATM   14  C15 UNL     1      -1.297  -1.475   1.524  1.00  0.00     0.143 A 
HETATM   15  F1  UNL     1      -0.146  -2.030   1.938  1.00  0.00    -0.204 F 
BRANCH  11  16
HETATM   16  C7  UNL     1      -4.853   0.353   0.128  1.00  0.00    -0.026 A 
HETATM   17  C8  UNL     1      -5.980  -0.411   0.352  1.00  0.00     0.012 A 
HETATM   18  C9  UNL     1      -7.226   0.087  -0.045  1.00  0.00     0.001 A 
HETATM   19  C10 UNL     1      -7.287   1.327  -0.648  1.00  0.00     0.000 A 
HETATM   20  C11 UNL     1      -6.143   2.067  -0.858  1.00  0.00     0.001 A 
HETATM   21  C12 UNL     1      -4.893   1.596  -0.474  1.00  0.00     0.012 A 
ENDBRANCH  11  16
ENDBRANCH   7   9
ENDBRANCH   2   7
BRANCH   1  22
HETATM   22  N1  UNL     1       2.374  -1.848  -0.485  1.00  0.00    -0.388 N 
HETATM   23  C1  UNL     1       2.437  -2.979   0.403  1.00  0.00     0.146 C 
HETATM   24  H4  UNL     1       2.331  -2.026  -1.529  1.00  0.00     0.159 HD
ENDBRANCH   1  22
BRANCH   6  25
HETATM   25  O1  UNL     1       4.749  -0.535  -0.524  1.00  0.00    -0.294 OA
BRANCH  25  26
HETATM   26  C18 UNL     1       5.966   0.090  -0.549  1.00  0.00     0.063 A 
HETATM   27  C19 UNL     1       7.202   0.240  -1.040  1.00  0.00     0.013 A 
HETATM   28  C20 UNL     1       7.837   1.399  -0.292  1.00  0.00     0.033 A 
HETATM   29  C21 UNL     1       7.252   2.125   0.832  1.00  0.00     0.017 A 
HETATM   30  C22 UNL     1       6.459   1.188   0.315  1.00  0.00     0.036 A 
ENDBRANCH  25  26
ENDBRANCH   6  25
TORSDOF 6
