REMARK  8 active torsions:
REMARK  status: ('A' for Active; 'I' for Inactive)
REMARK    1  A    between atoms: C12_13  and  O1_14 
REMARK    2  A    between atoms: O1_14  and  C13_15 
REMARK    3  A    between atoms: C13_15  and  C14_16 
REMARK    4  A    between atoms: C14_16  and  O2_17 
REMARK    5  A    between atoms: C16_19  and  O3_20 
REMARK    6  A    between atoms: O3_20  and  C17_21 
REMARK    7  A    between atoms: C17_21  and  C18_22 
REMARK    8  A    between atoms: C18_22  and  O4_23 
ROOT
HETATM    1  C1  UNL     1      -1.853  -0.501   4.060  1.00  0.00     0.017 C 
HETATM    2  C2  UNL     1      -1.966  -1.283   3.106  1.00  0.00    -0.080 C 
HETATM    3  C3  UNL     1      -2.117  -2.193   1.968  1.00  0.00     0.021 C 
HETATM    4  C4  UNL     1      -2.949  -3.154   2.301  1.00  0.00     0.011 C 
HETATM    5  C5  UNL     1      -3.237  -4.175   1.298  1.00  0.00     0.148 C 
HETATM    6  N1  UNL     1      -2.955  -3.589  -0.029  1.00  0.00    -0.388 N 
HETATM    7  C6  UNL     1      -1.791  -2.772  -0.341  1.00  0.00     0.033 C 
HETATM    8  C7  UNL     1      -1.267  -3.098  -1.502  1.00  0.00     0.033 C 
HETATM    9  C8  UNL     1      -0.275  -2.919  -2.548  1.00  0.00    -0.063 C 
HETATM   10  C9  UNL     1       0.100  -3.535  -3.798  1.00  0.00     0.048 C 
HETATM   11  C10 UNL     1       0.598  -1.887  -2.357  1.00  0.00    -0.011 C 
HETATM   12  C11 UNL     1       1.041  -0.761  -1.535  1.00  0.00     0.062 C 
HETATM   13  C12 UNL     1       0.770  -0.053  -0.432  1.00  0.00     0.147 C 
HETATM   14  C16 UNL     1      -0.106   0.230   0.801  1.00  0.00     0.256 C 
HETATM   15  N2  UNL     1      -1.359  -0.486   0.620  1.00  0.00    -0.380 N 
HETATM   16  C20 UNL     1      -1.338  -1.874   0.709  1.00  0.00     0.170 C 
HETATM   17  H5  UNL     1      -3.644  -3.771  -0.827  1.00  0.00     0.159 HD
HETATM   18  H27 UNL     1      -2.162   0.033   1.021  1.00  0.00     0.157 HD
ENDROOT
BRANCH  14  19
HETATM   19  O3  UNL     1      -0.409   1.584   0.809  1.00  0.00    -0.362 OA
BRANCH  19  20
HETATM   20  C17 UNL     1       0.052   2.142   1.992  1.00  0.00     0.196 C 
BRANCH  20  21
HETATM   21  C18 UNL     1      -0.257   3.622   2.041  1.00  0.00     0.193 C 
BRANCH  21  22
HETATM   22  O4  UNL     1      -1.635   3.774   1.957  1.00  0.00    -0.394 OA
HETATM   23  C19 UNL     1      -1.918   5.144   2.008  1.00  0.00     0.201 C 
ENDBRANCH  21  22
ENDBRANCH  20  21
ENDBRANCH  19  20
ENDBRANCH  14  19
BRANCH  13  24
HETATM   24  O1  UNL     1       1.911   0.541  -0.942  1.00  0.00    -0.369 OA
BRANCH  24  25
HETATM   25  C13 UNL     1       2.686   1.550  -0.395  1.00  0.00     0.195 C 
BRANCH  25  26
HETATM   26  C14 UNL     1       3.904   1.866  -1.279  1.00  0.00     0.193 C 
BRANCH  26  27
HETATM   27  O2  UNL     1       3.514   2.278  -2.532  1.00  0.00    -0.394 OA
HETATM   28  C15 UNL     1       4.549   2.577  -3.398  1.00  0.00     0.201 C 
ENDBRANCH  26  27
ENDBRANCH  25  26
ENDBRANCH  24  25
ENDBRANCH  13  24
TORSDOF 8
