REMARK  7 active torsions:
REMARK  status: ('A' for Active; 'I' for Inactive)
REMARK    1  A    between atoms: C5_6  and  C6_7 
REMARK    2  A    between atoms: C6_7  and  O1_8 
REMARK    3  A    between atoms: O1_8  and  C7_9 
REMARK    4  A    between atoms: C10_12  and  N1_13 
REMARK    5  A    between atoms: N1_13  and  N2_14 
REMARK    6  A    between atoms: N2_14  and  C11_15 
REMARK    7  A    between atoms: C11_15  and  C12_16 
ROOT
HETATM    1  C7  UNL     1       1.277  -1.560   0.386  1.00  0.00     0.091 A 
HETATM    2  C8  UNL     1       0.777  -1.050  -0.790  1.00  0.00     0.041 A 
HETATM    3  C9  UNL     1      -0.560  -0.880  -1.046  1.00  0.00     0.033 A 
HETATM    4  C10 UNL     1      -1.479  -1.235  -0.082  1.00  0.00     0.044 A 
HETATM    5  C16 UNL     1      -1.050  -1.753   1.121  1.00  0.00     0.057 A 
HETATM    6  C17 UNL     1       0.326  -1.913   1.350  1.00  0.00     0.069 A 
HETATM    7 CL1  UNL     1       0.635  -2.592   2.956  1.00  0.00    -0.081 Cl
ENDROOT
BRANCH   4   8
HETATM    8  N1  UNL     1      -2.867  -1.057  -0.351  1.00  0.00    -0.321 N 
HETATM    9  H8  UNL     1      -3.187  -0.666  -1.261  1.00  0.00     0.180 HD
BRANCH   8  10
HETATM   10  N2  UNL     1      -3.967  -1.337   0.454  1.00  0.00    -0.236 NA
HETATM   11  H9  UNL     1      -3.790  -1.986   1.228  1.00  0.00     0.146 HD
BRANCH  10  12
HETATM   12  C11 UNL     1      -4.499  -0.072   0.932  1.00  0.00     0.147 C 
BRANCH  12  13
HETATM   13  C12 UNL     1      -4.922   0.802  -0.181  1.00  0.00    -0.032 C 
HETATM   14  C13 UNL     1      -5.036   0.947  -1.492  1.00  0.00     0.013 C 
HETATM   15  C14 UNL     1      -5.880   1.891  -1.801  1.00  0.00     0.092 C 
HETATM   16  N3  UNL     1      -5.982   2.772  -0.870  1.00  0.00    -0.282 NA
HETATM   17  C15 UNL     1      -5.471   2.109   0.333  1.00  0.00     0.186 C 
ENDBRANCH  12  13
ENDBRANCH  10  12
ENDBRANCH   8  10
ENDBRANCH   4   8
BRANCH   1  18
HETATM   18  O1  UNL     1       2.502  -1.825   0.885  1.00  0.00    -0.345 OA
BRANCH  18  19
HETATM   19  C6  UNL     1       3.779  -1.680   0.395  1.00  0.00     0.214 C 
BRANCH  19  20
HETATM   20  C5  UNL     1       4.197  -0.300   0.051  1.00  0.00    -0.031 A 
HETATM   21  C4  UNL     1       4.716   0.471   1.101  1.00  0.00     0.009 A 
HETATM   22  C3  UNL     1       5.171   1.758   1.013  1.00  0.00     0.004 A 
HETATM   23  C2  UNL     1       5.121   2.369  -0.220  1.00  0.00     0.042 A 
HETATM   24  C1  UNL     1       4.620   1.656  -1.287  1.00  0.00     0.117 A 
HETATM   25  F1  UNL     1       4.547   2.213  -2.530  1.00  0.00    -0.206 F 
HETATM   26  C18 UNL     1       4.170   0.360  -1.159  1.00  0.00     0.051 A 
ENDBRANCH  19  20
ENDBRANCH  18  19
ENDBRANCH   1  18
TORSDOF 7
