REMARK  0 active torsions:
REMARK  status: ('A' for Active; 'I' for Inactive)
ROOT
HETATM    1  C1  UNL     1      -2.279  -4.023  -0.333  1.00  0.00    -0.054 C 
HETATM    2  B1  UNL     1      -1.071  -2.974  -0.108  1.00  0.00     0.178 B 
HETATM    3  C2  UNL     1      -1.527  -1.610   0.552  1.00  0.00    -0.029 C 
HETATM    4  C3  UNL     1      -1.959  -0.604  -0.464  1.00  0.00     0.106 C 
HETATM    5  N1  UNL     1      -2.723   0.501  -0.030  1.00  0.00    -0.417 N 
HETATM    6  C4  UNL     1      -4.050   0.272   0.399  1.00  0.00     0.143 C 
HETATM    7  C5  UNL     1      -2.483   1.706  -0.721  1.00  0.00     0.122 C 
HETATM    8  C6  UNL     1      -1.649   2.783  -0.136  1.00  0.00     0.023 C 
HETATM    9  C7  UNL     1      -2.234   3.727   0.827  1.00  0.00     0.014 C 
HETATM   10  C8  UNL     1      -0.681   3.472  -1.110  1.00  0.00     0.184 C 
HETATM   11  O1  UNL     1       0.394   2.430  -1.246  1.00  0.00    -0.321 OA
HETATM   12  C9  UNL     1       1.136   2.325  -0.024  1.00  0.00     0.266 C 
HETATM   13  O2  UNL     1       1.162   2.973   1.062  1.00  0.00    -0.265 OA
HETATM   14  C10 UNL     1       1.995   1.245  -0.008  1.00  0.00     0.123 C 
HETATM   15  C11 UNL     1       3.302   0.878   0.510  1.00  0.00     0.040 C 
HETATM   16  C12 UNL     1       4.497   0.948  -0.344  1.00  0.00     0.056 C 
HETATM   17  C13 UNL     1       4.254   0.813  -1.784  1.00  0.00     0.085 C 
HETATM   18  N2  UNL     1       3.126   0.357  -2.025  1.00  0.00    -0.295 NA
HETATM   19  C14 UNL     1       1.981   0.302  -1.244  1.00  0.00     0.155 C 
HETATM   20  C15 UNL     1       2.001  -0.946  -0.361  1.00  0.00    -0.025 A 
HETATM   21  C16 UNL     1       1.178  -1.947  -0.745  1.00  0.00     0.016 A 
HETATM   22  C17 UNL     1       1.436  -2.765   0.305  1.00  0.00    -0.066 A 
HETATM   23  C18 UNL     1       2.213  -2.769   1.422  1.00  0.00     0.007 A 
HETATM   24  C19 UNL     1       2.983  -1.645   1.617  1.00  0.00     0.009 A 
HETATM   25  C20 UNL     1       2.900  -0.630   0.690  1.00  0.00    -0.044 A 
HETATM   26  C21 UNL     1       0.349  -3.691   0.024  1.00  0.00    -0.011 C 
ENDROOT
TORSDOF 0
