REMARK  2 active torsions:
REMARK  status: ('A' for Active; 'I' for Inactive)
REMARK    1  A    between atoms: S1_2  and  C2_5 
REMARK    2  A    between atoms: C2_5  and  C3_6 
ROOT
HETATM    1  C3  UNL     1       0.260  -0.144  -0.373  1.00  0.00     0.065 C 
HETATM    2  C4  UNL     1       0.034  -1.081   0.834  1.00  0.00     0.064 C 
HETATM    3  C5  UNL     1      -1.294  -0.996   1.493  1.00  0.00     0.012 C 
HETATM    4  C6  UNL     1      -2.315  -0.399   0.899  1.00  0.00     0.067 C 
HETATM    5  C7  UNL     1      -3.006   0.910   0.846  1.00  0.00     0.068 C 
HETATM    6  C8  UNL     1      -1.925   1.480   1.350  1.00  0.00     0.060 C 
HETATM    7  C9  UNL     1      -0.553   1.220   1.866  1.00  0.00     0.029 C 
HETATM    8  C10 UNL     1       0.718   1.229   1.514  1.00  0.00     0.003 C 
HETATM    9  C11 UNL     1       0.724   1.197   0.005  1.00  0.00     0.134 C 
HETATM   10  N1  UNL     1       0.153   2.416  -0.537  1.00  0.00    -0.374 N 
HETATM   11  C12 UNL     1      -0.942   3.287   0.021  1.00  0.00     0.203 C 
HETATM   12  N2  UNL     1      -1.782   2.930   1.082  1.00  0.00    -0.244 NA
HETATM   13  O3  UNL     1      -3.172  -1.025  -0.056  1.00  0.00    -0.350 OA
HETATM   14  C13 UNL     1      -2.747  -1.907  -1.118  1.00  0.00     0.195 C 
HETATM   15  C14 UNL     1      -1.373  -1.540  -1.665  1.00  0.00     0.141 C 
HETATM   16  N3  UNL     1      -0.837  -0.345  -1.225  1.00  0.00    -0.407 N 
HETATM   17  H13 UNL     1       0.510   2.815  -1.455  1.00  0.00     0.161 HD
HETATM   18  H19 UNL     1      -1.007   0.433  -1.903  1.00  0.00     0.154 HD
ENDROOT
BRANCH   1  19
HETATM   19  C2  UNL     1       1.415  -0.834  -1.115  1.00  0.00     0.173 C 
BRANCH  19  20
HETATM   20  S1  UNL     1       2.907  -1.139  -0.354  1.00  0.00     0.143 S 
HETATM   21  C1  UNL     1       3.866   0.211   0.241  1.00  0.00     0.161 C 
HETATM   22  O1  UNL     1       3.798  -1.773  -1.442  1.00  0.00    -0.228 OA
HETATM   23  O2  UNL     1       2.883  -2.278   0.655  1.00  0.00    -0.228 OA
ENDBRANCH  19  20
ENDBRANCH   1  19
TORSDOF 2
