REMARK  6 active torsions:
REMARK  status: ('A' for Active; 'I' for Inactive)
REMARK    1  A    between atoms: C2_2  and  C3_3 
REMARK       I    between atoms: C3_3  and  N1_5 
REMARK    2  A    between atoms: N1_5  and  C4_6 
REMARK    3  A    between atoms: C9_13  and  N4_14 
REMARK    4  A    between atoms: N4_14  and  C10_15 
REMARK    5  A    between atoms: S1_18  and  C13_19 
REMARK    6  A    between atoms: C13_19  and  C14_20 
ROOT
HETATM    1  C4  UNL     1       5.074  -0.649   0.862  1.00  0.00     0.036 A 
HETATM    2  C5  UNL     1       5.550  -1.933   0.863  1.00  0.00     0.032 A 
HETATM    3  C6  UNL     1       4.787  -3.076   0.756  1.00  0.00     0.035 A 
HETATM    4  C7  UNL     1       3.423  -2.912   0.635  1.00  0.00     0.072 A 
HETATM    5  N2  UNL     1       2.597  -3.986   0.521  1.00  0.00    -0.241 NA
HETATM    6  C8  UNL     1       1.255  -3.757   0.402  1.00  0.00     0.236 A 
HETATM    7  N3  UNL     1       0.765  -2.508   0.398  1.00  0.00    -0.224 NA
HETATM    8  C9  UNL     1       1.508  -1.415   0.505  1.00  0.00     0.142 A 
HETATM    9  C20 UNL     1       2.887  -1.636   0.627  1.00  0.00     0.041 A 
HETATM   10  C21 UNL     1       3.706  -0.536   0.739  1.00  0.00     0.047 A 
ENDROOT
BRANCH   8  11
HETATM   11  N4  UNL     1       0.894  -0.133   0.490  1.00  0.00    -0.340 N 
HETATM   12  H8  UNL     1       1.284   0.807   0.558  1.00  0.00     0.167 HD
BRANCH  11  13
HETATM   13  C10 UNL     1      -0.531  -0.127   0.354  1.00  0.00     0.034 A 
HETATM   14  C11 UNL     1      -1.219   0.611   1.230  1.00  0.00     0.036 A 
HETATM   15  C12 UNL     1      -2.692   0.756   1.265  1.00  0.00     0.041 A 
HETATM   16  S1  UNL     1      -3.465  -0.085   0.109  1.00  0.00    -0.172 SA
HETATM   17  C18 UNL     1      -2.396  -1.026  -0.989  1.00  0.00     0.041 A 
HETATM   18  C19 UNL     1      -1.115  -0.915  -0.717  1.00  0.00     0.036 A 
BRANCH  16  19
HETATM   19  C13 UNL     1      -5.253  -0.031  -0.004  1.00  0.00     0.080 C 
BRANCH  19  20
HETATM   20  C14 UNL     1      -5.825   0.492  -1.292  1.00  0.00    -0.043 C 
HETATM   21  C15 UNL     1      -5.416   1.890  -1.607  1.00  0.00     0.015 C 
HETATM   22  C16 UNL     1      -5.409  -0.442  -2.421  1.00  0.00     0.015 C 
HETATM   23  C17 UNL     1      -7.332   0.410  -1.197  1.00  0.00     0.015 C 
ENDBRANCH  19  20
ENDBRANCH  16  19
ENDBRANCH  11  13
ENDBRANCH   8  11
BRANCH   1  24
HETATM   24  N1  UNL     1       5.835   0.540   0.965  1.00  0.00    -0.324 N 
HETATM   25  C3  UNL     1       7.232   0.750   1.074  1.00  0.00     0.244 C 
HETATM   26  O1  UNL     1       7.932  -0.295   1.083  1.00  0.00    -0.268 OA
HETATM   27  H4  UNL     1       5.317   1.463   0.967  1.00  0.00     0.169 HD
BRANCH  25  28
HETATM   28  C2  UNL     1       7.821   2.094   1.173  1.00  0.00     0.064 C 
HETATM   29  C1  UNL     1       7.406   3.378   1.197  1.00  0.00     0.017 C 
ENDBRANCH  25  28
ENDBRANCH   1  24
TORSDOF 6
