REMARK  6 active torsions:
REMARK  status: ('A' for Active; 'I' for Inactive)
REMARK    1  A    between atoms: C2_2  and  C3_3 
REMARK    2  A    between atoms: C3_3  and  C4_5 
REMARK    3  A    between atoms: C8_9  and  N1_10 
REMARK    4  A    between atoms: C9_11  and  N2_12 
REMARK    5  A    between atoms: C12_15  and  C13_16 
REMARK    6  A    between atoms: C18_21  and  N3_22 
ROOT
HETATM    1  C4  UNL     1      -3.865   0.102   0.017  1.00  0.00     0.020 C 
HETATM    2  C5  UNL     1      -3.904  -0.206   1.358  1.00  0.00     0.037 C 
HETATM    3  C6  UNL     1      -3.226  -1.483   0.809  1.00  0.00     0.259 A 
HETATM    4  C7  UNL     1      -2.929  -1.855  -0.462  1.00  0.00     0.030 A 
HETATM    5  C8  UNL     1      -2.447  -0.510  -0.209  1.00  0.00     0.098 A 
HETATM    6  C9  UNL     1      -1.429  -0.579   0.813  1.00  0.00     0.156 C 
HETATM    7  C19 UNL     1      -1.220  -1.967   1.564  1.00  0.00     0.327 C 
HETATM    8  N4  UNL     1      -2.390  -1.500   2.128  1.00  0.00     0.335 N 
ENDROOT
BRANCH   6   9
HETATM    9  N2  UNL     1      -0.061  -0.284   0.317  1.00  0.00    -0.348 N 
HETATM   10  C10 UNL     1       0.855  -0.333   1.443  1.00  0.00     0.089 A 
HETATM   11  C11 UNL     1       2.164  -0.132   1.421  1.00  0.00     0.024 A 
HETATM   12  C12 UNL     1       2.802   0.175   0.150  1.00  0.00    -0.049 A 
HETATM   13  C17 UNL     1       1.984   0.221  -0.878  1.00  0.00     0.037 A 
HETATM   14  C18 UNL     1       0.512   0.013  -0.959  1.00  0.00     0.343 A 
BRANCH  12  15
HETATM   15  C13 UNL     1       4.235   0.417  -0.006  1.00  0.00    -0.024 C 
HETATM   16  C14 UNL     1       4.665   0.716  -1.421  1.00  0.00     0.019 C 
HETATM   17  C15 UNL     1       4.742   1.562   0.856  1.00  0.00     0.019 C 
HETATM   18  C16 UNL     1       4.993  -0.814   0.456  1.00  0.00     0.019 C 
ENDBRANCH  12  15
BRANCH  14  19
HETATM   19  N3  UNL     1       0.381  -1.165  -1.835  1.00  0.00     0.105 N 
HETATM   20  H22 UNL     1       0.785  -1.972  -1.315  1.00  0.00     0.315 HD
HETATM   21  H23 UNL     1       0.941  -1.046  -2.706  1.00  0.00     0.315 HD
ENDBRANCH  14  19
ENDBRANCH   6   9
BRANCH   5  22
HETATM   22  N1  UNL     1      -1.998   0.006  -1.502  1.00  0.00    -0.316 NA
HETATM   23  H6  UNL     1      -2.543  -0.471  -2.222  1.00  0.00     0.119 HD
HETATM   24  H7  UNL     1      -2.221   1.041  -1.438  1.00  0.00     0.119 HD
ENDBRANCH   5  22
BRANCH   1  25
HETATM   25  C3  UNL     1      -4.710   0.827  -1.024  1.00  0.00     0.176 C 
HETATM   26  O1  UNL     1      -4.398   0.942  -2.229  1.00  0.00    -0.288 OA
BRANCH  25  27
HETATM   27  C2  UNL     1      -5.932   1.394  -0.535  1.00  0.00     0.029 C 
HETATM   28  C1  UNL     1      -6.764   1.611   0.493  1.00  0.00     0.035 C 
ENDBRANCH  25  27
ENDBRANCH   1  25
TORSDOF 6
