REMARK  7 active torsions:
REMARK  status: ('A' for Active; 'I' for Inactive)
REMARK    1  A    between atoms: C2_2  and  C3_3 
REMARK    2  A    between atoms: C2_2  and  N1_5 
REMARK    3  A    between atoms: N1_5  and  C4_6 
REMARK    4  A    between atoms: C4_6  and  C5_7 
REMARK    5  A    between atoms: C4_6  and  C19_24 
REMARK    6  A    between atoms: C9_13  and  N4_14 
REMARK    7  A    between atoms: N4_14  and  C10_15 
ROOT
HETATM    1  C5  UNL     1      -2.092  -0.086  -0.487  1.00  0.00     0.011 C 
HETATM    2  C6  UNL     1      -1.153  -0.890  -0.970  1.00  0.00     0.006 A 
HETATM    3  C7  UNL     1      -1.655  -2.167  -1.538  1.00  0.00     0.192 A 
HETATM    4  N2  UNL     1      -0.506  -2.921  -2.018  1.00  0.00    -0.278 NA
HETATM    5  C8  UNL     1       0.705  -2.496  -1.933  1.00  0.00     0.229 A 
HETATM    6  N3  UNL     1       1.166  -1.251  -1.377  1.00  0.00    -0.224 NA
HETATM    7  C9  UNL     1       0.241  -0.466  -0.904  1.00  0.00     0.137 A 
ENDROOT
BRANCH   7   8
HETATM    8  N4  UNL     1       0.603   0.789  -0.333  1.00  0.00    -0.344 N 
HETATM    9  H10 UNL     1      -0.096   1.558  -0.314  1.00  0.00     0.167 HD
BRANCH   8  10
HETATM   10  C10 UNL     1       1.931   0.967   0.207  1.00  0.00     0.011 C 
HETATM   11  C11 UNL     1       2.466   2.136  -0.200  1.00  0.00     0.025 C 
HETATM   12  C12 UNL     1       3.822   2.589   0.196  1.00  0.00    -0.001 C 
HETATM   13  C13 UNL     1       4.845   1.733   0.391  1.00  0.00    -0.018 C 
HETATM   14  C14 UNL     1       4.909   0.275   0.281  1.00  0.00    -0.030 C 
HETATM   15  C15 UNL     1       6.248  -0.147   0.912  1.00  0.00     0.019 C 
HETATM   16  C16 UNL     1       5.114  -0.049  -1.213  1.00  0.00     0.019 C 
HETATM   17  C17 UNL     1       3.849  -0.548   0.848  1.00  0.00     0.019 C 
HETATM   18  C18 UNL     1       2.493  -0.067   1.075  1.00  0.00     0.058 C 
ENDBRANCH   8  10
ENDBRANCH   7   8
BRANCH   1  19
HETATM   19  C4  UNL     1      -3.523  -0.459  -0.524  1.00  0.00     0.105 C 
BRANCH  19  20
HETATM   20  N1  UNL     1      -4.133  -0.304   0.804  1.00  0.00    -0.380 N 
HETATM   21  H4  UNL     1      -3.522   0.034   1.589  1.00  0.00     0.160 HD
BRANCH  20  22
HETATM   22  C2  UNL     1      -5.501  -0.574   1.141  1.00  0.00     0.057 C 
HETATM   23  C1  UNL     1      -6.084  -1.654   0.603  1.00  0.00     0.046 C 
BRANCH  22  24
HETATM   24  C3  UNL     1      -6.162   0.360   2.055  1.00  0.00     0.286 C 
HETATM   25  O1  UNL     1      -5.574   1.370   2.542  1.00  0.00    -0.300 OA
ENDBRANCH  22  24
ENDBRANCH  20  22
ENDBRANCH  19  20
BRANCH  19  26
HETATM   26  C19 UNL     1      -4.216   0.596  -1.389  1.00  0.00     0.024 C 
HETATM   27  C20 UNL     1      -3.918   1.949  -0.747  1.00  0.00     0.007 C 
ENDBRANCH  19  26
ENDBRANCH   1  19
TORSDOF 7
