REMARK  6 active torsions:
REMARK  status: ('A' for Active; 'I' for Inactive)
REMARK    1  A    between atoms: C2_2  and  C3_3 
REMARK       I    between atoms: C3_3  and  N1_5 
REMARK    2  A    between atoms: N1_5  and  C4_6 
REMARK    3  A    between atoms: C9_13  and  N4_14 
REMARK    4  A    between atoms: N4_14  and  C10_15 
REMARK    5  A    between atoms: C10_15  and  C11_16 
REMARK    6  A    between atoms: C11_16  and  C14_19 
ROOT
HETATM    1  C4  UNL     1       4.405  -0.600  -0.923  1.00  0.00     0.036 A 
HETATM    2  C5  UNL     1       5.161   0.386  -1.566  1.00  0.00     0.032 A 
HETATM    3  C6  UNL     1       4.523   1.576  -1.846  1.00  0.00     0.035 A 
HETATM    4  C7  UNL     1       3.205   1.791  -1.510  1.00  0.00     0.072 A 
HETATM    5  N2  UNL     1       2.695   2.976  -1.828  1.00  0.00    -0.241 NA
HETATM    6  C8  UNL     1       1.414   3.195  -1.506  1.00  0.00     0.235 A 
HETATM    7  N3  UNL     1       0.714   2.257  -0.900  1.00  0.00    -0.224 NA
HETATM    8  C9  UNL     1       1.125   1.034  -0.534  1.00  0.00     0.137 A 
HETATM    9  C21 UNL     1       2.446   0.832  -0.876  1.00  0.00     0.041 A 
HETATM   10  C22 UNL     1       3.089  -0.343  -0.605  1.00  0.00     0.047 A 
ENDROOT
BRANCH   8  11
HETATM   11  N4  UNL     1       0.345   0.060   0.125  1.00  0.00    -0.373 N 
HETATM   12  H8  UNL     1       0.816  -0.840   0.354  1.00  0.00     0.161 HD
BRANCH  11  13
HETATM   13  C10 UNL     1      -1.010   0.104   0.538  1.00  0.00     0.135 C 
BRANCH  13  14
HETATM   14  C11 UNL     1      -2.065   0.160  -0.495  1.00  0.00    -0.004 C 
HETATM   15  C12 UNL     1      -1.933  -1.073  -1.360  1.00  0.00     0.021 C 
HETATM   16  C13 UNL     1      -2.174   1.428  -1.283  1.00  0.00     0.021 C 
BRANCH  14  17
HETATM   17  C14 UNL     1      -3.409   0.020   0.192  1.00  0.00    -0.049 A 
HETATM   18  C15 UNL     1      -4.502  -0.043  -0.683  1.00  0.00     0.008 A 
HETATM   19  C16 UNL     1      -5.789  -0.163  -0.221  1.00  0.00     0.007 A 
HETATM   20  C17 UNL     1      -6.045  -0.227   1.129  1.00  0.00    -0.062 A 
HETATM   21  C18 UNL     1      -7.392  -0.358   1.750  1.00  0.00     0.048 C 
HETATM   22  C19 UNL     1      -4.969  -0.165   1.982  1.00  0.00     0.007 A 
HETATM   23  C20 UNL     1      -3.668  -0.044   1.545  1.00  0.00     0.008 A 
ENDBRANCH  14  17
ENDBRANCH  13  14
ENDBRANCH  11  13
ENDBRANCH   8  11
BRANCH   1  24
HETATM   24  N1  UNL     1       5.085  -1.820  -0.645  1.00  0.00    -0.324 N 
HETATM   25  C3  UNL     1       5.683  -1.713   0.642  1.00  0.00     0.241 C 
HETATM   26  O1  UNL     1       5.698  -0.782   1.495  1.00  0.00    -0.269 OA
HETATM   27  H4  UNL     1       5.284  -2.735  -1.056  1.00  0.00     0.169 HD
BRANCH  25  28
HETATM   28  C2  UNL     1       6.488  -2.647   1.422  1.00  0.00     0.048 C 
HETATM   29  C1  UNL     1       6.633  -1.818   2.443  1.00  0.00     0.037 C 
ENDBRANCH  25  28
ENDBRANCH   1  24
TORSDOF 6
