REMARK  6 active torsions:
REMARK  status: ('A' for Active; 'I' for Inactive)
REMARK    1  A    between atoms: C2_2  and  C3_3 
REMARK    2  A    between atoms: C3_3  and  C4_4 
REMARK    3  A    between atoms: C5_5  and  C6_6 
REMARK    4  A    between atoms: C7_7  and  N1_8 
REMARK    5  A    between atoms: N1_8  and  C8_9 
REMARK    6  A    between atoms: C10_13  and  C11_14 
ROOT
HETATM    1  C8  UNL     1       1.437  -0.712  -0.295  1.00  0.00     0.180 A 
HETATM    2  S1  UNL     1       2.904   0.001  -0.408  1.00  0.00    -0.002 SA
HETATM    3  N2  UNL     1       3.491   0.787   1.074  1.00  0.00    -0.263 NA
HETATM    4  C9  UNL     1       4.788   1.410   0.771  1.00  0.00     0.108 C 
HETATM    5  C10 UNL     1       4.765   2.038  -0.580  1.00  0.00     0.052 C 
HETATM    6  C12 UNL     1       5.674   1.397  -1.605  1.00  0.00     0.186 C 
HETATM    7  O1  UNL     1       4.947   0.401  -2.360  1.00  0.00    -0.328 OA
HETATM    8  C13 UNL     1       3.705  -0.121  -2.018  1.00  0.00     0.217 A 
HETATM    9  N3  UNL     1       3.006  -0.764  -2.886  1.00  0.00    -0.211 NA
HETATM   10  C14 UNL     1       1.730  -1.319  -2.589  1.00  0.00     0.239 A 
HETATM   11  N4  UNL     1       1.068  -1.301  -1.512  1.00  0.00    -0.217 NA
HETATM   12  H11 UNL     1       3.549   0.174   1.922  1.00  0.00     0.135 HD
ENDROOT
BRANCH   1  13
HETATM   13  N1  UNL     1       0.736  -0.665   0.942  1.00  0.00    -0.334 N 
HETATM   14  H10 UNL     1       1.145  -0.187   1.746  1.00  0.00     0.168 HD
BRANCH  13  15
HETATM   15  C7  UNL     1      -0.501  -1.360   0.774  1.00  0.00     0.041 A 
HETATM   16  C6  UNL     1      -1.713  -0.842   0.560  1.00  0.00    -0.028 A 
HETATM   17  C18 UNL     1      -2.697  -1.940   0.439  1.00  0.00     0.074 A 
HETATM   18  C16 UNL     1      -1.822  -3.148   0.650  1.00  0.00    -0.077 A 
HETATM   19  C15 UNL     1      -0.552  -2.814   0.835  1.00  0.00     0.033 A 
HETATM   20  C17 UNL     1      -2.320  -4.528   0.640  1.00  0.00     0.044 C 
BRANCH  16  21
HETATM   21  C5  UNL     1      -1.957   0.599   0.463  1.00  0.00     0.006 C 
HETATM   22  C4  UNL     1      -3.200   1.050   0.246  1.00  0.00    -0.026 C 
BRANCH  22  23
HETATM   23  C3  UNL     1      -4.598   0.724   0.033  1.00  0.00     0.027 C 
BRANCH  23  24
HETATM   24  C2  UNL     1      -5.507   1.336   1.098  1.00  0.00    -0.001 C 
HETATM   25  C1  UNL     1      -6.926   0.901   0.728  1.00  0.00     0.005 C 
ENDBRANCH  23  24
ENDBRANCH  22  23
ENDBRANCH  16  21
ENDBRANCH  13  15
ENDBRANCH   1  13
BRANCH   5  26
HETATM   26  C11 UNL     1       5.211   3.478  -0.464  1.00  0.00     0.230 C 
HETATM   27  F1  UNL     1       4.419   4.231   0.356  1.00  0.00    -0.255 F 
ENDBRANCH   5  26
TORSDOF 6
