REMARK  5 active torsions:
REMARK  status: ('A' for Active; 'I' for Inactive)
REMARK    1  A    between atoms: C2_2  and  C3_3 
REMARK    2  A    between atoms: C4_4  and  C5_5 
REMARK    3  A    between atoms: C5_5  and  C6_6 
REMARK    4  A    between atoms: C6_6  and  C7_7 
REMARK    5  A    between atoms: C11_11  and  N1_12 
REMARK       I    between atoms: N1_12  and  C12_13 
ROOT
HETATM    1  C3  UNL     1      -0.787  -0.373  -1.440  1.00  0.00     0.038 C 
HETATM    2  C4  UNL     1      -0.404  -0.184  -0.197  1.00  0.00    -0.006 C 
HETATM    3  C11 UNL     1      -1.081  -0.227   1.117  1.00  0.00     0.143 C 
HETATM    4  C14 UNL     1      -2.147  -1.251   1.215  1.00  0.00     0.015 C 
HETATM    5  C15 UNL     1      -2.952  -1.862   0.341  1.00  0.00     0.006 A 
HETATM    6  C16 UNL     1      -3.832  -2.810   1.031  1.00  0.00     0.192 A 
HETATM    7  N2  UNL     1      -4.707  -3.411   0.044  1.00  0.00    -0.278 NA
HETATM    8  C17 UNL     1      -4.685  -3.152  -1.213  1.00  0.00     0.229 A 
HETATM    9  N3  UNL     1      -3.813  -2.240  -1.869  1.00  0.00    -0.224 NA
HETATM   10  C18 UNL     1      -2.959  -1.609  -1.094  1.00  0.00     0.137 A 
HETATM   11  N4  UNL     1      -2.123  -0.734  -1.854  1.00  0.00    -0.340 N 
HETATM   12  H24 UNL     1      -2.498  -0.350  -2.743  1.00  0.00     0.167 HD
ENDROOT
BRANCH   2  13
HETATM   13  C5  UNL     1       0.998   0.152  -0.049  1.00  0.00     0.008 C 
BRANCH  13  14
HETATM   14  C6  UNL     1       2.246   0.423  -0.252  1.00  0.00    -0.018 C 
BRANCH  14  15
HETATM   15  C7  UNL     1       3.667   0.757  -0.166  1.00  0.00    -0.034 C 
HETATM   16  C8  UNL     1       4.001   2.046  -0.891  1.00  0.00     0.018 C 
HETATM   17  C9  UNL     1       4.546  -0.324  -0.712  1.00  0.00     0.018 C 
HETATM   18  C10 UNL     1       4.031   0.955   1.309  1.00  0.00     0.018 C 
ENDBRANCH  14  15
ENDBRANCH  13  14
ENDBRANCH   2  13
BRANCH   1  19
HETATM   19  C2  UNL     1       0.153  -0.243  -2.546  1.00  0.00     0.021 C 
HETATM   20  C1  UNL     1      -0.194  -0.426  -3.810  1.00  0.00     0.016 C 
ENDBRANCH   1  19
BRANCH   3  21
HETATM   21  N1  UNL     1      -1.686   1.079   1.434  1.00  0.00    -0.349 N 
HETATM   22  C12 UNL     1      -1.258   1.777   2.599  1.00  0.00     0.214 C 
HETATM   23  C13 UNL     1      -1.721   3.084   3.104  1.00  0.00     0.117 C 
HETATM   24  O1  UNL     1      -0.371   1.277   3.350  1.00  0.00    -0.274 OA
HETATM   25  H16 UNL     1      -2.409   1.586   0.907  1.00  0.00     0.163 HD
ENDBRANCH   3  21
TORSDOF 5
