REMARK  6 active torsions:
REMARK  status: ('A' for Active; 'I' for Inactive)
REMARK    1  A    between atoms: C2_2  and  C3_3 
REMARK       I    between atoms: C3_3  and  N1_5 
REMARK    2  A    between atoms: N1_5  and  C4_6 
REMARK    3  A    between atoms: C4_6  and  C6_8 
REMARK    4  A    between atoms: C10_14  and  N4_15 
REMARK    5  A    between atoms: N4_15  and  C11_16 
REMARK    6  A    between atoms: C14_19  and  C15_20 
ROOT
HETATM    1  C6  UNL     1       2.697   0.042  -0.664  1.00  0.00     0.041 C 
HETATM    2  C7  UNL     1       2.293  -1.127  -0.198  1.00  0.00     0.010 A 
HETATM    3  C8  UNL     1       3.164  -2.120   0.434  1.00  0.00     0.192 A 
HETATM    4  N2  UNL     1       2.420  -3.294   0.804  1.00  0.00    -0.278 NA
HETATM    5  C9  UNL     1       1.181  -3.531   0.654  1.00  0.00     0.229 A 
HETATM    6  N3  UNL     1       0.352  -2.556   0.045  1.00  0.00    -0.224 NA
HETATM    7  C10 UNL     1       0.879  -1.447  -0.345  1.00  0.00     0.137 A 
ENDROOT
BRANCH   7   8
HETATM    8  N4  UNL     1      -0.064  -0.556  -0.953  1.00  0.00    -0.341 N 
HETATM    9  H11 UNL     1       0.306  -0.008  -1.790  1.00  0.00     0.167 HD
BRANCH   8  10
HETATM   10  C11 UNL     1      -1.408  -0.339  -0.552  1.00  0.00     0.033 A 
HETATM   11  C12 UNL     1      -2.211   0.539  -1.286  1.00  0.00     0.030 A 
HETATM   12  C13 UNL     1      -3.517   0.777  -0.920  1.00  0.00     0.010 A 
HETATM   13  C14 UNL     1      -4.100   0.175   0.172  1.00  0.00    -0.051 A 
HETATM   14  C19 UNL     1      -3.326  -0.694   0.912  1.00  0.00     0.010 A 
HETATM   15  C20 UNL     1      -2.026  -0.910   0.520  1.00  0.00     0.030 A 
BRANCH  13  16
HETATM   16  C15 UNL     1      -5.504   0.405   0.598  1.00  0.00    -0.024 C 
HETATM   17  C16 UNL     1      -6.153   1.376  -0.352  1.00  0.00     0.019 C 
HETATM   18  C17 UNL     1      -6.295  -0.872   0.580  1.00  0.00     0.019 C 
HETATM   19  C18 UNL     1      -5.532   1.031   1.977  1.00  0.00     0.019 C 
ENDBRANCH  13  16
ENDBRANCH   8  10
ENDBRANCH   7   8
BRANCH   1  20
HETATM   20  C4  UNL     1       4.011   0.653  -0.698  1.00  0.00     0.026 C 
HETATM   21  C5  UNL     1       4.153   1.862  -1.224  1.00  0.00     0.043 C 
BRANCH  20  22
HETATM   22  N1  UNL     1       5.208   0.069  -0.223  1.00  0.00    -0.324 N 
HETATM   23  C3  UNL     1       6.406   0.848  -0.367  1.00  0.00     0.244 C 
HETATM   24  O1  UNL     1       6.483   2.016  -0.885  1.00  0.00    -0.268 OA
HETATM   25  H4  UNL     1       5.551  -0.796   0.227  1.00  0.00     0.169 HD
BRANCH  23  26
HETATM   26  C2  UNL     1       7.776   0.469   0.045  1.00  0.00     0.064 C 
HETATM   27  C1  UNL     1       8.460   1.563  -0.333  1.00  0.00     0.017 C 
ENDBRANCH  23  26
ENDBRANCH  20  22
ENDBRANCH   1  20
TORSDOF 6
