REMARK  5 active torsions:
REMARK  status: ('A' for Active; 'I' for Inactive)
REMARK    1  A    between atoms: C2_3  and  C3_4 
REMARK    2  A    between atoms: C6_9  and  C7_10 
REMARK    3  A    between atoms: C12_17  and  C13_18 
REMARK    4  A    between atoms: C14_19  and  C15_20 
REMARK    5  A    between atoms: C15_20  and  C16_21 
ROOT
HETATM    1  B1  UNL     1      -5.706  -0.481  -3.433  1.00  0.00     0.189 B 
HETATM    2  C1  UNL     1      -5.711   0.428  -1.949  1.00  0.00    -0.255 C 
HETATM    3  C2  UNL     1      -5.735   1.220  -0.691  1.00  0.00     0.124 C 
ENDROOT
BRANCH   3   4
HETATM    4  C3  UNL     1      -5.462   0.251   0.401  1.00  0.00     0.075 A 
HETATM    5  N1  UNL     1      -6.451  -0.266   1.151  1.00  0.00    -0.176 NA
HETATM    6  N2  UNL     1      -5.988  -1.140   2.026  1.00  0.00    -0.284 N 
HETATM    7  C4  UNL     1      -6.821  -1.870   2.981  1.00  0.00     0.179 C 
HETATM    8  C5  UNL     1      -4.667  -1.193   1.841  1.00  0.00     0.125 A 
HETATM    9  C6  UNL     1      -4.280  -0.322   0.816  1.00  0.00     0.009 A 
BRANCH   9  10
HETATM   10  C7  UNL     1      -2.941  -0.040   0.340  1.00  0.00     0.032 C 
HETATM   11  C8  UNL     1      -2.193   1.043   0.264  1.00  0.00     0.040 C 
HETATM   12  C9  UNL     1      -2.412   2.431   0.643  1.00  0.00     0.252 C 
HETATM   13  C11 UNL     1      -0.860   1.041  -0.323  1.00  0.00    -0.025 C 
HETATM   14  O1  UNL     1      -3.442   2.886   1.194  1.00  0.00    -0.268 OA
HETATM   15  N3  UNL     1      -1.275   3.212   0.299  1.00  0.00    -0.353 N 
HETATM   16  C10 UNL     1      -0.614   2.463  -0.752  1.00  0.00     0.162 C 
HETATM   17  H8  UNL     1      -1.004   4.138   0.741  1.00  0.00     0.163 HD
HETATM   18  C12 UNL     1      -0.024   0.026  -0.463  1.00  0.00     0.009 C 
BRANCH  18  19
HETATM   19  C13 UNL     1       1.300   0.102  -1.064  1.00  0.00    -0.003 C 
HETATM   20  C14 UNL     1       2.158  -0.893  -1.219  1.00  0.00    -0.024 C 
BRANCH  20  21
HETATM   21  C15 UNL     1       3.464  -0.671  -1.845  1.00  0.00     0.059 C 
BRANCH  21  22
HETATM   22  C16 UNL     1       4.532  -1.054  -0.825  1.00  0.00     0.124 C 
HETATM   23  C17 UNL     1       5.903  -0.849  -1.402  1.00  0.00     0.032 C 
HETATM   24  C18 UNL     1       6.908  -0.922  -0.282  1.00  0.00     0.004 C 
HETATM   25  C19 UNL     1       6.533  -0.039   0.863  1.00  0.00     0.026 C 
HETATM   26  C20 UNL     1       5.225   0.653   0.518  1.00  0.00     0.168 C 
HETATM   27  O2  UNL     1       4.277  -0.336   0.326  1.00  0.00    -0.386 OA
ENDBRANCH  21  22
ENDBRANCH  20  21
ENDBRANCH  18  19
ENDBRANCH   9  10
ENDBRANCH   3   4
TORSDOF 5
