REMARK  4 active torsions:
REMARK  status: ('A' for Active; 'I' for Inactive)
REMARK    1  A    between atoms: C2_2  and  C3_3 
REMARK       I    between atoms: C3_3  and  N1_5 
REMARK    2  A    between atoms: N1_5  and  C4_6 
REMARK    3  A    between atoms: C9_13  and  C10_14 
REMARK    4  A    between atoms: C13_17  and  C14_18 
ROOT
HETATM    1  C4  UNL     1       3.421  -0.694  -0.408  1.00  0.00     0.035 A 
HETATM    2  C5  UNL     1       4.255  -1.778  -0.550  1.00  0.00     0.032 A 
HETATM    3  C6  UNL     1       3.860  -3.099  -0.532  1.00  0.00     0.035 A 
HETATM    4  C7  UNL     1       2.519  -3.368  -0.358  1.00  0.00     0.070 A 
HETATM    5  N2  UNL     1       2.015  -4.620  -0.335  1.00  0.00    -0.241 NA
HETATM    6  C8  UNL     1       0.691  -4.813  -0.173  1.00  0.00     0.234 A 
HETATM    7  N3  UNL     1      -0.150  -3.759  -0.029  1.00  0.00    -0.240 NA
HETATM    8  C9  UNL     1       0.305  -2.492  -0.044  1.00  0.00     0.081 A 
HETATM    9  C20 UNL     1       1.660  -2.300  -0.212  1.00  0.00     0.025 A 
HETATM   10  C21 UNL     1       2.095  -1.012  -0.238  1.00  0.00     0.045 A 
ENDROOT
BRANCH   8  11
HETATM   11  C10 UNL     1      -0.734  -1.492   0.125  1.00  0.00    -0.006 A 
HETATM   12  C11 UNL     1      -1.862  -1.546  -0.684  1.00  0.00     0.014 A 
HETATM   13  C12 UNL     1      -2.911  -0.670  -0.591  1.00  0.00     0.009 A 
HETATM   14  C13 UNL     1      -2.887   0.347   0.354  1.00  0.00    -0.051 A 
HETATM   15  C18 UNL     1      -1.771   0.443   1.195  1.00  0.00     0.009 A 
HETATM   16  C19 UNL     1      -0.747  -0.471   1.051  1.00  0.00     0.014 A 
BRANCH  14  17
HETATM   17  C14 UNL     1      -3.920   1.377   0.597  1.00  0.00    -0.024 C 
HETATM   18  C15 UNL     1      -5.103   1.270  -0.305  1.00  0.00     0.019 C 
HETATM   19  C16 UNL     1      -3.276   2.730   0.380  1.00  0.00     0.019 C 
HETATM   20  C17 UNL     1      -4.331   1.316   2.051  1.00  0.00     0.019 C 
ENDBRANCH  14  17
ENDBRANCH   8  11
BRANCH   1  21
HETATM   21  N1  UNL     1       3.811   0.665  -0.423  1.00  0.00    -0.324 N 
HETATM   22  C3  UNL     1       5.088   1.258  -0.553  1.00  0.00     0.244 C 
HETATM   23  O1  UNL     1       6.056   0.498  -0.674  1.00  0.00    -0.268 OA
HETATM   24  H4  UNL     1       3.062   1.403  -0.324  1.00  0.00     0.169 HD
BRANCH  22  25
HETATM   25  C2  UNL     1       5.313   2.695  -0.552  1.00  0.00     0.064 C 
HETATM   26  C1  UNL     1       4.322   3.558  -0.430  1.00  0.00     0.017 C 
ENDBRANCH  22  25
ENDBRANCH   1  21
TORSDOF 4
