REMARK  3 active torsions:
REMARK  status: ('A' for Active; 'I' for Inactive)
REMARK    1  A    between atoms: C2_2  and  C3_3 
REMARK    2  A    between atoms: C3_3  and  C4_4 
REMARK    3  A    between atoms: C16_19  and  C17_20 
ROOT
HETATM    1  C4  UNL     1      -2.357  -1.826   0.979  1.00  0.00    -0.061 C 
HETATM    2  C5  UNL     1      -3.607  -1.619   0.778  1.00  0.00    -0.019 C 
HETATM    3  C6  UNL     1      -3.687  -0.189   0.678  1.00  0.00     0.034 C 
HETATM    4  C7  UNL     1      -4.366   0.453  -0.409  1.00  0.00     0.065 C 
HETATM    5  C8  UNL     1      -4.129   1.953  -0.430  1.00  0.00     0.066 A 
HETATM    6  N1  UNL     1      -5.010   2.975  -0.180  1.00  0.00    -0.177 NA
HETATM    7  N2  UNL     1      -4.402   4.142  -0.265  1.00  0.00    -0.284 N 
HETATM    8  C9  UNL     1      -5.093   5.397  -0.047  1.00  0.00     0.179 C 
HETATM    9  C10 UNL     1      -3.112   3.928  -0.570  1.00  0.00     0.124 A 
HETATM   10  C11 UNL     1      -2.917   2.566  -0.680  1.00  0.00     0.025 A 
HETATM   11  C12 UNL     1      -1.680   1.941  -1.031  1.00  0.00     0.168 C 
HETATM   12  N3  UNL     1      -0.478   2.546  -0.442  1.00  0.00    -0.366 N 
HETATM   13  C13 UNL     1       0.710   1.704  -0.318  1.00  0.00     0.040 A 
HETATM   14  C14 UNL     1       2.015   2.219  -0.299  1.00  0.00     0.031 A 
HETATM   15  C15 UNL     1       3.094   1.345  -0.123  1.00  0.00     0.012 A 
HETATM   16  C16 UNL     1       2.942  -0.037   0.038  1.00  0.00    -0.029 A 
HETATM   17  C22 UNL     1       1.701  -0.633   0.030  1.00  0.00     0.024 A 
HETATM   18  C23 UNL     1       0.690   0.286  -0.148  1.00  0.00    -0.001 A 
HETATM   19  C24 UNL     1      -0.740  -0.110  -0.130  1.00  0.00    -0.019 C 
HETATM   20  C25 UNL     1      -1.079  -1.167   0.650  1.00  0.00     0.017 C 
HETATM   21  C26 UNL     1      -1.568   0.531  -1.212  1.00  0.00     0.161 C 
HETATM   22  N4  UNL     1      -0.652   0.771  -2.402  1.00  0.00    -0.347 N 
HETATM   23  C27 UNL     1      -1.377   1.960  -2.538  1.00  0.00     0.254 C 
HETATM   24  O2  UNL     1      -1.550   2.584  -3.598  1.00  0.00    -0.270 OA
HETATM   25  H17 UNL     1      -0.315   3.510  -0.083  1.00  0.00     0.161 HD
HETATM   26  H32 UNL     1       0.120   0.196  -2.797  1.00  0.00     0.163 HD
ENDROOT
BRANCH  16  27
HETATM   27  C17 UNL     1       4.121  -0.912   0.222  1.00  0.00     0.154 C 
HETATM   28  C18 UNL     1       4.701  -1.311  -1.112  1.00  0.00     0.037 C 
HETATM   29  C19 UNL     1       5.987  -2.075  -0.767  1.00  0.00     0.005 C 
HETATM   30  C20 UNL     1       6.932  -0.963  -0.333  1.00  0.00     0.026 C 
HETATM   31  C21 UNL     1       6.251  -0.064   0.638  1.00  0.00     0.168 C 
HETATM   32  O1  UNL     1       5.040  -0.416   1.107  1.00  0.00    -0.381 OA
ENDBRANCH  16  27
BRANCH   1  33
HETATM   33  C3  UNL     1      -2.038  -3.299   1.171  1.00  0.00     0.038 C 
BRANCH  33  34
HETATM   34  C2  UNL     1      -1.449  -3.463   2.538  1.00  0.00     0.000 C 
HETATM   35  C1  UNL     1      -1.135  -4.933   2.724  1.00  0.00     0.005 C 
ENDBRANCH  33  34
ENDBRANCH   1  33
TORSDOF 3
