REMARK  3 active torsions:
REMARK  status: ('A' for Active; 'I' for Inactive)
REMARK    1  A    between atoms: C2_2  and  C3_3 
REMARK    2  A    between atoms: N4_18  and  O1_19 
REMARK    3  A    between atoms: O1_19  and  C14_20 
ROOT
HETATM    1  C3  UNL     1      -1.469   1.347  -0.413  1.00  0.00    -0.004 C 
HETATM    2  C4  UNL     1      -2.420   0.929   0.680  1.00  0.00     0.038 C 
HETATM    3  C5  UNL     1      -2.955   0.115   1.589  1.00  0.00     0.019 C 
HETATM    4  C6  UNL     1      -2.947  -1.250   2.256  1.00  0.00     0.126 C 
HETATM    5  N1  UNL     1      -2.130  -2.179   1.444  1.00  0.00    -0.375 N 
HETATM    6  C7  UNL     1      -0.825  -1.860   1.186  1.00  0.00     0.153 A 
HETATM    7  N2  UNL     1       0.116  -1.276   1.847  1.00  0.00    -0.047 NA
HETATM    8  C8  UNL     1       1.133  -1.030   0.810  1.00  0.00     0.729 A 
HETATM    9  N3  UNL     1       0.679  -1.490  -0.208  1.00  0.00    -0.182 N 
HETATM   10  C9  UNL     1      -0.466  -2.042  -0.261  1.00  0.00     0.169 A 
HETATM   11  C10 UNL     1       0.369  -1.892  -1.342  1.00  0.00     0.173 A 
HETATM   12  C11 UNL     1       1.468  -0.803  -1.593  1.00  0.00     0.186 C 
HETATM   13  C12 UNL     1       0.644   0.406  -1.684  1.00  0.00     0.046 C 
HETATM   14  C13 UNL     1      -0.322   1.199  -1.357  1.00  0.00     0.122 C 
HETATM   15  F1  UNL     1      -0.295   2.234  -2.231  1.00  0.00    -0.206 F 
HETATM   16  N4  UNL     1       2.169  -0.777  -0.234  1.00  0.00    -0.071 N 
HETATM   17  H7  UNL     1      -2.329  -3.093   1.011  1.00  0.00     0.160 HD
ENDROOT
BRANCH  16  18
HETATM   18  O1  UNL     1       3.173  -0.664   0.793  1.00  0.00    -0.234 OA
BRANCH  18  19
HETATM   19  C14 UNL     1       4.134   0.302   0.523  1.00  0.00     0.158 C 
HETATM   20  C15 UNL     1       4.699   0.149  -0.665  1.00  0.00     0.039 C 
ENDBRANCH  18  19
ENDBRANCH  16  18
BRANCH   1  21
HETATM   21  C2  UNL     1      -2.051   2.565  -0.430  1.00  0.00    -0.026 C 
HETATM   22  C1  UNL     1      -2.084   3.915  -0.254  1.00  0.00     0.025 C 
ENDBRANCH   1  21
TORSDOF 3
