REMARK  5 active torsions:
REMARK  status: ('A' for Active; 'I' for Inactive)
REMARK    1  A    between atoms: C5_5  and  C6_6 
REMARK    2  A    between atoms: C21_24  and  C22_25 
REMARK    3  A    between atoms: C22_25  and  C23_26 
REMARK    4  A    between atoms: C23_26  and  N3_27 
REMARK    5  A    between atoms: N3_27  and  C24_28 
ROOT
HETATM    1  C1  UNL     1      -1.549  -4.564  -0.701  1.00  0.00     0.016 C 
HETATM    2  C2  UNL     1      -1.429  -3.177  -0.093  1.00  0.00    -0.027 C 
HETATM    3  C3  UNL     1      -1.901  -1.942  -0.056  1.00  0.00     0.026 C 
HETATM    4  C4  UNL     1      -2.848  -0.891  -0.488  1.00  0.00    -0.015 C 
HETATM    5  C5  UNL     1      -2.614   0.284   0.059  1.00  0.00    -0.049 C 
HETATM    6  C11 UNL     1      -1.477   0.765   0.925  1.00  0.00     0.040 C 
HETATM    7  C12 UNL     1      -0.203   0.793   0.077  1.00  0.00     0.068 C 
HETATM    8  C13 UNL     1       0.686  -0.197   0.739  1.00  0.00     0.015 C 
HETATM    9  C14 UNL     1       2.008  -0.386   0.683  1.00  0.00    -0.016 C 
HETATM   10  C15 UNL     1       2.970  -1.359   1.320  1.00  0.00     0.048 C 
HETATM   11  C16 UNL     1       4.144  -0.696   1.956  1.00  0.00     0.067 C 
HETATM   12  C17 UNL     1       4.890   0.224   1.116  1.00  0.00     0.068 A 
HETATM   13  N1  UNL     1       6.148   0.668   1.086  1.00  0.00    -0.177 NA
HETATM   14  N2  UNL     1       6.285   1.511   0.086  1.00  0.00    -0.284 N 
HETATM   15  C18 UNL     1       7.518   2.221  -0.286  1.00  0.00     0.179 C 
HETATM   16  C19 UNL     1       5.102   1.621  -0.545  1.00  0.00     0.126 A 
HETATM   17  C20 UNL     1       4.146   0.806   0.077  1.00  0.00     0.026 A 
HETATM   18  C21 UNL     1       2.729   0.519  -0.154  1.00  0.00     0.033 C 
HETATM   19  N4  UNL     1      -0.155  -1.022   1.539  1.00  0.00    -0.383 N 
HETATM   20  C25 UNL     1      -0.348  -2.326   2.004  1.00  0.00     0.123 C 
HETATM   21  C26 UNL     1      -0.441  -3.444   0.984  1.00  0.00     0.030 C 
HETATM   22  C27 UNL     1      -1.217  -0.129   2.060  1.00  0.00     0.132 C 
ENDROOT
BRANCH  18  23
HETATM   23  C22 UNL     1       2.257   1.181  -1.185  1.00  0.00    -0.098 C 
BRANCH  23  24
HETATM   24  C23 UNL     1       1.773   1.458  -2.370  1.00  0.00     0.147 C 
BRANCH  24  25
HETATM   25  N3  UNL     1       1.947   0.608  -3.442  1.00  0.00    -0.337 N 
HETATM   26  H27 UNL     1       1.487   1.013  -4.285  1.00  0.00     0.168 HD
BRANCH  25  27
HETATM   27  C24 UNL     1       2.635  -0.633  -3.440  1.00  0.00     0.353 C 
HETATM   28  O2  UNL     1       3.170  -1.069  -2.388  1.00  0.00    -0.283 OA
ENDBRANCH  25  27
ENDBRANCH  24  25
ENDBRANCH  23  24
ENDBRANCH  18  23
BRANCH   5  29
HETATM   29  C6  UNL     1      -3.466   1.455  -0.244  1.00  0.00     0.150 C 
HETATM   30  C7  UNL     1      -4.634   1.109  -1.090  1.00  0.00     0.036 C 
HETATM   31  C8  UNL     1      -5.501   2.385  -1.160  1.00  0.00     0.005 C 
HETATM   32  C9  UNL     1      -5.920   2.765   0.224  1.00  0.00     0.026 C 
HETATM   33  C10 UNL     1      -5.179   1.922   1.249  1.00  0.00     0.168 C 
HETATM   34  O1  UNL     1      -3.829   2.032   0.977  1.00  0.00    -0.382 OA
ENDBRANCH   5  29
TORSDOF 5
