REMARK  3 active torsions:
REMARK  status: ('A' for Active; 'I' for Inactive)
REMARK    1  A    between atoms: C2_2  and  C3_3 
REMARK    2  A    between atoms: C3_3  and  N1_5 
REMARK    3  A    between atoms: C10_11  and  C11_12 
ROOT
HETATM    1  N1  UNL     1      -0.490   2.010   0.720  1.00  0.00    -0.367 N 
HETATM    2  C5  UNL     1      -1.785   1.310   0.412  1.00  0.00     0.029 C 
HETATM    3  C6  UNL     1      -1.473   0.455  -0.606  1.00  0.00    -0.021 C 
HETATM    4  C7  UNL     1      -0.201   1.070  -1.181  1.00  0.00     0.070 C 
HETATM    5  C8  UNL     1       0.468   1.033   0.113  1.00  0.00     0.112 C 
HETATM    6  C9  UNL     1       1.815   0.983   0.427  1.00  0.00     0.004 C 
HETATM    7  C10 UNL     1       2.431  -0.235   0.109  1.00  0.00    -0.053 C 
HETATM    8  C16 UNL     1       1.753  -1.238  -0.707  1.00  0.00     0.038 C 
HETATM    9  C17 UNL     1       1.244  -2.513  -0.168  1.00  0.00     0.035 C 
HETATM   10  C18 UNL     1       0.416  -3.275  -1.262  1.00  0.00     0.276 C 
HETATM   11  N2  UNL     1      -0.515  -2.302  -1.865  1.00  0.00     0.091 N 
HETATM   12  C19 UNL     1      -1.556  -1.307  -2.001  1.00  0.00     0.383 A 
HETATM   13  O2  UNL     1      -1.109  -1.911  -0.923  1.00  0.00    -0.145 OA
HETATM   14  C20 UNL     1      -2.350  -0.704  -0.958  1.00  0.00     0.029 C 
HETATM   15  C21 UNL     1      -3.214  -0.369  -0.064  1.00  0.00    -0.034 C 
HETATM   16  C22 UNL     1      -4.398  -1.187   0.115  1.00  0.00     0.180 C 
HETATM   17  N3  UNL     1      -5.551  -0.251  -0.130  1.00  0.00    -0.306 N 
HETATM   18  C23 UNL     1      -6.764  -1.010   0.029  1.00  0.00     0.173 C 
HETATM   19  N4  UNL     1      -5.300   1.112  -0.453  1.00  0.00    -0.193 NA
HETATM   20  C24 UNL     1      -4.201   1.731  -0.075  1.00  0.00     0.126 C 
HETATM   21  C25 UNL     1      -3.231   0.965   0.697  1.00  0.00     0.109 C 
HETATM   22  H27 UNL     1      -0.348  -2.273  -2.952  1.00  0.00     0.322 HD
ENDROOT
BRANCH   7  23
HETATM   23  C11 UNL     1       3.902  -0.310   0.475  1.00  0.00     0.150 C 
HETATM   24  C12 UNL     1       4.278  -1.536   1.220  1.00  0.00     0.036 C 
HETATM   25  C13 UNL     1       5.044  -2.578   0.478  1.00  0.00     0.005 C 
HETATM   26  C14 UNL     1       5.812  -2.080  -0.692  1.00  0.00     0.026 C 
HETATM   27  C15 UNL     1       5.355  -0.812  -1.310  1.00  0.00     0.168 C 
HETATM   28  O1  UNL     1       4.728   0.095  -0.531  1.00  0.00    -0.382 OA
ENDBRANCH   7  23
BRANCH   1  29
HETATM   29  C3  UNL     1      -0.597   3.238   1.416  1.00  0.00     0.103 C 
HETATM   30  C4  UNL     1      -1.132   3.091   2.823  1.00  0.00     0.037 C 
BRANCH  29  31
HETATM   31  C2  UNL     1      -1.354   4.235   0.653  1.00  0.00    -0.012 C 
HETATM   32  C1  UNL     1      -1.197   5.440   0.117  1.00  0.00     0.009 C 
ENDBRANCH  29  31
ENDBRANCH   1  29
TORSDOF 3
