REMARK  1 active torsions:
REMARK  status: ('A' for Active; 'I' for Inactive)
REMARK    1  A    between atoms: C16_19  and  C17_20 
ROOT
HETATM    1  C1  UNL     1      -6.493  -1.864  -1.607  1.00  0.00     0.179 C 
HETATM    2  N1  UNL     1      -5.289  -1.489  -0.865  1.00  0.00    -0.284 N 
HETATM    3  C2  UNL     1      -4.586  -0.346  -0.953  1.00  0.00     0.126 A 
HETATM    4  C3  UNL     1      -3.539  -0.446  -0.067  1.00  0.00     0.015 A 
HETATM    5  C4  UNL     1      -3.638  -1.675   0.549  1.00  0.00     0.067 A 
HETATM    6  N2  UNL     1      -4.715  -2.273   0.032  1.00  0.00    -0.177 NA
HETATM    7  C5  UNL     1      -2.699  -2.190   1.575  1.00  0.00     0.064 C 
HETATM    8  C6  UNL     1      -1.984  -1.017   2.192  1.00  0.00     0.030 C 
HETATM    9  C7  UNL     1      -1.373  -0.196   1.101  1.00  0.00     0.044 A 
HETATM   10  C8  UNL     1      -0.427   0.779   1.681  1.00  0.00    -0.017 A 
HETATM   11  C9  UNL     1      -0.540   1.768   2.524  1.00  0.00    -0.000 C 
HETATM   12  C10 UNL     1      -1.312   2.756   2.170  1.00  0.00     0.096 C 
HETATM   13  N3  UNL     1      -1.982   3.477   1.121  1.00  0.00    -0.395 N 
HETATM   14  C11 UNL     1      -2.113   2.898  -0.194  1.00  0.00     0.147 C 
HETATM   15  C12 UNL     1      -2.791   1.597  -0.214  1.00  0.00     0.002 C 
HETATM   16  C13 UNL     1      -2.444   0.437   0.308  1.00  0.00    -0.029 C 
HETATM   17  C14 UNL     1       0.674   0.180   0.927  1.00  0.00    -0.019 A 
HETATM   18  C15 UNL     1       2.026   0.239   0.654  1.00  0.00     0.022 A 
HETATM   19  C16 UNL     1       2.555  -0.683  -0.228  1.00  0.00    -0.029 A 
HETATM   20  C22 UNL     1       1.664  -1.607  -0.777  1.00  0.00     0.010 A 
HETATM   21  C23 UNL     1       0.319  -1.646  -0.490  1.00  0.00     0.010 A 
HETATM   22  C24 UNL     1      -0.214  -0.727   0.392  1.00  0.00    -0.029 A 
HETATM   23  H10 UNL     1      -2.327   4.421   1.464  1.00  0.00     0.159 HD
ENDROOT
BRANCH  19  24
HETATM   24  C17 UNL     1       3.987  -0.701  -0.582  1.00  0.00     0.154 C 
HETATM   25  C18 UNL     1       4.647   0.522  -0.030  1.00  0.00     0.037 C 
HETATM   26  C19 UNL     1       6.082   0.681  -0.406  1.00  0.00     0.005 C 
HETATM   27  C20 UNL     1       6.313   0.172  -1.801  1.00  0.00     0.026 C 
HETATM   28  C21 UNL     1       4.989   0.075  -2.528  1.00  0.00     0.168 C 
HETATM   29  O1  UNL     1       4.140  -0.849  -1.949  1.00  0.00    -0.381 OA
ENDBRANCH  19  24
TORSDOF 1
