REMARK  5 active torsions:
REMARK  status: ('A' for Active; 'I' for Inactive)
REMARK    1  A    between atoms: N1_7  and  C6_8 
REMARK    2  A    between atoms: C6_8  and  C7_9 
REMARK    3  A    between atoms: C7_9  and  O2_10 
REMARK    4  A    between atoms: O2_10  and  C8_11 
REMARK    5  A    between atoms: C20_27  and  O3_28 
ROOT
HETATM    1  C8  UNL     1      -0.735  -0.511  -0.105  1.00  0.00     0.155 C 
HETATM    2  C9  UNL     1      -1.501   0.667   0.432  1.00  0.00     0.076 C 
HETATM    3  C10 UNL     1      -2.232   1.478  -0.543  1.00  0.00    -0.018 A 
HETATM    4  C11 UNL     1      -3.599   1.331  -0.744  1.00  0.00     0.057 A 
HETATM    5  C12 UNL     1      -4.333   2.074  -1.649  1.00  0.00     0.034 A 
HETATM    6  C13 UNL     1      -3.716   3.042  -2.430  1.00  0.00     0.045 A 
HETATM    7  C14 UNL     1      -2.366   3.230  -2.272  1.00  0.00     0.122 A 
HETATM    8  F1  UNL     1      -1.722   4.176  -3.025  1.00  0.00    -0.206 F 
HETATM    9  C15 UNL     1      -1.680   2.458  -1.352  1.00  0.00    -0.015 A 
HETATM   10  C16 UNL     1      -0.232   2.753  -1.234  1.00  0.00     0.052 C 
HETATM   11  N2  UNL     1      -4.515   0.431  -0.077  1.00  0.00    -0.277 N 
HETATM   12  N3  UNL     1      -4.611   0.104   1.302  1.00  0.00    -0.171 NA
HETATM   13  C17 UNL     1      -4.760  -1.082   1.717  1.00  0.00     0.214 C 
HETATM   14  N4  UNL     1      -4.827  -2.076   0.722  1.00  0.00    -0.401 NA
HETATM   15  C18 UNL     1      -3.909  -2.364  -0.131  1.00  0.00     0.307 C 
HETATM   16  C19 UNL     1      -2.728  -1.550   0.009  1.00  0.00     0.133 C 
HETATM   17  C20 UNL     1      -1.618  -1.582  -0.687  1.00  0.00     0.074 C 
HETATM   18  H21 UNL     1      -5.241  -0.098  -0.611  1.00  0.00     0.189 HD
ENDROOT
BRANCH   1  19
HETATM   19  O2  UNL     1       0.239  -0.137  -1.008  1.00  0.00    -0.381 OA
BRANCH  19  20
HETATM   20  C7  UNL     1       1.532  -0.415  -0.658  1.00  0.00     0.188 C 
BRANCH  20  21
HETATM   21  C6  UNL     1       2.047   0.209   0.591  1.00  0.00     0.149 C 
BRANCH  21  22
HETATM   22  N1  UNL     1       3.443  -0.145   0.890  1.00  0.00    -0.382 N 
HETATM   23  C2  UNL     1       3.785  -0.959   2.006  1.00  0.00     0.009 C 
HETATM   24  C1  UNL     1       2.935  -1.922   2.350  1.00  0.00     0.060 C 
HETATM   25  C3  UNL     1       5.070  -0.642   2.677  1.00  0.00     0.219 C 
HETATM   26  O1  UNL     1       6.010  -0.121   1.802  1.00  0.00    -0.384 OA
HETATM   27  C4  UNL     1       5.550   0.903   1.004  1.00  0.00     0.187 C 
HETATM   28  C5  UNL     1       4.508   0.363   0.009  1.00  0.00     0.149 C 
ENDBRANCH  21  22
ENDBRANCH  20  21
ENDBRANCH  19  20
ENDBRANCH   1  19
BRANCH  17  29
HETATM   29  O3  UNL     1      -0.572  -1.869  -1.608  1.00  0.00    -0.387 OA
HETATM   30  C21 UNL     1      -0.232  -3.253  -1.824  1.00  0.00     0.202 C 
ENDBRANCH  17  29
TORSDOF 5
