REMARK  4 active torsions:
REMARK  status: ('A' for Active; 'I' for Inactive)
REMARK    1  A    between atoms: N1_1  and  C1_2 
REMARK    2  A    between atoms: C1_2  and  C2_3 
REMARK    3  A    between atoms: C6_10  and  N4_11 
REMARK    4  A    between atoms: N4_11  and  C7_12 
ROOT
HETATM    1  C2  UNL     1       4.488   0.138  -0.446  1.00  0.00     0.039 C 
HETATM    2  C3  UNL     1       3.238  -0.243  -0.661  1.00  0.00     0.092 C 
HETATM    3  O1  UNL     1       2.510  -0.499   0.513  1.00  0.00    -0.279 OA
HETATM    4  C4  UNL     1       1.168  -0.709   0.675  1.00  0.00     0.257 A 
HETATM    5  N2  UNL     1       0.809  -1.117   1.860  1.00  0.00    -0.202 NA
HETATM    6  C5  UNL     1      -0.597  -1.352   2.081  1.00  0.00     0.235 A 
HETATM    7  N3  UNL     1      -1.573  -1.213   1.256  1.00  0.00    -0.237 NA
HETATM    8  C6  UNL     1      -1.322  -0.769  -0.086  1.00  0.00     0.322 A 
HETATM    9  N6  UNL     1       0.097  -0.551  -0.248  1.00  0.00    -0.281 N 
HETATM   10  C12 UNL     1       0.281  -0.108  -1.610  1.00  0.00     0.098 C 
HETATM   11  C13 UNL     1       1.405  -0.036  -2.316  1.00  0.00     0.034 C 
HETATM   12  C14 UNL     1       2.831  -0.333  -2.087  1.00  0.00     0.251 C 
HETATM   13  F1  UNL     1       3.644   0.456  -2.871  1.00  0.00    -0.238 F 
ENDROOT
BRANCH   8  14
HETATM   14  N4  UNL     1      -2.013   0.524  -0.214  1.00  0.00    -0.350 N 
HETATM   15  H8  UNL     1      -1.493   1.399  -0.443  1.00  0.00     0.163 HD
BRANCH  14  16
HETATM   16  C7  UNL     1      -3.416   0.623  -0.030  1.00  0.00     0.035 A 
HETATM   17  C8  UNL     1      -4.088   1.842  -0.146  1.00  0.00     0.048 A 
HETATM   18  C9  UNL     1      -5.450   1.972   0.026  1.00  0.00     0.120 A 
HETATM   19  N5  UNL     1      -6.144   0.877   0.316  1.00  0.00    -0.253 NA
HETATM   20  C10 UNL     1      -5.573  -0.336   0.446  1.00  0.00     0.104 A 
HETATM   21 BR1  UNL     1      -6.641  -1.877   0.868  1.00  0.00    -0.029 Br
HETATM   22  C11 UNL     1      -4.206  -0.463   0.272  1.00  0.00     0.068 A 
ENDBRANCH  14  16
ENDBRANCH   8  14
BRANCH   1  23
HETATM   23  C1  UNL     1       5.061   0.281   0.897  1.00  0.00     0.296 C 
BRANCH  23  24
HETATM   24  N1  UNL     1       4.142  -0.031   1.955  1.00  0.00     0.081 N 
HETATM   25  H1  UNL     1       3.888   0.806   2.540  1.00  0.00     0.313 HD
HETATM   26  H2  UNL     1       4.509  -0.818   2.522  1.00  0.00     0.313 HD
ENDBRANCH  23  24
ENDBRANCH   1  23
TORSDOF 4
