REMARK  2 active torsions:
REMARK  status: ('A' for Active; 'I' for Inactive)
REMARK    1  A    between atoms: C8_11  and  P1_12 
REMARK    2  A    between atoms: C15_21  and  C16_22 
REMARK       I    between atoms: C16_22  and  N6_23 
ROOT
HETATM    1  C1  UNL     1      -4.984  -1.508   0.254  1.00  0.00     0.178 C 
HETATM    2  N1  UNL     1      -3.583  -1.410   0.397  1.00  0.00    -0.294 N 
HETATM    3  C2  UNL     1      -3.029  -1.309   1.687  1.00  0.00     0.169 C 
HETATM    4  C3  UNL     1      -3.356   0.033   2.301  1.00  0.00     0.145 C 
HETATM    5  N2  UNL     1      -2.799   1.164   1.611  1.00  0.00    -0.370 N 
HETATM    6  C4  UNL     1      -1.670   1.648   2.407  1.00  0.00     0.204 C 
HETATM    7  N3  UNL     1      -0.944   0.886   1.631  1.00  0.00    -0.256 NA
HETATM    8  C5  UNL     1       0.439   0.707   1.680  1.00  0.00     0.122 C 
HETATM    9  C6  UNL     1       1.493   1.091   0.931  1.00  0.00    -0.042 C 
HETATM   10  C7  UNL     1       1.251   1.897  -0.252  1.00  0.00     0.051 C 
HETATM   11  C8  UNL     1      -0.072   2.402  -0.586  1.00  0.00     0.048 C 
HETATM   12  C9  UNL     1      -0.952   1.356  -1.155  1.00  0.00    -0.027 C 
HETATM   13  C10 UNL     1      -1.048   0.393  -2.057  1.00  0.00     0.098 C 
HETATM   14  N4  UNL     1      -1.167  -1.014  -1.722  1.00  0.00    -0.340 N 
HETATM   15  C11 UNL     1      -0.145  -2.020  -1.551  1.00  0.00     0.275 C 
HETATM   16  N5  UNL     1       1.175  -1.454  -1.594  1.00  0.00    -0.280 NA
HETATM   17  C12 UNL     1       2.045  -1.476  -0.653  1.00  0.00     0.143 C 
HETATM   18  C13 UNL     1       3.379  -1.092  -0.227  1.00  0.00     0.072 A 
HETATM   19  C14 UNL     1       4.552  -1.617  -0.689  1.00  0.00     0.072 A 
HETATM   20  C15 UNL     1       5.561  -0.941  -0.034  1.00  0.00     0.146 A 
HETATM   21  N7  UNL     1       4.924  -0.099   0.739  1.00  0.00    -0.166 NA
HETATM   22  N8  UNL     1       3.606  -0.156   0.655  1.00  0.00    -0.264 N 
HETATM   23  C17 UNL     1       2.817   0.698   1.469  1.00  0.00     0.187 C 
HETATM   24  C18 UNL     1      -2.600  -1.096  -1.606  1.00  0.00     0.278 C 
HETATM   25  C19 UNL     1      -3.180   0.244  -1.311  1.00  0.00     0.038 C 
HETATM   26  C20 UNL     1      -2.376   1.131  -0.768  1.00  0.00    -0.032 C 
HETATM   27  C21 UNL     1      -2.927   1.929   0.365  1.00  0.00     0.162 C 
HETATM   28  O2  UNL     1      -2.911  -1.988  -0.570  1.00  0.00    -0.253 OA
ENDROOT
BRANCH  20  29
HETATM   29  C16 UNL     1       6.968  -1.209  -0.249  1.00  0.00     0.269 C 
HETATM   30  N6  UNL     1       7.448  -2.181  -1.155  1.00  0.00    -0.365 N 
HETATM   31  H20 UNL     1       8.223  -1.805  -1.744  1.00  0.00     0.159 HD
HETATM   32  H21 UNL     1       7.009  -3.128  -1.151  1.00  0.00     0.159 HD
HETATM   33  O1  UNL     1       7.740  -0.480   0.466  1.00  0.00    -0.266 OA
ENDBRANCH  20  29
BRANCH  11  34
HETATM   34  P1  UNL     1       0.157   3.585  -2.082  1.00  0.00    -0.132 P 
HETATM   35  H13 UNL     1      -1.140   4.243  -2.272  1.00  0.00     0.055 HD
HETATM   36  H14 UNL     1       1.061   4.620  -1.613  1.00  0.00     0.055 HD
ENDBRANCH  11  34
TORSDOF 2
