REMARK  2 active torsions:
REMARK  status: ('A' for Active; 'I' for Inactive)
REMARK    1  A    between atoms: N1_3  and  C3_4 
REMARK    2  A    between atoms: C9_12  and  C10_13 
REMARK       I    between atoms: C10_13  and  N4_14 
ROOT
HETATM    1  C1  UNL     1       6.518   0.172   0.183  1.00  0.00     0.037 C 
HETATM    2  C2  UNL     1       5.393   0.554  -0.078  1.00  0.00     0.015 C 
HETATM    3  N1  UNL     1       4.089   0.974  -0.366  1.00  0.00    -0.146 N 
HETATM    4  H2  UNL     1       4.016   1.894  -0.831  1.00  0.00     0.195 HD
ENDROOT
BRANCH   3   5
HETATM    5  C3  UNL     1       2.971   0.198  -0.045  1.00  0.00     0.734 A 
HETATM    6  N2  UNL     1       3.113  -0.994   0.560  1.00  0.00    -0.074 NA
HETATM    7  C4  UNL     1       2.061  -1.782   0.891  1.00  0.00     0.146 A 
HETATM    8  C5  UNL     1       0.786  -1.329   0.588  1.00  0.00    -0.008 A 
HETATM    9  C6  UNL     1       0.682  -0.115  -0.026  1.00  0.00     0.112 A 
HETATM   10  C13 UNL     1      -0.308  -2.222   0.969  1.00  0.00     0.047 A 
HETATM   11  N3  UNL     1       1.745   0.646  -0.343  1.00  0.00    -0.059 NA
HETATM   12  C7  UNL     1      -0.661   0.362  -0.345  1.00  0.00     0.091 A 
HETATM   13  C8  UNL     1      -1.739  -0.434  -0.012  1.00  0.00     0.009 A 
HETATM   14  N6  UNL     1      -1.064   1.489  -0.933  1.00  0.00    -0.271 N 
HETATM   15  C9  UNL     1      -2.828   0.269  -0.429  1.00  0.00     0.147 A 
HETATM   16  C12 UNL     1      -1.681  -1.745   0.648  1.00  0.00     0.048 A 
HETATM   17  N5  UNL     1      -2.387   1.427  -0.982  1.00  0.00    -0.167 NA
HETATM   18  C11 UNL     1      -0.199   2.563  -1.419  1.00  0.00     0.180 C 
BRANCH  15  19
HETATM   19  C10 UNL     1      -4.240  -0.130  -0.314  1.00  0.00     0.249 C 
HETATM   20  N4  UNL     1      -5.261   0.730  -0.806  1.00  0.00    -0.267 NA
HETATM   21  H4  UNL     1      -5.746   1.470  -0.216  1.00  0.00     0.127 HD
HETATM   22  H5  UNL     1      -5.769   1.480  -0.252  1.00  0.00     0.127 HD
HETATM   23  O1  UNL     1      -4.506  -1.234   0.222  1.00  0.00    -0.272 OA
ENDBRANCH  15  19
ENDBRANCH   3   5
TORSDOF 2
