REMARK  3 active torsions:
REMARK  status: ('A' for Active; 'I' for Inactive)
REMARK    1  A    between atoms: C6_9  and  N3_10 
REMARK    2  A    between atoms: N3_10  and  C7_11 
REMARK    3  A    between atoms: C15_21  and  C16_22 
ROOT
HETATM    1  C1  UNL     1      -5.751  -0.256  -0.855  1.00  0.00     0.039 C 
HETATM    2  C2  UNL     1      -4.504   0.519  -0.878  1.00  0.00     0.007 C 
HETATM    3  C3  UNL     1      -3.342   0.761  -0.312  1.00  0.00     0.084 C 
HETATM    4  O1  UNL     1      -2.333   1.684  -0.695  1.00  0.00    -0.290 OA
HETATM    5  C4  UNL     1      -0.951   1.425  -0.806  1.00  0.00     0.202 A 
HETATM    6  N1  UNL     1      -0.360   2.310  -1.627  1.00  0.00    -0.215 NA
HETATM    7  C5  UNL     1       0.985   2.224  -1.862  1.00  0.00     0.238 A 
HETATM    8  N2  UNL     1       1.693   1.258  -1.271  1.00  0.00    -0.222 NA
HETATM    9  C6  UNL     1       1.183   0.341  -0.444  1.00  0.00     0.160 A 
HETATM   10  C13 UNL     1      -0.165   0.452  -0.227  1.00  0.00     0.132 A 
HETATM   11  N4  UNL     1      -0.633  -0.556   0.653  1.00  0.00    -0.359 N 
HETATM   12  C14 UNL     1      -1.909  -0.615   1.321  1.00  0.00     0.101 C 
HETATM   13  C15 UNL     1      -3.056  -0.048   0.897  1.00  0.00     0.019 C 
HETATM   14  H11 UNL     1      -0.010  -1.359   0.858  1.00  0.00     0.165 HD
ENDROOT
BRANCH   9  15
HETATM   15  N3  UNL     1       2.007  -0.647   0.142  1.00  0.00    -0.339 N 
HETATM   16  H6  UNL     1       1.857  -1.457   0.766  1.00  0.00     0.167 HD
BRANCH  15  17
HETATM   17  C7  UNL     1       3.410  -0.688  -0.059  1.00  0.00     0.035 A 
HETATM   18  C8  UNL     1       4.235  -1.818  -0.091  1.00  0.00     0.029 A 
HETATM   19  C9  UNL     1       5.596  -1.825  -0.269  1.00  0.00     0.004 A 
HETATM   20  C10 UNL     1       6.225  -0.629  -0.433  1.00  0.00     0.019 A 
HETATM   21  C11 UNL     1       5.464   0.521  -0.411  1.00  0.00     0.013 A 
HETATM   22 BR1  UNL     1       6.491   2.134  -0.656  1.00  0.00    -0.051 Br
HETATM   23  C12 UNL     1       4.099   0.495  -0.229  1.00  0.00     0.048 A 
ENDBRANCH  15  17
ENDBRANCH   9  15
BRANCH  13  24
HETATM   24  C16 UNL     1      -4.228  -0.267   1.816  1.00  0.00     0.265 C 
HETATM   25  F1  UNL     1      -4.752   0.934   2.259  1.00  0.00    -0.250 F 
ENDBRANCH  13  24
TORSDOF 3
