REMARK  2 active torsions:
REMARK  status: ('A' for Active; 'I' for Inactive)
REMARK    1  A    between atoms: N1_4  and  C5_7 
REMARK    2  A    between atoms: N2_6  and  C5_7 
ROOT
HETATM    1  C1  UNL     1       3.460   2.127  -0.426  1.00  0.00     0.030 C 
HETATM    2  C2  UNL     1       2.692   1.081   0.352  1.00  0.00     0.148 A 
HETATM    3  C3  UNL     1       2.968   0.207   1.572  1.00  0.00     0.460 A 
HETATM    4  N1  UNL     1       3.667  -0.077   2.801  1.00  0.00     0.250 N 
HETATM    5  C4  UNL     1       4.606   0.764   3.249  1.00  0.00     0.543 A 
HETATM    6  N2  UNL     1       3.645   0.079   2.619  1.00  0.00     0.250 N 
HETATM    7  C5  UNL     1       3.104   0.564   1.415  1.00  0.00     0.457 A 
HETATM    8  N3  UNL     1       1.351   0.551   1.888  1.00  0.00    -0.352 N 
HETATM    9  C6  UNL     1       0.280  -0.382   1.291  1.00  0.00     0.131 C 
HETATM   10  C7  UNL     1      -0.747   0.319   0.636  1.00  0.00     0.036 C 
HETATM   11  C8  UNL     1      -0.681   0.808  -0.766  1.00  0.00     0.041 C 
HETATM   12  C9  UNL     1      -2.103   1.285  -1.017  1.00  0.00    -0.051 A 
HETATM   13  C10 UNL     1      -2.752   2.456  -0.857  1.00  0.00     0.007 A 
HETATM   14  C11 UNL     1      -4.089   2.495  -1.133  1.00  0.00     0.001 A 
HETATM   15  C12 UNL     1      -4.892   1.481  -1.564  1.00  0.00     0.001 A 
HETATM   16  C13 UNL     1      -4.163   0.347  -1.699  1.00  0.00     0.008 A 
HETATM   17  C14 UNL     1      -2.824   0.146  -1.466  1.00  0.00    -0.043 A 
HETATM   18  C15 UNL     1      -2.626  -1.277  -1.845  1.00  0.00     0.054 C 
HETATM   19  C16 UNL     1      -1.911  -2.323  -1.817  1.00  0.00    -0.015 C 
HETATM   20  C17 UNL     1      -0.809  -3.275  -1.546  1.00  0.00     0.016 C 
HETATM   21  C18 UNL     1       0.331  -3.369  -0.935  1.00  0.00     0.012 C 
HETATM   22 BR1  UNL     1       1.013  -5.171  -1.257  1.00  0.00    -0.051 Br
HETATM   23  C19 UNL     1       1.194  -2.716   0.038  1.00  0.00     0.046 C 
HETATM   24  C20 UNL     1       0.961  -1.576   0.765  1.00  0.00     0.032 C 
HETATM   25  N4  UNL     1       2.379  -1.351   1.318  1.00  0.00    -0.330 N 
HETATM   26  H5  UNL     1       0.712   1.104   2.693  1.00  0.00     0.158 HD
HETATM   27  H19 UNL     1       3.012  -2.290   1.513  1.00  0.00     0.164 HD
ENDROOT
TORSDOF 2
