REMARK  8 active torsions:
REMARK  status: ('A' for Active; 'I' for Inactive)
REMARK    1  A    between atoms: C1_2  and  C2_3 
REMARK    2  A    between atoms: C7_8  and  C8_9 
REMARK    3  A    between atoms: C8_9  and  N2_10 
REMARK    4  A    between atoms: C8_9  and  C9_11 
REMARK    5  A    between atoms: C9_11  and  C10_12 
REMARK    6  A    between atoms: C10_12  and  C11_13 
REMARK    7  A    between atoms: C10_12  and  N4_15 
REMARK    8  A    between atoms: N4_15  and  C12_16 
ROOT
HETATM    1  C9  UNL     1      -0.306   0.225   0.143  1.00  0.00     0.033 C 
ENDROOT
BRANCH   1   2
HETATM    2  C8  UNL     1      -1.419  -0.369  -0.006  1.00  0.00     0.035 C 
BRANCH   2   3
HETATM    3  C7  UNL     1      -2.793  -0.746  -0.178  1.00  0.00     0.002 A 
HETATM    4  C2  UNL     1      -3.685   0.300  -0.259  1.00  0.00    -0.007 A 
HETATM    5  C3  UNL     1      -5.026   0.070  -0.419  1.00  0.00     0.014 A 
HETATM    6  C4  UNL     1      -5.351  -1.286  -0.486  1.00  0.00     0.001 A 
HETATM    7  C5  UNL     1      -4.483  -2.336  -0.408  1.00  0.00     0.001 A 
HETATM    8  C6  UNL     1      -3.161  -2.064  -0.250  1.00  0.00     0.014 A 
BRANCH   4   9
HETATM    9  C1  UNL     1      -3.293   1.693  -0.186  1.00  0.00     0.119 C 
HETATM   10  N1  UNL     1      -4.253   2.509  -0.282  1.00  0.00    -0.311 NA
HETATM   11  H1  UNL     1      -4.285   3.521  -0.266  1.00  0.00     0.186 HD
ENDBRANCH   4   9
ENDBRANCH   2   3
BRANCH   2  12
HETATM   12  N2  UNL     1      -0.571  -1.501   0.041  1.00  0.00    -0.399 N 
HETATM   13  H7  UNL     1       0.031  -2.301   0.068  1.00  0.00     0.156 HD
HETATM   14  H8  UNL     1      -0.328  -2.341   0.644  1.00  0.00     0.156 HD
ENDBRANCH   2  12
ENDBRANCH   1   2
BRANCH   1  15
HETATM   15  C10 UNL     1       1.129   0.445   0.317  1.00  0.00     0.146 C 
BRANCH  15  16
HETATM   16  C11 UNL     1       1.898  -0.817   0.495  1.00  0.00     0.109 C 
HETATM   17  N3  UNL     1       2.141  -1.317   1.627  1.00  0.00    -0.314 NA
HETATM   18  H12 UNL     1       2.673  -2.191   1.746  1.00  0.00     0.185 HD
ENDBRANCH  15  16
BRANCH  15  19
HETATM   19  N4  UNL     1       1.618   1.230  -0.789  1.00  0.00    -0.391 N 
HETATM   20  H13 UNL     1       1.076   1.615  -1.615  1.00  0.00     0.159 HD
BRANCH  19  21
HETATM   21  C12 UNL     1       2.975   1.544  -0.807  1.00  0.00    -0.042 C 
HETATM   22  B1  UNL     1       3.814   2.991  -0.081  1.00  0.00     0.233 B 
HETATM   23  C13 UNL     1       5.135   1.387   1.260  1.00  0.00    -0.077 C 
HETATM   24  C14 UNL     1       5.585   0.596   0.234  1.00  0.00     0.003 C 
HETATM   25  C15 UNL     1       5.052   0.277  -0.960  1.00  0.00     0.010 C 
HETATM   26 BR1  UNL     1       6.264  -0.890  -1.870  1.00  0.00    -0.051 Br
HETATM   27  C16 UNL     1       3.860   0.702  -1.447  1.00  0.00     0.030 C 
ENDBRANCH  19  21
ENDBRANCH  15  19
ENDBRANCH   1  15
TORSDOF 8
