REMARK  2 active torsions:
REMARK  status: ('A' for Active; 'I' for Inactive)
REMARK    1  A    between atoms: C14_16  and  C15_17 
REMARK    2  A    between atoms: C15_17  and  S1_18 
ROOT
HETATM    1  C1  UNL     1      -4.652   1.970   0.055  1.00  0.00     0.038 C 
HETATM    2  C2  UNL     1      -3.969   1.268  -0.868  1.00  0.00    -0.000 C 
HETATM    3  C3  UNL     1      -3.073   2.083  -1.764  1.00  0.00     0.083 C 
HETATM    4  C4  UNL     1      -1.690   1.637  -1.566  1.00  0.00    -0.021 C 
HETATM    5  C5  UNL     1      -0.491   1.173  -1.731  1.00  0.00    -0.004 C 
HETATM    6  C6  UNL     1       0.769   0.862  -1.136  1.00  0.00     0.001 C 
HETATM    7  C7  UNL     1       1.397   0.899  -0.007  1.00  0.00     0.013 C 
HETATM    8  C8  UNL     1       2.392   0.781   1.018  1.00  0.00    -0.009 A 
HETATM    9  C9  UNL     1       3.031   1.961   1.321  1.00  0.00     0.015 A 
HETATM   10  C10 UNL     1       4.040   2.000   2.295  1.00  0.00     0.020 A 
HETATM   11  C11 UNL     1       4.257   0.761   2.843  1.00  0.00     0.013 A 
HETATM   12 BR1  UNL     1       5.635   0.748   4.190  1.00  0.00    -0.051 Br
HETATM   13  C12 UNL     1       3.651  -0.449   2.582  1.00  0.00     0.049 A 
HETATM   14  C13 UNL     1       2.670  -0.412   1.615  1.00  0.00     0.045 A 
HETATM   15  N1  UNL     1       2.021  -1.643   1.332  1.00  0.00    -0.343 N 
HETATM   16  C14 UNL     1       1.053  -1.911   0.325  1.00  0.00     0.114 C 
HETATM   17  N2  UNL     1      -0.198  -1.738   0.607  1.00  0.00    -0.228 NA
HETATM   18  C16 UNL     1      -1.193  -2.004  -0.403  1.00  0.00     0.230 C 
HETATM   19  N3  UNL     1      -2.187  -1.173  -0.257  1.00  0.00    -0.263 NA
HETATM   20  C17 UNL     1      -3.324  -1.239  -1.164  1.00  0.00     0.271 C 
HETATM   21  N4  UNL     1      -4.205  -0.128  -0.854  1.00  0.00    -0.376 N 
HETATM   22  H12 UNL     1       2.235  -2.494   1.895  1.00  0.00     0.167 HD
HETATM   23  H19 UNL     1      -5.192  -0.395  -0.572  1.00  0.00     0.161 HD
ENDROOT
BRANCH  16  24
HETATM   24  C15 UNL     1       1.880  -2.357  -0.853  1.00  0.00     0.149 C 
BRANCH  24  25
HETATM   25  S1  UNL     1       2.793  -3.868  -0.349  1.00  0.00    -0.175 SA
HETATM   26  H15 UNL     1       1.886  -4.869   0.042  1.00  0.00     0.102 HD
ENDBRANCH  24  25
ENDBRANCH  16  24
TORSDOF 2
