REMARK  1 active torsions:
REMARK  status: ('A' for Active; 'I' for Inactive)
REMARK    1  A    between atoms: O1_2  and  C2_3 
ROOT
HETATM    1  C2  UNL     1       1.098   3.718   0.844  1.00  0.00     0.097 A 
HETATM    2  C3  UNL     1       1.870   3.305   1.912  1.00  0.00     0.040 A 
HETATM    3  C4  UNL     1       1.999   2.007   2.342  1.00  0.00     0.010 A 
HETATM    4  C5  UNL     1       1.377   0.883   1.781  1.00  0.00    -0.054 A 
HETATM    5  C6  UNL     1       0.646   1.355   0.757  1.00  0.00     0.041 A 
HETATM    6  C7  UNL     1       0.477   2.676   0.270  1.00  0.00     0.093 A 
HETATM    7  N1  UNL     1      -0.326   2.488  -0.852  1.00  0.00    -0.228 N 
HETATM    8  C8  UNL     1       0.383   2.977  -1.953  1.00  0.00     0.235 A 
HETATM    9  N2  UNL     1      -0.165   2.358  -2.985  1.00  0.00    -0.244 NA
HETATM   10  C9  UNL     1      -1.237   1.414  -2.788  1.00  0.00     0.071 A 
HETATM   11  C10 UNL     1      -1.735   0.649  -3.813  1.00  0.00     0.005 C 
HETATM   12  C11 UNL     1      -1.913  -0.782  -3.258  1.00  0.00     0.055 C 
HETATM   13  C12 UNL     1      -2.346  -0.692  -1.867  1.00  0.00     0.098 A 
HETATM   14  C13 UNL     1      -2.809  -1.752  -1.158  1.00  0.00     0.142 A 
HETATM   15  N3  UNL     1      -3.264  -1.645   0.129  1.00  0.00    -0.171 NA
HETATM   16  N4  UNL     1      -3.091  -0.314   0.401  1.00  0.00    -0.278 N 
HETATM   17  C14 UNL     1      -3.271   0.644   1.439  1.00  0.00     0.179 C 
HETATM   18  C15 UNL     1      -2.595   0.040  -0.745  1.00  0.00     0.066 A 
HETATM   19  C16 UNL     1      -1.904   0.977  -1.579  1.00  0.00     0.177 A 
HETATM   20  N5  UNL     1      -1.355   1.623  -0.547  1.00  0.00    -0.183 NA
HETATM   21  C17 UNL     1      -2.698  -3.188  -1.333  1.00  0.00     0.287 C 
HETATM   22  O2  UNL     1      -3.100  -4.249  -1.688  1.00  0.00    -0.264 OA
HETATM   23  N6  UNL     1      -1.434  -3.802  -0.837  1.00  0.00    -0.269 N 
HETATM   24  N7  UNL     1      -0.439  -4.640  -0.511  1.00  0.00    -0.332 N 
HETATM   25  C18 UNL     1       0.634  -4.426   0.345  1.00  0.00     0.169 C 
HETATM   26  C19 UNL     1       1.632  -3.392   0.268  1.00  0.00     0.293 C 
HETATM   27  N8  UNL     1       1.543  -2.025   0.582  1.00  0.00     0.086 NA
HETATM   28  C20 UNL     1       2.875  -1.459   0.281  1.00  0.00     0.310 C 
HETATM   29  C21 UNL     1       1.241  -1.656   1.923  1.00  0.00     0.276 C 
HETATM   30  C22 UNL     1       1.720  -0.354   2.424  1.00  0.00     0.068 C 
HETATM   31  H14 UNL     1      -0.893  -3.012  -0.450  1.00  0.00     0.190 HD
HETATM   32  H15 UNL     1      -0.592  -5.598  -0.882  1.00  0.00     0.180 HD
ENDROOT
BRANCH   1  33
HETATM   33  O1  UNL     1       0.645   4.749   0.049  1.00  0.00    -0.354 OA
HETATM   34  C1  UNL     1       1.053   6.106   0.284  1.00  0.00     0.210 C 
ENDBRANCH   1  33
TORSDOF 1
