REMARK  7 active torsions:
REMARK  status: ('A' for Active; 'I' for Inactive)
REMARK    1  A    between atoms: N1_1  and  C1_2 
REMARK    2  A    between atoms: C2_4  and  C3_5 
REMARK    3  A    between atoms: C4_6  and  C5_7 
REMARK    4  A    between atoms: C6_8  and  C7_9 
REMARK    5  A    between atoms: C7_9  and  C8_10 
REMARK    6  A    between atoms: C14_17  and  C15_18 
REMARK    7  A    between atoms: C17_20  and  C18_21 
ROOT
HETATM    1  C1  UNL     1      -0.842   0.048   0.405  1.00  0.00     0.247 C 
HETATM    2  N2  UNL     1       0.345  -0.293   0.288  1.00  0.00    -0.208 NA
HETATM    3  C2  UNL     1       1.030  -1.508   0.298  1.00  0.00     0.060 C 
HETATM    4  C9  UNL     1       0.835  -2.807   0.632  1.00  0.00     0.028 C 
HETATM    5  C10 UNL     1      -0.461  -3.292   1.184  1.00  0.00    -0.019 C 
HETATM    6  C11 UNL     1      -1.674  -2.902   1.521  1.00  0.00     0.024 C 
HETATM    7  C12 UNL     1      -2.891  -2.307   1.815  1.00  0.00     0.035 C 
HETATM    8  C13 UNL     1      -3.082  -0.938   2.404  1.00  0.00     0.023 C 
HETATM    9  C14 UNL     1      -3.395  -0.505   0.654  1.00  0.00     0.009 A 
HETATM   10  C18 UNL     1      -3.805  -0.764  -0.990  1.00  0.00     0.019 A 
HETATM   11  C19 UNL     1      -3.293  -1.772  -0.418  1.00  0.00     0.052 A 
HETATM   12  C20 UNL     1      -3.129  -1.344   0.340  1.00  0.00     0.091 A 
HETATM   13  N3  UNL     1      -1.839  -0.683   0.542  1.00  0.00    -0.408 NA
ENDROOT
BRANCH   3  14
HETATM   14  C3  UNL     1       2.433  -1.468  -0.179  1.00  0.00     0.031 C 
HETATM   15  C4  UNL     1       3.035  -0.400  -0.594  1.00  0.00     0.002 C 
BRANCH  15  16
HETATM   16  C5  UNL     1       3.017   1.034  -0.877  1.00  0.00    -0.004 C 
HETATM   17  C6  UNL     1       3.564   2.159  -1.287  1.00  0.00    -0.026 C 
BRANCH  17  18
HETATM   18  C7  UNL     1       4.975   2.090  -1.755  1.00  0.00     0.038 C 
BRANCH  18  19
HETATM   19  C8  UNL     1       5.792   3.001  -0.880  1.00  0.00     0.089 C 
HETATM   20 BR1  UNL     1       5.064   4.798  -1.075  1.00  0.00    -0.096 Br
ENDBRANCH  18  19
ENDBRANCH  17  18
ENDBRANCH  15  16
ENDBRANCH   3  14
BRANCH   1  21
HETATM   21  N1  UNL     1      -0.659   1.449   0.282  1.00  0.00    -0.260 NA
HETATM   22  H1  UNL     1      -0.760   2.112   1.106  1.00  0.00     0.128 HD
HETATM   23  H2  UNL     1      -0.655   2.363   0.751  1.00  0.00     0.128 HD
ENDBRANCH   1  21
BRANCH  10  24
HETATM   24  C17 UNL     1      -4.184   0.553  -0.797  1.00  0.00     0.009 A 
HETATM   25  C16 UNL     1      -4.354   1.714  -0.061  1.00  0.00     0.001 A 
HETATM   26  C15 UNL     1      -3.785   0.846   0.861  1.00  0.00     0.008 A 
ENDBRANCH  10  24
TORSDOF 7
