REMARK  4 active torsions:
REMARK  status: ('A' for Active; 'I' for Inactive)
REMARK    1  A    between atoms: C7_7  and  C8_8 
REMARK    2  A    between atoms: C8_8  and  C9_9 
REMARK    3  A    between atoms: C9_9  and  O1_10 
REMARK    4  A    between atoms: O1_10  and  C10_11 
ROOT
HETATM    1  C10 UNL     1       0.835   0.497  -0.135  1.00  0.00     0.143 C 
HETATM    2  C11 UNL     1       1.504  -0.262   0.769  1.00  0.00     0.049 C 
HETATM    3  C12 UNL     1       2.319  -1.100   1.651  1.00  0.00     0.151 C 
HETATM    4  N1  UNL     1       3.582  -1.570   1.053  1.00  0.00    -0.389 N 
HETATM    5  C13 UNL     1       3.709  -2.237  -0.203  1.00  0.00     0.018 A 
HETATM    6  C14 UNL     1       4.276  -3.436  -0.569  1.00  0.00     0.025 A 
HETATM    7  C15 UNL     1       4.262  -3.941  -1.847  1.00  0.00     0.003 A 
HETATM    8  C16 UNL     1       3.645  -3.215  -2.844  1.00  0.00     0.009 A 
HETATM    9  C17 UNL     1       3.033  -2.057  -2.781  1.00  0.00    -0.034 A 
HETATM   10  C18 UNL     1       3.174  -1.737  -1.396  1.00  0.00     0.104 A 
HETATM   11  C19 UNL     1       2.414  -0.883  -2.707  1.00  0.00    -0.011 A 
HETATM   12  C20 UNL     1       1.905   0.077  -2.626  1.00  0.00     0.048 A 
HETATM   13  C21 UNL     1       1.287   1.238  -2.505  1.00  0.00     0.172 A 
HETATM   14  N2  UNL     1       1.101   0.839  -1.395  1.00  0.00    -0.316 N 
HETATM   15  H15 UNL     1       4.597  -1.592   1.251  1.00  0.00     0.159 HD
ENDROOT
BRANCH   1  16
HETATM   16  O1  UNL     1      -0.316   1.234  -0.269  1.00  0.00    -0.335 OA
BRANCH  16  17
HETATM   17  C9  UNL     1      -1.516   0.657  -0.725  1.00  0.00     0.182 C 
BRANCH  17  18
HETATM   18  C8  UNL     1      -2.704   1.581  -0.667  1.00  0.00     0.066 C 
BRANCH  18  19
HETATM   19  C7  UNL     1      -3.028   2.055   0.697  1.00  0.00    -0.050 A 
HETATM   20  C2  UNL     1      -3.667   1.161   1.523  1.00  0.00    -0.056 A 
HETATM   21  C1  UNL     1      -4.065  -0.210   1.173  1.00  0.00     0.049 C 
HETATM   22  C3  UNL     1      -3.962   1.605   2.804  1.00  0.00     0.007 A 
HETATM   23  C4  UNL     1      -3.620   2.885   3.200  1.00  0.00     0.001 A 
HETATM   24  C5  UNL     1      -2.973   3.758   2.326  1.00  0.00     0.001 A 
HETATM   25  C6  UNL     1      -2.661   3.341   1.027  1.00  0.00     0.007 A 
ENDBRANCH  18  19
ENDBRANCH  17  18
ENDBRANCH  16  17
ENDBRANCH   1  16
TORSDOF 4
