REMARK  5 active torsions:
REMARK  status: ('A' for Active; 'I' for Inactive)
REMARK    1  A    between atoms: N1_1  and  C1_2 
REMARK    2  A    between atoms: C4_6  and  N3_7 
REMARK    3  A    between atoms: N3_7  and  C5_8 
REMARK    4  A    between atoms: C12_17  and  C13_18 
REMARK    5  A    between atoms: C13_18  and  C14_19 
ROOT
HETATM    1  C1  UNL     1       1.510   1.574  -2.990  1.00  0.00     0.722 A 
HETATM    2  N2  UNL     1       0.311   1.947  -2.458  1.00  0.00    -0.067 NA
HETATM    3  C2  UNL     1      -0.157   1.325  -1.371  1.00  0.00     0.071 A 
HETATM    4  C3  UNL     1       0.607   0.312  -0.822  1.00  0.00     0.036 A 
HETATM    5  C4  UNL     1       1.827  -0.083  -1.345  1.00  0.00     0.159 A 
HETATM    6  N4  UNL     1       2.248   0.589  -2.451  1.00  0.00    -0.044 NA
HETATM    7  C11 UNL     1      -0.129  -0.200   0.354  1.00  0.00     0.021 A 
HETATM    8  C12 UNL     1      -1.253   0.490   0.462  1.00  0.00    -0.069 A 
HETATM    9  C20 UNL     1      -1.411   1.523  -0.595  1.00  0.00     0.095 A 
ENDROOT
BRANCH   5  10
HETATM   10  N3  UNL     1       2.530  -1.134  -0.703  1.00  0.00    -0.340 N 
HETATM   11  H3  UNL     1       2.327  -2.117  -1.035  1.00  0.00     0.167 HD
BRANCH  10  12
HETATM   12  C5  UNL     1       3.460  -0.872   0.336  1.00  0.00     0.035 A 
HETATM   13  C6  UNL     1       3.643   0.449   0.685  1.00  0.00     0.029 A 
HETATM   14  C7  UNL     1       4.556   0.704   1.704  1.00  0.00     0.004 A 
HETATM   15  C8  UNL     1       5.214  -0.351   2.298  1.00  0.00     0.019 A 
HETATM   16  C9  UNL     1       5.011  -1.671   1.928  1.00  0.00     0.013 A 
HETATM   17 BR1  UNL     1       5.934  -3.123   2.764  1.00  0.00    -0.051 Br
HETATM   18  C10 UNL     1       4.111  -1.955   0.919  1.00  0.00     0.048 A 
ENDBRANCH  10  12
ENDBRANCH   5  10
BRANCH   1  19
HETATM   19  N1  UNL     1       1.975   2.260  -4.146  1.00  0.00    -0.231 N 
HETATM   20  H1  UNL     1       1.770   2.105  -5.172  1.00  0.00     0.174 HD
HETATM   21  H2  UNL     1       2.620   3.031  -3.867  1.00  0.00     0.174 HD
ENDBRANCH   1  19
BRANCH   8  22
HETATM   22  C13 UNL     1      -2.267   0.260   1.537  1.00  0.00     0.073 C 
BRANCH  22  23
HETATM   23  C14 UNL     1      -3.576  -0.115   0.977  1.00  0.00    -0.054 A 
HETATM   24  C15 UNL     1      -4.633   0.689   0.601  1.00  0.00     0.007 A 
HETATM   25  C16 UNL     1      -5.788   0.123   0.090  1.00  0.00     0.001 A 
HETATM   26  C17 UNL     1      -5.883  -1.253  -0.044  1.00  0.00     0.000 A 
HETATM   27  C18 UNL     1      -4.850  -2.089   0.319  1.00  0.00     0.001 A 
HETATM   28  C19 UNL     1      -3.706  -1.500   0.827  1.00  0.00     0.007 A 
ENDBRANCH  22  23
ENDBRANCH   8  22
TORSDOF 5
