REMARK  6 active torsions:
REMARK  status: ('A' for Active; 'I' for Inactive)
REMARK    1  A    between atoms: C7_7  and  N1_8 
REMARK    2  A    between atoms: N1_8  and  C8_9 
REMARK    3  A    between atoms: C11_14  and  C12_15 
REMARK    4  A    between atoms: C13_16  and  C14_17 
REMARK    5  A    between atoms: C14_17  and  C15_18 
REMARK    6  A    between atoms: C20_23  and  N4_24 
ROOT
HETATM    1  C1  UNL     1       6.594  -3.198   1.021  1.00  0.00     0.018 C 
HETATM    2  C2  UNL     1       6.055  -2.316   0.400  1.00  0.00    -0.078 C 
HETATM    3  C3  UNL     1       5.397  -1.267  -0.325  1.00  0.00     0.019 A 
HETATM    4  C4  UNL     1       6.120  -0.424  -1.125  1.00  0.00     0.021 A 
HETATM    5  C5  UNL     1       5.547   0.606  -1.845  1.00  0.00     0.004 A 
HETATM    6  C6  UNL     1       4.189   0.837  -1.789  1.00  0.00     0.029 A 
HETATM    7  C7  UNL     1       3.432  -0.001  -0.987  1.00  0.00     0.035 A 
HETATM    8  C21 UNL     1       4.022  -1.037  -0.266  1.00  0.00     0.050 A 
ENDROOT
BRANCH   7   9
HETATM    9  N1  UNL     1       2.034   0.199  -0.890  1.00  0.00    -0.340 N 
HETATM   10  H5  UNL     1       1.743  -0.498  -1.565  1.00  0.00     0.167 HD
BRANCH   9  11
HETATM   11  C8  UNL     1       1.592   1.185   0.011  1.00  0.00     0.141 A 
HETATM   12  N2  UNL     1       2.481   1.868   0.730  1.00  0.00    -0.224 NA
HETATM   13  C9  UNL     1       2.107   2.818   1.618  1.00  0.00     0.234 A 
HETATM   14  N3  UNL     1       0.783   3.052   1.752  1.00  0.00    -0.253 NA
HETATM   15  C10 UNL     1      -0.098   2.358   1.022  1.00  0.00     0.133 A 
HETATM   16  C11 UNL     1       0.233   1.392   0.115  1.00  0.00     0.027 A 
BRANCH  16  17
HETATM   17  C12 UNL     1      -0.688   0.634  -0.704  1.00  0.00     0.013 C 
HETATM   18  C13 UNL     1      -2.007   0.624  -0.771  1.00  0.00    -0.021 C 
BRANCH  18  19
HETATM   19  C14 UNL     1      -3.296   1.127  -0.311  1.00  0.00     0.068 C 
BRANCH  19  20
HETATM   20  C15 UNL     1      -4.166   0.037   0.235  1.00  0.00    -0.029 A 
HETATM   21  C16 UNL     1      -4.434  -0.288   1.547  1.00  0.00     0.010 A 
HETATM   22  C17 UNL     1      -5.272  -1.353   1.797  1.00  0.00     0.001 A 
HETATM   23  C18 UNL     1      -5.855  -2.107   0.805  1.00  0.00     0.002 A 
HETATM   24  C19 UNL     1      -5.587  -1.780  -0.522  1.00  0.00     0.029 A 
HETATM   25  C20 UNL     1      -4.741  -0.706  -0.786  1.00  0.00     0.032 A 
BRANCH  25  26
HETATM   26  N4  UNL     1      -4.604  -0.537  -2.210  1.00  0.00    -0.399 N 
HETATM   27  H16 UNL     1      -5.144   0.341  -2.326  1.00  0.00     0.156 HD
HETATM   28  H17 UNL     1      -4.113  -1.114  -2.929  1.00  0.00     0.156 HD
ENDBRANCH  25  26
ENDBRANCH  19  20
ENDBRANCH  18  19
ENDBRANCH  16  17
ENDBRANCH   9  11
ENDBRANCH   7   9
TORSDOF 6
