REMARK  4 active torsions:
REMARK  status: ('A' for Active; 'I' for Inactive)
REMARK    1  A    between atoms: N1_1  and  C1_2 
REMARK    2  A    between atoms: C11_17  and  C12_18 
REMARK    3  A    between atoms: C12_18  and  C13_19 
REMARK    4  A    between atoms: C13_19  and  C14_20 
ROOT
HETATM    1  C1  UNL     1      -0.245  -1.890   0.147  1.00  0.00     0.106 C 
HETATM    2  C2  UNL     1      -1.556  -2.084  -0.045  1.00  0.00     0.097 C 
HETATM    3  S1  UNL     1      -3.233  -1.450   0.037  1.00  0.00    -0.078 SA
HETATM    4  C3  UNL     1      -3.254   0.350   0.312  1.00  0.00     0.201 C 
HETATM    5  C4  UNL     1      -3.804   0.614   1.661  1.00  0.00     0.059 C 
HETATM    6  C5  UNL     1      -4.961   0.591   2.287  1.00  0.00     0.012 C 
HETATM    7 BR1  UNL     1      -5.010   1.067   4.139  1.00  0.00    -0.051 Br
HETATM    8  C6  UNL     1      -6.300   0.241   1.768  1.00  0.00     0.019 C 
HETATM    9  C7  UNL     1      -6.925   0.294   0.595  1.00  0.00     0.003 C 
HETATM   10  C8  UNL     1      -6.507   0.751  -0.747  1.00  0.00     0.017 C 
HETATM   11  C9  UNL     1      -5.298   1.047  -1.239  1.00  0.00     0.086 C 
HETATM   12  N2  UNL     1      -3.964   1.057  -0.734  1.00  0.00    -0.360 N 
HETATM   13  N3  UNL     1      -1.866   0.794   0.255  1.00  0.00    -0.236 NA
HETATM   14  C10 UNL     1      -1.241   0.556  -0.871  1.00  0.00     0.233 C 
HETATM   15  N4  UNL     1       0.098   1.065  -0.725  1.00  0.00    -0.229 NA
HETATM   16  C11 UNL     1       0.975   0.410  -0.012  1.00  0.00     0.107 C 
HETATM   17  N5  UNL     1       0.561  -0.822   0.615  1.00  0.00    -0.331 N 
HETATM   18  H9  UNL     1      -3.389   1.764  -1.283  1.00  0.00     0.162 HD
HETATM   19  H20 UNL     1       0.959  -0.869   1.579  1.00  0.00     0.168 HD
ENDROOT
BRANCH   1  20
HETATM   20  N1  UNL     1       0.794  -2.855  -0.115  1.00  0.00    -0.385 N 
HETATM   21  H1  UNL     1       0.898  -2.800  -1.154  1.00  0.00     0.157 HD
HETATM   22  H2  UNL     1       1.245  -3.408   0.658  1.00  0.00     0.157 HD
ENDBRANCH   1  20
BRANCH  16  23
HETATM   23  C12 UNL     1       2.393   0.877   0.187  1.00  0.00     0.083 C 
BRANCH  23  24
HETATM   24  C13 UNL     1       3.273  -0.206  -0.365  1.00  0.00     0.046 C 
BRANCH  24  25
HETATM   25  C14 UNL     1       4.710   0.036  -0.277  1.00  0.00    -0.058 A 
HETATM   26  C15 UNL     1       5.285   0.679  -1.343  1.00  0.00     0.007 A 
HETATM   27  C16 UNL     1       6.637   0.954  -1.356  1.00  0.00     0.001 A 
HETATM   28  C17 UNL     1       7.433   0.582  -0.285  1.00  0.00     0.000 A 
HETATM   29  C18 UNL     1       6.860  -0.071   0.800  1.00  0.00     0.001 A 
HETATM   30  C19 UNL     1       5.494  -0.341   0.797  1.00  0.00     0.007 A 
ENDBRANCH  24  25
ENDBRANCH  23  24
ENDBRANCH  16  23
TORSDOF 4
