REMARK  1 active torsions:
REMARK  status: ('A' for Active; 'I' for Inactive)
REMARK    1  A    between atoms: C11_15  and  C12_16 
ROOT
HETATM    1  F1  UNL     1      -5.776   2.125  -0.528  1.00  0.00    -0.206 F 
HETATM    2  C1  UNL     1      -4.828   1.180  -0.312  1.00  0.00     0.117 A 
HETATM    3  C2  UNL     1      -5.212  -0.120  -0.040  1.00  0.00     0.045 A 
HETATM    4  C3  UNL     1      -4.271  -1.088   0.181  1.00  0.00     0.041 A 
HETATM    5  C4  UNL     1      -2.935  -0.741   0.127  1.00  0.00     0.086 A 
HETATM    6  C5  UNL     1      -2.487   0.528  -0.138  1.00  0.00    -0.004 A 
HETATM    7  C6  UNL     1      -3.480   1.491  -0.358  1.00  0.00     0.054 A 
HETATM    8  C7  UNL     1      -1.217   1.226  -0.268  1.00  0.00     0.161 C 
HETATM    9  N1  UNL     1      -0.074   0.493   0.230  1.00  0.00    -0.380 N 
HETATM   10  C8  UNL     1       0.177  -0.907   0.211  1.00  0.00     0.112 A 
HETATM   11  C9  UNL     1      -0.744  -1.941   0.282  1.00  0.00     0.200 A 
HETATM   12  N2  UNL     1      -0.304  -3.227   0.269  1.00  0.00    -0.215 NA
HETATM   13  C10 UNL     1       1.015  -3.445   0.186  1.00  0.00     0.236 A 
HETATM   14  N3  UNL     1       1.895  -2.450   0.118  1.00  0.00    -0.239 NA
HETATM   15  C11 UNL     1       1.534  -1.132   0.125  1.00  0.00     0.099 A 
HETATM   16  O1  UNL     1      -2.141  -1.829   0.371  1.00  0.00    -0.289 OA
HETATM   17  H6  UNL     1       0.741   0.995   0.697  1.00  0.00     0.160 HD
ENDROOT
BRANCH  15  18
HETATM   18  C12 UNL     1       2.564  -0.104   0.045  1.00  0.00    -0.004 A 
HETATM   19  C13 UNL     1       2.685   1.035  -0.739  1.00  0.00     0.014 A 
HETATM   20  C14 UNL     1       3.783   1.852  -0.600  1.00  0.00     0.002 A 
HETATM   21  C15 UNL     1       4.793   1.591   0.299  1.00  0.00     0.019 A 
HETATM   22  C16 UNL     1       4.685   0.463   1.084  1.00  0.00     0.011 A 
HETATM   23 BR1  UNL     1       6.114   0.153   2.310  1.00  0.00    -0.051 Br
HETATM   24  C17 UNL     1       3.592  -0.369   0.959  1.00  0.00     0.033 A 
ENDBRANCH  15  18
TORSDOF 1
