REMARK  5 active torsions:
REMARK  status: ('A' for Active; 'I' for Inactive)
REMARK    1  A    between atoms: C6_6  and  N1_7 
REMARK    2  A    between atoms: N1_7  and  C7_8 
REMARK    3  A    between atoms: N2_9  and  C8_10 
REMARK    4  A    between atoms: N3_11  and  C9_12 
REMARK    5  A    between atoms: C9_12  and  N4_13 
ROOT
HETATM    1  C9  UNL     1       0.406   0.795   0.641  1.00  0.00     0.424 C 
ENDROOT
BRANCH   1   2
HETATM    2  N3  UNL     1       1.317  -0.295   0.765  1.00  0.00    -0.253 NA
HETATM    3  C8  UNL     1       1.990  -0.818  -0.207  1.00  0.00     0.230 C 
BRANCH   3   4
HETATM    4  N2  UNL     1       1.781  -0.240  -1.470  1.00  0.00    -0.237 NA
HETATM    5  C7  UNL     1       2.383   0.822  -1.833  1.00  0.00     0.208 C 
BRANCH   5   6
HETATM    6  N1  UNL     1       3.308   1.506  -1.005  1.00  0.00    -0.351 N 
HETATM    7  H7  UNL     1       3.120   2.534  -0.789  1.00  0.00     0.166 HD
BRANCH   6   8
HETATM    8  C6  UNL     1       4.448   0.819  -0.520  1.00  0.00     0.033 A 
HETATM    9  C5  UNL     1       5.161   1.533   0.449  1.00  0.00     0.029 A 
HETATM   10  C4  UNL     1       6.304   1.001   0.989  1.00  0.00     0.003 A 
HETATM   11  C3  UNL     1       6.827  -0.227   0.643  1.00  0.00     0.007 A 
HETATM   12  C2  UNL     1       6.106  -0.919  -0.318  1.00  0.00    -0.060 A 
HETATM   13  C1  UNL     1       6.574  -2.240  -0.760  1.00  0.00     0.048 C 
HETATM   14  C21 UNL     1       4.954  -0.387  -0.866  1.00  0.00     0.036 A 
ENDBRANCH   6   8
ENDBRANCH   5   6
ENDBRANCH   3   4
ENDBRANCH   1   2
BRANCH   1  15
HETATM   15  N4  UNL     1      -0.975   0.499   0.809  1.00  0.00     0.130 NA
HETATM   16  C10 UNL     1      -1.410  -0.421  -0.230  1.00  0.00     0.282 C 
HETATM   17  C11 UNL     1      -2.815  -0.425  -0.051  1.00  0.00     0.069 C 
HETATM   18  C12 UNL     1      -4.024  -0.941  -0.521  1.00  0.00    -0.050 A 
HETATM   19  C13 UNL     1      -4.147  -1.855  -1.530  1.00  0.00     0.007 A 
HETATM   20  C17 UNL     1      -5.138  -0.367   0.160  1.00  0.00    -0.050 A 
HETATM   21  C14 UNL     1      -5.390  -2.268  -1.943  1.00  0.00     0.001 A 
HETATM   22  C15 UNL     1      -6.477  -1.744  -1.322  1.00  0.00     0.001 A 
HETATM   23  C16 UNL     1      -6.328  -0.842  -0.325  1.00  0.00     0.007 A 
HETATM   24  C18 UNL     1      -5.100   0.591   1.265  1.00  0.00     0.065 C 
HETATM   25  C19 UNL     1      -4.208   1.787   1.290  1.00  0.00     0.174 C 
HETATM   26  O1  UNL     1      -2.945   1.825   1.310  1.00  0.00    -0.362 OA
HETATM   27  C20 UNL     1      -1.719   1.701   1.032  1.00  0.00     0.442 C 
ENDBRANCH   1  15
TORSDOF 5
