REMARK  4 active torsions:
REMARK  status: ('A' for Active; 'I' for Inactive)
REMARK    1  A    between atoms: C7_7  and  N1_8 
REMARK    2  A    between atoms: N1_8  and  C8_9 
REMARK    3  A    between atoms: C10_12  and  N3_13 
REMARK    4  A    between atoms: C19_23  and  N5_24 
ROOT
HETATM    1  C1  UNL     1       7.287   0.790   1.936  1.00  0.00     0.018 C 
HETATM    2  C2  UNL     1       6.345   0.452   1.258  1.00  0.00    -0.078 C 
HETATM    3  C3  UNL     1       5.214   0.046   0.468  1.00  0.00     0.019 A 
HETATM    4  C4  UNL     1       5.319  -0.662  -0.701  1.00  0.00     0.021 A 
HETATM    5  C5  UNL     1       4.169  -1.009  -1.393  1.00  0.00     0.004 A 
HETATM    6  C6  UNL     1       2.884  -0.672  -0.962  1.00  0.00     0.029 A 
HETATM    7  C7  UNL     1       2.842   0.032   0.206  1.00  0.00     0.033 A 
HETATM    8  C20 UNL     1       3.960   0.395   0.922  1.00  0.00     0.050 A 
ENDROOT
BRANCH   7   9
HETATM    9  N1  UNL     1       1.588   0.427   0.738  1.00  0.00    -0.357 N 
HETATM   10  H5  UNL     1       1.469   0.965   1.621  1.00  0.00     0.166 HD
BRANCH   9  11
HETATM   11  C8  UNL     1       0.343   0.106   0.080  1.00  0.00     0.061 C 
HETATM   12  C9  UNL     1       0.002  -1.186  -0.040  1.00  0.00     0.163 C 
HETATM   13  N2  UNL     1      -1.172  -1.649  -0.654  1.00  0.00    -0.074 NA
HETATM   14  C10 UNL     1      -2.001  -2.361   0.027  1.00  0.00     0.719 C 
HETATM   15  N4  UNL     1      -2.904  -2.502  -1.062  1.00  0.00    -0.075 NA
HETATM   16  C11 UNL     1      -3.749  -1.579  -1.379  1.00  0.00     0.145 C 
HETATM   17  C12 UNL     1      -3.476  -0.555  -0.396  1.00  0.00    -0.021 C 
HETATM   18  C13 UNL     1      -4.518  -0.813   0.379  1.00  0.00    -0.017 C 
HETATM   19  C17 UNL     1      -2.679   0.566   0.155  1.00  0.00     0.046 C 
HETATM   20  C14 UNL     1      -5.416   0.130   0.447  1.00  0.00     0.012 C 
HETATM   21  C15 UNL     1      -4.954   1.497   0.664  1.00  0.00    -0.002 C 
HETATM   22  C16 UNL     1      -3.641   1.670   0.515  1.00  0.00    -0.017 C 
HETATM   23  C18 UNL     1      -1.748   1.104  -0.876  1.00  0.00     0.055 C 
HETATM   24  C19 UNL     1      -0.348   1.314  -0.364  1.00  0.00     0.269 C 
BRANCH  14  25
HETATM   25  N3  UNL     1      -1.839  -2.731   1.367  1.00  0.00    -0.231 N 
HETATM   26  H7  UNL     1      -1.533  -1.950   2.002  1.00  0.00     0.174 HD
HETATM   27  H8  UNL     1      -2.000  -3.696   1.740  1.00  0.00     0.174 HD
ENDBRANCH  14  25
BRANCH  24  28
HETATM   28  N5  UNL     1       0.439   1.871  -1.465  1.00  0.00     0.088 N 
HETATM   29  H17 UNL     1       1.072   2.626  -1.185  1.00  0.00     0.313 HD
HETATM   30  H18 UNL     1      -0.153   2.213  -2.249  1.00  0.00     0.313 HD
ENDBRANCH  24  28
ENDBRANCH   9  11
ENDBRANCH   7   9
TORSDOF 4
