REMARK  5 active torsions:
REMARK  status: ('A' for Active; 'I' for Inactive)
REMARK    1  A    between atoms: C4_4  and  C5_5 
REMARK    2  A    between atoms: C6_6  and  C7_7 
REMARK    3  A    between atoms: C7_7  and  C8_8 
REMARK    4  A    between atoms: C8_8  and  C9_9 
REMARK    5  A    between atoms: N2_14  and  C13_15 
ROOT
HETATM    1  C1  UNL     1       6.905   0.395  -2.613  1.00  0.00     0.017 C 
HETATM    2  C2  UNL     1       6.574  -0.442  -1.835  1.00  0.00    -0.089 C 
HETATM    3  C3  UNL     1       6.196  -1.458  -0.907  1.00  0.00     0.063 C 
HETATM    4  C4  UNL     1       5.072  -1.339  -0.241  1.00  0.00     0.009 C 
ENDROOT
BRANCH   4   5
HETATM    5  C5  UNL     1       3.869  -0.555   0.032  1.00  0.00    -0.003 C 
HETATM    6  C6  UNL     1       2.696  -0.318   0.650  1.00  0.00    -0.026 C 
BRANCH   6   7
HETATM    7  C7  UNL     1       1.981   0.926   0.294  1.00  0.00     0.031 C 
BRANCH   7   8
HETATM    8  C8  UNL     1       0.622   0.632  -0.274  1.00  0.00     0.050 C 
BRANCH   8   9
HETATM    9  C9  UNL     1      -0.222  -0.068   0.715  1.00  0.00     0.184 C 
HETATM   10  N1  UNL     1       0.369  -1.328   1.118  1.00  0.00    -0.378 N 
HETATM   11  C10 UNL     1       0.354  -2.386   0.138  1.00  0.00     0.082 C 
HETATM   12  H11 UNL     1       0.793  -1.509   2.064  1.00  0.00     0.161 HD
HETATM   13  C11 UNL     1      -0.797  -2.515  -0.540  1.00  0.00     0.010 C 
HETATM   14  C12 UNL     1      -1.990  -1.660  -0.333  1.00  0.00     0.153 C 
HETATM   15  N2  UNL     1      -1.548  -0.394   0.227  1.00  0.00    -0.356 N 
BRANCH  15  16
HETATM   16  C13 UNL     1      -2.545   0.617   0.290  1.00  0.00     0.033 A 
HETATM   17  C14 UNL     1      -2.294   1.898   0.736  1.00  0.00     0.029 A 
HETATM   18  C15 UNL     1      -3.225   2.908   0.818  1.00  0.00     0.004 A 
HETATM   19  C16 UNL     1      -4.519   2.647   0.429  1.00  0.00     0.021 A 
HETATM   20  C17 UNL     1      -4.851   1.389  -0.030  1.00  0.00     0.019 A 
HETATM   21  C18 UNL     1      -6.204   1.069  -0.451  1.00  0.00    -0.078 C 
HETATM   22  C20 UNL     1      -3.861   0.433  -0.081  1.00  0.00     0.050 A 
HETATM   23  C19 UNL     1      -7.331   0.816  -0.808  1.00  0.00     0.018 C 
ENDBRANCH  15  16
ENDBRANCH   8   9
ENDBRANCH   7   8
ENDBRANCH   6   7
ENDBRANCH   4   5
TORSDOF 5
