REMARK  10 active torsions:
REMARK  status: ('A' for Active; 'I' for Inactive)
REMARK    1  A    between atoms: P1_2  and  C3_4 
REMARK    2  A    between atoms: C3_4  and  C4_5 
REMARK    3  A    between atoms: C4_5  and  C5_6 
REMARK    4  A    between atoms: C5_6  and  C6_7 
REMARK    5  A    between atoms: C6_7  and  C7_8 
REMARK    6  A    between atoms: C7_8  and  C8_9 
REMARK    7  A    between atoms: C9_11  and  N2_12 
REMARK    8  A    between atoms: C12_17  and  C13_18 
REMARK    9  A    between atoms: C13_18  and  C14_19 
REMARK   10  A    between atoms: C17_23  and  N6_24 
ROOT
HETATM    1  C8  UNL     1      -0.204  -1.143  -0.432  1.00  0.00     0.067 C 
HETATM    2  N1  UNL     1      -0.370  -2.314  -0.874  1.00  0.00    -0.221 NA
HETATM    3  C9  UNL     1      -1.566  -3.025  -0.973  1.00  0.00     0.196 C 
HETATM    4  N3  UNL     1      -2.781  -3.439  -0.960  1.00  0.00    -0.231 NA
HETATM    5  C10 UNL     1      -3.947  -2.719  -0.536  1.00  0.00     0.421 C 
HETATM    6  N4  UNL     1      -3.635  -1.291  -0.322  1.00  0.00     0.106 N 
HETATM    7  C11 UNL     1      -2.598  -1.180   0.635  1.00  0.00     0.308 C 
HETATM    8  C12 UNL     1      -2.013   0.147   0.813  1.00  0.00    -0.022 C 
HETATM    9  C17 UNL     1      -0.821  -0.009   0.240  1.00  0.00     0.055 C 
HETATM   10  H15 UNL     1      -3.353  -0.908  -1.252  1.00  0.00     0.318 HD
ENDROOT
BRANCH   1  11
HETATM   11  C7  UNL     1       1.264  -0.954  -0.596  1.00  0.00     0.088 C 
BRANCH  11  12
HETATM   12  C6  UNL     1       1.507   0.307  -1.341  1.00  0.00    -0.020 C 
BRANCH  12  13
HETATM   13  C5  UNL     1       2.278   1.243  -0.774  1.00  0.00     0.004 C 
BRANCH  13  14
HETATM   14  C4  UNL     1       2.946   1.257   0.477  1.00  0.00     0.055 C 
BRANCH  14  15
HETATM   15  C3  UNL     1       4.242   1.450   0.671  1.00  0.00    -0.133 C 
BRANCH  15  16
HETATM   16  P1  UNL     1       5.855   1.627   0.672  1.00  0.00    -0.081 P 
HETATM   17  C1  UNL     1       6.267   3.154   0.315  1.00  0.00     0.101 C 
HETATM   18  C2  UNL     1       6.741   0.228  -0.005  1.00  0.00     0.049 C 
ENDBRANCH  15  16
ENDBRANCH  14  15
ENDBRANCH  13  14
ENDBRANCH  12  13
ENDBRANCH  11  12
ENDBRANCH   1  11
BRANCH   9  19
HETATM   19  N6  UNL     1      -0.288   1.270   0.435  1.00  0.00    -0.397 N 
HETATM   20  H22 UNL     1       0.209   1.540   1.324  1.00  0.00     0.156 HD
HETATM   21  H23 UNL     1      -0.491   1.849  -0.432  1.00  0.00     0.156 HD
ENDBRANCH   9  19
BRANCH   3  22
HETATM   22  N2  UNL     1      -1.011  -4.232  -1.489  1.00  0.00    -0.271 NA
HETATM   23  H11 UNL     1      -0.695  -4.882  -2.230  1.00  0.00     0.127 HD
HETATM   24  H12 UNL     1      -0.862  -4.482  -2.499  1.00  0.00     0.127 HD
ENDBRANCH   3  22
BRANCH   8  25
HETATM   25  C13 UNL     1      -2.711   1.248   1.475  1.00  0.00     0.069 C 
BRANCH  25  26
HETATM   26  C14 UNL     1      -4.016   1.587   0.777  1.00  0.00     0.138 C 
HETATM   27  C15 UNL     1      -4.772   2.691   1.390  1.00  0.00     0.034 C 
HETATM   28  C16 UNL     1      -5.105   3.044   0.169  1.00  0.00     0.078 C 
HETATM   29  N5  UNL     1      -3.958   2.618  -0.212  1.00  0.00    -0.278 NA
ENDBRANCH  25  26
ENDBRANCH   8  25
TORSDOF 10
