REMARK  1 active torsions:
REMARK  status: ('A' for Active; 'I' for Inactive)
REMARK    1  A    between atoms: C11_15  and  N4_16 
ROOT
HETATM    1  F1  UNL     1      -4.906   3.708  -1.335  1.00  0.00    -0.206 F 
HETATM    2  C1  UNL     1      -3.999   2.713  -1.583  1.00  0.00     0.117 A 
HETATM    3  C2  UNL     1      -4.224   1.839  -2.628  1.00  0.00     0.045 A 
HETATM    4  C3  UNL     1      -3.298   0.836  -2.868  1.00  0.00     0.041 A 
HETATM    5  C4  UNL     1      -2.174   0.684  -2.105  1.00  0.00     0.086 A 
HETATM    6  C5  UNL     1      -1.931   1.548  -1.055  1.00  0.00    -0.004 A 
HETATM    7  C6  UNL     1      -2.854   2.567  -0.798  1.00  0.00     0.054 A 
HETATM    8  C7  UNL     1      -0.897   1.729  -0.034  1.00  0.00     0.161 C 
HETATM    9  N1  UNL     1       0.130   0.728  -0.026  1.00  0.00    -0.379 N 
HETATM   10  C8  UNL     1       0.173  -0.608  -0.532  1.00  0.00     0.129 A 
HETATM   11  C9  UNL     1      -0.507  -1.076  -1.648  1.00  0.00     0.202 A 
HETATM   12  N2  UNL     1      -0.334  -2.383  -2.001  1.00  0.00    -0.215 NA
HETATM   13  C10 UNL     1       0.495  -3.124  -1.226  1.00  0.00     0.238 A 
HETATM   14  N3  UNL     1       1.126  -2.639  -0.164  1.00  0.00    -0.222 NA
HETATM   15  C11 UNL     1       1.011  -1.363   0.254  1.00  0.00     0.163 A 
HETATM   16  O1  UNL     1      -1.378  -0.363  -2.494  1.00  0.00    -0.289 OA
HETATM   17  H6  UNL     1       1.061   0.975   0.428  1.00  0.00     0.160 HD
ENDROOT
BRANCH  15  18
HETATM   18  N4  UNL     1       1.694  -0.904   1.412  1.00  0.00    -0.312 N 
HETATM   19  C12 UNL     1       3.135  -0.844   1.299  1.00  0.00     0.111 C 
HETATM   20  C13 UNL     1       3.942  -1.170   2.329  1.00  0.00     0.032 C 
HETATM   21 BR1  UNL     1       5.853  -1.065   2.104  1.00  0.00    -0.052 Br
HETATM   22  C14 UNL     1       3.174  -1.586   3.543  1.00  0.00     0.319 C 
HETATM   23  N5  UNL     1       2.155  -0.582   3.744  1.00  0.00     0.105 N 
HETATM   24  C15 UNL     1       1.186  -0.481   2.702  1.00  0.00     0.401 C 
HETATM   25  H11 UNL     1       2.667   0.323   3.869  1.00  0.00     0.318 HD
ENDBRANCH  15  18
TORSDOF 1
