REMARK  4 active torsions:
REMARK  status: ('A' for Active; 'I' for Inactive)
REMARK    1  A    between atoms: C8_8  and  N1_9 
REMARK    2  A    between atoms: N1_9  and  C9_10 
REMARK    3  A    between atoms: C14_17  and  C15_18 
REMARK    4  A    between atoms: C15_18  and  C16_19 
ROOT
HETATM    1  C1  UNL     1      -2.235  -3.350   3.131  1.00  0.00     0.018 C 
HETATM    2  C2  UNL     1      -2.594  -2.284   2.696  1.00  0.00    -0.078 C 
HETATM    3  C3  UNL     1      -3.031  -0.995   2.196  1.00  0.00     0.019 A 
HETATM    4  C4  UNL     1      -3.797  -0.109   2.888  1.00  0.00     0.021 A 
HETATM    5  C5  UNL     1      -4.143   1.073   2.264  1.00  0.00     0.010 A 
HETATM    6  C6  UNL     1      -3.723   1.356   0.961  1.00  0.00    -0.035 A 
HETATM    7  C7  UNL     1      -4.165   2.646   0.415  1.00  0.00     0.050 C 
HETATM    8  C8  UNL     1      -2.946   0.467   0.247  1.00  0.00     0.041 A 
HETATM    9  C22 UNL     1      -2.620  -0.709   0.913  1.00  0.00     0.050 A 
ENDROOT
BRANCH   8  10
HETATM   10  N1  UNL     1      -2.523   0.764  -1.077  1.00  0.00    -0.340 N 
HETATM   11  H7  UNL     1      -2.800   1.640  -1.516  1.00  0.00     0.167 HD
BRANCH  10  12
HETATM   12  C9  UNL     1      -1.719  -0.229  -1.703  1.00  0.00     0.141 A 
HETATM   13  N2  UNL     1      -2.312  -1.303  -2.299  1.00  0.00    -0.224 NA
HETATM   14  C10 UNL     1      -1.567  -2.255  -2.902  1.00  0.00     0.235 A 
HETATM   15  N3  UNL     1      -0.226  -2.143  -2.916  1.00  0.00    -0.245 NA
HETATM   16  C11 UNL     1       0.405  -1.098  -2.340  1.00  0.00     0.053 A 
HETATM   17  C12 UNL     1      -0.344  -0.125  -1.724  1.00  0.00     0.035 A 
HETATM   18  C21 UNL     1       1.859  -0.802  -2.262  1.00  0.00     0.094 A 
HETATM   19  C13 UNL     1       0.624   0.831  -1.232  1.00  0.00     0.021 A 
HETATM   20  C14 UNL     1       1.890   0.476  -1.519  1.00  0.00    -0.069 A 
BRANCH  20  21
HETATM   21  C15 UNL     1       3.102   1.239  -1.162  1.00  0.00     0.069 C 
BRANCH  21  22
HETATM   22  C16 UNL     1       4.018   0.580  -0.231  1.00  0.00    -0.073 A 
HETATM   23  C17 UNL     1       4.261   1.204   0.939  1.00  0.00     0.003 A 
HETATM   24  C18 UNL     1       5.177   0.506   1.820  1.00  0.00    -0.003 A 
HETATM   25  C19 UNL     1       5.487  -0.580   1.136  1.00  0.00    -0.022 A 
HETATM   26  C20 UNL     1       4.814  -0.665  -0.209  1.00  0.00     0.061 A 
ENDBRANCH  21  22
ENDBRANCH  20  21
ENDBRANCH  10  12
ENDBRANCH   8  10
TORSDOF 4
