REMARK  6 active torsions:
REMARK  status: ('A' for Active; 'I' for Inactive)
REMARK    1  A    between atoms: C1_2  and  C2_5 
REMARK    2  A    between atoms: C6_9  and  N1_10 
REMARK    3  A    between atoms: N1_10  and  C7_11 
REMARK    4  A    between atoms: C11_18  and  C12_19 
REMARK    5  A    between atoms: C12_19  and  C13_20 
REMARK    6  A    between atoms: C13_20  and  C14_21 
ROOT
HETATM    1  C7  UNL     1       1.405   1.643   1.028  1.00  0.00     0.160 A 
HETATM    2  N2  UNL     1       1.302   2.990   1.161  1.00  0.00    -0.222 NA
HETATM    3  C8  UNL     1       0.103   3.608   0.966  1.00  0.00     0.237 A 
HETATM    4  N3  UNL     1      -1.019   2.943   0.640  1.00  0.00    -0.222 NA
HETATM    5  C9  UNL     1      -0.998   1.597   0.489  1.00  0.00     0.157 A 
HETATM    6  C10 UNL     1       0.242   0.976   0.692  1.00  0.00     0.122 A 
HETATM    7  N4  UNL     1      -0.003  -0.430   0.474  1.00  0.00    -0.363 N 
HETATM    8  C11 UNL     1      -1.423  -0.619   0.848  1.00  0.00     0.183 C 
HETATM    9  N5  UNL     1      -1.957   0.565   0.154  1.00  0.00    -0.352 N 
HETATM   10  H6  UNL     1       0.743  -1.078   0.124  1.00  0.00     0.162 HD
HETATM   11  H17 UNL     1      -2.738   0.932  -0.471  1.00  0.00     0.163 HD
ENDROOT
BRANCH   1  12
HETATM   12  N1  UNL     1       2.634   1.000   1.225  1.00  0.00    -0.339 N 
HETATM   13  H4  UNL     1       2.678   0.772   2.238  1.00  0.00     0.167 HD
BRANCH  12  14
HETATM   14  C6  UNL     1       3.655   0.689   0.300  1.00  0.00     0.034 A 
HETATM   15  C5  UNL     1       3.497   1.022  -1.028  1.00  0.00     0.029 A 
HETATM   16  C4  UNL     1       4.524   0.701  -1.922  1.00  0.00     0.003 A 
HETATM   17  C3  UNL     1       5.641   0.059  -1.397  1.00  0.00     0.016 A 
HETATM   18  C2  UNL     1       5.811  -0.282  -0.064  1.00  0.00     0.050 A 
HETATM   19  C20 UNL     1       4.773   0.054   0.789  1.00  0.00     0.045 A 
BRANCH  18  20
HETATM   20  C1  UNL     1       7.039  -0.966   0.407  1.00  0.00     0.417 C 
HETATM   21  F1  UNL     1       7.445  -0.520   1.649  1.00  0.00    -0.166 F 
HETATM   22  F2  UNL     1       8.025  -0.732  -0.546  1.00  0.00    -0.166 F 
HETATM   23  F3  UNL     1       6.790  -2.324   0.423  1.00  0.00    -0.166 F 
ENDBRANCH  18  20
ENDBRANCH  12  14
ENDBRANCH   1  12
BRANCH   8  24
HETATM   24  C12 UNL     1      -1.864  -1.900   0.240  1.00  0.00     0.051 C 
BRANCH  24  25
HETATM   25  C13 UNL     1      -3.262  -2.321   0.490  1.00  0.00     0.042 C 
BRANCH  25  26
HETATM   26  C14 UNL     1      -4.319  -1.414   0.043  1.00  0.00    -0.058 A 
HETATM   27  C15 UNL     1      -4.817  -0.451   0.928  1.00  0.00     0.007 A 
HETATM   28  C16 UNL     1      -5.812   0.436   0.575  1.00  0.00     0.001 A 
HETATM   29  C17 UNL     1      -6.299   0.319  -0.722  1.00  0.00     0.000 A 
HETATM   30  C18 UNL     1      -5.868  -0.597  -1.657  1.00  0.00     0.001 A 
HETATM   31  C19 UNL     1      -4.864  -1.458  -1.233  1.00  0.00     0.007 A 
ENDBRANCH  25  26
ENDBRANCH  24  25
ENDBRANCH   8  24
TORSDOF 6
