REMARK  3 active torsions:
REMARK  status: ('A' for Active; 'I' for Inactive)
REMARK    1  A    between atoms: C6_9  and  N3_10 
REMARK    2  A    between atoms: N3_10  and  C7_11 
REMARK    3  A    between atoms: C14_21  and  C15_22 
ROOT
HETATM    1  C1  UNL     1      -5.231  -2.037   0.694  1.00  0.00     0.039 C 
HETATM    2  C2  UNL     1      -4.806  -0.644   0.368  1.00  0.00     0.007 C 
HETATM    3  C3  UNL     1      -3.533  -0.363   0.234  1.00  0.00     0.083 C 
HETATM    4  O1  UNL     1      -2.656  -1.448   0.419  1.00  0.00    -0.278 OA
HETATM    5  C4  UNL     1      -1.283  -1.380   0.595  1.00  0.00     0.253 A 
HETATM    6  N1  UNL     1      -0.730  -2.512   0.895  1.00  0.00    -0.202 NA
HETATM    7  C5  UNL     1       0.682  -2.572   1.101  1.00  0.00     0.235 A 
HETATM    8  N2  UNL     1       1.474  -1.561   1.012  1.00  0.00    -0.237 NA
HETATM    9  C6  UNL     1       1.027  -0.227   0.687  1.00  0.00     0.317 A 
HETATM   10  N4  UNL     1      -0.407  -0.274   0.499  1.00  0.00    -0.302 N 
HETATM   11  C12 UNL     1      -0.615   1.102   0.202  1.00  0.00     0.158 C 
HETATM   12  C13 UNL     1      -2.000   1.509  -0.063  1.00  0.00     0.005 C 
HETATM   13  C14 UNL     1      -3.234   1.030  -0.084  1.00  0.00     0.002 C 
ENDROOT
BRANCH   9  14
HETATM   14  N3  UNL     1       1.694   0.146  -0.566  1.00  0.00    -0.365 N 
HETATM   15  H7  UNL     1       1.528   0.428  -1.549  1.00  0.00     0.162 HD
BRANCH  14  16
HETATM   16  C7  UNL     1       3.111   0.102  -0.334  1.00  0.00    -0.040 A 
HETATM   17  C8  UNL     1       3.865  -0.986  -0.413  1.00  0.00     0.011 A 
HETATM   18  C9  UNL     1       5.295  -0.936  -0.160  1.00  0.00    -0.003 A 
HETATM   19  C10 UNL     1       5.902   0.194   0.158  1.00  0.00    -0.021 A 
HETATM   20  C11 UNL     1       5.340   1.546   0.321  1.00  0.00     0.042 A 
HETATM   21 BR1  UNL     1       5.537   2.203   2.145  1.00  0.00    -0.098 Br
HETATM   22  B1  UNL     1       3.780   1.452   0.038  1.00  0.00     0.235 B 
HETATM   23  H12 UNL     1       3.141   2.435   0.172  1.00  0.00    -0.018 HD
ENDBRANCH  14  16
ENDBRANCH   9  14
BRANCH  13  24
HETATM   24  C15 UNL     1      -4.356   1.936  -0.444  1.00  0.00     0.263 C 
HETATM   25  F1  UNL     1      -5.041   1.495  -1.571  1.00  0.00    -0.250 F 
ENDBRANCH  13  24
TORSDOF 3
