REMARK  5 active torsions:
REMARK  status: ('A' for Active; 'I' for Inactive)
REMARK    1  A    between atoms: C2_2  and  C3_3 
REMARK    2  A    between atoms: C2_2  and  N1_11 
REMARK    3  A    between atoms: C3_3  and  C4_4 
REMARK    4  A    between atoms: C4_4  and  C5_5 
REMARK    5  A    between atoms: N1_11  and  C11_12 
ROOT
HETATM    1  C11 UNL     1      -1.823  -0.384   0.584  1.00  0.00     0.716 C 
HETATM    2  N2  UNL     1      -1.926   0.828   0.648  1.00  0.00    -0.105 NA
HETATM    3  C12 UNL     1      -2.933   1.788   0.666  1.00  0.00     0.174 C 
HETATM    4  C13 UNL     1      -4.289   1.277   0.986  1.00  0.00     0.021 C 
HETATM    5  C14 UNL     1      -4.386  -0.051   1.166  1.00  0.00     0.026 C 
HETATM    6  C15 UNL     1      -5.586  -0.828   1.494  1.00  0.00     0.026 C 
HETATM    7  C16 UNL     1      -5.435  -2.133   1.614  1.00  0.00     0.172 C 
HETATM    8  F1  UNL     1      -5.966  -3.344   1.863  1.00  0.00    -0.201 F 
HETATM    9  C17 UNL     1      -4.165  -2.771   1.291  1.00  0.00     0.264 A 
HETATM   10  F2  UNL     1      -3.449  -3.916   1.221  1.00  0.00    -0.207 F 
HETATM   11  N3  UNL     1      -2.945  -2.837   0.897  1.00  0.00    -0.102 N 
HETATM   12  N4  UNL     1      -2.268  -1.713   0.494  1.00  0.00    -0.100 N 
HETATM   13  H18 UNL     1      -2.001  -2.337  -0.306  1.00  0.00     0.208 HD
ENDROOT
BRANCH   1  14
HETATM   14  N1  UNL     1      -0.377  -0.564   0.625  1.00  0.00    -0.193 N 
HETATM   15  H12 UNL     1       0.278  -1.400   0.479  1.00  0.00     0.184 HD
BRANCH  14  16
HETATM   16  C2  UNL     1       0.708   0.347   0.885  1.00  0.00     0.017 C 
HETATM   17  C1  UNL     1       0.586   0.816   2.136  1.00  0.00     0.038 C 
BRANCH  16  18
HETATM   18  C3  UNL     1       1.815   0.763  -0.008  1.00  0.00     0.061 C 
BRANCH  18  19
HETATM   19  C4  UNL     1       2.665  -0.419  -0.439  1.00  0.00     0.044 C 
BRANCH  19  20
HETATM   20  C5  UNL     1       3.740   0.102  -1.318  1.00  0.00    -0.058 A 
HETATM   21  C6  UNL     1       3.564   0.195  -2.696  1.00  0.00     0.007 A 
HETATM   22  C7  UNL     1       4.532   0.673  -3.520  1.00  0.00     0.001 A 
HETATM   23  C8  UNL     1       5.749   1.091  -2.998  1.00  0.00     0.000 A 
HETATM   24  C9  UNL     1       5.989   1.023  -1.618  1.00  0.00     0.001 A 
HETATM   25  C10 UNL     1       4.958   0.523  -0.829  1.00  0.00     0.007 A 
ENDBRANCH  19  20
ENDBRANCH  18  19
ENDBRANCH  16  18
ENDBRANCH  14  16
ENDBRANCH   1  14
TORSDOF 5
