REMARK  7 active torsions:
REMARK  status: ('A' for Active; 'I' for Inactive)
REMARK    1  A    between atoms: C1_2  and  C2_5 
REMARK    2  A    between atoms: C6_9  and  N1_10 
REMARK    3  A    between atoms: N1_10  and  C7_11 
REMARK    4  A    between atoms: N2_12  and  C8_13 
REMARK    5  A    between atoms: C8_13  and  N3_14 
REMARK    6  A    between atoms: N3_14  and  C9_15 
REMARK    7  A    between atoms: C9_15  and  N4_16 
ROOT
HETATM    1  C8  UNL     1       1.222  -0.130  -1.814  1.00  0.00     0.229 C 
ENDROOT
BRANCH   1   2
HETATM    2  N2  UNL     1       2.277  -0.890  -1.265  1.00  0.00    -0.237 NA
HETATM    3  C7  UNL     1       1.971  -1.605  -0.202  1.00  0.00     0.208 C 
BRANCH   3   4
HETATM    4  N1  UNL     1       3.123  -2.305   0.230  1.00  0.00    -0.351 N 
HETATM    5  H4  UNL     1       3.083  -3.339   0.487  1.00  0.00     0.166 HD
BRANCH   4   6
HETATM    6  C6  UNL     1       4.390  -1.683   0.358  1.00  0.00     0.033 A 
HETATM    7  C5  UNL     1       5.520  -2.413   0.716  1.00  0.00     0.029 A 
HETATM    8  C4  UNL     1       6.794  -1.924   0.878  1.00  0.00     0.003 A 
HETATM    9  C3  UNL     1       6.961  -0.582   0.665  1.00  0.00     0.016 A 
HETATM   10  C2  UNL     1       5.905   0.226   0.306  1.00  0.00     0.050 A 
HETATM   11  C21 UNL     1       4.661  -0.348   0.166  1.00  0.00     0.045 A 
BRANCH  10  12
HETATM   12  C1  UNL     1       6.103   1.694   0.074  1.00  0.00     0.417 C 
HETATM   13  F1  UNL     1       5.261   2.406   0.880  1.00  0.00    -0.166 F 
HETATM   14  F2  UNL     1       5.836   1.994  -1.244  1.00  0.00    -0.166 F 
HETATM   15  F3  UNL     1       7.444   1.997   0.290  1.00  0.00    -0.166 F 
ENDBRANCH  10  12
ENDBRANCH   4   6
ENDBRANCH   3   4
ENDBRANCH   1   2
BRANCH   1  16
HETATM   16  N3  UNL     1       0.244   0.679  -1.926  1.00  0.00    -0.264 NA
BRANCH  16  17
HETATM   17  C9  UNL     1      -0.212   1.386  -0.726  1.00  0.00     0.272 C 
BRANCH  17  18
HETATM   18  N4  UNL     1      -1.234   0.816  -0.050  1.00  0.00    -0.366 N 
HETATM   19  C10 UNL     1      -1.668   1.605   1.135  1.00  0.00     0.126 C 
HETATM   20  C11 UNL     1      -2.945   1.039   1.660  1.00  0.00     0.058 C 
HETATM   21  C12 UNL     1      -4.174   1.118   0.925  1.00  0.00    -0.060 C 
HETATM   22  C13 UNL     1      -5.411   1.401   0.833  1.00  0.00    -0.018 C 
HETATM   23  C20 UNL     1      -4.520  -0.225   0.234  1.00  0.00     0.007 C 
HETATM   24  C14 UNL     1      -5.493   1.060  -0.650  1.00  0.00     0.054 C 
HETATM   25  C15 UNL     1      -4.183   1.039  -1.411  1.00  0.00     0.174 C 
HETATM   26  O1  UNL     1      -3.164   0.555  -0.888  1.00  0.00    -0.363 OA
HETATM   27  C16 UNL     1      -2.238  -0.014  -0.266  1.00  0.00     0.244 C 
HETATM   28  C17 UNL     1      -2.191  -1.425  -0.828  1.00  0.00     0.026 C 
HETATM   29  C18 UNL     1      -3.415  -2.027  -0.849  1.00  0.00     0.000 C 
HETATM   30  C19 UNL     1      -4.581  -1.374  -0.368  1.00  0.00     0.000 C 
ENDBRANCH  17  18
ENDBRANCH  16  17
ENDBRANCH   1  16
TORSDOF 7
