REMARK  10 active torsions:
REMARK  status: ('A' for Active; 'I' for Inactive)
REMARK    1  A    between atoms: C2_2  and  N1_3 
REMARK    2  A    between atoms: N1_3  and  C3_4 
REMARK    3  A    between atoms: C3_4  and  C4_5 
REMARK    4  A    between atoms: C5_6  and  C6_7 
REMARK    5  A    between atoms: C6_7  and  C7_8 
REMARK    6  A    between atoms: C6_7  and  C8_10 
REMARK    7  A    between atoms: C11_14  and  C12_15 
REMARK    8  A    between atoms: C12_15  and  C13_16 
REMARK    9  A    between atoms: N3_24  and  C20_25 
REMARK   10  A    between atoms: C20_25  and  N4_26 
ROOT
HETATM    1  C3  UNL     1      -1.280   0.567   0.740  1.00  0.00     0.045 C 
HETATM    2  C9  UNL     1      -0.250   0.403  -0.055  1.00  0.00     0.038 A 
HETATM    3  C10 UNL     1       0.147  -0.789  -0.762  1.00  0.00     0.043 A 
HETATM    4  C11 UNL     1       1.261  -0.559  -1.489  1.00  0.00     0.016 A 
HETATM    5  N2  UNL     1       1.708   0.775  -1.342  1.00  0.00    -0.344 N 
HETATM    6  C19 UNL     1       0.768   1.368  -0.454  1.00  0.00     0.137 A 
HETATM    7  N3  UNL     1       0.815   2.591  -0.049  1.00  0.00    -0.242 NA
HETATM    8  H20 UNL     1       2.558   1.122  -1.824  1.00  0.00     0.167 HD
ENDROOT
BRANCH   1   9
HETATM    9  N1  UNL     1      -1.604   1.754   1.391  1.00  0.00    -0.366 N 
HETATM   10  H4  UNL     1      -0.906   1.787   2.185  1.00  0.00     0.165 HD
BRANCH   9  11
HETATM   11  C2  UNL     1      -2.248   2.955   1.697  1.00  0.00     0.078 C 
HETATM   12  C1  UNL     1      -1.771   4.156   1.490  1.00  0.00     0.029 C 
ENDBRANCH   9  11
ENDBRANCH   1   9
BRANCH   1  13
HETATM   13  C4  UNL     1      -2.158  -0.564   0.972  1.00  0.00     0.027 C 
HETATM   14  C5  UNL     1      -3.233  -0.514   1.716  1.00  0.00    -0.015 C 
BRANCH  14  15
HETATM   15  C6  UNL     1      -4.318  -1.366   2.179  1.00  0.00     0.065 C 
BRANCH  15  16
HETATM   16  C7  UNL     1      -5.688  -0.904   1.681  1.00  0.00     0.233 C 
HETATM   17  F1  UNL     1      -6.640  -1.786   2.185  1.00  0.00    -0.255 F 
ENDBRANCH  15  16
BRANCH  15  18
HETATM   18  C8  UNL     1      -4.182  -2.794   1.627  1.00  0.00     0.233 C 
HETATM   19  F2  UNL     1      -5.241  -3.552   2.109  1.00  0.00    -0.255 F 
ENDBRANCH  15  18
ENDBRANCH  14  15
ENDBRANCH   1  13
BRANCH   4  20
HETATM   20  C12 UNL     1       1.835  -1.686  -2.297  1.00  0.00     0.095 C 
BRANCH  20  21
HETATM   21  C13 UNL     1       3.241  -1.991  -2.026  1.00  0.00    -0.053 A 
HETATM   22  C14 UNL     1       4.132  -2.079  -3.104  1.00  0.00     0.007 A 
HETATM   23  C15 UNL     1       5.492  -2.343  -3.070  1.00  0.00     0.001 A 
HETATM   24  C16 UNL     1       5.993  -2.540  -1.783  1.00  0.00     0.000 A 
HETATM   25  C17 UNL     1       5.134  -2.457  -0.707  1.00  0.00     0.001 A 
HETATM   26  C18 UNL     1       3.779  -2.192  -0.753  1.00  0.00     0.007 A 
ENDBRANCH  20  21
ENDBRANCH   4  20
BRANCH   7  27
HETATM   27  C20 UNL     1       1.847   3.506  -0.478  1.00  0.00     0.417 C 
BRANCH  27  28
HETATM   28  N4  UNL     1       1.353   4.806  -0.820  1.00  0.00     0.097 N 
HETATM   29  H23 UNL     1       0.484   4.738  -1.369  1.00  0.00     0.315 HD
HETATM   30  H24 UNL     1       1.230   5.456  -0.025  1.00  0.00     0.315 HD
ENDBRANCH  27  28
ENDBRANCH   7  27
TORSDOF 10
