REMARK  7 active torsions:
REMARK  status: ('A' for Active; 'I' for Inactive)
REMARK    1  A    between atoms: C2_2  and  C3_5 
REMARK    2  A    between atoms: C4_6  and  C5_7 
REMARK    3  A    between atoms: C6_8  and  C7_9 
REMARK    4  A    between atoms: C7_9  and  N1_10 
REMARK    5  A    between atoms: N1_10  and  C8_11 
REMARK    6  A    between atoms: C11_17  and  C12_18 
REMARK    7  A    between atoms: C12_18  and  C13_19 
ROOT
HETATM    1  C8  UNL     1      -0.619   0.569  -1.149  1.00  0.00     0.107 C 
HETATM    2  N2  UNL     1      -0.443   0.692  -2.434  1.00  0.00    -0.227 NA
HETATM    3  C9  UNL     1      -1.397   0.290  -3.418  1.00  0.00     0.256 C 
HETATM    4  N3  UNL     1      -2.374  -0.564  -3.369  1.00  0.00    -0.173 NA
HETATM    5  N4  UNL     1      -2.703  -1.310  -2.254  1.00  0.00    -0.312 N 
HETATM    6  C10 UNL     1      -2.232  -1.299  -0.910  1.00  0.00     0.154 C 
HETATM    7  C11 UNL     1      -1.780   0.015  -0.385  1.00  0.00     0.078 C 
HETATM    8  H12 UNL     1      -3.455  -2.026  -2.469  1.00  0.00     0.182 HD
ENDROOT
BRANCH   1   9
HETATM    9  N1  UNL     1       0.505   1.057  -0.402  1.00  0.00    -0.374 N 
HETATM   10  H10 UNL     1       0.339   1.349   0.584  1.00  0.00     0.161 HD
BRANCH   9  11
HETATM   11  C7  UNL     1       1.805   1.119  -1.045  1.00  0.00     0.148 C 
BRANCH  11  12
HETATM   12  C6  UNL     1       2.846   1.642  -0.137  1.00  0.00    -0.007 C 
HETATM   13  C5  UNL     1       3.963   1.081   0.290  1.00  0.00    -0.002 C 
BRANCH  13  14
HETATM   14  C4  UNL     1       4.347  -0.258  -0.122  1.00  0.00     0.002 C 
HETATM   15  C3  UNL     1       5.463  -0.784   0.321  1.00  0.00     0.050 C 
BRANCH  15  16
HETATM   16  C2  UNL     1       6.355  -0.026   1.251  1.00  0.00     0.258 C 
HETATM   17  C1  UNL     1       7.540  -0.844   1.654  1.00  0.00     0.095 C 
HETATM   18  F1  UNL     1       6.760   1.112   0.611  1.00  0.00    -0.202 F 
HETATM   19  F2  UNL     1       5.621   0.245   2.404  1.00  0.00    -0.202 F 
ENDBRANCH  15  16
ENDBRANCH  13  14
ENDBRANCH  11  12
ENDBRANCH   9  11
ENDBRANCH   1   9
BRANCH   7  20
HETATM   20  C12 UNL     1      -2.927   0.982  -0.321  1.00  0.00     0.052 C 
BRANCH  20  21
HETATM   21  C13 UNL     1      -4.101   0.470   0.430  1.00  0.00    -0.057 A 
HETATM   22  C14 UNL     1      -4.076   0.766   1.796  1.00  0.00     0.007 A 
HETATM   23  C15 UNL     1      -5.125   0.332   2.580  1.00  0.00     0.001 A 
HETATM   24  C16 UNL     1      -6.188  -0.380   2.061  1.00  0.00     0.000 A 
HETATM   25  C17 UNL     1      -6.203  -0.668   0.709  1.00  0.00     0.001 A 
HETATM   26  C18 UNL     1      -5.163  -0.242  -0.090  1.00  0.00     0.007 A 
ENDBRANCH  20  21
ENDBRANCH   7  20
TORSDOF 7
