REMARK  5 active torsions:
REMARK  status: ('A' for Active; 'I' for Inactive)
REMARK    1  A    between atoms: C1_2  and  N1_3 
REMARK    2  A    between atoms: N1_3  and  C2_4 
REMARK    3  A    between atoms: C7_11  and  C8_12 
REMARK    4  A    between atoms: C8_12  and  C9_13 
REMARK    5  A    between atoms: C9_13  and  C10_14 
ROOT
HETATM    1  C2  UNL     1      -3.150   0.235  -0.240  1.00  0.00     0.106 C 
HETATM    2  N2  UNL     1      -3.769  -0.426   0.681  1.00  0.00    -0.229 NA
HETATM    3  C3  UNL     1      -3.481  -1.729   1.173  1.00  0.00     0.237 C 
HETATM    4  N3  UNL     1      -2.495  -2.513   0.889  1.00  0.00    -0.224 NA
HETATM    5  C4  UNL     1      -1.419  -2.271  -0.009  1.00  0.00     0.130 A 
HETATM    6  C5  UNL     1      -1.250  -1.233  -0.813  1.00  0.00    -0.005 A 
HETATM    7  C6  UNL     1      -1.999   0.007  -1.121  1.00  0.00     0.118 C 
HETATM    8  C7  UNL     1       0.044  -1.702  -1.395  1.00  0.00     0.117 A 
HETATM    9  N4  UNL     1      -0.193  -2.787  -0.506  1.00  0.00    -0.366 N 
HETATM   10  H17 UNL     1       0.343  -3.655  -0.293  1.00  0.00     0.161 HD
ENDROOT
BRANCH   8  11
HETATM   11  C8  UNL     1       1.219  -0.829  -1.140  1.00  0.00     0.034 C 
BRANCH  11  12
HETATM   12  C9  UNL     1       1.527  -0.646   0.329  1.00  0.00     0.041 C 
BRANCH  12  13
HETATM   13  C10 UNL     1       2.727   0.249   0.488  1.00  0.00    -0.058 A 
HETATM   14  C11 UNL     1       2.708   1.611   0.601  1.00  0.00     0.007 A 
HETATM   15  C12 UNL     1       3.907   2.292   0.742  1.00  0.00     0.001 A 
HETATM   16  C13 UNL     1       5.117   1.633   0.771  1.00  0.00     0.000 A 
HETATM   17  C14 UNL     1       5.161   0.260   0.658  1.00  0.00     0.001 A 
HETATM   18  C15 UNL     1       3.960  -0.402   0.519  1.00  0.00     0.007 A 
ENDBRANCH  12  13
ENDBRANCH  11  12
ENDBRANCH   8  11
BRANCH   1  19
HETATM   19  N1  UNL     1      -3.711   1.541  -0.493  1.00  0.00    -0.365 N 
HETATM   20  H3  UNL     1      -3.199   2.272  -1.067  1.00  0.00     0.162 HD
BRANCH  19  21
HETATM   21  C1  UNL     1      -5.032   1.861   0.066  1.00  0.00     0.236 C 
HETATM   22 CL1  UNL     1      -5.479   3.499  -0.387  1.00  0.00    -0.109 Cl
ENDBRANCH  19  21
ENDBRANCH   1  19
TORSDOF 5
