REMARK  5 active torsions:
REMARK  status: ('A' for Active; 'I' for Inactive)
REMARK    1  A    between atoms: C1_2  and  C2_5 
REMARK    2  A    between atoms: C6_9  and  N1_10 
REMARK    3  A    between atoms: C9_13  and  C10_14 
REMARK    4  A    between atoms: C10_14  and  C11_15 
REMARK    5  A    between atoms: C11_15  and  C12_16 
ROOT
HETATM    1  N1  UNL     1      -2.747   0.017   0.557  1.00  0.00    -0.214 NA
HETATM    2  C7  UNL     1      -1.750   0.142  -0.481  1.00  0.00     0.145 C 
HETATM    3  C8  UNL     1      -0.407   0.428   0.106  1.00  0.00     0.029 C 
HETATM    4  C9  UNL     1       0.791  -0.107   0.249  1.00  0.00     0.083 C 
HETATM    5  N2  UNL     1       0.495  -1.291  -0.269  1.00  0.00    -0.404 NA
HETATM    6  C18 UNL     1       0.299  -2.338  -0.764  1.00  0.00     0.300 C 
HETATM    7  N3  UNL     1      -0.949  -2.968  -0.411  1.00  0.00    -0.225 NA
HETATM    8  C19 UNL     1      -1.810  -2.317   0.339  1.00  0.00     0.221 C 
HETATM    9  N4  UNL     1      -2.415  -1.265   1.142  1.00  0.00    -0.312 N 
HETATM   10  H19 UNL     1      -2.485  -1.718   2.070  1.00  0.00     0.181 HD
ENDROOT
BRANCH   1  11
HETATM   11  C6  UNL     1      -4.044  -0.190   0.010  1.00  0.00     0.140 A 
HETATM   12  C2  UNL     1      -4.728   0.950  -0.595  1.00  0.00     0.048 A 
HETATM   13  C3  UNL     1      -5.880   1.075   0.100  1.00  0.00     0.013 A 
HETATM   14  C4  UNL     1      -6.060   0.096   1.159  1.00  0.00    -0.001 A 
HETATM   15  C5  UNL     1      -4.965  -0.635   1.083  1.00  0.00    -0.001 A 
BRANCH  12  16
HETATM   16  C1  UNL     1      -4.513   1.940  -1.685  1.00  0.00     0.415 C 
HETATM   17  F1  UNL     1      -3.619   2.914  -1.274  1.00  0.00    -0.166 F 
HETATM   18  F2  UNL     1      -4.057   1.312  -2.838  1.00  0.00    -0.166 F 
HETATM   19  F3  UNL     1      -5.658   2.593  -2.030  1.00  0.00    -0.166 F 
ENDBRANCH  12  16
ENDBRANCH   1  11
BRANCH   4  20
HETATM   20  C10 UNL     1       2.124   0.186   0.827  1.00  0.00     0.077 C 
BRANCH  20  21
HETATM   21  C11 UNL     1       3.096   0.152  -0.335  1.00  0.00     0.045 C 
BRANCH  21  22
HETATM   22  C12 UNL     1       4.489   0.422   0.036  1.00  0.00    -0.058 A 
HETATM   23  C13 UNL     1       5.133   1.642   0.089  1.00  0.00     0.007 A 
HETATM   24  C14 UNL     1       6.453   1.754   0.451  1.00  0.00     0.001 A 
HETATM   25  C15 UNL     1       7.145   0.596   0.770  1.00  0.00     0.000 A 
HETATM   26  C16 UNL     1       6.559  -0.645   0.735  1.00  0.00     0.001 A 
HETATM   27  C17 UNL     1       5.215  -0.717   0.362  1.00  0.00     0.007 A 
ENDBRANCH  21  22
ENDBRANCH  20  21
ENDBRANCH   4  20
TORSDOF 5
