REMARK  2 active torsions:
REMARK  status: ('A' for Active; 'I' for Inactive)
REMARK    1  A    between atoms: N1_1  and  C1_2 
REMARK    2  A    between atoms: C11_12  and  C12_13 
ROOT
HETATM    1  C1  UNL     1      -0.782  -0.449  -0.762  1.00  0.00     0.058 C 
HETATM    2  C2  UNL     1      -1.160  -1.462   0.076  1.00  0.00    -0.035 C 
HETATM    3  C3  UNL     1      -0.876  -2.693  -0.754  1.00  0.00     0.038 C 
HETATM    4  C4  UNL     1       0.457  -3.271  -0.319  1.00  0.00     0.005 C 
HETATM    5  C5  UNL     1       1.491  -2.207  -0.208  1.00  0.00    -0.019 C 
HETATM    6  C6  UNL     1       2.699  -1.987  -0.870  1.00  0.00     0.043 C 
HETATM    7  C7  UNL     1       3.587  -0.811  -0.574  1.00  0.00    -0.025 C 
HETATM    8  C8  UNL     1       3.819   0.314   0.159  1.00  0.00    -0.030 C 
HETATM    9  C9  UNL     1       2.671   0.355   1.060  1.00  0.00     0.033 C 
HETATM   10  C10 UNL     1       1.683   1.419   0.917  1.00  0.00     0.013 C 
HETATM   11  C11 UNL     1       0.479   1.947   0.611  1.00  0.00     0.083 C 
HETATM   12  C13 UNL     1      -0.881   1.923   0.134  1.00  0.00     0.083 C 
HETATM   13  C14 UNL     1      -1.548   0.719  -0.378  1.00  0.00     0.173 C 
HETATM   14  N2  UNL     1      -2.390   1.239  -1.507  1.00  0.00    -0.244 NA
HETATM   15  C15 UNL     1      -3.657   1.220  -1.306  1.00  0.00     0.231 C 
HETATM   16  N3  UNL     1      -4.580   0.809  -0.273  1.00  0.00    -0.238 NA
HETATM   17  C16 UNL     1      -4.014   0.264   0.784  1.00  0.00     0.208 C 
HETATM   18  N4  UNL     1      -2.589   0.222   0.538  1.00  0.00    -0.338 N 
HETATM   19  C17 UNL     1      -1.591  -0.594   1.234  1.00  0.00     0.163 C 
ENDROOT
BRANCH  11  20
HETATM   20  C12 UNL     1       0.760   3.389   0.958  1.00  0.00     0.397 C 
HETATM   21  F1  UNL     1       1.976   3.664   1.470  1.00  0.00    -0.170 F 
HETATM   22  F2  UNL     1       0.556   4.126  -0.201  1.00  0.00    -0.170 F 
HETATM   23  F3  UNL     1      -0.220   3.848   1.856  1.00  0.00    -0.170 F 
ENDBRANCH  11  20
BRANCH   1  24
HETATM   24  N1  UNL     1       0.108  -0.221  -1.883  1.00  0.00    -0.399 N 
HETATM   25  H1  UNL     1      -0.503  -0.597  -2.667  1.00  0.00     0.156 HD
HETATM   26  H2  UNL     1       1.062   0.200  -1.837  1.00  0.00     0.156 HD
ENDBRANCH   1  24
TORSDOF 2
