REMARK  8 active torsions:
REMARK  status: ('A' for Active; 'I' for Inactive)
REMARK    1  A    between atoms: C8_8  and  C9_9 
REMARK    2  A    between atoms: C9_9  and  N1_10 
REMARK    3  A    between atoms: N1_10  and  C10_11 
REMARK    4  A    between atoms: N2_12  and  C11_13 
REMARK    5  A    between atoms: N3_14  and  C12_15 
REMARK    6  A    between atoms: C12_15  and  C13_16 
REMARK    7  A    between atoms: C15_18  and  N4_19 
REMARK    8  A    between atoms: C16_20  and  C17_21 
ROOT
HETATM    1  C11 UNL     1       0.205  -0.728   0.157  1.00  0.00     0.228 C 
HETATM    2  N3  UNL     1       1.242  -0.814   0.921  1.00  0.00    -0.278 NA
ENDROOT
BRANCH   1   3
HETATM    3  N2  UNL     1       0.323   0.590  -0.259  1.00  0.00    -0.238 NA
HETATM    4  C10 UNL     1      -0.321   1.261  -1.105  1.00  0.00     0.203 C 
BRANCH   4   5
HETATM    5  N1  UNL     1      -1.395   1.006  -1.969  1.00  0.00    -0.384 N 
HETATM    6  H14 UNL     1      -1.351   1.603  -2.816  1.00  0.00     0.160 HD
BRANCH   5   7
HETATM    7  C9  UNL     1      -2.256  -0.009  -1.444  1.00  0.00     0.129 C 
BRANCH   7   8
HETATM    8  C8  UNL     1      -2.985   0.495  -0.192  1.00  0.00     0.036 C 
HETATM    9  C3  UNL     1      -3.876  -0.569   0.341  1.00  0.00    -0.057 C 
HETATM   10  C2  UNL     1      -3.648  -1.303   1.406  1.00  0.00    -0.024 C 
HETATM   11  C4  UNL     1      -5.106  -0.761  -0.447  1.00  0.00     0.003 C 
HETATM   12  C1  UNL     1      -4.664  -2.310   1.767  1.00  0.00     0.036 C 
HETATM   13  C5  UNL     1      -5.577   0.191  -1.269  1.00  0.00    -0.026 C 
HETATM   14  C6  UNL     1      -4.914   1.497  -1.455  1.00  0.00     0.028 C 
HETATM   15  C7  UNL     1      -3.758   1.736  -0.529  1.00  0.00     0.015 C 
ENDBRANCH   7   8
ENDBRANCH   5   7
ENDBRANCH   4   5
ENDBRANCH   1   3
BRANCH   2  16
HETATM   16  C12 UNL     1       2.182   0.219   1.192  1.00  0.00     0.188 C 
BRANCH  16  17
HETATM   17  C13 UNL     1       3.556  -0.098   0.682  1.00  0.00    -0.039 A 
HETATM   18  C14 UNL     1       4.161  -1.086   0.038  1.00  0.00     0.022 A 
HETATM   19  C15 UNL     1       5.582  -0.758  -0.166  1.00  0.00     0.279 A 
HETATM   20  C16 UNL     1       5.708   0.582   0.461  1.00  0.00     0.062 A 
HETATM   21  C18 UNL     1       4.547   0.945   0.940  1.00  0.00     0.023 A 
BRANCH  19  22
HETATM   22  N4  UNL     1       6.431  -1.717   0.542  1.00  0.00     0.090 N 
HETATM   23  H21 UNL     1       5.962  -1.986   1.428  1.00  0.00     0.314 HD
HETATM   24  H22 UNL     1       6.530  -2.546  -0.057  1.00  0.00     0.314 HD
ENDBRANCH  19  22
BRANCH  20  25
HETATM   25  C17 UNL     1       7.058   1.240   0.437  1.00  0.00     0.416 C 
HETATM   26  F1  UNL     1       6.984   2.483   1.061  1.00  0.00    -0.166 F 
HETATM   27  F2  UNL     1       7.966   0.483   1.159  1.00  0.00    -0.166 F 
HETATM   28  F3  UNL     1       7.457   1.451  -0.853  1.00  0.00    -0.166 F 
ENDBRANCH  20  25
ENDBRANCH  16  17
ENDBRANCH   2  16
TORSDOF 8
