REMARK  4 active torsions:
REMARK  status: ('A' for Active; 'I' for Inactive)
REMARK    1  A    between atoms: N1_1  and  C1_2 
REMARK    2  A    between atoms: C9_11  and  N2_12 
REMARK    3  A    between atoms: N2_12  and  C10_13 
REMARK    4  A    between atoms: C14_17  and  C15_18 
ROOT
HETATM    1  C1  UNL     1      -2.739   0.174   0.373  1.00  0.00     0.284 C 
HETATM    2  C2  UNL     1      -3.175  -1.235   0.538  1.00  0.00     0.035 C 
HETATM    3  C3  UNL     1      -2.426  -2.374   0.564  1.00  0.00    -0.027 C 
HETATM    4  C4  UNL     1      -1.003  -2.241   0.014  1.00  0.00    -0.005 C 
HETATM    5  B1  UNL     1      -1.282  -2.307  -1.712  1.00  0.00     0.183 B 
HETATM    6  C5  UNL     1      -1.488  -0.812  -2.708  1.00  0.00    -0.086 C 
HETATM    7  C6  UNL     1      -1.649   0.637  -2.357  1.00  0.00    -0.019 C 
HETATM    8  C7  UNL     1      -1.577   1.362  -1.190  1.00  0.00    -0.005 C 
HETATM    9  C8  UNL     1      -1.507   0.739   0.147  1.00  0.00     0.100 C 
HETATM   10  C9  UNL     1      -0.099   0.139  -0.031  1.00  0.00     0.031 C 
HETATM   11  C17 UNL     1      -0.645  -0.865   0.554  1.00  0.00    -0.056 C 
HETATM   12  C18 UNL     1      -0.897  -0.235   1.951  1.00  0.00     0.062 C 
HETATM   13  C19 UNL     1      -1.005   1.258   1.381  1.00  0.00     0.109 C 
HETATM   14  N3  UNL     1      -1.785   2.081   2.227  1.00  0.00    -0.378 N 
HETATM   15  C20 UNL     1      -3.129   1.636   2.318  1.00  0.00     0.200 C 
HETATM   16  N4  UNL     1      -3.512   0.794   1.481  1.00  0.00    -0.238 NA
HETATM   17  H17 UNL     1      -1.478   2.934   2.751  1.00  0.00     0.160 HD
ENDROOT
BRANCH  10  18
HETATM   18  N2  UNL     1       1.016   0.878  -0.681  1.00  0.00    -0.358 N 
HETATM   19  H9  UNL     1       0.691   1.557  -1.405  1.00  0.00     0.166 HD
BRANCH  18  20
HETATM   20  C10 UNL     1       2.342   0.671  -0.350  1.00  0.00     0.033 A 
HETATM   21  C11 UNL     1       3.064   1.620   0.343  1.00  0.00     0.029 A 
HETATM   22  C12 UNL     1       4.364   1.321   0.657  1.00  0.00     0.003 A 
HETATM   23  C13 UNL     1       4.930   0.105   0.290  1.00  0.00     0.016 A 
HETATM   24  C14 UNL     1       4.209  -0.858  -0.411  1.00  0.00     0.050 A 
HETATM   25  C16 UNL     1       2.897  -0.543  -0.722  1.00  0.00     0.045 A 
BRANCH  24  26
HETATM   26  C15 UNL     1       4.869  -2.149  -0.774  1.00  0.00     0.417 C 
HETATM   27  F1  UNL     1       5.655  -2.011  -1.902  1.00  0.00    -0.166 F 
HETATM   28  F2  UNL     1       5.728  -2.431   0.269  1.00  0.00    -0.166 F 
HETATM   29  F3  UNL     1       3.968  -3.181  -0.876  1.00  0.00    -0.166 F 
ENDBRANCH  24  26
ENDBRANCH  18  20
ENDBRANCH  10  18
BRANCH   1  30
HETATM   30  N1  UNL     1      -3.730   0.522  -0.708  1.00  0.00     0.114 N 
HETATM   31  H1  UNL     1      -3.747   1.572  -0.709  1.00  0.00     0.316 HD
HETATM   32  H2  UNL     1      -4.676   0.223  -0.408  1.00  0.00     0.316 HD
ENDBRANCH   1  30
TORSDOF 4
