REMARK  7 active torsions:
REMARK  status: ('A' for Active; 'I' for Inactive)
REMARK    1  A    between atoms: N1_1  and  C1_2 
REMARK    2  A    between atoms: C1_2  and  N2_3 
REMARK    3  A    between atoms: N2_3  and  C2_4 
REMARK    4  A    between atoms: C6_8  and  C7_9 
REMARK    5  A    between atoms: C11_16  and  C12_17 
REMARK    6  A    between atoms: C12_17  and  C13_18 
REMARK    7  A    between atoms: C13_18  and  C14_19 
ROOT
HETATM    1  C1  UNL     1       1.782   1.270   1.533  1.00  0.00     0.113 C 
HETATM    2  C9  UNL     1       0.761   1.147   0.691  1.00  0.00     0.058 A 
HETATM    3  C10 UNL     1      -0.658   1.124   1.070  1.00  0.00     0.044 A 
HETATM    4  C11 UNL     1      -1.418   0.988  -0.021  1.00  0.00     0.012 A 
HETATM    5  N3  UNL     1      -0.607   0.911  -1.193  1.00  0.00    -0.342 N 
HETATM    6  C20 UNL     1       0.762   1.009  -0.766  1.00  0.00     0.174 A 
HETATM    7  N4  UNL     1       1.902   0.997  -1.386  1.00  0.00    -0.068 NA
HETATM    8  F4  UNL     1       1.995   0.876  -2.707  1.00  0.00    -0.072 F 
HETATM    9  H18 UNL     1      -0.800   0.808  -2.193  1.00  0.00     0.167 HD
ENDROOT
BRANCH   1  10
HETATM   10  N1  UNL     1       1.443   1.387   2.910  1.00  0.00    -0.385 N 
HETATM   11  H1  UNL     1       1.499   2.429   2.921  1.00  0.00     0.157 HD
HETATM   12  H2  UNL     1       1.324   0.386   3.158  1.00  0.00     0.157 HD
ENDBRANCH   1  10
BRANCH   1  13
HETATM   13  N2  UNL     1       3.092   1.274   1.002  1.00  0.00    -0.342 N 
HETATM   14  H3  UNL     1       3.379   2.261   0.832  1.00  0.00     0.167 HD
BRANCH  13  15
HETATM   15  C2  UNL     1       3.902   0.136   0.736  1.00  0.00     0.034 A 
HETATM   16  C3  UNL     1       3.362  -1.101   1.023  1.00  0.00     0.029 A 
HETATM   17  C4  UNL     1       4.222  -2.164   0.732  1.00  0.00     0.003 A 
HETATM   18  C5  UNL     1       5.502  -2.003   0.205  1.00  0.00     0.016 A 
HETATM   19  C6  UNL     1       5.951  -0.727  -0.046  1.00  0.00     0.050 A 
HETATM   20  C8  UNL     1       5.151   0.389   0.217  1.00  0.00     0.045 A 
BRANCH  19  21
HETATM   21  C7  UNL     1       7.301  -0.463  -0.607  1.00  0.00     0.417 C 
HETATM   22  F1  UNL     1       8.220  -1.310  -0.006  1.00  0.00    -0.166 F 
HETATM   23  F2  UNL     1       7.357  -0.739  -1.969  1.00  0.00    -0.166 F 
HETATM   24  F3  UNL     1       7.696   0.829  -0.325  1.00  0.00    -0.166 F 
ENDBRANCH  19  21
ENDBRANCH  13  15
ENDBRANCH   1  13
BRANCH   4  25
HETATM   25  C12 UNL     1      -2.905   0.920  -0.084  1.00  0.00     0.062 C 
BRANCH  25  26
HETATM   26  C13 UNL     1      -3.337  -0.392  -0.696  1.00  0.00     0.044 C 
BRANCH  26  27
HETATM   27  C14 UNL     1      -4.831  -0.436  -0.748  1.00  0.00    -0.058 A 
HETATM   28  C15 UNL     1      -5.576   0.023  -1.825  1.00  0.00     0.007 A 
HETATM   29  C16 UNL     1      -6.956  -0.062  -1.777  1.00  0.00     0.001 A 
HETATM   30  C17 UNL     1      -7.622  -0.589  -0.692  1.00  0.00     0.000 A 
HETATM   31  C18 UNL     1      -6.924  -1.052   0.388  1.00  0.00     0.001 A 
HETATM   32  C19 UNL     1      -5.540  -0.957   0.317  1.00  0.00     0.007 A 
ENDBRANCH  26  27
ENDBRANCH  25  26
ENDBRANCH   4  25
TORSDOF 7
