REMARK  5 active torsions:
REMARK  status: ('A' for Active; 'I' for Inactive)
REMARK    1  A    between atoms: C2_2  and  C20_24 
REMARK    2  A    between atoms: C3_3  and  C4_4 
REMARK    3  A    between atoms: C5_5  and  N1_6 
REMARK    4  A    between atoms: N1_6  and  C6_7 
REMARK    5  A    between atoms: C7_9  and  N3_10 
ROOT
HETATM    1  C6  UNL     1      -0.161   1.077  -0.018  1.00  0.00     0.159 A 
HETATM    2  N2  UNL     1      -0.263   2.365  -0.412  1.00  0.00    -0.044 NA
HETATM    3  C7  UNL     1      -1.454   2.897  -0.742  1.00  0.00     0.722 A 
HETATM    4  N4  UNL     1      -2.521   2.108  -0.671  1.00  0.00    -0.062 NA
HETATM    5  C8  UNL     1      -2.463   0.852  -0.296  1.00  0.00     0.100 A 
HETATM    6  C9  UNL     1      -1.247   0.197   0.079  1.00  0.00     0.041 A 
HETATM    7  C10 UNL     1      -0.916  -1.187   0.552  1.00  0.00     0.013 C 
HETATM    8  C11 UNL     1      -1.846  -2.196   0.372  1.00  0.00    -0.025 C 
HETATM    9  C12 UNL     1      -2.737  -3.301   0.233  1.00  0.00     0.032 C 
HETATM   10  C13 UNL     1      -4.139  -3.006   0.950  1.00  0.00     0.042 C 
HETATM   11  C14 UNL     1      -4.526  -1.751   0.178  1.00  0.00    -0.057 A 
HETATM   12  C15 UNL     1      -5.433  -1.911  -0.834  1.00  0.00     0.007 A 
HETATM   13  C16 UNL     1      -5.332  -0.800  -1.687  1.00  0.00     0.001 A 
HETATM   14  C17 UNL     1      -4.436   0.250  -1.490  1.00  0.00     0.014 A 
HETATM   15  C18 UNL     1      -3.695   0.035  -0.358  1.00  0.00    -0.005 A 
HETATM   16  C19 UNL     1      -3.587  -0.886   0.621  1.00  0.00     0.021 A 
ENDROOT
BRANCH   1  17
HETATM   17  N1  UNL     1       1.110   0.589   0.312  1.00  0.00    -0.350 N 
HETATM   18  H7  UNL     1       1.000   0.843   1.349  1.00  0.00     0.166 HD
BRANCH  17  19
HETATM   19  C5  UNL     1       2.351   0.112   0.640  1.00  0.00     0.090 C 
HETATM   20  C4  UNL     1       3.427   0.899   0.702  1.00  0.00     0.017 C 
BRANCH  20  21
HETATM   21  C3  UNL     1       4.692   0.284   1.068  1.00  0.00     0.004 C 
HETATM   22  C2  UNL     1       5.886   0.826   1.204  1.00  0.00    -0.074 C 
HETATM   23  C1  UNL     1       7.066   0.015   1.588  1.00  0.00     0.044 C 
BRANCH  22  24
HETATM   24  C20 UNL     1       6.347   2.245   1.035  1.00  0.00     0.118 C 
HETATM   25 BR1  UNL     1       7.713   2.217  -0.347  1.00  0.00    -0.092 Br
ENDBRANCH  22  24
ENDBRANCH  20  21
ENDBRANCH  17  19
ENDBRANCH   1  17
BRANCH   3  26
HETATM   26  N3  UNL     1      -1.644   4.233  -1.169  1.00  0.00    -0.231 N 
HETATM   27  H8  UNL     1      -1.934   4.541  -2.148  1.00  0.00     0.174 HD
HETATM   28  H9  UNL     1      -1.502   5.055  -0.524  1.00  0.00     0.174 HD
ENDBRANCH   3  26
TORSDOF 5
