REMARK  2 active torsions:
REMARK  status: ('A' for Active; 'I' for Inactive)
REMARK    1  A    between atoms: C7_10  and  C8_11 
REMARK    2  A    between atoms: C8_11  and  C9_12 
ROOT
HETATM    1  F1  UNL     1      -0.163   5.343  -1.644  1.00  0.00    -0.205 F 
HETATM    2  C1  UNL     1      -0.606   4.212  -1.089  1.00  0.00     0.136 A 
HETATM    3  C2  UNL     1      -1.874   4.222  -0.568  1.00  0.00     0.046 A 
HETATM    4  C3  UNL     1      -2.372   3.077   0.015  1.00  0.00     0.034 A 
HETATM    5  C4  UNL     1      -1.585   1.949   0.060  1.00  0.00     0.058 A 
HETATM    6  C5  UNL     1      -0.294   1.875  -0.448  1.00  0.00     0.076 A 
HETATM    7  C6  UNL     1       0.151   3.059  -1.022  1.00  0.00     0.078 A 
HETATM    8 BR1  UNL     1       1.889   3.176  -1.790  1.00  0.00    -0.045 Br
HETATM    9  N1  UNL     1       0.821   0.972  -0.611  1.00  0.00    -0.379 N 
HETATM   10  C7  UNL     1       0.795  -0.368  -0.087  1.00  0.00     0.109 C 
HETATM   11  C14 UNL     1      -0.349  -1.157  -0.615  1.00  0.00     0.005 C 
HETATM   12  C15 UNL     1      -1.653  -1.205  -0.263  1.00  0.00    -0.036 C 
HETATM   13  C16 UNL     1      -2.050  -2.221  -1.277  1.00  0.00     0.040 C 
HETATM   14  C17 UNL     1      -2.496  -3.505  -0.658  1.00  0.00     0.028 C 
HETATM   15  C18 UNL     1      -3.271  -3.270   0.640  1.00  0.00     0.173 C 
HETATM   16  N2  UNL     1      -4.156  -2.141   0.539  1.00  0.00    -0.196 NA
HETATM   17  N3  UNL     1      -3.843  -0.917   0.594  1.00  0.00    -0.167 NA
HETATM   18  C19 UNL     1      -2.460  -0.502   0.778  1.00  0.00     0.258 C 
HETATM   19  N4  UNL     1      -2.357   0.937   0.705  1.00  0.00    -0.360 N 
HETATM   20  H3  UNL     1       1.567   1.465  -1.149  1.00  0.00     0.160 HD
HETATM   21  H20 UNL     1      -3.081   1.360   1.323  1.00  0.00     0.162 HD
ENDROOT
BRANCH  10  22
HETATM   22  C8  UNL     1       2.114  -1.056  -0.328  1.00  0.00     0.063 C 
BRANCH  22  23
HETATM   23  C9  UNL     1       3.236  -0.381   0.339  1.00  0.00    -0.074 A 
HETATM   24  C10 UNL     1       3.989  -1.027   1.248  1.00  0.00     0.003 A 
HETATM   25  C11 UNL     1       5.062  -0.239   1.825  1.00  0.00    -0.003 A 
HETATM   26  C12 UNL     1       4.960   0.927   1.253  1.00  0.00    -0.022 A 
HETATM   27  C13 UNL     1       3.829   0.973   0.281  1.00  0.00     0.061 A 
ENDBRANCH  22  23
ENDBRANCH  10  22
TORSDOF 2
