REMARK  4 active torsions:
REMARK  status: ('A' for Active; 'I' for Inactive)
REMARK    1  A    between atoms: C4_4  and  C5_5 
REMARK    2  A    between atoms: C5_5  and  C6_6 
REMARK    3  A    between atoms: C11_12  and  N2_13 
REMARK    4  A    between atoms: N2_13  and  C12_14 
ROOT
HETATM    1  C6  UNL     1      -0.618  -0.449  -0.795  1.00  0.00    -0.011 C 
HETATM    2  C7  UNL     1      -0.020  -0.977   0.257  1.00  0.00     0.005 A 
HETATM    3  C8  UNL     1      -0.605  -2.072   1.012  1.00  0.00     0.012 A 
HETATM    4  C9  UNL     1       0.102  -2.505   2.044  1.00  0.00    -0.004 A 
HETATM    5  C10 UNL     1       1.425  -1.959   2.473  1.00  0.00     0.178 A 
HETATM    6  N1  UNL     1       1.898  -0.886   1.655  1.00  0.00    -0.268 NA
HETATM    7  C11 UNL     1       1.267  -0.422   0.649  1.00  0.00     0.133 A 
ENDROOT
BRANCH   7   8
HETATM    8  N2  UNL     1       1.903   0.647  -0.035  1.00  0.00    -0.341 N 
HETATM    9  H13 UNL     1       1.248   1.379  -0.444  1.00  0.00     0.167 HD
BRANCH   8  10
HETATM   10  C12 UNL     1       3.295   0.826  -0.224  1.00  0.00     0.035 A 
HETATM   11  C13 UNL     1       3.764   1.951  -0.890  1.00  0.00     0.032 A 
HETATM   12  C14 UNL     1       5.105   2.183  -1.112  1.00  0.00     0.046 A 
HETATM   13  C15 UNL     1       6.047   1.297  -0.675  1.00  0.00     0.133 A 
HETATM   14  F1  UNL     1       7.345   1.586  -0.924  1.00  0.00    -0.205 F 
HETATM   15  C16 UNL     1       5.632   0.161  -0.005  1.00  0.00     0.051 A 
HETATM   16 BR1  UNL     1       6.917  -1.075   0.607  1.00  0.00    -0.048 Br
HETATM   17  C17 UNL     1       4.282  -0.028   0.192  1.00  0.00     0.051 A 
ENDBRANCH   8  10
ENDBRANCH   7   8
BRANCH   1  18
HETATM   18  C5  UNL     1      -1.909  -0.776  -1.444  1.00  0.00     0.040 C 
BRANCH  18  19
HETATM   19  C4  UNL     1      -2.850   0.413  -1.444  1.00  0.00     0.034 A 
HETATM   20  C3  UNL     1      -3.161   0.874  -0.087  1.00  0.00    -0.011 A 
HETATM   21  C2  UNL     1      -4.468   0.747   0.070  1.00  0.00    -0.065 A 
HETATM   22  C1  UNL     1      -5.360   1.044   1.207  1.00  0.00     0.048 C 
HETATM   23  C19 UNL     1      -5.085   0.211  -1.135  1.00  0.00     0.003 A 
HETATM   24  C18 UNL     1      -4.143   0.007  -2.043  1.00  0.00    -0.017 A 
ENDBRANCH  18  19
ENDBRANCH   1  18
TORSDOF 4
