REMARK  5 active torsions:
REMARK  status: ('A' for Active; 'I' for Inactive)
REMARK    1  A    between atoms: N1_7  and  C6_8 
REMARK    2  A    between atoms: C9_13  and  C10_14 
REMARK    3  A    between atoms: C11_15  and  C12_16 
REMARK    4  A    between atoms: C12_16  and  C13_17 
REMARK    5  A    between atoms: C13_17  and  C14_18 
ROOT
HETATM    1  C6  UNL     1      -2.210   0.657   1.102  1.00  0.00     0.115 A 
HETATM    2  N2  UNL     1      -3.365   0.573   1.686  1.00  0.00    -0.228 NA
HETATM    3  C7  UNL     1      -3.560   1.478   2.786  1.00  0.00     0.228 A 
HETATM    4  N3  UNL     1      -2.615   2.256   3.078  1.00  0.00    -0.282 NA
HETATM    5  C8  UNL     1      -1.330   2.430   2.515  1.00  0.00     0.166 A 
HETATM    6  C9  UNL     1      -1.068   1.511   1.365  1.00  0.00     0.097 A 
ENDROOT
BRANCH   6   7
HETATM    7  C10 UNL     1      -0.590   2.240   0.154  1.00  0.00    -0.017 C 
HETATM    8  C11 UNL     1       0.627   2.124  -0.357  1.00  0.00    -0.029 C 
BRANCH   8   9
HETATM    9  C12 UNL     1       1.811   1.345   0.013  1.00  0.00     0.031 C 
BRANCH   9  10
HETATM   10  C13 UNL     1       2.170   0.426  -1.140  1.00  0.00     0.042 C 
BRANCH  10  11
HETATM   11  C14 UNL     1       3.385  -0.393  -0.794  1.00  0.00    -0.058 A 
HETATM   12  C15 UNL     1       3.217  -1.615  -0.178  1.00  0.00     0.007 A 
HETATM   13  C16 UNL     1       4.349  -2.345   0.128  1.00  0.00     0.001 A 
HETATM   14  C17 UNL     1       5.625  -1.914  -0.151  1.00  0.00     0.000 A 
HETATM   15  C18 UNL     1       5.751  -0.670  -0.776  1.00  0.00     0.001 A 
HETATM   16  C19 UNL     1       4.647   0.109  -1.107  1.00  0.00     0.007 A 
ENDBRANCH  10  11
ENDBRANCH   9  10
ENDBRANCH   8   9
ENDBRANCH   6   7
BRANCH   1  17
HETATM   17  N1  UNL     1      -2.265  -0.316   0.075  1.00  0.00    -0.334 N 
HETATM   18  C1  UNL     1      -2.346  -1.741   0.354  1.00  0.00     0.276 C 
HETATM   19  F1  UNL     1      -2.138  -1.985   1.714  1.00  0.00    -0.226 F 
HETATM   20  C2  UNL     1      -3.776  -2.161   0.072  1.00  0.00     0.086 C 
HETATM   21  C3  UNL     1      -4.081  -1.746  -1.332  1.00  0.00    -0.024 C 
HETATM   22  C4  UNL     1      -3.415  -0.831  -2.008  1.00  0.00    -0.011 C 
HETATM   23  C5  UNL     1      -2.252  -0.116  -1.374  1.00  0.00     0.154 C 
ENDBRANCH   1  17
TORSDOF 5
