REMARK  0 active torsions:
REMARK  status: ('A' for Active; 'I' for Inactive)
ROOT
HETATM    1  F1  UNL     1      -0.328   3.056   0.923  1.00  0.00    -0.359 F 
HETATM    2  C1  UNL     1       0.452   2.110   0.400  1.00  0.00     0.102 A 
HETATM    3  C2  UNL     1      -0.718   1.945  -0.152  1.00  0.00     0.199 A 
HETATM    4  C3  UNL     1      -2.121   2.150  -0.470  1.00  0.00     0.080 C 
HETATM    5  C4  UNL     1      -3.026   0.992  -0.227  1.00  0.00    -0.049 A 
HETATM    6  C5  UNL     1      -4.318   1.494  -0.473  1.00  0.00     0.007 A 
HETATM    7  C6  UNL     1      -5.476   0.737  -0.365  1.00  0.00     0.001 A 
HETATM    8  C7  UNL     1      -5.396  -0.581   0.001  1.00  0.00     0.001 A 
HETATM    9  C8  UNL     1      -4.146  -1.073   0.241  1.00  0.00     0.007 A 
HETATM   10  C9  UNL     1      -2.994  -0.345   0.141  1.00  0.00    -0.051 A 
HETATM   11  C10 UNL     1      -1.671  -0.881   0.406  1.00  0.00     0.045 C 
HETATM   12  C11 UNL     1      -1.023  -1.627  -0.754  1.00  0.00     0.061 C 
HETATM   13  C12 UNL     1       0.428  -1.718  -0.468  1.00  0.00     0.008 C 
HETATM   14  C13 UNL     1       1.073  -0.892  -1.318  1.00  0.00     0.015 C 
HETATM   15  C14 UNL     1       2.424  -0.614  -0.871  1.00  0.00     0.111 C 
HETATM   16  C15 UNL     1       2.691  -1.774   0.075  1.00  0.00     0.112 C 
HETATM   17  N1  UNL     1       3.915  -1.982   0.396  1.00  0.00    -0.257 NA
HETATM   18  C16 UNL     1       5.092  -1.258  -0.017  1.00  0.00     0.267 C 
HETATM   19  N2  UNL     1       4.888   0.146  -0.171  1.00  0.00    -0.401 N 
HETATM   20  C17 UNL     1       3.880   0.750   0.626  1.00  0.00     0.152 C 
HETATM   21  C18 UNL     1       2.529   0.600   0.029  1.00  0.00    -0.028 C 
HETATM   22  C19 UNL     1       1.748   1.560   0.459  1.00  0.00     0.050 C 
HETATM   23 BR1  UNL     1       2.559   2.816   1.679  1.00  0.00    -0.048 Br
HETATM   24  N3  UNL     1       1.398  -2.253   0.361  1.00  0.00    -0.348 N 
HETATM   25  H16 UNL     1       5.749   0.690  -0.272  1.00  0.00     0.155 HD
HETATM   26  H19 UNL     1       1.256  -2.930   1.120  1.00  0.00     0.167 HD
ENDROOT
TORSDOF 0
