REMARK  8 active torsions:
REMARK  status: ('A' for Active; 'I' for Inactive)
REMARK    1  A    between atoms: N1_1  and  C1_2 
REMARK    2  A    between atoms: N3_4  and  C2_5 
REMARK    3  A    between atoms: C2_5  and  C3_6 
REMARK    4  A    between atoms: C7_11  and  C8_12 
REMARK    5  A    between atoms: C8_12  and  C9_13 
REMARK    6  A    between atoms: C14_18  and  C15_19 
REMARK    7  A    between atoms: C15_19  and  C16_20 
REMARK    8  A    between atoms: C17_21  and  S1_22 
ROOT
HETATM    1  C1  UNL     1       3.866  -1.345  -1.014  1.00  0.00     0.738 C 
HETATM    2  N2  UNL     1       4.049  -0.166  -0.465  1.00  0.00     0.017 NA
HETATM    3  N3  UNL     1       2.945   0.421   0.218  1.00  0.00    -0.271 N 
HETATM    4  C5  UNL     1       2.090  -0.486   0.874  1.00  0.00     0.200 C 
HETATM    5  C6  UNL     1       0.881   0.019   1.519  1.00  0.00     0.033 C 
HETATM    6  C7  UNL     1      -0.059  -0.908   1.428  1.00  0.00     0.013 C 
HETATM    7  N4  UNL     1       0.405  -1.939   0.529  1.00  0.00    -0.345 N 
HETATM    8  C18 UNL     1       1.710  -1.625   0.014  1.00  0.00     0.152 C 
HETATM    9  N5  UNL     1       2.660  -2.036  -0.748  1.00  0.00    -0.046 NA
HETATM   10  H19 UNL     1       0.026  -2.856   0.160  1.00  0.00     0.167 HD
ENDROOT
BRANCH   6  11
HETATM   11  C8  UNL     1      -1.469  -1.122   1.837  1.00  0.00     0.096 C 
BRANCH  11  12
HETATM   12  C9  UNL     1      -2.349  -1.351   0.687  1.00  0.00    -0.046 A 
HETATM   13  C10 UNL     1      -2.743  -2.668   0.452  1.00  0.00     0.008 A 
HETATM   14  C11 UNL     1      -3.561  -3.040  -0.586  1.00  0.00     0.001 A 
HETATM   15  C12 UNL     1      -4.037  -2.080  -1.463  1.00  0.00     0.001 A 
HETATM   16  C13 UNL     1      -3.640  -0.788  -1.217  1.00  0.00     0.008 A 
HETATM   17  C14 UNL     1      -2.820  -0.404  -0.180  1.00  0.00    -0.048 A 
BRANCH  17  18
HETATM   18  C15 UNL     1      -2.423   1.009   0.042  1.00  0.00     0.066 C 
BRANCH  18  19
HETATM   19  C16 UNL     1      -3.070   1.852  -1.017  1.00  0.00    -0.013 C 
HETATM   20  C17 UNL     1      -3.896   2.810  -0.635  1.00  0.00     0.077 C 
BRANCH  20  21
HETATM   21  S1  UNL     1      -4.213   3.068   1.105  1.00  0.00     0.069 SA
HETATM   22  F1  UNL     1      -2.747   3.634   1.818  1.00  0.00    -0.160 F 
ENDBRANCH  20  21
ENDBRANCH  18  19
ENDBRANCH  17  18
ENDBRANCH  11  12
ENDBRANCH   6  11
BRANCH   3  23
HETATM   23  C2  UNL     1       2.820   1.866   0.166  1.00  0.00     0.174 C 
BRANCH  23  24
HETATM   24  C3  UNL     1       3.903   2.489  -0.615  1.00  0.00     0.002 C 
HETATM   25  C4  UNL     1       4.803   3.379  -0.208  1.00  0.00     0.053 C 
HETATM   26 BR1  UNL     1       4.738   3.963   1.606  1.00  0.00    -0.064 Br
ENDBRANCH  23  24
ENDBRANCH   3  23
BRANCH   1  27
HETATM   27  N1  UNL     1       4.696  -2.238  -1.775  1.00  0.00    -0.230 N 
HETATM   28  H1  UNL     1       5.577  -2.695  -1.435  1.00  0.00     0.174 HD
HETATM   29  H2  UNL     1       4.374  -2.440  -2.765  1.00  0.00     0.174 HD
ENDBRANCH   1  27
TORSDOF 8
