REMARK  4 active torsions:
REMARK  status: ('A' for Active; 'I' for Inactive)
REMARK    1  A    between atoms: C12_19  and  C13_20 
REMARK    2  A    between atoms: C14_21  and  C15_22 
REMARK    3  A    between atoms: C15_22  and  C16_23 
REMARK    4  A    between atoms: C16_23  and  C17_24 
ROOT
HETATM    1  C1  UNL     1      -2.483  -3.546  -0.605  1.00  0.00     0.177 C 
HETATM    2  N1  UNL     1      -2.423  -2.228  -1.082  1.00  0.00    -0.299 NA
HETATM    3  C2  UNL     1      -1.758  -1.313  -0.437  1.00  0.00     0.053 C 
HETATM    4  C3  UNL     1      -1.061  -1.687   0.816  1.00  0.00     0.229 C 
HETATM    5  N2  UNL     1      -1.091  -0.869   1.905  1.00  0.00    -0.191 NA
HETATM    6  N3  UNL     1      -1.765  -0.856   2.895  1.00  0.00    -0.178 NA
HETATM    7  C4  UNL     1      -2.796  -1.778   3.199  1.00  0.00     0.294 C 
HETATM    8  N4  UNL     1      -4.012  -0.970   3.397  1.00  0.00    -0.379 N 
HETATM    9  C5  UNL     1      -3.622  -0.283   2.256  1.00  0.00     0.098 C 
HETATM   10  C6  UNL     1      -3.156   0.920   1.882  1.00  0.00     0.008 C 
HETATM   11  C7  UNL     1      -3.059   1.726   3.096  1.00  0.00     0.030 C 
HETATM   12  C8  UNL     1      -2.237   2.761   3.229  1.00  0.00     0.018 C 
HETATM   13  C9  UNL     1      -2.189   3.662   2.256  1.00  0.00     0.147 C 
HETATM   14  F1  UNL     1      -2.102   4.989   2.227  1.00  0.00    -0.204 F 
HETATM   15  C10 UNL     1      -2.247   2.927   1.003  1.00  0.00     0.077 C 
HETATM   16 BR1  UNL     1      -1.702   3.715  -0.675  1.00  0.00    -0.045 Br
HETATM   17  C11 UNL     1      -2.654   1.711   0.726  1.00  0.00     0.061 C 
HETATM   18  N5  UNL     1      -2.610   1.030  -0.520  1.00  0.00    -0.375 N 
HETATM   19  C12 UNL     1      -1.803  -0.013  -1.092  1.00  0.00     0.154 C 
HETATM   20  H8  UNL     1      -4.841  -0.341   3.441  1.00  0.00     0.160 HD
HETATM   21  H11 UNL     1      -3.403   1.611  -0.883  1.00  0.00     0.160 HD
ENDROOT
BRANCH  19  22
HETATM   22  C13 UNL     1      -0.361   0.409  -1.290  1.00  0.00     0.000 C 
HETATM   23  C14 UNL     1       0.477   0.113  -2.277  1.00  0.00    -0.028 C 
BRANCH  23  24
HETATM   24  C15 UNL     1       1.883   0.647  -2.271  1.00  0.00     0.031 C 
BRANCH  24  25
HETATM   25  C16 UNL     1       2.872  -0.510  -2.262  1.00  0.00     0.042 C 
BRANCH  25  26
HETATM   26  C17 UNL     1       4.235   0.078  -2.253  1.00  0.00    -0.058 A 
HETATM   27  C18 UNL     1       4.752   0.314  -0.997  1.00  0.00     0.007 A 
HETATM   28  C19 UNL     1       6.012   0.857  -0.826  1.00  0.00     0.001 A 
HETATM   29  C20 UNL     1       6.753   1.164  -1.957  1.00  0.00     0.000 A 
HETATM   30  C21 UNL     1       6.178   0.903  -3.176  1.00  0.00     0.001 A 
HETATM   31  C22 UNL     1       4.939   0.368  -3.398  1.00  0.00     0.007 A 
ENDBRANCH  25  26
ENDBRANCH  24  25
ENDBRANCH  23  24
ENDBRANCH  19  22
TORSDOF 4
