REMARK  7 active torsions:
REMARK  status: ('A' for Active; 'I' for Inactive)
REMARK    1  A    between atoms: N1_1  and  C1_2 
REMARK    2  A    between atoms: C3_6  and  N4_7 
REMARK    3  A    between atoms: N4_7  and  N5_8 
REMARK    4  A    between atoms: N5_8  and  C4_9 
REMARK    5  A    between atoms: C12_19  and  C13_20 
REMARK    6  A    between atoms: C13_20  and  C14_21 
REMARK    7  A    between atoms: C14_21  and  C15_22 
ROOT
HETATM    1  C1  UNL     1      -1.228  -2.081   1.478  1.00  0.00     0.129 C 
HETATM    2  N2  UNL     1      -0.321  -3.033   1.396  1.00  0.00    -0.224 NA
HETATM    3  C2  UNL     1       1.006  -3.005   0.831  1.00  0.00     0.237 C 
HETATM    4  N3  UNL     1       1.701  -2.233   0.032  1.00  0.00    -0.223 NA
HETATM    5  C3  UNL     1       1.440  -1.014  -0.669  1.00  0.00     0.143 C 
HETATM    6  C10 UNL     1       0.497  -0.090  -0.592  1.00  0.00     0.052 C 
HETATM    7  C11 UNL     1      -0.659   0.015   0.273  1.00  0.00     0.015 C 
HETATM    8  C12 UNL     1      -1.426  -0.645   1.110  1.00  0.00    -0.012 C 
ENDROOT
BRANCH   5   9
HETATM    9  N4  UNL     1       2.358  -0.650  -1.692  1.00  0.00    -0.284 N 
HETATM   10  H4  UNL     1       2.016  -0.146  -2.543  1.00  0.00     0.188 HD
BRANCH   9  11
HETATM   11  N5  UNL     1       3.682  -1.035  -1.419  1.00  0.00    -0.299 N 
HETATM   12  H5  UNL     1       3.878  -2.009  -1.749  1.00  0.00     0.187 HD
BRANCH  11  13
HETATM   13  C4  UNL     1       4.703  -0.275  -0.782  1.00  0.00     0.049 A 
HETATM   14  C5  UNL     1       5.957  -0.834  -0.601  1.00  0.00     0.034 A 
HETATM   15  C6  UNL     1       6.886  -0.029   0.025  1.00  0.00     0.046 A 
HETATM   16  C7  UNL     1       6.643   1.269   0.470  1.00  0.00     0.133 A 
HETATM   17  F1  UNL     1       7.627   1.967   1.070  1.00  0.00    -0.205 F 
HETATM   18  C8  UNL     1       5.383   1.747   0.254  1.00  0.00     0.051 A 
HETATM   19 BR1  UNL     1       5.005   3.525   0.849  1.00  0.00    -0.048 Br
HETATM   20  C9  UNL     1       4.383   1.014  -0.365  1.00  0.00     0.053 A 
ENDBRANCH  11  13
ENDBRANCH   9  11
ENDBRANCH   5   9
BRANCH   8  21
HETATM   21  C13 UNL     1      -2.604  -0.282   1.848  1.00  0.00     0.047 C 
BRANCH  21  22
HETATM   22  C14 UNL     1      -3.224   1.050   1.714  1.00  0.00     0.043 C 
BRANCH  22  23
HETATM   23  C15 UNL     1      -3.778   1.417   0.399  1.00  0.00    -0.058 A 
HETATM   24  C16 UNL     1      -3.447   2.134  -0.725  1.00  0.00     0.007 A 
HETATM   25  C17 UNL     1      -4.183   2.276  -1.854  1.00  0.00     0.001 A 
HETATM   26  C18 UNL     1      -5.399   1.668  -1.961  1.00  0.00     0.000 A 
HETATM   27  C19 UNL     1      -5.832   0.922  -0.890  1.00  0.00     0.001 A 
HETATM   28  C20 UNL     1      -5.041   0.804   0.251  1.00  0.00     0.007 A 
ENDBRANCH  22  23
ENDBRANCH  21  22
ENDBRANCH   8  21
BRANCH   1  29
HETATM   29  N1  UNL     1      -2.303  -2.773   2.145  1.00  0.00    -0.384 N 
HETATM   30  H1  UNL     1      -2.691  -2.858   3.112  1.00  0.00     0.157 HD
HETATM   31  H2  UNL     1      -2.769  -3.317   1.362  1.00  0.00     0.157 HD
ENDBRANCH   1  29
TORSDOF 7
