REMARK  1 active torsions:
REMARK  status: ('A' for Active; 'I' for Inactive)
REMARK    1  A    between atoms: C10_14  and  C11_15 
ROOT
HETATM    1  F1  UNL     1      -3.810   2.957  -1.266  1.00  0.00    -0.206 F 
HETATM    2  C1  UNL     1      -3.399   1.765  -0.899  1.00  0.00     0.117 C 
HETATM    3  C2  UNL     1      -3.846   0.644  -0.239  1.00  0.00     0.048 C 
HETATM    4  C3  UNL     1      -3.333  -0.767  -0.074  1.00  0.00     0.162 C 
HETATM    5  C4  UNL     1      -2.408  -0.887  -1.322  1.00  0.00     0.093 C 
HETATM    6  C5  UNL     1      -1.565   0.369  -1.016  1.00  0.00     0.015 C 
HETATM    7  C6  UNL     1      -1.958   1.614  -1.390  1.00  0.00     0.067 C 
HETATM    8  N1  UNL     1      -0.336   0.269  -0.235  1.00  0.00    -0.354 N 
HETATM    9  C7  UNL     1      -0.190  -0.705   0.862  1.00  0.00     0.116 A 
HETATM   10  C8  UNL     1      -1.330  -1.281   1.488  1.00  0.00     0.196 A 
HETATM   11  N2  UNL     1      -0.974  -2.054   2.507  1.00  0.00    -0.216 NA
HETATM   12  C9  UNL     1       0.359  -2.186   2.801  1.00  0.00     0.236 A 
HETATM   13  N3  UNL     1       1.393  -1.594   2.141  1.00  0.00    -0.239 NA
HETATM   14  C10 UNL     1       1.149  -0.792   1.093  1.00  0.00     0.099 A 
HETATM   15  O1  UNL     1      -2.680  -1.072   1.099  1.00  0.00    -0.323 OA
HETATM   16  H6  UNL     1       0.342   0.989  -0.560  1.00  0.00     0.166 HD
ENDROOT
BRANCH  14  17
HETATM   17  C11 UNL     1       2.117  -0.084   0.279  1.00  0.00    -0.004 A 
HETATM   18  C12 UNL     1       2.358  -0.007  -1.085  1.00  0.00     0.014 A 
HETATM   19  C13 UNL     1       3.363   0.777  -1.581  1.00  0.00     0.002 A 
HETATM   20  C14 UNL     1       4.173   1.517  -0.775  1.00  0.00     0.019 A 
HETATM   21  C15 UNL     1       3.967   1.470   0.590  1.00  0.00     0.011 A 
HETATM   22 BR1  UNL     1       5.142   2.533   1.650  1.00  0.00    -0.051 Br
HETATM   23  C16 UNL     1       2.955   0.681   1.100  1.00  0.00     0.033 A 
ENDBRANCH  14  17
TORSDOF 1
