REMARK  5 active torsions:
REMARK  status: ('A' for Active; 'I' for Inactive)
REMARK    1  A    between atoms: N1_1  and  C1_2 
REMARK    2  A    between atoms: C4_6  and  N3_7 
REMARK    3  A    between atoms: N3_7  and  C5_8 
REMARK    4  A    between atoms: C5_8  and  C6_9 
REMARK    5  A    between atoms: C6_9  and  C7_10 
ROOT
HETATM    1  C1  UNL     1       2.432   2.361  -0.710  1.00  0.00     0.721 A 
HETATM    2  N2  UNL     1       1.193   2.599  -0.299  1.00  0.00    -0.079 NA
HETATM    3  C2  UNL     1       0.283   1.636   0.029  1.00  0.00     0.024 A 
HETATM    4  C3  UNL     1       0.787   0.347  -0.113  1.00  0.00     0.024 A 
HETATM    5  C4  UNL     1       2.061   0.127  -0.536  1.00  0.00     0.158 A 
HETATM    6  N4  UNL     1       2.923   1.099  -0.847  1.00  0.00    -0.044 NA
HETATM    7  C8  UNL     1      -0.069  -0.833   0.159  1.00  0.00     0.012 C 
HETATM    8  C9  UNL     1      -1.053  -1.526  -0.382  1.00  0.00    -0.025 C 
HETATM    9  C10 UNL     1      -2.176  -2.405  -0.880  1.00  0.00     0.032 C 
HETATM   10  C11 UNL     1      -3.412  -1.497  -1.096  1.00  0.00     0.042 C 
HETATM   11  C12 UNL     1      -3.537  -0.646   0.129  1.00  0.00    -0.058 A 
HETATM   12  C13 UNL     1      -4.173  -0.685   1.339  1.00  0.00     0.007 A 
HETATM   13  C14 UNL     1      -3.852   0.270   2.263  1.00  0.00     0.000 A 
HETATM   14  C15 UNL     1      -2.928   1.262   2.045  1.00  0.00    -0.005 A 
HETATM   15  C16 UNL     1      -2.260   1.355   0.861  1.00  0.00    -0.094 A 
HETATM   16  C17 UNL     1      -2.606   0.389  -0.054  1.00  0.00     0.002 A 
HETATM   17  B1  UNL     1      -1.078   2.336   0.487  1.00  0.00     0.256 B 
HETATM   18  H15 UNL     1      -0.962   3.224   1.290  1.00  0.00    -0.014 HD
ENDROOT
BRANCH   5  19
HETATM   19  N3  UNL     1       2.400  -1.236  -0.596  1.00  0.00    -0.343 N 
HETATM   20  H3  UNL     1       1.860  -2.088  -0.380  1.00  0.00     0.167 HD
BRANCH  19  21
HETATM   21  C5  UNL     1       3.659  -1.624  -1.005  1.00  0.00     0.149 C 
BRANCH  21  22
HETATM   22  C6  UNL     1       4.687  -1.398  -0.197  1.00  0.00    -0.062 C 
BRANCH  22  23
HETATM   23  C7  UNL     1       5.565  -0.939   0.686  1.00  0.00     0.209 C 
HETATM   24  F1  UNL     1       5.793  -1.890   1.614  1.00  0.00    -0.189 F 
HETATM   25 BR1  UNL     1       6.187   0.824   0.376  1.00  0.00    -0.008 Br
ENDBRANCH  22  23
ENDBRANCH  21  22
ENDBRANCH  19  21
ENDBRANCH   5  19
BRANCH   1  26
HETATM   26  N1  UNL     1       3.358   3.389  -1.048  1.00  0.00    -0.231 N 
HETATM   27  H1  UNL     1       3.936   3.805  -0.307  1.00  0.00     0.174 HD
HETATM   28  H2  UNL     1       3.540   3.798  -1.986  1.00  0.00     0.174 HD
ENDBRANCH   1  26
TORSDOF 5
