REMARK  3 active torsions:
REMARK  status: ('A' for Active; 'I' for Inactive)
REMARK    1  A    between atoms: N1_1  and  C1_2 
REMARK    2  A    between atoms: C2_4  and  N3_5 
REMARK    3  A    between atoms: N3_5  and  C3_6 
ROOT
HETATM    1  C1  UNL     1       1.100  -2.408   1.475  1.00  0.00     0.719 A 
HETATM    2  N2  UNL     1       1.940  -1.589   0.952  1.00  0.00    -0.075 NA
HETATM    3  C2  UNL     1       1.650  -0.208   0.771  1.00  0.00     0.264 A 
HETATM    4  C9  UNL     1       0.262   0.110   1.181  1.00  0.00     0.044 A 
HETATM    5  C10 UNL     1      -0.100   1.382   0.930  1.00  0.00     0.148 C 
HETATM    6  O1  UNL     1      -1.371   1.700   1.295  1.00  0.00    -0.362 OA
HETATM    7  C11 UNL     1      -2.216   2.682   0.794  1.00  0.00     0.179 C 
HETATM    8  C12 UNL     1      -3.675   2.414   1.131  1.00  0.00     0.066 C 
HETATM    9  C13 UNL     1      -3.986   1.099   0.506  1.00  0.00    -0.039 A 
HETATM   10  C14 UNL     1      -4.858   0.984  -0.555  1.00  0.00     0.008 A 
HETATM   11  C15 UNL     1      -5.206  -0.183  -1.203  1.00  0.00     0.001 A 
HETATM   12  C16 UNL     1      -4.622  -1.345  -0.742  1.00  0.00     0.001 A 
HETATM   13  C17 UNL     1      -3.744  -1.264   0.319  1.00  0.00     0.019 A 
HETATM   14  C18 UNL     1      -3.411  -0.085   0.952  1.00  0.00     0.013 A 
HETATM   15  S1  UNL     1      -2.259  -0.245   2.302  1.00  0.00    -0.069 SA
HETATM   16  C19 UNL     1      -0.657  -0.837   1.801  1.00  0.00     0.129 A 
HETATM   17  N4  UNL     1      -0.192  -2.037   1.899  1.00  0.00    -0.056 NA
ENDROOT
BRANCH   3  18
HETATM   18  N3  UNL     1       1.897   0.229  -0.590  1.00  0.00    -0.363 N 
HETATM   19  H4  UNL     1       1.158   0.631  -1.205  1.00  0.00     0.162 HD
BRANCH  18  20
HETATM   20  C3  UNL     1       3.207   0.112  -1.130  1.00  0.00     0.031 A 
HETATM   21  C4  UNL     1       3.499   0.519  -2.438  1.00  0.00     0.032 A 
HETATM   22  C5  UNL     1       4.750   0.418  -2.984  1.00  0.00     0.046 A 
HETATM   23  C6  UNL     1       5.796  -0.101  -2.251  1.00  0.00     0.133 A 
HETATM   24  F1  UNL     1       7.044  -0.227  -2.727  1.00  0.00    -0.205 F 
HETATM   25  C7  UNL     1       5.539  -0.515  -0.948  1.00  0.00     0.051 A 
HETATM   26 BR1  UNL     1       6.971  -1.243   0.105  1.00  0.00    -0.048 Br
HETATM   27  C8  UNL     1       4.273  -0.396  -0.441  1.00  0.00     0.051 A 
ENDBRANCH  18  20
ENDBRANCH   3  18
BRANCH   1  28
HETATM   28  N1  UNL     1       1.336  -3.815   1.686  1.00  0.00    -0.231 N 
HETATM   29  H1  UNL     1       1.219  -4.179   2.658  1.00  0.00     0.174 HD
HETATM   30  H2  UNL     1       1.612  -4.380   0.832  1.00  0.00     0.174 HD
ENDBRANCH   1  28
TORSDOF 3
