REMARK  5 active torsions:
REMARK  status: ('A' for Active; 'I' for Inactive)
REMARK    1  A    between atoms: N1_1  and  C1_2 
REMARK    2  A    between atoms: C13_15  and  N3_16 
REMARK    3  A    between atoms: N3_16  and  C14_17 
REMARK    4  A    between atoms: C18_22  and  C19_23 
REMARK    5  A    between atoms: C19_23  and  C20_24 
ROOT
HETATM    1  C1  UNL     1      -0.312   1.077  -0.791  1.00  0.00     0.368 C 
HETATM    2  N2  UNL     1      -1.728   1.272  -0.921  1.00  0.00    -0.355 N 
HETATM    3  C2  UNL     1      -3.053   1.713  -0.750  1.00  0.00     0.036 A 
HETATM    4  C3  UNL     1      -3.672   2.656  -1.515  1.00  0.00     0.030 A 
HETATM    5  C4  UNL     1      -4.978   2.994  -1.226  1.00  0.00     0.002 A 
HETATM    6  C5  UNL     1      -5.529   2.324  -0.170  1.00  0.00     0.001 A 
HETATM    7  C6  UNL     1      -4.871   1.376   0.581  1.00  0.00     0.009 A 
HETATM    8  C7  UNL     1      -3.544   1.005   0.320  1.00  0.00    -0.031 A 
HETATM    9  C8  UNL     1      -3.066  -0.005   1.271  1.00  0.00     0.047 C 
HETATM   10  C9  UNL     1      -3.238  -1.432   0.929  1.00  0.00     0.061 C 
HETATM   11  C10 UNL     1      -2.508  -1.955  -0.219  1.00  0.00     0.006 C 
HETATM   12  C11 UNL     1      -2.269  -1.495  -1.432  1.00  0.00     0.035 C 
HETATM   13  C12 UNL     1      -0.828  -1.322  -1.264  1.00  0.00    -0.012 C 
HETATM   14  C13 UNL     1       0.031  -0.347  -1.011  1.00  0.00     0.070 C 
HETATM   15  C22 UNL     1      -0.759  -2.774  -1.463  1.00  0.00     0.160 C 
HETATM   16  N4  UNL     1      -1.765  -3.189  -0.452  1.00  0.00    -0.389 N 
HETATM   17  H4  UNL     1      -1.976   0.730  -1.774  1.00  0.00     0.162 HD
HETATM   18  H24 UNL     1      -1.938  -4.132   0.020  1.00  0.00     0.159 HD
ENDROOT
BRANCH  14  19
HETATM   19  N3  UNL     1       1.400  -0.626  -0.904  1.00  0.00    -0.356 N 
HETATM   20  H14 UNL     1       1.706  -0.429  -1.893  1.00  0.00     0.166 HD
BRANCH  19  21
HETATM   21  C14 UNL     1       2.488  -1.027  -0.122  1.00  0.00     0.033 A 
HETATM   22  C15 UNL     1       2.972  -2.293   0.115  1.00  0.00     0.032 A 
HETATM   23  C16 UNL     1       4.069  -2.470   0.927  1.00  0.00     0.045 A 
HETATM   24  C17 UNL     1       4.648  -1.353   1.478  1.00  0.00     0.122 A 
HETATM   25  F1  UNL     1       5.726  -1.559   2.274  1.00  0.00    -0.206 F 
HETATM   26  C18 UNL     1       4.225  -0.056   1.290  1.00  0.00    -0.015 A 
HETATM   27  C21 UNL     1       3.108   0.086   0.459  1.00  0.00     0.039 A 
BRANCH  26  28
HETATM   28  C19 UNL     1       4.940   1.048   1.943  1.00  0.00     0.073 C 
BRANCH  28  29
HETATM   29  C20 UNL     1       6.258   1.357   1.240  1.00  0.00     0.227 C 
HETATM   30  F2  UNL     1       6.850   2.398   1.921  1.00  0.00    -0.255 F 
ENDBRANCH  28  29
ENDBRANCH  26  28
ENDBRANCH  19  21
ENDBRANCH  14  19
BRANCH   1  31
HETATM   31  N1  UNL     1       0.469   2.037  -1.497  1.00  0.00     0.107 N 
HETATM   32  H1  UNL     1       1.018   1.662  -2.305  1.00  0.00     0.316 HD
HETATM   33  H2  UNL     1       1.148   2.532  -0.878  1.00  0.00     0.316 HD
ENDBRANCH   1  31
TORSDOF 5
