REMARK  5 active torsions:
REMARK  status: ('A' for Active; 'I' for Inactive)
REMARK    1  A    between atoms: C3_3  and  C4_4 
REMARK    2  A    between atoms: C4_4  and  N1_5 
REMARK    3  A    between atoms: C5_6  and  N2_7 
REMARK    4  A    between atoms: C9_12  and  C10_13 
REMARK    5  A    between atoms: C10_13  and  C11_14 
ROOT
HETATM    1  N1  UNL     1       0.294  -1.225  -0.311  1.00  0.00    -0.316 N 
HETATM    2  C5  UNL     1       0.635  -2.572  -0.718  1.00  0.00     0.100 A 
HETATM    3  C6  UNL     1       1.816  -3.147  -0.707  1.00  0.00     0.041 A 
HETATM    4  C7  UNL     1       3.020  -2.439  -0.247  1.00  0.00     0.152 A 
HETATM    5  N3  UNL     1       2.647  -1.103   0.149  1.00  0.00    -0.373 N 
HETATM    6  C8  UNL     1       1.387  -0.464   0.152  1.00  0.00     0.101 A 
HETATM    7  C9  UNL     1       1.183   0.720   0.631  1.00  0.00     0.027 C 
HETATM    8  H11 UNL     1       3.538  -0.692   0.452  1.00  0.00     0.161 HD
ENDROOT
BRANCH   1   9
HETATM    9  C4  UNL     1      -1.085  -1.022  -0.477  1.00  0.00     0.167 C 
BRANCH   9  10
HETATM   10  C3  UNL     1      -1.690   0.298  -0.449  1.00  0.00    -0.056 C 
HETATM   11  C2  UNL     1      -2.565   0.538   0.537  1.00  0.00    -0.058 C 
HETATM   12  C1  UNL     1      -2.868  -0.513   1.513  1.00  0.00     0.048 C 
HETATM   13  C15 UNL     1      -3.160   1.862   0.593  1.00  0.00     0.003 C 
HETATM   14  C14 UNL     1      -2.738   2.645  -0.350  1.00  0.00    -0.026 C 
HETATM   15  C13 UNL     1      -1.801   2.562  -1.488  1.00  0.00     0.031 C 
HETATM   16  C12 UNL     1      -1.282   1.163  -1.615  1.00  0.00     0.040 C 
ENDBRANCH   9  10
ENDBRANCH   1   9
BRANCH   2  17
HETATM   17  N2  UNL     1      -0.310  -3.522  -1.217  1.00  0.00    -0.385 N 
HETATM   18  H6  UNL     1      -0.554  -3.766  -2.194  1.00  0.00     0.157 HD
HETATM   19  H7  UNL     1      -0.753  -3.970  -0.370  1.00  0.00     0.157 HD
ENDBRANCH   2  17
BRANCH   7  20
HETATM   20  C10 UNL     1       1.754   1.914   1.206  1.00  0.00     0.102 C 
BRANCH  20  21
HETATM   21  C11 UNL     1       3.276   1.912   1.216  1.00  0.00     0.356 C 
HETATM   22  F1  UNL     1       3.807   1.830  -0.046  1.00  0.00    -0.214 F 
HETATM   23  F2  UNL     1       3.603   3.141   1.793  1.00  0.00    -0.214 F 
ENDBRANCH  20  21
ENDBRANCH   7  20
TORSDOF 5
