REMARK  3 active torsions:
REMARK  status: ('A' for Active; 'I' for Inactive)
REMARK    1  A    between atoms: N1_2  and  C2_3 
REMARK    2  A    between atoms: C2_3  and  N2_4 
REMARK    3  A    between atoms: N2_4  and  C3_5 
ROOT
HETATM    1  C2  UNL     1       0.888  -1.096   0.136  1.00  0.00     0.155 C 
HETATM    2  C9  UNL     1      -0.433  -1.072   0.382  1.00  0.00     0.095 C 
HETATM    3  C10 UNL     1      -0.889  -2.001   1.447  1.00  0.00     0.179 C 
HETATM    4  N3  UNL     1      -2.022  -1.881   2.115  1.00  0.00    -0.138 NA
HETATM    5  O1  UNL     1      -2.957  -0.875   1.925  1.00  0.00    -0.216 OA
HETATM    6  C11 UNL     1      -3.342  -0.200   0.800  1.00  0.00     0.102 A 
HETATM    7  C12 UNL     1      -4.344   0.643   1.103  1.00  0.00     0.040 A 
HETATM    8  C13 UNL     1      -4.887   1.454   0.021  1.00  0.00     0.040 A 
HETATM    9  C14 UNL     1      -4.384   1.333  -1.192  1.00  0.00     0.096 A 
HETATM   10  F1  UNL     1      -4.793   2.031  -2.301  1.00  0.00    -0.211 F 
HETATM   11  C15 UNL     1      -3.292   0.427  -1.633  1.00  0.00     0.102 A 
HETATM   12  C16 UNL     1      -2.724  -0.397  -0.530  1.00  0.00     0.148 A 
HETATM   13  N4  UNL     1      -1.283  -0.185  -0.386  1.00  0.00    -0.375 N 
HETATM   14  H14 UNL     1      -0.729   0.614  -0.817  1.00  0.00     0.160 HD
ENDROOT
BRANCH   1  15
HETATM   15  N1  UNL     1       1.612  -2.030   0.964  1.00  0.00    -0.252 NA
HETATM   16  C1  UNL     1       1.982  -3.133   0.378  1.00  0.00     0.151 C 
ENDBRANCH   1  15
BRANCH   1  17
HETATM   17  N2  UNL     1       1.520  -0.275  -0.855  1.00  0.00    -0.339 N 
HETATM   18  H3  UNL     1       1.109  -0.345  -1.830  1.00  0.00     0.167 HD
BRANCH  17  19
HETATM   19  C3  UNL     1       2.632   0.615  -0.632  1.00  0.00     0.035 A 
HETATM   20  C4  UNL     1       2.481   2.032  -0.629  1.00  0.00     0.029 A 
HETATM   21  C5  UNL     1       3.740   2.472  -0.378  1.00  0.00     0.004 A 
HETATM   22  C6  UNL     1       5.002   2.125  -0.136  1.00  0.00     0.019 A 
HETATM   23  C7  UNL     1       4.992   0.709  -0.170  1.00  0.00     0.013 A 
HETATM   24 BR1  UNL     1       6.628  -0.240   0.139  1.00  0.00    -0.051 Br
HETATM   25  C8  UNL     1       3.833  -0.053  -0.414  1.00  0.00     0.048 A 
ENDBRANCH  17  19
ENDBRANCH   1  17
TORSDOF 3
