REMARK  3 active torsions:
REMARK  status: ('A' for Active; 'I' for Inactive)
REMARK    1  A    between atoms: C3_4  and  C4_5 
REMARK    2  A    between atoms: C4_5  and  C5_6 
REMARK    3  A    between atoms: C7_10  and  C8_11 
ROOT
HETATM    1  C1  UNL     1      -0.240   3.110  -0.384  1.00  0.00     0.155 C 
HETATM    2  N1  UNL     1      -0.112   1.734  -0.039  1.00  0.00    -0.360 N 
HETATM    3  C2  UNL     1       1.250   1.517   0.465  1.00  0.00     0.115 C 
HETATM    4  C3  UNL     1       1.945   0.344   0.526  1.00  0.00     0.027 C 
HETATM    5  N2  UNL     1       1.576  -1.018   0.072  1.00  0.00    -0.343 N 
HETATM    6  C6  UNL     1       0.225  -1.507  -0.215  1.00  0.00     0.137 C 
HETATM    7  C7  UNL     1      -0.985  -1.568   0.407  1.00  0.00     0.035 C 
HETATM    8  C9  UNL     1      -1.626  -0.563  -0.454  1.00  0.00     0.158 A 
HETATM    9  N3  UNL     1      -1.492  -1.070  -1.844  1.00  0.00    -0.360 N 
HETATM   10  C10 UNL     1      -0.709  -2.286  -2.203  1.00  0.00     0.206 C 
HETATM   11  N4  UNL     1       0.400  -1.904  -1.637  1.00  0.00    -0.226 NA
HETATM   12  C11 UNL     1      -3.112  -0.459  -0.315  1.00  0.00     0.133 A 
HETATM   13  F2  UNL     1      -3.912  -1.534  -0.490  1.00  0.00    -0.207 F 
HETATM   14  C12 UNL     1      -3.548   0.753  -0.016  1.00  0.00     0.043 A 
HETATM   15  C13 UNL     1      -2.333   1.554   0.071  1.00  0.00     0.031 A 
HETATM   16  C14 UNL     1      -1.225   0.799  -0.179  1.00  0.00     0.051 A 
HETATM   17  H9  UNL     1       2.221  -1.764  -0.112  1.00  0.00     0.167 HD
HETATM   18  H12 UNL     1      -2.020  -0.524  -2.612  1.00  0.00     0.162 HD
ENDROOT
BRANCH   4  19
HETATM   19  C4  UNL     1       3.255   0.264   1.079  1.00  0.00     0.073 C 
BRANCH  19  20
HETATM   20  C5  UNL     1       4.331  -0.226   0.141  1.00  0.00     0.120 C 
HETATM   21 CL1  UNL     1       5.850  -0.223   1.093  1.00  0.00    -0.130 Cl
ENDBRANCH  19  20
ENDBRANCH   4  19
BRANCH   7  22
HETATM   22  C8  UNL     1      -1.854  -2.153   1.460  1.00  0.00     0.264 C 
HETATM   23  F1  UNL     1      -2.270  -1.123   2.278  1.00  0.00    -0.251 F 
ENDBRANCH   7  22
TORSDOF 3
