REMARK  7 active torsions:
REMARK  status: ('A' for Active; 'I' for Inactive)
REMARK    1  A    between atoms: N1_1  and  C1_2 
REMARK    2  A    between atoms: C1_2  and  C2_3 
REMARK    3  A    between atoms: C8_10  and  C9_11 
REMARK    4  A    between atoms: C9_11  and  C10_13 
REMARK    5  A    between atoms: C12_17  and  C13_18 
REMARK    6  A    between atoms: C13_18  and  C14_19 
REMARK    7  A    between atoms: C14_19  and  C15_20 
ROOT
HETATM    1  C2  UNL     1      -1.463  -0.927  -0.224  1.00  0.00    -0.019 C 
HETATM    2  C3  UNL     1      -0.798  -0.500   0.836  1.00  0.00    -0.001 C 
HETATM    3  C4  UNL     1      -1.116   0.354   2.001  1.00  0.00     0.037 C 
HETATM    4  C5  UNL     1      -2.204   0.890   2.532  1.00  0.00     0.033 C 
HETATM    5  C6  UNL     1      -3.610   0.845   2.156  1.00  0.00     0.045 C 
HETATM    6  C7  UNL     1      -4.248   0.442   1.077  1.00  0.00     0.125 C 
HETATM    7  F1  UNL     1      -5.578   0.621   1.249  1.00  0.00    -0.205 F 
HETATM    8  C8  UNL     1      -4.012  -0.134  -0.235  1.00  0.00     0.017 C 
HETATM    9  C11 UNL     1      -2.839  -0.656  -0.640  1.00  0.00     0.022 C 
HETATM   10  N2  UNL     1       0.261   0.351   2.349  1.00  0.00    -0.381 N 
HETATM   11  C12 UNL     1       0.588  -0.661   1.323  1.00  0.00     0.118 C 
HETATM   12  H11 UNL     1       0.882   0.849   3.052  1.00  0.00     0.160 HD
ENDROOT
BRANCH  11  13
HETATM   13  C13 UNL     1       1.693  -0.121   0.481  1.00  0.00     0.034 C 
BRANCH  13  14
HETATM   14  C14 UNL     1       2.992  -0.417   1.204  1.00  0.00     0.041 C 
BRANCH  14  15
HETATM   15  C15 UNL     1       4.171   0.067   0.476  1.00  0.00    -0.058 A 
HETATM   16  C16 UNL     1       4.652   1.359   0.706  1.00  0.00     0.007 A 
HETATM   17  C17 UNL     1       5.764   1.772  -0.001  1.00  0.00     0.001 A 
HETATM   18  C18 UNL     1       6.402   0.960  -0.913  1.00  0.00     0.000 A 
HETATM   19  C19 UNL     1       5.924  -0.317  -1.139  1.00  0.00     0.001 A 
HETATM   20  C20 UNL     1       4.808  -0.767  -0.445  1.00  0.00     0.007 A 
ENDBRANCH  14  15
ENDBRANCH  13  14
ENDBRANCH  11  13
BRANCH   1  21
HETATM   21  C1  UNL     1      -0.756  -1.805  -1.192  1.00  0.00     0.306 C 
BRANCH  21  22
HETATM   22  N1  UNL     1      -0.695  -1.206  -2.507  1.00  0.00     0.082 N 
HETATM   23  H1  UNL     1      -0.011  -0.433  -2.587  1.00  0.00     0.313 HD
HETATM   24  H2  UNL     1      -0.530  -1.960  -3.223  1.00  0.00     0.313 HD
ENDBRANCH  21  22
ENDBRANCH   1  21
BRANCH   8  25
HETATM   25  C9  UNL     1      -5.084  -0.157  -1.239  1.00  0.00     0.234 C 
HETATM   26  F2  UNL     1      -4.568  -0.846  -2.344  1.00  0.00    -0.242 F 
BRANCH  25  27
HETATM   27  C10 UNL     1      -5.546   1.166  -1.736  1.00  0.00     0.264 C 
HETATM   28  F3  UNL     1      -6.047   1.987  -0.760  1.00  0.00    -0.252 F 
ENDBRANCH  25  27
ENDBRANCH   8  25
TORSDOF 7
