REMARK  6 active torsions:
REMARK  status: ('A' for Active; 'I' for Inactive)
REMARK    1  A    between atoms: N1_1  and  C1_2 
REMARK    2  A    between atoms: C2_4  and  N3_5 
REMARK    3  A    between atoms: N3_5  and  C3_6 
REMARK    4  A    between atoms: C7_11  and  C8_12 
REMARK    5  A    between atoms: C12_21  and  C13_22 
REMARK    6  A    between atoms: C13_22  and  C14_23 
ROOT
HETATM    1  C1  UNL     1       1.006   3.810  -0.081  1.00  0.00     0.724 A 
HETATM    2  N2  UNL     1       1.491   2.734  -0.736  1.00  0.00    -0.045 NA
HETATM    3  C2  UNL     1       0.728   1.638  -0.910  1.00  0.00     0.159 A 
HETATM    4  C10 UNL     1      -0.569   1.588  -0.425  1.00  0.00     0.058 A 
HETATM    5  C11 UNL     1      -1.046   2.723   0.253  1.00  0.00     0.155 A 
HETATM    6  N4  UNL     1      -0.244   3.798   0.404  1.00  0.00    -0.045 NA
HETATM    7  N5  UNL     1      -2.259   2.003   0.421  1.00  0.00    -0.364 N 
HETATM    8  C12 UNL     1      -1.803   0.833  -0.288  1.00  0.00     0.128 A 
HETATM    9  H7  UNL     1      -3.162   2.228   0.887  1.00  0.00     0.162 HD
ENDROOT
BRANCH   3  10
HETATM   10  N3  UNL     1       1.429   0.631  -1.624  1.00  0.00    -0.340 N 
HETATM   11  H3  UNL     1       1.317   0.326  -2.612  1.00  0.00     0.167 HD
BRANCH  10  12
HETATM   12  C3  UNL     1       2.428  -0.039  -0.826  1.00  0.00     0.034 A 
HETATM   13  C4  UNL     1       2.705   0.376   0.462  1.00  0.00     0.032 A 
HETATM   14  C5  UNL     1       3.671  -0.225   1.277  1.00  0.00     0.045 A 
HETATM   15  C6  UNL     1       4.377  -1.294   0.740  1.00  0.00     0.131 A 
HETATM   16  F1  UNL     1       5.322  -1.870   1.551  1.00  0.00    -0.205 F 
HETATM   17  C7  UNL     1       4.109  -1.715  -0.540  1.00  0.00     0.088 A 
HETATM   18  C9  UNL     1       3.151  -1.116  -1.344  1.00  0.00     0.048 A 
BRANCH  17  19
HETATM   19  C8  UNL     1       4.938  -2.860  -0.980  1.00  0.00     0.420 C 
HETATM   20  F2  UNL     1       6.293  -2.526  -0.967  1.00  0.00    -0.166 F 
HETATM   21  F3  UNL     1       4.565  -3.231  -2.246  1.00  0.00    -0.166 F 
HETATM   22  F4  UNL     1       4.744  -3.894  -0.059  1.00  0.00    -0.166 F 
ENDBRANCH  17  19
ENDBRANCH  10  12
ENDBRANCH   3  10
BRANCH   1  23
HETATM   23  N1  UNL     1       1.818   4.988   0.109  1.00  0.00    -0.231 N 
HETATM   24  H1  UNL     1       1.572   5.978  -0.092  1.00  0.00     0.174 HD
HETATM   25  H2  UNL     1       2.767   4.722   0.504  1.00  0.00     0.174 HD
ENDBRANCH   1  23
BRANCH   8  26
HETATM   26  C13 UNL     1      -1.799  -0.458   0.463  1.00  0.00     0.068 C 
BRANCH  26  27
HETATM   27  C14 UNL     1      -3.189  -1.045   0.470  1.00  0.00    -0.056 A 
HETATM   28  C15 UNL     1      -3.639  -1.932  -0.517  1.00  0.00     0.007 A 
HETATM   29  C16 UNL     1      -4.910  -2.476  -0.532  1.00  0.00     0.001 A 
HETATM   30  C17 UNL     1      -5.754  -2.096   0.507  1.00  0.00     0.000 A 
HETATM   31  C18 UNL     1      -5.357  -1.230   1.496  1.00  0.00     0.001 A 
HETATM   32  C19 UNL     1      -4.085  -0.704   1.484  1.00  0.00     0.007 A 
ENDBRANCH  26  27
ENDBRANCH   8  26
TORSDOF 6
