REMARK  3 active torsions:
REMARK  status: ('A' for Active; 'I' for Inactive)
REMARK    1  A    between atoms: N1_1  and  C1_2 
REMARK    2  A    between atoms: N3_4  and  C2_5 
REMARK    3  A    between atoms: C6_10  and  C7_11 
ROOT
HETATM    1  C1  UNL     1      -2.011  -2.044   0.121  1.00  0.00     0.739 A 
HETATM    2  N2  UNL     1      -0.814  -1.595  -0.031  1.00  0.00     0.026 NA
HETATM    3  N3  UNL     1      -0.549  -0.213  -0.200  1.00  0.00    -0.215 N 
HETATM    4  C9  UNL     1      -1.717   0.593  -0.183  1.00  0.00     0.103 A 
HETATM    5  C10 UNL     1      -1.785   1.908  -0.282  1.00  0.00     0.028 A 
HETATM    6  C11 UNL     1      -3.191   2.382  -0.224  1.00  0.00     0.151 A 
HETATM    7  N4  UNL     1      -3.965   1.173  -0.049  1.00  0.00    -0.369 N 
HETATM    8  C12 UNL     1      -3.058   0.085  -0.013  1.00  0.00     0.172 A 
HETATM    9  N5  UNL     1      -3.168  -1.193   0.131  1.00  0.00    -0.042 NA
HETATM   10  H9  UNL     1      -4.987   1.119   0.033  1.00  0.00     0.161 HD
ENDROOT
BRANCH   3  11
HETATM   11  C2  UNL     1       0.802   0.184  -0.349  1.00  0.00     0.060 A 
HETATM   12  C3  UNL     1       1.382   1.204  -1.063  1.00  0.00     0.034 A 
HETATM   13  C4  UNL     1       2.731   1.472  -1.080  1.00  0.00     0.045 A 
HETATM   14  C5  UNL     1       3.592   0.686  -0.345  1.00  0.00     0.131 A 
HETATM   15  F1  UNL     1       4.913   0.985  -0.391  1.00  0.00    -0.205 F 
HETATM   16  C6  UNL     1       3.093  -0.362   0.400  1.00  0.00     0.088 A 
HETATM   17  C8  UNL     1       1.731  -0.575   0.373  1.00  0.00     0.051 A 
BRANCH  16  18
HETATM   18  C7  UNL     1       4.010  -1.218   1.196  1.00  0.00     0.420 C 
HETATM   19  F2  UNL     1       4.696  -0.464   2.140  1.00  0.00    -0.166 F 
HETATM   20  F3  UNL     1       4.914  -1.835   0.340  1.00  0.00    -0.166 F 
HETATM   21  F4  UNL     1       3.266  -2.160   1.884  1.00  0.00    -0.166 F 
ENDBRANCH  16  18
ENDBRANCH   3  11
BRANCH   1  22
HETATM   22  N1  UNL     1      -2.312  -3.426   0.293  1.00  0.00    -0.230 N 
HETATM   23  H1  UNL     1      -1.879  -4.126   0.918  1.00  0.00     0.174 HD
HETATM   24  H2  UNL     1      -3.079  -3.869  -0.267  1.00  0.00     0.174 HD
ENDBRANCH   1  22
TORSDOF 3
