REMARK  5 active torsions:
REMARK  status: ('A' for Active; 'I' for Inactive)
REMARK    1  A    between atoms: N1_1  and  C1_2 
REMARK    2  A    between atoms: C2_4  and  N3_5 
REMARK    3  A    between atoms: N3_5  and  C3_6 
REMARK    4  A    between atoms: C11_16  and  C12_17 
REMARK    5  A    between atoms: C12_17  and  C13_18 
ROOT
HETATM    1  C1  UNL     1       0.573  -1.604   1.922  1.00  0.00     0.698 C 
HETATM    2  N2  UNL     1       1.582  -0.740   1.894  1.00  0.00    -0.047 NA
HETATM    3  C2  UNL     1       1.685   0.051   0.665  1.00  0.00     0.155 C 
HETATM    4  C9  UNL     1       0.755  -0.242  -0.230  1.00  0.00     0.007 C 
HETATM    5  C10 UNL     1      -0.331   0.447  -0.921  1.00  0.00     0.017 C 
HETATM    6  C11 UNL     1      -1.444  -0.371  -0.741  1.00  0.00    -0.057 C 
HETATM    7  C19 UNL     1      -1.531  -1.657   0.161  1.00  0.00     0.176 C 
HETATM    8  N4  UNL     1      -0.210  -1.739   0.750  1.00  0.00    -0.208 N 
HETATM    9  C20 UNL     1       0.688  -1.800  -0.473  1.00  0.00     0.184 C 
ENDROOT
BRANCH   3  10
HETATM   10  N3  UNL     1       2.370   1.145   0.066  1.00  0.00    -0.338 N 
HETATM   11  H3  UNL     1       1.877   2.036  -0.145  1.00  0.00     0.167 HD
BRANCH  10  12
HETATM   12  C3  UNL     1       3.764   1.025  -0.242  1.00  0.00     0.072 A 
HETATM   13  C4  UNL     1       4.451   2.063  -0.827  1.00  0.00     0.034 A 
HETATM   14  C5  UNL     1       5.794   2.024  -1.153  1.00  0.00     0.026 A 
HETATM   15  C6  UNL     1       6.484   0.865  -0.870  1.00  0.00     0.037 A 
HETATM   16 CL1  UNL     1       8.192   0.731  -1.251  1.00  0.00    -0.084 Cl
HETATM   17  C7  UNL     1       5.812  -0.188  -0.282  1.00  0.00     0.068 A 
HETATM   18  C8  UNL     1       4.476  -0.123   0.031  1.00  0.00     0.144 A 
HETATM   19  F1  UNL     1       3.884  -1.194   0.609  1.00  0.00    -0.204 F 
ENDBRANCH  10  12
ENDBRANCH   3  10
BRANCH   1  20
HETATM   20  N1  UNL     1      -0.076  -2.435   2.868  1.00  0.00    -0.233 N 
HETATM   21  H1  UNL     1       0.386  -3.291   3.244  1.00  0.00     0.174 HD
HETATM   22  H2  UNL     1      -1.032  -2.238   3.235  1.00  0.00     0.174 HD
ENDBRANCH   1  20
BRANCH   6  23
HETATM   23  C12 UNL     1      -2.576   0.112  -1.484  1.00  0.00     0.074 C 
BRANCH  23  24
HETATM   24  C13 UNL     1      -3.761   0.440  -0.628  1.00  0.00    -0.054 A 
HETATM   25  C14 UNL     1      -4.690  -0.548  -0.370  1.00  0.00     0.007 A 
HETATM   26  C15 UNL     1      -5.757  -0.172   0.429  1.00  0.00     0.001 A 
HETATM   27  C16 UNL     1      -5.863   1.113   0.922  1.00  0.00     0.000 A 
HETATM   28  C17 UNL     1      -4.905   2.078   0.638  1.00  0.00     0.001 A 
HETATM   29  C18 UNL     1      -3.833   1.735  -0.153  1.00  0.00     0.007 A 
ENDBRANCH  23  24
ENDBRANCH   6  23
TORSDOF 5
