REMARK  5 active torsions:
REMARK  status: ('A' for Active; 'I' for Inactive)
REMARK    1  A    between atoms: N1_1  and  C1_2 
REMARK    2  A    between atoms: C1_2  and  C2_3 
REMARK    3  A    between atoms: C1_2  and  C13_17 
REMARK    4  A    between atoms: C13_17  and  C14_18 
REMARK    5  A    between atoms: C19_23  and  N4_24 
ROOT
HETATM    1  C1  UNL     1       0.366   0.229  -0.500  1.00  0.00     0.007 C 
ENDROOT
BRANCH   1   2
HETATM    2  N1  UNL     1       0.763  -0.738   0.477  1.00  0.00    -0.402 N 
HETATM    3  H1  UNL     1       0.425  -0.284   1.384  1.00  0.00     0.156 HD
HETATM    4  H2  UNL     1       1.251  -1.690   0.520  1.00  0.00     0.156 HD
ENDBRANCH   1   2
BRANCH   1   5
HETATM    5  C2  UNL     1      -0.647   0.145  -1.383  1.00  0.00     0.040 C 
HETATM    6  C3  UNL     1      -1.377  -1.038  -1.329  1.00  0.00     0.021 A 
HETATM    7  C4  UNL     1      -1.630  -2.455  -1.649  1.00  0.00     0.135 A 
HETATM    8  C6  UNL     1      -2.414  -1.115  -0.578  1.00  0.00     0.192 A 
HETATM    9  N2  UNL     1      -2.681  -2.744  -0.955  1.00  0.00    -0.157 N 
HETATM   10  C5  UNL     1      -3.673  -3.011  -0.298  1.00  0.00     0.393 A 
HETATM   11  N3  UNL     1      -3.322  -1.868  -0.157  1.00  0.00     0.136 N 
HETATM   12  C9  UNL     1      -4.281  -1.982   0.564  1.00  0.00     0.389 A 
HETATM   13  C8  UNL     1      -4.207  -0.595   1.001  1.00  0.00     0.030 A 
HETATM   14  F1  UNL     1      -5.227  -2.729   1.150  1.00  0.00    -0.197 F 
HETATM   15  C7  UNL     1      -3.066  -0.093   0.265  1.00  0.00     0.014 A 
HETATM   16  C10 UNL     1      -4.678   0.598   1.754  1.00  0.00     0.013 A 
HETATM   17  C12 UNL     1      -2.741   1.204   0.427  1.00  0.00     0.014 A 
HETATM   18  C11 UNL     1      -3.798   1.552   1.372  1.00  0.00     0.002 A 
ENDBRANCH   1   5
BRANCH   1  19
HETATM   19  C13 UNL     1       1.268   1.430  -0.604  1.00  0.00     0.097 C 
BRANCH  19  20
HETATM   20  C14 UNL     1       2.705   0.969  -0.670  1.00  0.00    -0.032 A 
HETATM   21  C15 UNL     1       3.429   0.736  -1.792  1.00  0.00     0.009 A 
HETATM   22  C16 UNL     1       4.725   0.285  -1.626  1.00  0.00     0.001 A 
HETATM   23  C17 UNL     1       5.314   0.060  -0.415  1.00  0.00     0.002 A 
HETATM   24  C18 UNL     1       4.589   0.291   0.744  1.00  0.00     0.024 A 
HETATM   25  C19 UNL     1       3.252   0.756   0.620  1.00  0.00     0.012 A 
BRANCH  25  26
HETATM   26  N4  UNL     1       2.756   0.940   1.963  1.00  0.00    -0.302 NA
HETATM   27  H14 UNL     1       2.231   1.835   1.730  1.00  0.00     0.124 HD
HETATM   28  H15 UNL     1       2.188   1.829   1.890  1.00  0.00     0.124 HD
ENDBRANCH  25  26
ENDBRANCH  19  20
ENDBRANCH   1  19
TORSDOF 5
