REMARK  8 active torsions:
REMARK  status: ('A' for Active; 'I' for Inactive)
REMARK    1  A    between atoms: N1_1  and  C1_2 
REMARK    2  A    between atoms: C1_2  and  C13_20 
REMARK    3  A    between atoms: C2_3  and  C3_4 
REMARK    4  A    between atoms: C5_7  and  N3_8 
REMARK    5  A    between atoms: C6_10  and  N5_11 
REMARK    6  A    between atoms: N5_11  and  C7_12 
REMARK    7  A    between atoms: C13_20  and  C14_21 
REMARK    8  A    between atoms: C14_21  and  C15_22 
ROOT
HETATM    1  C3  UNL     1      -0.932  -1.445  -0.713  1.00  0.00     0.030 A 
HETATM    2  C4  UNL     1      -0.951  -2.527  -1.563  1.00  0.00     0.151 A 
HETATM    3  N2  UNL     1      -1.497  -2.245  -2.784  1.00  0.00    -0.074 NA
HETATM    4  C5  UNL     1      -1.949  -1.004  -3.049  1.00  0.00     0.721 A 
HETATM    5  N4  UNL     1      -1.905   0.036  -2.162  1.00  0.00    -0.044 NA
HETATM    6  C6  UNL     1      -1.386  -0.153  -0.944  1.00  0.00     0.159 A 
ENDROOT
BRANCH   1   7
HETATM    7  C2  UNL     1      -0.348  -1.605   0.615  1.00  0.00     0.041 C 
HETATM    8  C1  UNL     1       0.771  -2.277   0.774  1.00  0.00     0.004 C 
BRANCH   8   9
HETATM    9  N1  UNL     1       1.444  -2.862  -0.329  1.00  0.00    -0.402 N 
HETATM   10  H1  UNL     1       2.113  -2.769  -1.132  1.00  0.00     0.156 HD
HETATM   11  H2  UNL     1       1.918  -3.329  -1.129  1.00  0.00     0.156 HD
ENDBRANCH   8   9
BRANCH   8  12
HETATM   12  C13 UNL     1       1.617  -2.613   1.943  1.00  0.00     0.060 C 
BRANCH  12  13
HETATM   13  C14 UNL     1       3.000  -2.009   1.742  1.00  0.00     0.034 C 
BRANCH  13  14
HETATM   14  C15 UNL     1       2.862  -0.511   1.610  1.00  0.00    -0.015 C 
HETATM   15  C16 UNL     1       3.190   0.345   0.621  1.00  0.00    -0.039 A 
HETATM   16  C17 UNL     1       2.850   1.706   0.974  1.00  0.00     0.007 A 
HETATM   17  C20 UNL     1       3.788  -0.176  -0.591  1.00  0.00     0.023 A 
HETATM   18  C18 UNL     1       3.138   2.600   0.027  1.00  0.00    -0.021 A 
HETATM   19  C19 UNL     1       3.715   2.688  -1.332  1.00  0.00     0.070 A 
HETATM   20  P1  UNL     1       4.156   0.916  -1.782  1.00  0.00    -0.057 P 
ENDBRANCH  13  14
ENDBRANCH  12  13
ENDBRANCH   8  12
ENDBRANCH   1   7
BRANCH   6  21
HETATM   21  N5  UNL     1      -1.317   0.864   0.054  1.00  0.00    -0.337 N 
HETATM   22  H7  UNL     1      -0.410   1.233   0.366  1.00  0.00     0.167 HD
BRANCH  21  23
HETATM   23  C7  UNL     1      -2.561   1.346   0.605  1.00  0.00     0.072 A 
HETATM   24  C8  UNL     1      -3.745   0.817   0.107  1.00  0.00     0.034 A 
HETATM   25  C9  UNL     1      -4.827   1.376   0.723  1.00  0.00     0.026 A 
HETATM   26  C10 UNL     1      -4.979   2.311   1.689  1.00  0.00     0.037 A 
HETATM   27 CL1  UNL     1      -6.418   2.951   2.405  1.00  0.00    -0.084 Cl
HETATM   28  C11 UNL     1      -3.713   2.761   2.103  1.00  0.00     0.068 A 
HETATM   29  C12 UNL     1      -2.473   2.328   1.612  1.00  0.00     0.144 A 
HETATM   30  F1  UNL     1      -1.303   2.801   2.052  1.00  0.00    -0.204 F 
ENDBRANCH  21  23
ENDBRANCH   6  21
BRANCH   4  31
HETATM   31  N3  UNL     1      -2.507  -0.773  -4.326  1.00  0.00    -0.231 N 
HETATM   32  H5  UNL     1      -3.206   0.025  -4.436  1.00  0.00     0.174 HD
HETATM   33  H6  UNL     1      -2.901  -0.619  -5.255  1.00  0.00     0.174 HD
ENDBRANCH   4  31
TORSDOF 8
