REMARK  5 active torsions:
REMARK  status: ('A' for Active; 'I' for Inactive)
REMARK    1  A    between atoms: O1_1  and  C1_2 
REMARK    2  A    between atoms: C6_8  and  N1_9 
REMARK    3  A    between atoms: N1_9  and  C7_10 
REMARK    4  A    between atoms: C10_15  and  N4_16 
REMARK    5  A    between atoms: N4_16  and  C11_17 
ROOT
HETATM    1  C7  UNL     1      -0.626   1.812  -0.282  1.00  0.00     0.093 A 
HETATM    2  C8  UNL     1      -0.941   3.178  -0.261  1.00  0.00     0.151 A 
HETATM    3  N2  UNL     1       0.042   4.058  -0.030  1.00  0.00    -0.252 NA
HETATM    4  C9  UNL     1       1.296   3.630   0.176  1.00  0.00     0.235 A 
HETATM    5  N3  UNL     1       1.568   2.325   0.150  1.00  0.00    -0.222 NA
HETATM    6  C10 UNL     1       0.654   1.378  -0.072  1.00  0.00     0.157 A 
ENDROOT
BRANCH   1   7
HETATM    7  N1  UNL     1      -1.588   0.798  -0.526  1.00  0.00    -0.375 N 
HETATM    8  H7  UNL     1      -2.502   1.288  -0.696  1.00  0.00     0.160 HD
BRANCH   7   9
HETATM    9  C6  UNL     1      -2.028  -0.536  -0.670  1.00  0.00     0.145 A 
HETATM   10  C1  UNL     1      -3.443  -0.700  -1.141  1.00  0.00     0.066 A 
HETATM   11  C2  UNL     1      -4.571  -1.215  -0.695  1.00  0.00     0.037 A 
HETATM   12  C3  UNL     1      -4.507  -1.818   0.628  1.00  0.00     0.040 A 
HETATM   13  C4  UNL     1      -3.293  -1.729   1.136  1.00  0.00     0.096 A 
HETATM   14  F1  UNL     1      -3.219  -2.286   2.368  1.00  0.00    -0.211 F 
HETATM   15  C5  UNL     1      -1.998  -1.189   0.714  1.00  0.00     0.102 A 
BRANCH  10  16
HETATM   16  O1  UNL     1      -3.470  -0.110  -2.417  1.00  0.00    -0.363 OA
HETATM   17  H1  UNL     1      -3.408   0.900  -2.475  1.00  0.00     0.217 HD
ENDBRANCH  10  16
ENDBRANCH   7   9
ENDBRANCH   1   7
BRANCH   6  18
HETATM   18  N4  UNL     1       1.212   0.091  -0.072  1.00  0.00    -0.339 N 
HETATM   19  H10 UNL     1       0.580  -0.692  -0.311  1.00  0.00     0.167 HD
BRANCH  18  20
HETATM   20  C11 UNL     1       2.539  -0.307   0.209  1.00  0.00     0.035 A 
HETATM   21  C12 UNL     1       3.489   0.424   0.885  1.00  0.00     0.029 A 
HETATM   22  C13 UNL     1       4.778   0.025   1.120  1.00  0.00     0.004 A 
HETATM   23  C14 UNL     1       5.147  -1.200   0.642  1.00  0.00     0.019 A 
HETATM   24  C15 UNL     1       4.275  -1.998  -0.040  1.00  0.00     0.013 A 
HETATM   25 BR1  UNL     1       4.848  -3.701  -0.683  1.00  0.00    -0.051 Br
HETATM   26  C16 UNL     1       3.001  -1.525  -0.234  1.00  0.00     0.048 A 
ENDBRANCH  18  20
ENDBRANCH   6  18
TORSDOF 5
