REMARK  7 active torsions:
REMARK  status: ('A' for Active; 'I' for Inactive)
REMARK    1  A    between atoms: C4_5  and  C5_6 
REMARK    2  A    between atoms: C6_7  and  N2_8 
REMARK    3  A    between atoms: C6_7  and  C7_9 
REMARK    4  A    between atoms: C7_9  and  C8_10 
REMARK    5  A    between atoms: C13_15  and  N3_16 
REMARK    6  A    between atoms: C14_17  and  N4_18 
REMARK    7  A    between atoms: N4_18  and  C15_19 
ROOT
HETATM    1  C5  UNL     1      -0.483  -0.138   0.178  1.00  0.00     0.041 C 
HETATM    2  C6  UNL     1      -1.585   0.150   0.847  1.00  0.00     0.008 C 
ENDROOT
BRANCH   1   3
HETATM    3  C4  UNL     1       0.572   0.791  -0.136  1.00  0.00     0.029 A 
HETATM    4  C3  UNL     1       0.358   2.114  -0.465  1.00  0.00     0.134 A 
HETATM    5  N1  UNL     1       1.388   2.954  -0.754  1.00  0.00    -0.245 NA
HETATM    6  C2  UNL     1       2.666   2.523  -0.730  1.00  0.00     0.124 A 
HETATM    7  C1  UNL     1       3.789   3.443  -1.047  1.00  0.00     0.093 C 
HETATM    8  N5  UNL     1       2.890   1.233  -0.410  1.00  0.00    -0.215 NA
HETATM    9  C14 UNL     1       1.895   0.370  -0.117  1.00  0.00     0.141 A 
BRANCH   9  10
HETATM   10  N4  UNL     1       2.266  -0.977   0.208  1.00  0.00    -0.344 N 
HETATM   11  H16 UNL     1       1.529  -1.686   0.443  1.00  0.00     0.167 HD
BRANCH  10  12
HETATM   12  C15 UNL     1       3.637  -1.409   0.228  1.00  0.00     0.014 A 
HETATM   13  C16 UNL     1       4.711  -0.733   0.603  1.00  0.00     0.025 A 
HETATM   14  C17 UNL     1       5.915  -1.546   0.467  1.00  0.00    -0.002 A 
HETATM   15  C18 UNL     1       5.527  -2.738  -0.004  1.00  0.00    -0.021 A 
HETATM   16  C19 UNL     1       4.056  -2.788  -0.207  1.00  0.00     0.084 A 
ENDBRANCH  10  12
ENDBRANCH   9  10
ENDBRANCH   1   3
BRANCH   2  17
HETATM   17  N2  UNL     1      -1.882   1.434   1.355  1.00  0.00    -0.402 N 
HETATM   18  H6  UNL     1      -1.872   2.280   1.955  1.00  0.00     0.156 HD
HETATM   19  H7  UNL     1      -2.615   1.856   0.712  1.00  0.00     0.156 HD
ENDBRANCH   2  17
BRANCH   2  20
HETATM   20  C7  UNL     1      -2.606  -0.895   1.110  1.00  0.00     0.097 C 
BRANCH  20  21
HETATM   21  C8  UNL     1      -3.907  -0.498   0.497  1.00  0.00    -0.026 A 
HETATM   22  C9  UNL     1      -5.048  -0.002   1.095  1.00  0.00     0.010 A 
HETATM   23  C10 UNL     1      -6.126   0.290   0.307  1.00  0.00     0.001 A 
HETATM   24  C11 UNL     1      -6.150   0.123  -1.049  1.00  0.00     0.002 A 
HETATM   25  C12 UNL     1      -5.003  -0.378  -1.674  1.00  0.00     0.029 A 
HETATM   26  C13 UNL     1      -3.896  -0.681  -0.884  1.00  0.00     0.032 A 
BRANCH  26  27
HETATM   27  N3  UNL     1      -2.783  -1.189  -1.647  1.00  0.00    -0.399 N 
HETATM   28  H14 UNL     1      -2.517  -2.204  -1.658  1.00  0.00     0.156 HD
HETATM   29  H15 UNL     1      -2.050  -0.781  -2.292  1.00  0.00     0.156 HD
ENDBRANCH  26  27
ENDBRANCH  20  21
ENDBRANCH   2  20
TORSDOF 7
