REMARK  5 active torsions:
REMARK  status: ('A' for Active; 'I' for Inactive)
REMARK    1  A    between atoms: C2_2  and  C3_3 
REMARK    2  A    between atoms: C8_8  and  C9_9 
REMARK    3  A    between atoms: C9_9  and  C10_10 
REMARK    4  A    between atoms: N1_13  and  C13_14 
REMARK    5  A    between atoms: C16_17  and  N2_18 
ROOT
HETATM    1  C10 UNL     1      -0.427  -0.488   0.235  1.00  0.00     0.053 A 
HETATM    2  C11 UNL     1       0.087   0.412  -0.831  1.00  0.00     0.002 A 
HETATM    3  C12 UNL     1       1.347   0.718  -1.097  1.00  0.00     0.115 A 
HETATM    4  N1  UNL     1       2.317   0.116  -0.268  1.00  0.00    -0.245 N 
HETATM    5  N3  UNL     1       2.011  -0.761   0.787  1.00  0.00    -0.184 NA
HETATM    6  C18 UNL     1       0.758  -1.001   0.973  1.00  0.00     0.120 A 
ENDROOT
BRANCH   1   7
HETATM    7  C9  UNL     1      -1.250   0.286   1.232  1.00  0.00     0.027 C 
BRANCH   7   8
HETATM    8  C8  UNL     1      -2.447   0.975   0.670  1.00  0.00     0.041 C 
HETATM    9  C3  UNL     1      -3.424   0.100   0.040  1.00  0.00    -0.058 C 
HETATM   10  C4  UNL     1      -4.387  -0.530   0.686  1.00  0.00    -0.016 C 
HETATM   11  C5  UNL     1      -4.341  -0.234   2.119  1.00  0.00     0.054 C 
HETATM   12  C6  UNL     1      -3.955   1.137   2.469  1.00  0.00    -0.026 C 
HETATM   13  C7  UNL     1      -3.021   1.790   1.787  1.00  0.00    -0.021 C 
BRANCH   9  14
HETATM   14  C2  UNL     1      -3.391  -0.136  -1.399  1.00  0.00    -0.019 C 
HETATM   15  C1  UNL     1      -3.140  -0.174  -2.676  1.00  0.00     0.031 C 
ENDBRANCH   9  14
ENDBRANCH   7   8
ENDBRANCH   1   7
BRANCH   4  16
HETATM   16  C13 UNL     1       3.692   0.399  -0.495  1.00  0.00     0.071 C 
HETATM   17  C14 UNL     1       4.436   1.460  -0.338  1.00  0.00     0.007 C 
HETATM   18  C15 UNL     1       5.725   1.270  -0.401  1.00  0.00     0.043 C 
HETATM   19  C16 UNL     1       5.828  -0.092  -0.959  1.00  0.00     0.028 C 
HETATM   20  C17 UNL     1       4.598  -0.620  -1.016  1.00  0.00     0.061 C 
BRANCH  19  21
HETATM   21  N2  UNL     1       7.049  -0.738  -1.370  1.00  0.00    -0.399 N 
HETATM   22  H16 UNL     1       7.473  -0.821  -2.335  1.00  0.00     0.156 HD
HETATM   23  H17 UNL     1       7.519  -1.160  -0.524  1.00  0.00     0.156 HD
ENDBRANCH  19  21
ENDBRANCH   4  16
TORSDOF 5
