REMARK  9 active torsions:
REMARK  status: ('A' for Active; 'I' for Inactive)
REMARK    1  A    between atoms: C2_2  and  C3_3 
REMARK    2  A    between atoms: C2_2  and  N1_12 
REMARK    3  A    between atoms: C3_3  and  C4_4 
REMARK    4  A    between atoms: C4_4  and  C5_5 
REMARK    5  A    between atoms: C5_5  and  C6_6 
REMARK    6  A    between atoms: N1_12  and  C11_13 
REMARK    7  A    between atoms: C13_15  and  N2_16 
REMARK    8  A    between atoms: N2_16  and  C14_17 
REMARK    9  A    between atoms: C17_20  and  N3_21 
ROOT
HETATM    1  C11 UNL     1      -0.176   0.165  -0.877  1.00  0.00     0.132 A 
HETATM    2  C12 UNL     1       0.894   0.997  -1.121  1.00  0.00     0.100 A 
HETATM    3  C13 UNL     1       2.085   0.444  -1.529  1.00  0.00     0.133 A 
HETATM    4  N4  UNL     1       2.192  -0.901  -1.683  1.00  0.00    -0.224 NA
HETATM    5  C22 UNL     1       1.160  -1.718  -1.448  1.00  0.00     0.237 A 
HETATM    6  N5  UNL     1       0.007  -1.161  -1.053  1.00  0.00    -0.224 NA
ENDROOT
BRANCH   1   7
HETATM    7  N1  UNL     1      -1.432   0.738  -0.459  1.00  0.00    -0.345 N 
HETATM    8  H13 UNL     1      -1.487   1.776  -0.344  1.00  0.00     0.167 HD
BRANCH   7   9
HETATM    9  C2  UNL     1      -2.443  -0.266  -0.254  1.00  0.00     0.001 C 
HETATM   10  C1  UNL     1      -2.730  -0.810  -1.414  1.00  0.00     0.038 C 
BRANCH   9  11
HETATM   11  C3  UNL     1      -2.991  -0.595   1.051  1.00  0.00     0.056 C 
BRANCH  11  12
HETATM   12  C4  UNL     1      -3.916  -1.762   1.106  1.00  0.00     0.010 C 
BRANCH  12  13
HETATM   13  C5  UNL     1      -5.112  -1.546   0.239  1.00  0.00     0.035 C 
BRANCH  13  14
HETATM   14  C6  UNL     1      -5.917  -0.382   0.598  1.00  0.00    -0.075 C 
HETATM   15  C7  UNL     1      -6.053   0.535  -0.308  1.00  0.00     0.004 C 
HETATM   16  C8  UNL     1      -6.852   1.691   0.043  1.00  0.00     0.014 C 
HETATM   17  C9  UNL     1      -7.625   1.968   1.019  1.00  0.00    -0.015 C 
HETATM   18  P1  UNL     1      -7.922   0.703   2.047  1.00  0.00    -0.045 P 
HETATM   19  C10 UNL     1      -6.452  -0.465   1.969  1.00  0.00     0.078 C 
ENDBRANCH  13  14
ENDBRANCH  12  13
ENDBRANCH  11  12
ENDBRANCH   9  11
ENDBRANCH   7   9
ENDBRANCH   1   7
BRANCH   3  20
HETATM   20  N2  UNL     1       3.319   1.083  -1.830  1.00  0.00    -0.341 N 
HETATM   21  H15 UNL     1       3.445   1.640  -2.700  1.00  0.00     0.167 HD
BRANCH  20  22
HETATM   22  C14 UNL     1       4.368   0.922  -0.866  1.00  0.00     0.035 A 
HETATM   23  C15 UNL     1       5.600   0.668  -1.343  1.00  0.00     0.044 A 
HETATM   24  C16 UNL     1       6.539   0.534  -0.235  1.00  0.00     0.003 A 
HETATM   25  C17 UNL     1       7.744   0.325   0.287  1.00  0.00     0.037 A 
HETATM   26  C20 UNL     1       5.692   0.743   0.964  1.00  0.00    -0.021 A 
HETATM   27  C18 UNL     1       7.755   0.380   1.751  1.00  0.00     0.031 A 
HETATM   28  C19 UNL     1       6.521   0.632   2.170  1.00  0.00     0.014 A 
HETATM   29  C21 UNL     1       4.458   0.963   0.580  1.00  0.00     0.042 A 
BRANCH  25  30
HETATM   30  N3  UNL     1       8.890   0.074  -0.523  1.00  0.00    -0.398 N 
HETATM   31  H17 UNL     1       9.185   0.934  -1.069  1.00  0.00     0.156 HD
HETATM   32  H18 UNL     1       9.394  -0.846  -0.584  1.00  0.00     0.156 HD
ENDBRANCH  25  30
ENDBRANCH  20  22
ENDBRANCH   3  20
TORSDOF 9
