REMARK  5 active torsions:
REMARK  status: ('A' for Active; 'I' for Inactive)
REMARK    1  A    between atoms: C4_7  and  N4_8 
REMARK    2  A    between atoms: N4_8  and  C5_9 
REMARK    3  A    between atoms: C5_9  and  C6_10 
REMARK    4  A    between atoms: C6_10  and  C7_11 
REMARK    5  A    between atoms: C7_11  and  C8_12 
ROOT
HETATM    1  C1  UNL     1       2.191   2.194   1.623  1.00  0.00     0.005 C 
HETATM    2  C2  UNL     1       2.861   2.934   0.672  1.00  0.00     0.110 C 
HETATM    3  N1  UNL     1       3.161   2.030  -0.468  1.00  0.00    -0.265 N 
HETATM    4  N2  UNL     1       2.219   2.395  -1.519  1.00  0.00    -0.165 NA
HETATM    5  C3  UNL     1       0.931   1.928  -1.562  1.00  0.00     0.257 C 
HETATM    6  N3  UNL     1      -0.006   1.505  -0.507  1.00  0.00    -0.227 NA
HETATM    7  C4  UNL     1       0.354   0.866   0.605  1.00  0.00     0.109 C 
HETATM    8  C14 UNL     1       1.286   0.985   1.738  1.00  0.00     0.084 C 
HETATM    9  C15 UNL     1       1.992  -0.239   2.177  1.00  0.00     0.069 C 
HETATM   10  P1  UNL     1       2.426  -1.523   0.987  1.00  0.00    -0.033 P 
HETATM   11  N5  UNL     1       4.210  -1.702   0.660  1.00  0.00    -0.386 N 
HETATM   12  C16 UNL     1       4.408  -0.518  -0.182  1.00  0.00     0.065 A 
HETATM   13  C17 UNL     1       3.948  -1.043  -1.345  1.00  0.00    -0.011 A 
HETATM   14  C18 UNL     1       3.779   0.316  -1.342  1.00  0.00     0.074 A 
HETATM   15  C19 UNL     1       4.193   0.981  -0.241  1.00  0.00     0.086 A 
HETATM   16  C20 UNL     1       4.698   1.336   0.962  1.00  0.00    -0.009 A 
HETATM   17  C21 UNL     1       4.873  -0.024   0.985  1.00  0.00     0.074 A 
HETATM   18  H19 UNL     1       1.638  -1.617  -0.197  1.00  0.00     0.080 HD
HETATM   19  H20 UNL     1       4.120  -2.556   1.254  1.00  0.00     0.159 HD
ENDROOT
BRANCH   7  20
HETATM   20  N4  UNL     1      -0.382  -0.356   0.858  1.00  0.00    -0.378 N 
HETATM   21  H4  UNL     1      -0.194  -1.017   1.635  1.00  0.00     0.160 HD
BRANCH  20  22
HETATM   22  C5  UNL     1      -1.491  -0.716  -0.040  1.00  0.00     0.121 C 
BRANCH  22  23
HETATM   23  C6  UNL     1      -2.144  -2.014   0.368  1.00  0.00     0.024 C 
BRANCH  23  24
HETATM   24  C7  UNL     1      -3.268  -2.280  -0.628  1.00  0.00     0.040 C 
BRANCH  24  25
HETATM   25  C8  UNL     1      -4.268  -1.178  -0.607  1.00  0.00    -0.058 A 
HETATM   26  C9  UNL     1      -4.252  -0.038  -1.379  1.00  0.00     0.007 A 
HETATM   27  C10 UNL     1      -5.264   0.907  -1.242  1.00  0.00     0.001 A 
HETATM   28  C11 UNL     1      -6.302   0.741  -0.345  1.00  0.00     0.000 A 
HETATM   29  C12 UNL     1      -6.331  -0.397   0.436  1.00  0.00     0.001 A 
HETATM   30  C13 UNL     1      -5.325  -1.322   0.290  1.00  0.00     0.007 A 
ENDBRANCH  24  25
ENDBRANCH  23  24
ENDBRANCH  22  23
ENDBRANCH  20  22
ENDBRANCH   7  20
TORSDOF 5
