REMARK  1 active torsions:
REMARK  status: ('A' for Active; 'I' for Inactive)
REMARK    1  A    between atoms: C3_3  and  C4_5 
ROOT
HETATM    1  C4  UNL     1       1.152   0.693  -0.634  1.00  0.00     0.337 C 
HETATM    2  N1  UNL     1       1.593  -0.164  -1.698  1.00  0.00    -0.036 NA
HETATM    3  C5  UNL     1       1.228  -1.154  -0.860  1.00  0.00     0.735 C 
HETATM    4  N2  UNL     1       1.723  -2.429  -0.149  1.00  0.00    -0.056 NA
HETATM    5  C6  UNL     1       1.653  -2.443   1.266  1.00  0.00     0.255 C 
HETATM    6  N3  UNL     1       0.899  -1.065   1.896  1.00  0.00    -0.216 NA
HETATM    7  C7  UNL     1      -0.024  -0.775   0.862  1.00  0.00     0.182 C 
HETATM    8  O1  UNL     1       1.337  -0.076   0.666  1.00  0.00    -0.273 OA
HETATM    9  C8  UNL     1      -1.390  -1.025   0.244  1.00  0.00     0.045 A 
HETATM   10  C9  UNL     1      -2.523  -1.637   0.823  1.00  0.00     0.019 A 
HETATM   11  C10 UNL     1      -3.582  -1.578  -0.030  1.00  0.00     0.020 A 
HETATM   12  C11 UNL     1      -3.568  -1.009  -1.275  1.00  0.00     0.013 A 
HETATM   13 BR1  UNL     1      -5.119  -0.989  -2.376  1.00  0.00    -0.051 Br
HETATM   14  C12 UNL     1      -2.476  -0.413  -1.847  1.00  0.00     0.050 A 
HETATM   15  C13 UNL     1      -1.389  -0.425  -1.079  1.00  0.00     0.073 A 
HETATM   16  N4  UNL     1      -0.060  -0.071  -0.909  1.00  0.00    -0.116 N 
ENDROOT
BRANCH   1  17
HETATM   17  C3  UNL     1       1.292   2.043  -0.676  1.00  0.00     0.171 C 
HETATM   18  C2  UNL     1       1.962   2.802   0.167  1.00  0.00     0.014 C 
HETATM   19  C1  UNL     1       2.793   2.759   1.391  1.00  0.00     0.039 C 
HETATM   20  F1  UNL     1       0.602   2.475  -1.765  1.00  0.00    -0.204 F 
ENDBRANCH   1  17
TORSDOF 1
