REMARK  5 active torsions:
REMARK  status: ('A' for Active; 'I' for Inactive)
REMARK    1  A    between atoms: C1_2  and  N2_3 
REMARK    2  A    between atoms: N2_3  and  C2_4 
REMARK    3  A    between atoms: C3_5  and  C4_6 
REMARK    4  A    between atoms: C4_6  and  C5_7 
REMARK    5  A    between atoms: N3_16  and  C14_17 
ROOT
HETATM    1  C2  UNL     1      -0.079  -0.616   0.089  1.00  0.00     0.142 A 
HETATM    2  C3  UNL     1       0.770  -1.278   0.942  1.00  0.00    -0.008 A 
HETATM    3  C11 UNL     1       0.462  -1.539   2.256  1.00  0.00     0.012 A 
HETATM    4  C12 UNL     1      -0.780  -1.085   2.679  1.00  0.00     0.018 A 
HETATM    5  C13 UNL     1      -1.628  -0.421   1.820  1.00  0.00     0.099 A 
HETATM    6  N3  UNL     1      -1.302  -0.179   0.538  1.00  0.00    -0.309 N 
ENDROOT
BRANCH   6   7
HETATM    7  C14 UNL     1      -2.287   0.539  -0.191  1.00  0.00     0.031 C 
HETATM    8  C15 UNL     1      -2.172   0.987  -1.431  1.00  0.00     0.028 C 
HETATM    9  C16 UNL     1      -3.325   1.719  -1.927  1.00  0.00     0.028 C 
HETATM   10  C17 UNL     1      -4.199   1.734  -0.936  1.00  0.00     0.022 A 
HETATM   11  N4  UNL     1      -5.455   2.090  -0.313  1.00  0.00    -0.369 N 
HETATM   12  C20 UNL     1      -3.673   0.767   0.021  1.00  0.00     0.110 A 
HETATM   13  C18 UNL     1      -5.538   1.446   0.977  1.00  0.00     0.085 A 
HETATM   14  H15 UNL     1      -6.032   2.740  -0.934  1.00  0.00     0.165 HD
HETATM   15  C19 UNL     1      -4.457   0.674   1.199  1.00  0.00     0.007 A 
ENDBRANCH   6   7
BRANCH   1  16
HETATM   16  N2  UNL     1       0.074  -0.334  -1.111  1.00  0.00    -0.224 NA
BRANCH  16  17
HETATM   17  C1  UNL     1       1.101  -0.565  -2.001  1.00  0.00     0.225 C 
HETATM   18  N1  UNL     1       1.656  -1.188  -2.963  1.00  0.00    -0.293 NA
HETATM   19  H1  UNL     1       1.262  -2.002  -3.492  1.00  0.00     0.187 HD
ENDBRANCH  16  17
ENDBRANCH   1  16
BRANCH   2  20
HETATM   20  C4  UNL     1       2.084  -1.735   0.455  1.00  0.00     0.077 C 
BRANCH  20  21
HETATM   21  C5  UNL     1       3.089  -0.644   0.342  1.00  0.00    -0.063 C 
HETATM   22  C6  UNL     1       2.819   0.612   0.669  1.00  0.00    -0.011 C 
HETATM   23  C7  UNL     1       3.804   1.385   1.001  1.00  0.00    -0.018 C 
HETATM   24  C8  UNL     1       4.899   1.344   0.274  1.00  0.00    -0.013 C 
HETATM   25  C9  UNL     1       5.015   0.273  -0.777  1.00  0.00     0.032 C 
HETATM   26  C10 UNL     1       4.451  -0.988  -0.154  1.00  0.00     0.039 C 
ENDBRANCH  20  21
ENDBRANCH   2  20
TORSDOF 5
