REMARK  5 active torsions:
REMARK  status: ('A' for Active; 'I' for Inactive)
REMARK    1  A    between atoms: C5_5  and  C6_6 
REMARK    2  A    between atoms: C11_12  and  O1_13 
REMARK    3  A    between atoms: C14_17  and  O2_18 
REMARK    4  A    between atoms: O2_18  and  C15_19 
REMARK    5  A    between atoms: C15_19  and  N2_20 
ROOT
HETATM    1  C1  UNL     1       2.584   1.384   2.568  1.00  0.00     0.048 C 
HETATM    2  C2  UNL     1       2.098   0.830   1.256  1.00  0.00    -0.037 A 
HETATM    3  C3  UNL     1       0.877   0.568   0.792  1.00  0.00    -0.003 A 
HETATM    4  C4  UNL     1      -0.576   0.500   0.853  1.00  0.00     0.023 A 
HETATM    5  C5  UNL     1      -1.338   0.059  -0.133  1.00  0.00    -0.025 A 
HETATM    6  C12 UNL     1      -0.686  -0.390  -1.361  1.00  0.00     0.188 A 
HETATM    7  N1  UNL     1       0.731  -0.299  -1.356  1.00  0.00    -0.286 NA
HETATM    8  C13 UNL     1       1.518   0.109  -0.459  1.00  0.00     0.072 A 
HETATM    9  C14 UNL     1       2.874   0.402   0.063  1.00  0.00     0.205 A 
ENDROOT
BRANCH   5  10
HETATM   10  C6  UNL     1      -2.770   0.024   0.005  1.00  0.00     0.006 A 
HETATM   11  C7  UNL     1      -3.475   0.423   1.118  1.00  0.00     0.015 A 
HETATM   12  C8  UNL     1      -4.847   0.390   1.252  1.00  0.00     0.002 A 
HETATM   13  C9  UNL     1      -5.599  -0.074   0.207  1.00  0.00     0.022 A 
HETATM   14  C10 UNL     1      -4.956  -0.491  -0.938  1.00  0.00     0.044 A 
HETATM   15 BR1  UNL     1      -6.061  -1.126  -2.356  1.00  0.00    -0.048 Br
HETATM   16  C11 UNL     1      -3.580  -0.434  -1.013  1.00  0.00     0.093 A 
BRANCH  16  17
HETATM   17  O1  UNL     1      -3.078  -0.885  -2.224  1.00  0.00    -0.358 OA
HETATM   18  H8  UNL     1      -3.451  -0.460  -3.066  1.00  0.00     0.217 HD
ENDBRANCH  16  17
ENDBRANCH   5  10
BRANCH   9  19
HETATM   19  O2  UNL     1       3.639  -0.722   0.363  1.00  0.00    -0.347 OA
BRANCH  19  20
HETATM   20  C15 UNL     1       4.950  -0.580  -0.098  1.00  0.00     0.435 C 
BRANCH  20  21
HETATM   21  N2  UNL     1       5.667  -1.787   0.256  1.00  0.00     0.101 N 
HETATM   22  H14 UNL     1       5.037  -2.525   0.652  1.00  0.00     0.315 HD
HETATM   23  H15 UNL     1       6.377  -1.550   0.979  1.00  0.00     0.315 HD
ENDBRANCH  20  21
ENDBRANCH  19  20
ENDBRANCH   9  19
TORSDOF 5
