REMARK  3 active torsions:
REMARK  status: ('A' for Active; 'I' for Inactive)
REMARK    1  A    between atoms: O1_2  and  C2_3 
REMARK    2  A    between atoms: C7_11  and  N3_12 
REMARK    3  A    between atoms: N3_12  and  C8_13 
ROOT
HETATM    1  C2  UNL     1      -2.050  -0.607  -0.143  1.00  0.00     0.183 C 
HETATM    2  C3  UNL     1      -3.434  -0.334  -0.752  1.00  0.00     0.205 C 
HETATM    3  O2  UNL     1      -4.163   0.553   0.008  1.00  0.00    -0.382 OA
HETATM    4  C4  UNL     1      -3.639   1.841  -0.017  1.00  0.00     0.227 C 
HETATM    5  C5  UNL     1      -2.166   1.799  -0.042  1.00  0.00     0.072 A 
HETATM    6  N1  UNL     1      -1.626   3.049   0.002  1.00  0.00    -0.243 NA
HETATM    7  C6  UNL     1      -0.277   3.203  -0.011  1.00  0.00     0.235 A 
HETATM    8  N2  UNL     1       0.488   2.117  -0.066  1.00  0.00    -0.224 NA
HETATM    9  C7  UNL     1       0.036   0.859  -0.111  1.00  0.00     0.140 A 
HETATM   10  C14 UNL     1      -1.344   0.695  -0.098  1.00  0.00     0.045 A 
ENDROOT
BRANCH   9  11
HETATM   11  N3  UNL     1       0.831  -0.312  -0.168  1.00  0.00    -0.340 N 
HETATM   12  H10 UNL     1       0.350  -1.238  -0.192  1.00  0.00     0.167 HD
BRANCH  11  13
HETATM   13  C8  UNL     1       2.245  -0.389  -0.197  1.00  0.00     0.035 A 
HETATM   14  C9  UNL     1       3.119   0.668  -0.182  1.00  0.00     0.029 A 
HETATM   15  C10 UNL     1       4.492   0.582  -0.210  1.00  0.00     0.004 A 
HETATM   16  C11 UNL     1       5.069  -0.661  -0.258  1.00  0.00     0.019 A 
HETATM   17  C12 UNL     1       4.254  -1.763  -0.275  1.00  0.00     0.013 A 
HETATM   18 BR1  UNL     1       5.026  -3.497  -0.341  1.00  0.00    -0.051 Br
HETATM   19  C13 UNL     1       2.887  -1.610  -0.246  1.00  0.00     0.048 A 
ENDBRANCH  11  13
ENDBRANCH   9  11
BRANCH   1  20
HETATM   20  O1  UNL     1      -2.286  -0.990   1.154  1.00  0.00    -0.384 OA
HETATM   21  C1  UNL     1      -1.894  -2.265   1.475  1.00  0.00     0.202 C 
ENDBRANCH   1  20
TORSDOF 3
