REMARK  7 active torsions:
REMARK  status: ('A' for Active; 'I' for Inactive)
REMARK    1  A    between atoms: C2_2  and  C3_3 
REMARK    2  A    between atoms: C7_8  and  C8_9 
REMARK    3  A    between atoms: C8_9  and  N2_10 
REMARK    4  A    between atoms: N2_10  and  N3_11 
REMARK    5  A    between atoms: C10_14  and  N5_15 
REMARK    6  A    between atoms: C15_22  and  C16_23 
REMARK    7  A    between atoms: C16_23  and  C17_24 
ROOT
HETATM    1  N3  UNL     1       1.089  -0.647  -0.038  1.00  0.00    -0.282 N 
HETATM    2  C9  UNL     1       0.567  -1.902  -0.652  1.00  0.00     0.335 C 
HETATM    3  N4  UNL     1       1.000  -2.542  -1.750  1.00  0.00    -0.237 NA
HETATM    4  C10 UNL     1       2.118  -1.822  -2.320  1.00  0.00     0.183 C 
HETATM    5  N6  UNL     1       3.326  -1.793  -1.872  1.00  0.00    -0.171 NA
HETATM    6  N7  UNL     1       4.345  -1.011  -2.530  1.00  0.00    -0.201 NA
HETATM    7  C11 UNL     1       3.883  -0.226  -1.348  1.00  0.00     0.071 A 
HETATM    8  C12 UNL     1       2.711   0.366  -1.716  1.00  0.00     0.055 A 
HETATM    9  C13 UNL     1       2.441  -0.288  -0.440  1.00  0.00     0.087 A 
HETATM   10  C14 UNL     1       3.062  -1.011   0.534  1.00  0.00     0.032 C 
HETATM   11  C15 UNL     1       4.229  -0.035   0.130  1.00  0.00     0.025 C 
HETATM   12  H17 UNL     1       4.989  -0.235  -2.731  1.00  0.00     0.149 HD
ENDROOT
BRANCH   1  13
HETATM   13  N2  UNL     1      -0.122  -0.782   0.469  1.00  0.00    -0.329 N 
HETATM   14  H13 UNL     1      -0.199  -0.824   1.502  1.00  0.00     0.180 HD
BRANCH  13  15
HETATM   15  C8  UNL     1      -1.211  -0.121  -0.146  1.00  0.00     0.167 C 
BRANCH  15  16
HETATM   16  C7  UNL     1      -2.428  -0.412   0.656  1.00  0.00     0.003 C 
HETATM   17  C6  UNL     1      -3.139   0.567   1.220  1.00  0.00    -0.035 C 
HETATM   18  C3  UNL     1      -4.362   0.477   2.043  1.00  0.00    -0.036 C 
HETATM   19  C5  UNL     1      -2.821   1.997   1.119  1.00  0.00     0.158 C 
HETATM   20  C4  UNL     1      -4.883   1.669   2.232  1.00  0.00     0.090 C 
HETATM   21  N1  UNL     1      -4.070   2.629   1.568  1.00  0.00    -0.394 N 
HETATM   22  H7  UNL     1      -4.299   3.650   1.404  1.00  0.00     0.159 HD
BRANCH  18  23
HETATM   23  C2  UNL     1      -4.839  -0.845   2.532  1.00  0.00     0.036 C 
HETATM   24  C1  UNL     1      -5.148  -1.798   1.398  1.00  0.00     0.010 C 
ENDBRANCH  18  23
ENDBRANCH  15  16
ENDBRANCH  13  15
ENDBRANCH   1  13
BRANCH   4  25
HETATM   25  N5  UNL     1       1.256  -1.391  -3.365  1.00  0.00    -0.374 N 
HETATM   26  H15 UNL     1       0.612  -0.586  -3.480  1.00  0.00     0.158 HD
HETATM   27  H16 UNL     1       1.103  -1.856  -4.308  1.00  0.00     0.158 HD
ENDBRANCH   4  25
BRANCH  11  28
HETATM   28  C16 UNL     1       3.988   1.326   0.594  1.00  0.00     0.046 C 
BRANCH  28  29
HETATM   29  C17 UNL     1       4.820   2.278  -0.196  1.00  0.00    -0.046 A 
HETATM   30  C18 UNL     1       5.743   3.224  -0.439  1.00  0.00    -0.018 A 
HETATM   31  C19 UNL     1       5.074   2.762  -1.568  1.00  0.00     0.021 A 
ENDBRANCH  28  29
ENDBRANCH  11  28
TORSDOF 7
