REMARK  5 active torsions:
REMARK  status: ('A' for Active; 'I' for Inactive)
REMARK    1  A    between atoms: O1_2  and  C2_3 
REMARK    2  A    between atoms: C5_6  and  C6_7 
REMARK    3  A    between atoms: C6_7  and  N1_8 
REMARK    4  A    between atoms: C6_7  and  N2_9 
REMARK    5  A    between atoms: N2_9  and  C7_10 
ROOT
HETATM    1  C6  UNL     1       0.639   1.505   0.040  1.00  0.00     0.107 C 
ENDROOT
BRANCH   1   2
HETATM    2  C5  UNL     1      -0.364   0.701   0.298  1.00  0.00     0.009 A 
HETATM    3  C4  UNL     1      -1.230  -0.347   0.951  1.00  0.00     0.080 A 
HETATM    4  C3  UNL     1      -2.635  -0.658   0.345  1.00  0.00     0.141 A 
HETATM    5  N3  UNL     1      -0.650  -0.953   2.154  1.00  0.00    -0.233 NA
HETATM    6  C14 UNL     1      -2.456  -0.058  -0.264  1.00  0.00     0.041 A 
HETATM    7  O2  UNL     1      -2.011  -1.280   0.781  1.00  0.00     0.000 OA
HETATM    8  C2  UNL     1      -3.644  -0.706  -0.310  1.00  0.00     0.064 A 
HETATM    9  C16 UNL     1      -0.522  -2.509   2.049  1.00  0.00     0.109 C 
HETATM   10  C15 UNL     1      -1.530  -2.596   0.814  1.00  0.00     0.017 C 
HETATM   11  C13 UNL     1      -1.393   0.771  -0.490  1.00  0.00     0.001 A 
BRANCH   8  12
HETATM   12  O1  UNL     1      -4.869  -0.765  -1.103  1.00  0.00    -0.389 OA
HETATM   13  C1  UNL     1      -5.797  -1.696  -0.543  1.00  0.00     0.202 C 
ENDBRANCH   8  12
ENDBRANCH   1   2
BRANCH   1  14
HETATM   14  N1  UNL     1       0.522   2.381  -1.107  1.00  0.00    -0.385 N 
HETATM   15  H5  UNL     1       0.444   3.000  -1.925  1.00  0.00     0.157 HD
HETATM   16  H6  UNL     1      -0.100   3.168  -1.506  1.00  0.00     0.157 HD
ENDBRANCH   1  14
BRANCH   1  17
HETATM   17  N2  UNL     1       1.772   1.479   0.835  1.00  0.00    -0.342 N 
HETATM   18  H7  UNL     1       1.969   1.627   1.876  1.00  0.00     0.167 HD
BRANCH  17  19
HETATM   19  C7  UNL     1       2.946   1.172   0.170  1.00  0.00     0.034 A 
HETATM   20  C8  UNL     1       3.316   2.404  -0.534  1.00  0.00     0.029 A 
HETATM   21  C9  UNL     1       4.500   2.402  -1.320  1.00  0.00     0.004 A 
HETATM   22  C10 UNL     1       5.339   1.350  -1.487  1.00  0.00     0.019 A 
HETATM   23  C11 UNL     1       5.071   0.061  -0.833  1.00  0.00     0.013 A 
HETATM   24 BR1  UNL     1       6.032  -1.543  -0.875  1.00  0.00    -0.051 Br
HETATM   25  C12 UNL     1       3.922   0.372  -0.184  1.00  0.00     0.048 A 
ENDBRANCH  17  19
ENDBRANCH   1  17
TORSDOF 5
