REMARK  2 active torsions:
REMARK  status: ('A' for Active; 'I' for Inactive)
REMARK    1  A    between atoms: N1_11  and  C10_12 
REMARK    2  A    between atoms: C10_12  and  N2_13 
ROOT
HETATM    1  C1  UNL     1      -6.017   0.984  -2.044  1.00  0.00     0.012 C 
HETATM    2  C2  UNL     1      -4.745   0.463  -1.496  1.00  0.00     0.002 C 
HETATM    3  C3  UNL     1      -4.713  -0.997  -1.288  1.00  0.00     0.033 C 
HETATM    4  C4  UNL     1      -3.343  -1.542  -1.004  1.00  0.00    -0.026 C 
HETATM    5  C5  UNL     1      -2.959  -2.035   0.196  1.00  0.00    -0.003 C 
HETATM    6  C6  UNL     1      -2.793  -2.501   1.557  1.00  0.00     0.012 C 
HETATM    7  C7  UNL     1      -1.817  -1.951   2.313  1.00  0.00    -0.019 C 
HETATM    8  C8  UNL     1      -1.433  -0.719   2.002  1.00  0.00     0.065 C 
HETATM    9  S1  UNL     1      -2.244   0.305   0.839  1.00  0.00    -0.055 SA
HETATM   10  C9  UNL     1      -1.181   1.472   0.020  1.00  0.00     0.281 A 
HETATM   11  N1  UNL     1      -0.051   2.086  -0.350  1.00  0.00    -0.172 N 
HETATM   12  N4  UNL     1      -1.158   2.542  -0.881  1.00  0.00     0.035 N 
HETATM   13  C18 UNL     1      -2.048   3.061  -1.614  1.00  0.00     0.783 C 
HETATM   14  N5  UNL     1      -3.319   2.365  -1.443  1.00  0.00    -0.388 N 
HETATM   15  C19 UNL     1      -3.504   1.038  -2.035  1.00  0.00     0.120 C 
HETATM   16  H23 UNL     1      -3.572   3.209  -0.909  1.00  0.00     0.155 HD
ENDROOT
BRANCH  11  17
HETATM   17  C10 UNL     1       1.204   1.575   0.178  1.00  0.00     0.246 C 
BRANCH  17  18
HETATM   18  N2  UNL     1       1.019   0.059  -0.037  1.00  0.00    -0.306 NA
HETATM   19  C11 UNL     1       2.515  -0.342   0.244  1.00  0.00     0.071 A 
HETATM   20  C12 UNL     1       3.893  -0.581   0.571  1.00  0.00     0.072 A 
HETATM   21  H13 UNL     1       1.915   0.231   0.149  1.00  0.00     0.140 HD
HETATM   22  C13 UNL     1       4.287  -1.903   0.018  1.00  0.00    -0.018 A 
HETATM   23  C14 UNL     1       5.068  -0.871   0.842  1.00  0.00     0.051 A 
HETATM   24  C15 UNL     1       5.699   0.133   1.596  1.00  0.00     0.063 A 
HETATM   25  N3  UNL     1       6.343  -1.377   0.953  1.00  0.00    -0.386 N 
HETATM   26  C16 UNL     1       7.140  -0.188   1.878  1.00  0.00    -0.007 A 
HETATM   27  C17 UNL     1       7.670  -1.392   1.363  1.00  0.00     0.080 A 
HETATM   28  H21 UNL     1       6.727  -2.362   0.399  1.00  0.00     0.160 HD
ENDBRANCH  17  18
ENDBRANCH  11  17
TORSDOF 2
