REMARK  4 active torsions:
REMARK  status: ('A' for Active; 'I' for Inactive)
REMARK    1  A    between atoms: C2_2  and  C3_3 
REMARK    2  A    between atoms: C4_4  and  C5_5 
REMARK    3  A    between atoms: C7_8  and  N2_9 
REMARK    4  A    between atoms: C8_11  and  N4_12 
ROOT
HETATM    1  C5  UNL     1       1.683   0.728   0.220  1.00  0.00     0.030 A 
HETATM    2  C6  UNL     1       2.804   1.479   0.486  1.00  0.00     0.151 A 
HETATM    3  N1  UNL     1       2.909   2.271   1.578  1.00  0.00    -0.074 NA
HETATM    4  C7  UNL     1       1.909   2.368   2.472  1.00  0.00     0.722 A 
HETATM    5  N3  UNL     1       0.796   1.649   2.247  1.00  0.00    -0.043 NA
HETATM    6  C8  UNL     1       0.695   0.863   1.162  1.00  0.00     0.179 A 
ENDROOT
BRANCH   6   7
HETATM    7  N4  UNL     1      -0.505   0.170   1.021  1.00  0.00    -0.252 N 
HETATM    8  C9  UNL     1      -0.595  -1.288   1.080  1.00  0.00     0.101 A 
HETATM    9  C10 UNL     1      -1.330  -2.402   1.016  1.00  0.00     0.061 A 
HETATM   10  C11 UNL     1      -2.779  -2.720   0.795  1.00  0.00    -0.020 A 
HETATM   11  C12 UNL     1      -4.087  -2.452   0.568  1.00  0.00    -0.026 A 
HETATM   12  C13 UNL     1      -4.872  -1.195   0.382  1.00  0.00     0.055 A 
HETATM   13  C14 UNL     1      -4.129   0.042   0.483  1.00  0.00    -0.004 A 
HETATM   14  C15 UNL     1      -3.135   0.903   0.629  1.00  0.00     0.104 A 
HETATM   15  N5  UNL     1      -1.814   0.531   0.842  1.00  0.00    -0.305 N 
HETATM   16  H19 UNL     1      -1.501   0.712  -0.172  1.00  0.00     0.186 HD
ENDBRANCH   6   7
BRANCH   1  17
HETATM   17  C4  UNL     1       1.529  -0.149  -0.903  1.00  0.00     0.013 C 
HETATM   18  C3  UNL     1       2.331  -0.509  -1.883  1.00  0.00    -0.026 C 
BRANCH  18  19
HETATM   19  C2  UNL     1       3.656  -0.383  -2.504  1.00  0.00     0.022 C 
HETATM   20  C1  UNL     1       3.490   0.085  -3.954  1.00  0.00     0.009 C 
ENDBRANCH  18  19
ENDBRANCH   1  17
BRANCH   4  21
HETATM   21  N2  UNL     1       2.023   3.196   3.608  1.00  0.00    -0.231 N 
HETATM   22  H9  UNL     1       2.241   2.915   4.598  1.00  0.00     0.174 HD
HETATM   23  H10 UNL     1       1.848   4.150   3.277  1.00  0.00     0.174 HD
ENDBRANCH   4  21
TORSDOF 4
