REMARK  4 active torsions:
REMARK  status: ('A' for Active; 'I' for Inactive)
REMARK    1  A    between atoms: C1_1  and  C2_2 
REMARK    2  A    between atoms: C1_1  and  C10_12 
REMARK    3  A    between atoms: C2_2  and  N1_3 
REMARK    4  A    between atoms: C11_13  and  C12_14 
ROOT
HETATM    1  C2  UNL     1      -1.198  -0.444   1.579  1.00  0.00     0.127 C 
ENDROOT
BRANCH   1   2
HETATM    2  C1  UNL     1      -0.351  -1.120   2.171  1.00  0.00    -0.048 C 
BRANCH   2   3
HETATM    3  C10 UNL     1       0.633  -1.915   2.838  1.00  0.00     0.067 C 
HETATM    4  C11 UNL     1       1.816  -2.302   2.414  1.00  0.00     0.016 C 
BRANCH   4   5
HETATM    5  C12 UNL     1       2.623  -2.142   1.205  1.00  0.00    -0.054 C 
HETATM    6  C13 UNL     1       3.819  -2.755   1.251  1.00  0.00     0.007 C 
HETATM    7  C14 UNL     1       4.897  -2.840   0.282  1.00  0.00     0.001 C 
HETATM    8  C15 UNL     1       5.107  -1.913  -0.638  1.00  0.00    -0.000 C 
HETATM    9  C16 UNL     1       4.414  -0.664  -0.944  1.00  0.00    -0.004 C 
HETATM   10  C17 UNL     1       3.141  -0.523  -0.611  1.00  0.00    -0.022 C 
HETATM   11  C18 UNL     1       2.127  -1.363   0.051  1.00  0.00     0.065 C 
ENDBRANCH   4   5
ENDBRANCH   2   3
ENDBRANCH   1   2
BRANCH   1  12
HETATM   12  N1  UNL     1      -2.168   0.354   0.872  1.00  0.00     0.021 N 
HETATM   13  C3  UNL     1      -2.001   1.729   1.400  1.00  0.00     0.691 C 
HETATM   14  C4  UNL     1      -2.416   2.739   0.583  1.00  0.00     0.059 C 
HETATM   15  C5  UNL     1      -2.945   3.727  -0.488  1.00  0.00    -0.016 C 
HETATM   16  C6  UNL     1      -3.537   3.737  -1.785  1.00  0.00    -0.006 C 
HETATM   17  C7  UNL     1      -3.842   2.452  -2.562  1.00  0.00     0.033 C 
HETATM   18  C8  UNL     1      -3.366   1.377  -1.671  1.00  0.00    -0.008 C 
HETATM   19  C9  UNL     1      -3.267   0.380  -0.846  1.00  0.00     0.110 C 
HETATM   20  N2  UNL     1      -2.802  -0.626  -0.011  1.00  0.00    -0.231 N 
HETATM   21  H9  UNL     1      -2.958  -1.593  -0.149  1.00  0.00     0.192 HD
ENDBRANCH   1  12
TORSDOF 4
