REMARK  2 active torsions:
REMARK  status: ('A' for Active; 'I' for Inactive)
REMARK    1  A    between atoms: C9_11  and  N2_12 
REMARK    2  A    between atoms: N2_12  and  C10_13 
ROOT
HETATM    1  F1  UNL     1      -5.609   2.951   0.122  1.00  0.00    -0.206 F 
HETATM    2  C1  UNL     1      -4.915   1.794   0.227  1.00  0.00     0.117 A 
HETATM    3  C2  UNL     1      -5.469   0.549   0.050  1.00  0.00     0.045 A 
HETATM    4  C3  UNL     1      -4.725  -0.606   0.164  1.00  0.00     0.041 A 
HETATM    5  C4  UNL     1      -3.362  -0.532   0.468  1.00  0.00     0.086 A 
HETATM    6  C5  UNL     1      -2.821   0.741   0.641  1.00  0.00    -0.004 A 
HETATM    7  C6  UNL     1      -3.565   1.902   0.529  1.00  0.00     0.054 A 
HETATM    8  C7  UNL     1      -1.415   1.074   0.972  1.00  0.00     0.161 C 
HETATM    9  N1  UNL     1      -0.485   0.381   0.117  1.00  0.00    -0.379 N 
HETATM   10  C8  UNL     1      -0.410  -1.015  -0.237  1.00  0.00     0.129 A 
HETATM   11  C9  UNL     1       0.816  -1.213  -0.821  1.00  0.00     0.160 A 
HETATM   12  N3  UNL     1       1.027  -2.504  -1.208  1.00  0.00    -0.222 NA
HETATM   13  C16 UNL     1       0.128  -3.460  -1.032  1.00  0.00     0.238 A 
HETATM   14  N4  UNL     1      -1.058  -3.202  -0.456  1.00  0.00    -0.215 NA
HETATM   15  C17 UNL     1      -1.404  -1.972  -0.023  1.00  0.00     0.202 A 
HETATM   16  O1  UNL     1      -2.649  -1.752   0.569  1.00  0.00    -0.289 OA
HETATM   17  H6  UNL     1       0.264   0.968  -0.320  1.00  0.00     0.160 HD
ENDROOT
BRANCH  11  18
HETATM   18  N2  UNL     1       1.827  -0.260  -1.040  1.00  0.00    -0.339 N 
HETATM   19  H7  UNL     1       1.393   0.220  -1.880  1.00  0.00     0.167 HD
BRANCH  18  20
HETATM   20  C10 UNL     1       3.057   0.116  -0.483  1.00  0.00     0.035 A 
HETATM   21  C11 UNL     1       3.782   1.049  -1.167  1.00  0.00     0.029 A 
HETATM   22  C12 UNL     1       5.017   1.455  -0.703  1.00  0.00     0.004 A 
HETATM   23  C13 UNL     1       5.445   0.868   0.458  1.00  0.00     0.019 A 
HETATM   24  C14 UNL     1       4.738  -0.085   1.188  1.00  0.00     0.013 A 
HETATM   25 BR1  UNL     1       5.412  -0.877   2.797  1.00  0.00    -0.051 Br
HETATM   26  C15 UNL     1       3.504  -0.455   0.676  1.00  0.00     0.048 A 
ENDBRANCH  18  20
ENDBRANCH  11  18
TORSDOF 2
