REMARK  5 active torsions:
REMARK  status: ('A' for Active; 'I' for Inactive)
REMARK    1  A    between atoms: C3_3  and  C4_4 
REMARK    2  A    between atoms: C5_5  and  C6_6 
REMARK    3  A    between atoms: C7_7  and  N1_8 
REMARK    4  A    between atoms: N1_8  and  C8_9 
REMARK    5  A    between atoms: C10_11  and  O1_12 
ROOT
HETATM    1  C8  UNL     1      -1.703   1.004   0.361  1.00  0.00     0.212 C 
HETATM    2  C9  UNL     1      -1.711  -0.069   1.356  1.00  0.00     0.080 C 
HETATM    3  C10 UNL     1      -2.455  -1.169   1.126  1.00  0.00     0.183 C 
HETATM    4  O2  UNL     1      -3.203  -1.343   0.019  1.00  0.00    -0.300 OA
HETATM    5  C12 UNL     1      -4.555  -1.263  -0.191  1.00  0.00     0.146 C 
HETATM    6  C13 UNL     1      -5.660  -0.641  -0.515  1.00  0.00     0.044 C 
HETATM    7  C14 UNL     1      -6.044   0.696  -0.937  1.00  0.00     0.120 C 
HETATM    8  N2  UNL     1      -5.142   1.615  -1.039  1.00  0.00    -0.254 NA
HETATM    9  C15 UNL     1      -3.794   1.223  -0.709  1.00  0.00     0.228 C 
HETATM   10  N3  UNL     1      -2.639   0.673  -0.727  1.00  0.00    -0.258 NA
ENDROOT
BRANCH   1  11
HETATM   11  N1  UNL     1      -0.430   1.426  -0.082  1.00  0.00    -0.276 NA
HETATM   12  H10 UNL     1      -0.292   0.397  -0.380  1.00  0.00     0.129 HD
BRANCH  11  13
HETATM   13  C7  UNL     1       0.898   1.481  -0.620  1.00  0.00     0.059 C 
HETATM   14  C6  UNL     1       2.052   1.101  -0.134  1.00  0.00     0.011 C 
BRANCH  14  15
HETATM   15  C5  UNL     1       3.208   1.321  -0.987  1.00  0.00     0.001 C 
HETATM   16  C4  UNL     1       4.405   0.940  -0.506  1.00  0.00    -0.000 C 
BRANCH  16  17
HETATM   17  C3  UNL     1       5.515   1.204  -1.447  1.00  0.00    -0.004 C 
HETATM   18  C2  UNL     1       6.689   0.799  -0.951  1.00  0.00    -0.031 C 
HETATM   19  C1  UNL     1       7.069   0.159   0.325  1.00  0.00     0.036 C 
ENDBRANCH  16  17
ENDBRANCH  14  15
ENDBRANCH  11  13
ENDBRANCH   1  11
BRANCH   3  20
HETATM   20  O1  UNL     1      -2.718  -2.373   1.808  1.00  0.00    -0.336 OA
HETATM   21  C11 UNL     1      -2.282  -3.629   1.311  1.00  0.00     0.212 C 
ENDBRANCH   3  20
TORSDOF 5
