REMARK  7 active torsions:
REMARK  status: ('A' for Active; 'I' for Inactive)
REMARK    1  A    between atoms: O1_2  and  C2_3 
REMARK    2  A    between atoms: C3_4  and  C4_5 
REMARK    3  A    between atoms: C6_9  and  N3_10 
REMARK    4  A    between atoms: N3_10  and  C7_11 
REMARK    5  A    between atoms: C13_18  and  C14_19 
REMARK    6  A    between atoms: C15_20  and  C16_21 
REMARK    7  A    between atoms: C16_21  and  O2_22 
ROOT
HETATM    1  C4  UNL     1      -1.624  -0.700   1.054  1.00  0.00     0.074 A 
HETATM    2  N1  UNL     1      -1.478  -2.024   1.317  1.00  0.00    -0.241 NA
HETATM    3  C5  UNL     1      -0.261  -2.566   1.146  1.00  0.00     0.236 A 
HETATM    4  N2  UNL     1       0.752  -1.824   0.736  1.00  0.00    -0.224 NA
HETATM    5  C6  UNL     1       0.698  -0.522   0.456  1.00  0.00     0.142 A 
HETATM    6  C13 UNL     1      -0.546   0.017   0.634  1.00  0.00     0.038 A 
ENDROOT
BRANCH   5   7
HETATM    7  N3  UNL     1       1.819   0.212   0.021  1.00  0.00    -0.340 N 
HETATM    8  H7  UNL     1       1.725   1.221  -0.186  1.00  0.00     0.167 HD
BRANCH   7   9
HETATM    9  C7  UNL     1       3.126  -0.248  -0.187  1.00  0.00     0.035 A 
HETATM   10  C8  UNL     1       4.137   0.589  -0.672  1.00  0.00     0.029 A 
HETATM   11  C9  UNL     1       5.429   0.194  -0.893  1.00  0.00     0.004 A 
HETATM   12  C10 UNL     1       5.801  -1.102  -0.634  1.00  0.00     0.019 A 
HETATM   13  C11 UNL     1       4.865  -1.991  -0.153  1.00  0.00     0.013 A 
HETATM   14 BR1  UNL     1       5.417  -3.770   0.192  1.00  0.00    -0.051 Br
HETATM   15  C12 UNL     1       3.593  -1.521   0.042  1.00  0.00     0.048 A 
ENDBRANCH   7   9
ENDBRANCH   5   7
BRANCH   6  16
HETATM   16  C14 UNL     1      -0.821   1.394   0.389  1.00  0.00     0.015 C 
HETATM   17  C15 UNL     1      -1.577   2.450   0.331  1.00  0.00     0.000 C 
BRANCH  17  18
HETATM   18  C16 UNL     1      -1.432   3.890  -0.028  1.00  0.00     0.194 C 
BRANCH  18  19
HETATM   19  O2  UNL     1      -2.273   4.209  -1.088  1.00  0.00    -0.392 OA
HETATM   20  C17 UNL     1      -1.931   3.424  -2.180  1.00  0.00     0.201 C 
ENDBRANCH  18  19
ENDBRANCH  17  18
ENDBRANCH   6  16
BRANCH   1  21
HETATM   21  C3  UNL     1      -2.964  -0.206   1.265  1.00  0.00     0.056 C 
HETATM   22  C2  UNL     1      -3.860  -1.093   1.670  1.00  0.00     0.136 C 
BRANCH  22  23
HETATM   23  O1  UNL     1      -3.550  -2.429   1.886  1.00  0.00    -0.368 OA
HETATM   24  C1  UNL     1      -3.962  -3.509   1.111  1.00  0.00     0.208 C 
ENDBRANCH  22  23
ENDBRANCH   1  21
TORSDOF 7
