REMARK  3 active torsions:
REMARK  status: ('A' for Active; 'I' for Inactive)
REMARK    1  A    between atoms: O1_2  and  C2_3 
REMARK    2  A    between atoms: C6_7  and  N1_8 
REMARK    3  A    between atoms: N1_8  and  C7_9 
ROOT
HETATM    1  C2  UNL     1      -3.161   0.697   0.789  1.00  0.00     0.070 A 
HETATM    2  C3  UNL     1      -1.840   0.643   0.755  1.00  0.00     0.050 A 
HETATM    3  C4  UNL     1      -1.207  -0.654   0.544  1.00  0.00     0.019 A 
HETATM    4  C5  UNL     1       0.130  -0.626   0.523  1.00  0.00     0.037 A 
HETATM    5  C6  UNL     1       1.182  -1.671   0.343  1.00  0.00     0.231 A 
HETATM    6  N2  UNL     1       0.700  -2.986   0.148  1.00  0.00    -0.253 NA
HETATM    7  C13 UNL     1      -0.414  -3.572   0.079  1.00  0.00     0.232 A 
HETATM    8  N3  UNL     1      -1.727  -3.026   0.190  1.00  0.00    -0.217 NA
HETATM    9  C14 UNL     1      -2.073  -1.784   0.388  1.00  0.00     0.176 A 
HETATM   10  O2  UNL     1      -3.444  -1.681   0.432  1.00  0.00    -0.327 OA
HETATM   11  C15 UNL     1      -4.093  -0.444   0.633  1.00  0.00     0.241 A 
ENDROOT
BRANCH   5  12
HETATM   12  N1  UNL     1       2.073  -1.254  -0.722  1.00  0.00    -0.364 N 
HETATM   13  H7  UNL     1       2.018  -1.847  -1.591  1.00  0.00     0.162 HD
BRANCH  12  14
HETATM   14  C7  UNL     1       2.986  -0.171  -0.738  1.00  0.00     0.031 A 
HETATM   15  C8  UNL     1       3.222   0.687   0.312  1.00  0.00     0.029 A 
HETATM   16  C9  UNL     1       4.105   1.744   0.283  1.00  0.00     0.004 A 
HETATM   17  C10 UNL     1       4.815   1.983  -0.862  1.00  0.00     0.019 A 
HETATM   18  C11 UNL     1       4.608   1.149  -1.930  1.00  0.00     0.013 A 
HETATM   19 BR1  UNL     1       5.566   1.424  -3.560  1.00  0.00    -0.051 Br
HETATM   20  C12 UNL     1       3.718   0.099  -1.872  1.00  0.00     0.048 A 
ENDBRANCH  12  14
ENDBRANCH   5  12
BRANCH   1  21
HETATM   21  O1  UNL     1      -3.695   1.937   0.990  1.00  0.00    -0.358 OA
HETATM   22  C1  UNL     1      -4.932   2.257   0.384  1.00  0.00     0.209 C 
ENDBRANCH   1  21
TORSDOF 3
