REMARK  4 active torsions:
REMARK  status: ('A' for Active; 'I' for Inactive)
REMARK    1  A    between atoms: C4_5  and  O1_6 
REMARK    2  A    between atoms: C7_9  and  O2_10 
REMARK    3  A    between atoms: N2_13  and  B1_14 
REMARK    4  A    between atoms: B1_14  and  N3_15 
ROOT
HETATM    1  C1  UNL     1      -2.348  -0.568  -3.488  1.00  0.00     0.178 C 
HETATM    2  N1  UNL     1      -1.229  -0.124  -2.706  1.00  0.00    -0.292 NA
HETATM    3  C2  UNL     1      -1.417   0.161  -1.467  1.00  0.00     0.079 C 
HETATM    4  C3  UNL     1      -2.755   0.022  -0.903  1.00  0.00     0.066 C 
HETATM    5  C4  UNL     1      -3.156   0.533   0.250  1.00  0.00     0.054 C 
HETATM    6  C6  UNL     1      -2.531   1.344   1.312  1.00  0.00     0.128 C 
HETATM    7  C7  UNL     1      -1.093   1.132   1.494  1.00  0.00     0.051 C 
HETATM    8  C8  UNL     1      -0.062   0.825   0.690  1.00  0.00     0.064 C 
HETATM    9  C9  UNL     1      -0.193   0.607  -0.766  1.00  0.00     0.066 C 
HETATM   10  N2  UNL     1       0.877   0.837  -1.440  1.00  0.00    -0.329 NA
ENDROOT
BRANCH  10  11
HETATM   11  B1  UNL     1       2.181   1.291  -0.864  1.00  0.00     0.413 B 
HETATM   12  H12 UNL     1       2.593   2.348  -1.248  1.00  0.00     0.029 HD
BRANCH  11  13
HETATM   13  N3  UNL     1       3.194   0.336  -0.207  1.00  0.00    -0.418 N 
HETATM   14  C10 UNL     1       3.012  -1.053  -0.457  1.00  0.00     0.090 A 
HETATM   15  C11 UNL     1       3.880  -1.879   0.106  1.00  0.00     0.024 A 
HETATM   16 BR1  UNL     1       3.653  -3.727  -0.215  1.00  0.00    -0.050 Br
HETATM   17  C12 UNL     1       4.990  -1.446   0.950  1.00  0.00     0.018 A 
HETATM   18  C13 UNL     1       5.093  -0.138   1.134  1.00  0.00    -0.007 A 
HETATM   19  C14 UNL     1       4.238   0.952   0.604  1.00  0.00     0.133 A 
ENDBRANCH  11  13
ENDBRANCH  10  11
BRANCH   7  20
HETATM   20  O2  UNL     1      -0.637   1.274   2.818  1.00  0.00    -0.365 OA
HETATM   21  H10 UNL     1      -0.378   0.392   3.262  1.00  0.00     0.217 HD
ENDBRANCH   7  20
BRANCH   5  22
HETATM   22  O1  UNL     1      -4.491   0.196   0.461  1.00  0.00    -0.360 OA
HETATM   23  C5  UNL     1      -4.849  -0.968   1.183  1.00  0.00     0.209 C 
ENDBRANCH   5  22
TORSDOF 4
