REMARK  3 active torsions:
REMARK  status: ('A' for Active; 'I' for Inactive)
REMARK    1  A    between atoms: O1_2  and  C2_3 
REMARK    2  A    between atoms: C6_7  and  N1_8 
REMARK    3  A    between atoms: N1_8  and  C7_9 
ROOT
HETATM    1  C2  UNL     1      -3.668   0.613  -0.139  1.00  0.00     0.070 A 
HETATM    2  C3  UNL     1      -2.688   1.271  -0.892  1.00  0.00     0.038 A 
HETATM    3  C4  UNL     1      -1.357   0.928  -0.730  1.00  0.00     0.020 A 
HETATM    4  C5  UNL     1      -0.890  -0.021   0.122  1.00  0.00     0.039 A 
HETATM    5  C6  UNL     1       0.436  -0.353   0.275  1.00  0.00     0.142 A 
HETATM    6  N2  UNL     1       0.670  -1.317   1.170  1.00  0.00    -0.224 NA
HETATM    7  C13 UNL     1      -0.274  -1.933   1.878  1.00  0.00     0.236 A 
HETATM    8  N3  UNL     1      -1.568  -1.614   1.734  1.00  0.00    -0.241 NA
HETATM    9  C14 UNL     1      -1.878  -0.648   0.846  1.00  0.00     0.074 A 
HETATM   10  C15 UNL     1      -3.211  -0.351   0.728  1.00  0.00     0.069 A 
ENDROOT
BRANCH   5  11
HETATM   11  N1  UNL     1       1.413   0.310  -0.488  1.00  0.00    -0.340 N 
HETATM   12  H6  UNL     1       1.161   1.031  -1.165  1.00  0.00     0.167 HD
BRANCH  11  13
HETATM   13  C7  UNL     1       2.818   0.130  -0.472  1.00  0.00     0.035 A 
HETATM   14  C8  UNL     1       3.452  -0.720   0.404  1.00  0.00     0.029 A 
HETATM   15  C9  UNL     1       4.802  -0.930   0.456  1.00  0.00     0.004 A 
HETATM   16  C10 UNL     1       5.635  -0.254  -0.425  1.00  0.00     0.019 A 
HETATM   17  C11 UNL     1       5.053   0.611  -1.325  1.00  0.00     0.013 A 
HETATM   18 BR1  UNL     1       6.116   1.581  -2.572  1.00  0.00    -0.051 Br
HETATM   19  C12 UNL     1       3.689   0.775  -1.322  1.00  0.00     0.048 A 
ENDBRANCH  11  13
ENDBRANCH   5  11
BRANCH   1  20
HETATM   20  O1  UNL     1      -4.960   1.006  -0.354  1.00  0.00    -0.356 OA
HETATM   21  C1  UNL     1      -6.112   0.504   0.271  1.00  0.00     0.210 C 
ENDBRANCH   1  20
TORSDOF 3
