REMARK  6 active torsions:
REMARK  status: ('A' for Active; 'I' for Inactive)
REMARK    1  A    between atoms: O1_2  and  C2_3 
REMARK    2  A    between atoms: N1_7  and  C6_8 
REMARK    3  A    between atoms: N2_9  and  C7_10 
REMARK    4  A    between atoms: C7_10  and  S1_11 
REMARK    5  A    between atoms: S1_11  and  C8_12 
REMARK    6  A    between atoms: C15_20  and  O2_21 
ROOT
HETATM    1  C2  UNL     1      -3.437   1.354   0.140  1.00  0.00     0.098 A 
HETATM    2  C3  UNL     1      -2.766   1.553  -0.980  1.00  0.00     0.019 A 
HETATM    3  C4  UNL     1      -1.679   0.690  -1.481  1.00  0.00     0.089 A 
HETATM    4  C5  UNL     1      -1.416  -0.450  -0.570  1.00  0.00     0.042 A 
HETATM    5  N1  UNL     1      -0.498  -1.263  -0.901  1.00  0.00    -0.245 NA
HETATM    6  C14 UNL     1      -2.185  -0.627   0.656  1.00  0.00     0.067 A 
HETATM    7  C15 UNL     1      -3.142   0.218   1.003  1.00  0.00     0.103 A 
ENDROOT
BRANCH   5   8
HETATM    8  C6  UNL     1      -0.141  -2.408  -0.110  1.00  0.00     0.244 C 
HETATM    9  N2  UNL     1       1.014  -2.807   0.375  1.00  0.00    -0.192 NA
BRANCH   9  10
HETATM   10  C7  UNL     1       2.174  -2.156   0.203  1.00  0.00     0.035 C 
BRANCH  10  11
HETATM   11  S1  UNL     1       3.409  -1.440   0.004  1.00  0.00    -0.027 SA
BRANCH  11  12
HETATM   12  C8  UNL     1       4.879  -0.561  -0.256  1.00  0.00     0.015 A 
HETATM   13  C9  UNL     1       5.989  -1.302  -0.598  1.00  0.00     0.019 A 
HETATM   14  C10 UNL     1       7.173  -0.615  -0.812  1.00  0.00     0.003 A 
HETATM   15  C11 UNL     1       7.088   0.745  -0.651  1.00  0.00     0.019 A 
HETATM   16  C12 UNL     1       5.999   1.517  -0.310  1.00  0.00     0.012 A 
HETATM   17 BR1  UNL     1       6.114   3.411  -0.142  1.00  0.00    -0.051 Br
HETATM   18  C13 UNL     1       4.822   0.801  -0.101  1.00  0.00     0.038 A 
ENDBRANCH  11  12
ENDBRANCH  10  11
ENDBRANCH   9  10
ENDBRANCH   5   8
BRANCH   7  19
HETATM   19  O2  UNL     1      -3.938   0.158   2.138  1.00  0.00    -0.353 OA
HETATM   20  C16 UNL     1      -4.591  -1.073   2.412  1.00  0.00     0.210 C 
ENDBRANCH   7  19
BRANCH   1  21
HETATM   21  O1  UNL     1      -4.381   2.359   0.292  1.00  0.00    -0.353 OA
HETATM   22  C1  UNL     1      -5.714   1.988   0.576  1.00  0.00     0.210 C 
ENDBRANCH   1  21
TORSDOF 6
