REMARK  0 active torsions:
REMARK  status: ('A' for Active; 'I' for Inactive)
ROOT
HETATM    1 CL1  UNL     1      -0.052   3.339   2.337  1.00  0.00    -0.130 Cl
HETATM    2  C1  UNL     1       0.400   2.913   0.742  1.00  0.00     0.050 A 
HETATM    3  C2  UNL     1       0.614   2.525  -0.502  1.00  0.00    -0.001 C 
HETATM    4  C3  UNL     1       1.957   2.812  -1.123  1.00  0.00     0.035 C 
HETATM    5  C4  UNL     1       2.554   1.562  -1.696  1.00  0.00     0.061 C 
HETATM    6  C5  UNL     1       2.671   0.436  -0.778  1.00  0.00     0.010 C 
HETATM    7  C6  UNL     1       2.953  -0.746  -1.399  1.00  0.00     0.027 C 
HETATM    8  C7  UNL     1       2.390  -2.067  -0.975  1.00  0.00     0.029 C 
HETATM    9  C8  UNL     1       1.286  -2.169  -0.202  1.00  0.00     0.036 C 
HETATM   10  C9  UNL     1       0.108  -2.690  -0.941  1.00  0.00     0.065 C 
HETATM   11  C10 UNL     1      -1.115  -2.093  -0.364  1.00  0.00     0.006 C 
HETATM   12  C11 UNL     1      -2.280  -1.891   0.191  1.00  0.00     0.040 C 
HETATM   13  C12 UNL     1      -3.563  -2.136   0.803  1.00  0.00    -0.008 C 
HETATM   14 BR1  UNL     1      -4.690  -3.621   1.327  1.00  0.00    -0.056 Br
HETATM   15  C13 UNL     1      -4.107  -0.930   1.077  1.00  0.00     0.008 C 
HETATM   16  C14 UNL     1      -3.305   0.242   0.710  1.00  0.00     0.157 C 
HETATM   17  N1  UNL     1      -2.956   1.031   1.881  1.00  0.00    -0.352 N 
HETATM   18  C15 UNL     1      -1.828   1.692   1.495  1.00  0.00    -0.021 C 
HETATM   19  C16 UNL     1      -0.834   2.250   1.162  1.00  0.00     0.106 A 
HETATM   20  N2  UNL     1       1.552  -1.710   1.127  1.00  0.00    -0.248 NA
HETATM   21  C17 UNL     1       1.825  -0.467   1.435  1.00  0.00     0.207 C 
HETATM   22  N3  UNL     1       2.481   0.565   0.654  1.00  0.00    -0.354 N 
HETATM   23  H15 UNL     1      -2.641   1.622   2.667  1.00  0.00     0.169 HD
HETATM   24  H17 UNL     1       2.885   1.475   0.919  1.00  0.00     0.166 HD
ENDROOT
TORSDOF 0
