REMARK  4 active torsions:
REMARK  status: ('A' for Active; 'I' for Inactive)
REMARK    1  A    between atoms: N1_1  and  C1_2 
REMARK    2  A    between atoms: N3_4  and  C2_5 
REMARK    3  A    between atoms: C10_15  and  C11_16 
REMARK    4  A    between atoms: C11_16  and  C12_17 
ROOT
HETATM    1  C1  UNL     1      -1.812   2.821   1.461  1.00  0.00     0.738 C 
HETATM    2  N2  UNL     1      -2.667   1.936   1.008  1.00  0.00     0.022 NA
HETATM    3  N3  UNL     1      -2.192   0.652   0.617  1.00  0.00    -0.235 N 
HETATM    4  C8  UNL     1      -1.062   0.281   1.342  1.00  0.00     0.206 C 
HETATM    5  C9  UNL     1      -0.345  -0.956   0.992  1.00  0.00     0.033 C 
HETATM    6  C10 UNL     1       0.946  -0.880   1.258  1.00  0.00     0.013 C 
HETATM    7  N4  UNL     1       1.229   0.473   1.605  1.00  0.00    -0.345 N 
HETATM    8  C18 UNL     1       0.025   1.269   1.526  1.00  0.00     0.152 C 
HETATM    9  N5  UNL     1      -0.468   2.444   1.697  1.00  0.00    -0.046 NA
HETATM   10  H13 UNL     1       2.057   1.079   1.905  1.00  0.00     0.167 HD
ENDROOT
BRANCH   6  11
HETATM   11  C11 UNL     1       2.192  -1.681   1.188  1.00  0.00     0.097 C 
BRANCH  11  12
HETATM   12  C12 UNL     1       3.226  -1.060   0.323  1.00  0.00    -0.031 A 
HETATM   13  C13 UNL     1       4.333  -0.396   0.815  1.00  0.00     0.011 A 
HETATM   14  C14 UNL     1       5.301   0.187   0.053  1.00  0.00     0.024 A 
HETATM   15  C15 UNL     1       5.184   0.120  -1.333  1.00  0.00     0.035 A 
HETATM   16 CL2  UNL     1       6.427   0.870  -2.300  1.00  0.00    -0.084 Cl
HETATM   17  C16 UNL     1       4.092  -0.535  -1.863  1.00  0.00     0.048 A 
HETATM   18  C17 UNL     1       3.124  -1.118  -1.059  1.00  0.00     0.042 A 
HETATM   19 CL3  UNL     1       1.768  -1.932  -1.800  1.00  0.00    -0.084 Cl
ENDBRANCH  11  12
ENDBRANCH   6  11
BRANCH   3  20
HETATM   20  C2  UNL     1      -2.938   0.007  -0.409  1.00  0.00     0.093 A 
HETATM   21  C3  UNL     1      -3.181   0.416  -1.705  1.00  0.00     0.036 A 
HETATM   22  C4  UNL     1      -3.936  -0.373  -2.531  1.00  0.00     0.026 A 
HETATM   23  C5  UNL     1      -4.477  -1.589  -2.115  1.00  0.00     0.037 A 
HETATM   24 CL1  UNL     1      -5.437  -2.564  -3.208  1.00  0.00    -0.084 Cl
HETATM   25  C6  UNL     1      -4.227  -1.975  -0.834  1.00  0.00     0.068 A 
HETATM   26  C7  UNL     1      -3.469  -1.209   0.039  1.00  0.00     0.146 A 
HETATM   27  F1  UNL     1      -3.306  -1.725   1.284  1.00  0.00    -0.204 F 
ENDBRANCH   3  20
BRANCH   1  28
HETATM   28  N1  UNL     1      -1.968   4.186   1.919  1.00  0.00    -0.230 N 
HETATM   29  H1  UNL     1      -2.187   4.909   1.198  1.00  0.00     0.174 HD
HETATM   30  H2  UNL     1      -1.875   4.488   2.918  1.00  0.00     0.174 HD
ENDBRANCH   1  28
TORSDOF 4
