REMARK  7 active torsions:
REMARK  status: ('A' for Active; 'I' for Inactive)
REMARK    1  A    between atoms: N1_1  and  C1_2 
REMARK    2  A    between atoms: C1_2  and  C3_5 
REMARK    3  A    between atoms: C5_7  and  C6_8 
REMARK    4  A    between atoms: C6_8  and  C7_9 
REMARK    5  A    between atoms: C8_10  and  C9_11 
REMARK    6  A    between atoms: C9_11  and  B1_12 
REMARK    7  A    between atoms: C10_15  and  N4_16 
ROOT
HETATM    1  C1  UNL     1       0.954   2.880  -0.601  1.00  0.00     0.152 A 
HETATM    2  N2  UNL     1       0.118   3.145  -1.676  1.00  0.00    -0.179 NA
HETATM    3  C2  UNL     1      -0.816   2.275  -1.903  1.00  0.00     0.154 A 
HETATM    4  C3  UNL     1      -0.286   1.624  -0.857  1.00  0.00     0.084 A 
HETATM    5  C4  UNL     1       1.120   0.865  -0.388  1.00  0.00     0.067 A 
HETATM    6  C5  UNL     1       0.817  -0.303   0.523  1.00  0.00     0.067 A 
HETATM    7  N3  UNL     1      -0.369  -0.258   0.597  1.00  0.00    -0.374 N 
HETATM    8  C10 UNL     1      -0.323   0.784  -0.208  1.00  0.00     0.079 A 
HETATM    9  N4  UNL     1      -0.165   2.047  -1.082  1.00  0.00     0.000 N 
HETATM   10  C11 UNL     1      -1.597  -0.805   1.103  1.00  0.00     0.155 C 
HETATM   11 BR1  UNL     1      -1.701  -0.265   2.924  1.00  0.00    -0.069 Br
HETATM   12  C12 UNL     1      -2.753  -0.093   0.349  1.00  0.00     0.058 C 
HETATM   13  C13 UNL     1      -2.827  -0.461  -1.090  1.00  0.00     0.102 C 
HETATM   14 CL2  UNL     1      -3.828  -1.869  -1.354  1.00  0.00    -0.123 Cl
HETATM   15  C14 UNL     1      -3.048   0.613  -2.062  1.00  0.00     0.136 C 
HETATM   16  N5  UNL     1      -1.867   1.461  -2.282  1.00  0.00    -0.394 N 
HETATM   17  H15 UNL     1      -1.512   1.627  -3.278  1.00  0.00     0.155 HD
ENDROOT
BRANCH   6  18
HETATM   18  C6  UNL     1       1.888  -1.174   1.066  1.00  0.00     0.061 C 
BRANCH  18  19
HETATM   19  C7  UNL     1       1.892  -2.428   0.306  1.00  0.00    -0.025 C 
HETATM   20  C8  UNL     1       2.083  -3.607   1.028  1.00  0.00    -0.019 C 
BRANCH  20  21
HETATM   21  C9  UNL     1       2.223  -3.014   2.417  1.00  0.00    -0.067 C 
BRANCH  21  22
HETATM   22  B1  UNL     1       3.930  -2.424   2.422  1.00  0.00     0.297 B 
HETATM   23 CL1  UNL     1       5.038  -1.494   3.836  1.00  0.00    -0.214 Cl
ENDBRANCH  21  22
ENDBRANCH  20  21
ENDBRANCH  18  19
ENDBRANCH   6  18
BRANCH   1  24
HETATM   24  N1  UNL     1       1.964   3.968  -0.481  1.00  0.00    -0.405 N 
HETATM   25  H1  UNL     1       1.430   4.702   0.083  1.00  0.00     0.152 HD
HETATM   26  H2  UNL     1       2.705   3.501  -1.010  1.00  0.00     0.152 HD
ENDBRANCH   1  24
TORSDOF 7
