REMARK  6 active torsions:
REMARK  status: ('A' for Active; 'I' for Inactive)
REMARK    1  A    between atoms: C2_2  and  C3_3 
REMARK    2  A    between atoms: C3_3  and  C4_4 
REMARK    3  A    between atoms: C4_4  and  C5_6 
REMARK    4  A    between atoms: C5_6  and  C6_7 
REMARK    5  A    between atoms: C6_7  and  N1_8 
REMARK    6  A    between atoms: N1_8  and  C7_9 
ROOT
HETATM    1  C7  UNL     1       0.704   0.140   0.113  1.00  0.00     0.156 A 
HETATM    2  N2  UNL     1       1.445  -0.835  -0.435  1.00  0.00    -0.222 NA
HETATM    3  C8  UNL     1       0.844  -1.812  -1.128  1.00  0.00     0.238 A 
HETATM    4  N3  UNL     1      -0.488  -1.925  -1.344  1.00  0.00    -0.215 NA
HETATM    5  C9  UNL     1      -1.265  -0.962  -0.808  1.00  0.00     0.202 A 
HETATM    6  C10 UNL     1      -0.677   0.065  -0.085  1.00  0.00     0.128 A 
HETATM    7  N4  UNL     1      -1.324   1.178   0.547  1.00  0.00    -0.379 N 
HETATM    8  C11 UNL     1      -2.628   1.166   1.182  1.00  0.00     0.161 C 
HETATM    9  C12 UNL     1      -3.664   0.486   0.404  1.00  0.00    -0.004 A 
HETATM   10  C13 UNL     1      -4.905   1.012   0.777  1.00  0.00     0.054 A 
HETATM   11  C14 UNL     1      -6.102   0.593   0.235  1.00  0.00     0.117 A 
HETATM   12  F1  UNL     1      -7.269   1.144   0.640  1.00  0.00    -0.206 F 
HETATM   13  C15 UNL     1      -6.100  -0.390  -0.721  1.00  0.00     0.045 A 
HETATM   14  C16 UNL     1      -4.900  -0.940  -1.121  1.00  0.00     0.041 A 
HETATM   15  C17 UNL     1      -3.725  -0.497  -0.559  1.00  0.00     0.086 A 
HETATM   16  O1  UNL     1      -2.628  -1.162  -1.083  1.00  0.00    -0.289 OA
HETATM   17  H9  UNL     1      -0.687   2.029   0.471  1.00  0.00     0.160 HD
ENDROOT
BRANCH   1  18
HETATM   18  N1  UNL     1       1.345   1.183   0.876  1.00  0.00    -0.369 N 
HETATM   19  H7  UNL     1       0.959   1.995   1.391  1.00  0.00     0.161 HD
BRANCH  18  20
HETATM   20  C6  UNL     1       2.800   1.099   0.966  1.00  0.00     0.150 C 
BRANCH  20  21
HETATM   21  C5  UNL     1       3.429   1.154  -0.373  1.00  0.00     0.012 C 
BRANCH  21  22
HETATM   22  C4  UNL     1       4.182   0.188  -0.841  1.00  0.00     0.015 C 
HETATM   23 BR1  UNL     1       5.007   0.225  -2.557  1.00  0.00    -0.051 Br
BRANCH  22  24
HETATM   24  C3  UNL     1       4.724  -1.094  -0.537  1.00  0.00     0.069 C 
BRANCH  24  25
HETATM   25  C2  UNL     1       5.901  -1.208   0.050  1.00  0.00    -0.154 C 
HETATM   26  C1  UNL     1       7.079  -1.048   0.634  1.00  0.00     0.096 C 
ENDBRANCH  24  25
ENDBRANCH  22  24
ENDBRANCH  21  22
ENDBRANCH  20  21
ENDBRANCH  18  20
ENDBRANCH   1  18
TORSDOF 6
