REMARK  3 active torsions:
REMARK  status: ('A' for Active; 'I' for Inactive)
REMARK    1  A    between atoms: N1_1  and  C1_2 
REMARK    2  A    between atoms: C3_5  and  C4_6 
REMARK    3  A    between atoms: C4_6  and  C5_7 
ROOT
HETATM    1  C1  UNL     1      -0.246   2.340  -0.679  1.00  0.00     0.124 C 
HETATM    2  N2  UNL     1      -0.677   1.500  -1.648  1.00  0.00    -0.236 NA
HETATM    3  C2  UNL     1      -1.126   0.194  -1.098  1.00  0.00     0.061 C 
HETATM    4  C3  UNL     1      -2.236  -0.204  -0.498  1.00  0.00     0.034 C 
HETATM    5  N3  UNL     1      -2.976   0.575   0.474  1.00  0.00    -0.368 N 
HETATM    6  C6  UNL     1      -2.592   1.723   1.315  1.00  0.00     0.086 C 
HETATM    7  C7  UNL     1      -1.331   2.235   1.423  1.00  0.00     0.022 C 
HETATM    8  C8  UNL     1       0.016   1.896   0.765  1.00  0.00     0.171 C 
HETATM    9  N4  UNL     1       0.146   0.501   0.822  1.00  0.00    -0.398 N 
HETATM   10  C9  UNL     1       0.884  -0.319  -0.088  1.00  0.00     0.039 C 
HETATM   11  C10 UNL     1       1.839   0.376  -0.945  1.00  0.00     0.060 C 
HETATM   12  C11 UNL     1       3.192  -0.170  -1.202  1.00  0.00    -0.001 C 
HETATM   13  C12 UNL     1       4.125  -0.775  -0.426  1.00  0.00     0.031 C 
HETATM   14 CL1  UNL     1       5.710  -1.347  -0.997  1.00  0.00    -0.085 Cl
HETATM   15  C13 UNL     1       3.842  -1.002   1.019  1.00  0.00     0.043 C 
HETATM   16  C14 UNL     1       2.610  -1.299   1.504  1.00  0.00     0.015 C 
HETATM   17 CL2  UNL     1       2.649  -1.500   3.271  1.00  0.00    -0.089 Cl
HETATM   18  C15 UNL     1       1.360  -1.468   0.755  1.00  0.00     0.082 C 
HETATM   19  C16 UNL     1      -0.224  -0.983  -1.045  1.00  0.00     0.092 C 
HETATM   20  H7  UNL     1      -3.917   0.155   0.511  1.00  0.00     0.165 HD
HETATM   21  H11 UNL     1      -0.030   0.132   1.758  1.00  0.00     0.155 HD
ENDROOT
BRANCH   1  22
HETATM   22  N1  UNL     1      -0.031   3.700  -1.036  1.00  0.00    -0.385 N 
HETATM   23  H1  UNL     1       0.834   3.973  -1.573  1.00  0.00     0.157 HD
HETATM   24  H2  UNL     1      -0.717   4.444  -0.776  1.00  0.00     0.157 HD
ENDBRANCH   1  22
BRANCH   4  25
HETATM   25  C4  UNL     1      -2.548  -1.513  -0.900  1.00  0.00     0.070 C 
BRANCH  25  26
HETATM   26  C5  UNL     1      -3.057  -2.560   0.015  1.00  0.00     0.091 C 
HETATM   27 BR1  UNL     1      -2.106  -3.126   1.532  1.00  0.00    -0.096 Br
ENDBRANCH  25  26
ENDBRANCH   4  25
TORSDOF 3
