REMARK  4 active torsions:
REMARK  status: ('A' for Active; 'I' for Inactive)
REMARK    1  A    between atoms: N1_1  and  C1_2 
REMARK    2  A    between atoms: C2_4  and  N3_5 
REMARK    3  A    between atoms: C9_14  and  C10_15 
REMARK    4  A    between atoms: C10_15  and  C11_16 
ROOT
HETATM    1  C1  UNL     1       0.114   3.150   0.226  1.00  0.00     0.713 C 
HETATM    2  N2  UNL     1      -0.033   2.135  -0.604  1.00  0.00    -0.050 NA
HETATM    3  C2  UNL     1       0.264   0.809  -0.176  1.00  0.00     0.351 C 
HETATM    4  C8  UNL     1       0.930  -0.137  -1.025  1.00  0.00     0.073 C 
HETATM    5  C9  UNL     1       1.462  -1.037  -0.189  1.00  0.00     0.012 C 
HETATM    6  N4  UNL     1       1.468  -0.615   1.201  1.00  0.00    -0.343 N 
HETATM    7  C12 UNL     1       0.894   0.715   1.140  1.00  0.00     0.192 C 
HETATM    8  N5  UNL     1       1.090   1.704   1.985  1.00  0.00    -0.141 NA
HETATM    9  N6  UNL     1       0.678   2.996   1.549  1.00  0.00    -0.106 N 
HETATM   10  H14 UNL     1       1.751  -1.015   2.112  1.00  0.00     0.167 HD
HETATM   11  H15 UNL     1       0.784   3.817   2.181  1.00  0.00     0.208 HD
ENDROOT
BRANCH   3  12
HETATM   12  N3  UNL     1      -1.166   0.274   0.058  1.00  0.00     0.151 N 
HETATM   13  C3  UNL     1      -1.145  -0.944   0.755  1.00  0.00     0.329 C 
HETATM   14  C4  UNL     1      -2.601  -1.322   1.039  1.00  0.00     0.036 C 
HETATM   15 CL1  UNL     1      -3.260  -1.821   2.583  1.00  0.00    -0.087 Cl
HETATM   16  C5  UNL     1      -3.379  -1.234  -0.060  1.00  0.00    -0.003 C 
HETATM   17  C6  UNL     1      -2.831  -0.809  -1.385  1.00  0.00     0.076 C 
HETATM   18  C7  UNL     1      -1.768   0.251  -1.232  1.00  0.00     0.302 C 
HETATM   19 BR1  UNL     1      -2.504   1.993  -1.600  1.00  0.00    -0.057 Br
ENDBRANCH   3  12
BRANCH   1  20
HETATM   20  N1  UNL     1      -0.178   4.488  -0.151  1.00  0.00    -0.232 N 
HETATM   21  H1  UNL     1       0.552   4.934  -0.717  1.00  0.00     0.174 HD
HETATM   22  H2  UNL     1      -1.110   4.737   0.246  1.00  0.00     0.174 HD
ENDBRANCH   1  20
BRANCH   5  23
HETATM   23  C10 UNL     1       2.229  -2.238  -0.595  1.00  0.00     0.072 C 
BRANCH  23  24
HETATM   24  C11 UNL     1       3.661  -2.264  -0.177  1.00  0.00     0.120 C 
HETATM   25 CL2  UNL     1       3.807  -2.223   1.570  1.00  0.00    -0.130 Cl
ENDBRANCH  23  24
ENDBRANCH   5  23
TORSDOF 4
