REMARK  7 active torsions:
REMARK  status: ('A' for Active; 'I' for Inactive)
REMARK    1  A    between atoms: P1_1  and  C1_2 
REMARK    2  A    between atoms: C1_2  and  N1_3 
REMARK    3  A    between atoms: C1_2  and  N3_17 
REMARK    4  A    between atoms: C5_7  and  C6_8 
REMARK    5  A    between atoms: C6_8  and  C7_9 
REMARK    6  A    between atoms: N3_17  and  C13_18 
REMARK    7  A    between atoms: C13_18  and  N4_19 
ROOT
HETATM    1  N1  UNL     1      -0.173  -0.234   1.144  1.00  0.00    -0.236 NA
HETATM    2  C2  UNL     1       0.704  -0.093   0.216  1.00  0.00     0.105 A 
HETATM    3  C3  UNL     1       0.829  -0.666  -1.171  1.00  0.00     0.107 A 
HETATM    4  C4  UNL     1       2.095   0.002  -1.573  1.00  0.00     0.006 A 
HETATM    5  C5  UNL     1       2.686   0.818  -0.675  1.00  0.00     0.011 A 
HETATM    6  N2  UNL     1       1.823   0.758   0.437  1.00  0.00    -0.348 N 
HETATM    7  H13 UNL     1       2.048   1.306   1.286  1.00  0.00     0.167 HD
ENDROOT
BRANCH   1   8
HETATM    8  C1  UNL     1      -1.343  -1.039   1.071  1.00  0.00     0.365 C 
BRANCH   8   9
HETATM    9  P1  UNL     1      -1.096  -2.711   0.345  1.00  0.00    -0.083 P 
HETATM   10  H1  UNL     1      -1.677  -2.764  -0.977  1.00  0.00     0.058 HD
HETATM   11  H2  UNL     1      -1.553  -3.766   1.209  1.00  0.00     0.058 HD
ENDBRANCH   8   9
BRANCH   8  12
HETATM   12  N3  UNL     1      -2.472  -0.332   0.460  1.00  0.00     0.129 N 
HETATM   13  H14 UNL     1      -2.280  -0.158  -0.529  1.00  0.00     0.321 HD
BRANCH  12  14
HETATM   14  C13 UNL     1      -3.683  -1.092   0.663  1.00  0.00     0.397 C 
BRANCH  14  15
HETATM   15  N4  UNL     1      -4.846  -0.423   0.077  1.00  0.00    -0.362 N 
HETATM   16  C14 UNL     1      -6.127  -1.033   0.184  1.00  0.00     0.089 A 
HETATM   17  C15 UNL     1      -7.185  -0.434  -0.343  1.00  0.00     0.040 A 
HETATM   18  C16 UNL     1      -7.114   0.832  -1.036  1.00  0.00     0.033 A 
HETATM   19 CL2  UNL     1      -8.459   1.680  -1.753  1.00  0.00    -0.085 Cl
HETATM   20  C17 UNL     1      -5.899   1.380  -1.120  1.00  0.00     0.017 A 
HETATM   21  C18 UNL     1      -4.617   0.847  -0.590  1.00  0.00     0.153 A 
ENDBRANCH  14  15
ENDBRANCH  12  14
ENDBRANCH   8  12
ENDBRANCH   1   8
BRANCH   5  22
HETATM   22  C6  UNL     1       3.947   1.482  -1.076  1.00  0.00     0.097 C 
BRANCH  22  23
HETATM   23  C7  UNL     1       5.094   1.132  -0.220  1.00  0.00    -0.031 A 
HETATM   24  C8  UNL     1       5.972   0.135  -0.664  1.00  0.00     0.009 A 
HETATM   25  C9  UNL     1       7.071  -0.342  -0.008  1.00  0.00     0.001 A 
HETATM   26  C10 UNL     1       7.361   0.203   1.220  1.00  0.00     0.002 A 
HETATM   27  C11 UNL     1       6.547   1.186   1.723  1.00  0.00     0.024 A 
HETATM   28  C12 UNL     1       5.465   1.618   1.015  1.00  0.00     0.040 A 
HETATM   29 CL1  UNL     1       4.466   2.898   1.668  1.00  0.00    -0.084 Cl
ENDBRANCH  22  23
ENDBRANCH   5  22
TORSDOF 7
