REMARK  3 active torsions:
REMARK  status: ('A' for Active; 'I' for Inactive)
REMARK    1  A    between atoms: C5_9  and  C6_10 
REMARK    2  A    between atoms: C8_12  and  C9_13 
REMARK    3  A    between atoms: C9_13  and  C10_14 
ROOT
HETATM    1  C6  UNL     1       0.853   1.187  -0.901  1.00  0.00     0.082 C 
HETATM    2  C7  UNL     1       0.004   0.169  -1.601  1.00  0.00     0.011 C 
HETATM    3  C8  UNL     1      -1.286   0.471  -1.509  1.00  0.00     0.006 C 
HETATM    4  N4  UNL     1      -1.376   1.693  -0.752  1.00  0.00    -0.392 N 
HETATM    5  C16 UNL     1      -0.135   1.816   0.027  1.00  0.00     0.134 C 
HETATM    6  H15 UNL     1      -2.168   2.402  -0.729  1.00  0.00     0.159 HD
ENDROOT
BRANCH   1   7
HETATM    7  C5  UNL     1       2.029   0.596  -0.246  1.00  0.00     0.077 C 
HETATM    8  C1  UNL     1       2.892   1.547   0.451  1.00  0.00     0.138 C 
HETATM    9  F1  UNL     1       2.416   2.810   0.411  1.00  0.00    -0.204 F 
HETATM   10  C2  UNL     1       4.021   1.467   1.108  1.00  0.00     0.033 C 
HETATM   11  C3  UNL     1       5.016   0.423   1.501  1.00  0.00     0.135 C 
HETATM   12  N1  UNL     1       4.813  -0.697   0.599  1.00  0.00    -0.256 NA
HETATM   13  N2  UNL     1       3.758  -1.509   1.005  1.00  0.00    -0.241 NA
HETATM   14  H4  UNL     1       5.677  -1.201   0.348  1.00  0.00     0.141 HD
HETATM   15  C4  UNL     1       2.857  -1.806  -0.096  1.00  0.00     0.253 C 
HETATM   16  H5  UNL     1       4.041  -2.355   1.526  1.00  0.00     0.142 HD
HETATM   17  N3  UNL     1       2.038  -0.661  -0.437  1.00  0.00    -0.275 NA
ENDBRANCH   1   7
BRANCH   3  18
HETATM   18  C9  UNL     1      -2.541  -0.184  -2.012  1.00  0.00     0.096 C 
BRANCH  18  19
HETATM   19  C10 UNL     1      -3.452  -0.551  -0.897  1.00  0.00    -0.031 A 
HETATM   20  C11 UNL     1      -4.578   0.249  -0.678  1.00  0.00     0.011 A 
HETATM   21  C12 UNL     1      -5.524   0.047   0.315  1.00  0.00     0.024 A 
HETATM   22  C13 UNL     1      -5.321  -1.036   1.143  1.00  0.00     0.035 A 
HETATM   23 CL1  UNL     1      -6.490  -1.327   2.408  1.00  0.00    -0.084 Cl
HETATM   24  C14 UNL     1      -4.201  -1.849   0.941  1.00  0.00     0.048 A 
HETATM   25  C15 UNL     1      -3.272  -1.628  -0.054  1.00  0.00     0.042 A 
HETATM   26 CL2  UNL     1      -1.886  -2.640  -0.298  1.00  0.00    -0.084 Cl
ENDBRANCH  18  19
ENDBRANCH   3  18
TORSDOF 3
