REMARK  3 active torsions:
REMARK  status: ('A' for Active; 'I' for Inactive)
REMARK    1  A    between atoms: N1_3  and  C2_4 
REMARK    2  A    between atoms: C5_10  and  C6_11 
REMARK    3  A    between atoms: C6_11  and  C7_12 
ROOT
HETATM    1  C2  UNL     1      -4.187   1.229   1.293  1.00  0.00     0.131 C 
HETATM    2  N2  UNL     1      -4.144   1.111  -0.023  1.00  0.00    -0.227 NA
HETATM    3  C3  UNL     1      -2.949   0.657  -0.635  1.00  0.00     0.231 C 
HETATM    4  N3  UNL     1      -2.060   1.185  -1.424  1.00  0.00    -0.257 NA
HETATM    5  C4  UNL     1      -0.902   0.368  -1.854  1.00  0.00     0.325 C 
HETATM    6  O1  UNL     1      -0.019   0.316  -0.776  1.00  0.00    -0.330 OA
HETATM    7  C5  UNL     1       1.283   0.006  -0.683  1.00  0.00     0.074 C 
HETATM    8  C12 UNL     1       1.121  -0.579   0.482  1.00  0.00     0.048 C 
HETATM    9  C13 UNL     1      -0.145  -0.698   1.181  1.00  0.00    -0.033 A 
HETATM   10  C14 UNL     1      -0.449  -2.001   1.475  1.00  0.00     0.011 A 
HETATM   11  C15 UNL     1      -1.638  -2.331   2.100  1.00  0.00     0.001 A 
HETATM   12  C16 UNL     1      -2.463  -1.259   2.389  1.00  0.00     0.007 A 
HETATM   13  C17 UNL     1      -2.149   0.074   2.085  1.00  0.00    -0.050 A 
HETATM   14  C18 UNL     1      -0.960   0.373   1.468  1.00  0.00     0.019 A 
HETATM   15  C19 UNL     1      -3.254   1.003   2.471  1.00  0.00     0.119 C 
ENDROOT
BRANCH   7  16
HETATM   16  C6  UNL     1       2.458   0.194  -1.478  1.00  0.00     0.066 C 
BRANCH  16  17
HETATM   17  C7  UNL     1       3.723  -0.061  -1.475  1.00  0.00     0.034 A 
HETATM   18  C8  UNL     1       4.589  -0.733  -0.548  1.00  0.00     0.029 A 
HETATM   19  C9  UNL     1       5.875  -0.933  -0.603  1.00  0.00     0.004 A 
HETATM   20  C10 UNL     1       6.462  -0.363  -1.816  1.00  0.00     0.017 A 
HETATM   21  C11 UNL     1       5.839   0.280  -2.771  1.00  0.00     0.088 A 
HETATM   22  N4  UNL     1       4.445   0.452  -2.631  1.00  0.00    -0.366 N 
HETATM   23  H10 UNL     1       3.965   0.969  -3.407  1.00  0.00     0.165 HD
ENDBRANCH  16  17
ENDBRANCH   7  16
BRANCH   1  24
HETATM   24  N1  UNL     1      -5.459   1.699   1.720  1.00  0.00    -0.239 NA
HETATM   25  C1  UNL     1      -6.410   2.052   0.938  1.00  0.00     0.168 C 
HETATM   26  I1  UNL     1      -6.527   2.101  -1.172  1.00  0.00    -0.036 I 
ENDBRANCH   1  24
TORSDOF 3
