REMARK  7 active torsions:
REMARK  status: ('A' for Active; 'I' for Inactive)
REMARK    1  A    between atoms: C3_3  and  C4_4 
REMARK    2  A    between atoms: C4_4  and  C5_5 
REMARK    3  A    between atoms: C6_6  and  C7_7 
REMARK    4  A    between atoms: C8_8  and  C9_9 
REMARK    5  A    between atoms: C9_9  and  C10_10 
REMARK    6  A    between atoms: C11_11  and  C12_12 
REMARK    7  A    between atoms: C13_13  and  O1_14 
ROOT
HETATM    1  C7  UNL     1       0.457   0.227  -0.366  1.00  0.00     0.006 A 
HETATM    2  C8  UNL     1       1.785  -0.061  -0.583  1.00  0.00     0.070 A 
HETATM    3  O2  UNL     1       2.422   1.001  -0.219  1.00  0.00    -0.295 OA
HETATM    4  C14 UNL     1       1.647   1.945   0.209  1.00  0.00     0.179 A 
HETATM    5  C15 UNL     1       0.317   1.500   0.141  1.00  0.00     0.025 A 
HETATM    6  C16 UNL     1      -0.848   2.352   0.589  1.00  0.00     0.163 C 
HETATM    7  N1  UNL     1      -0.463   3.732   0.247  1.00  0.00    -0.392 N 
HETATM    8  C17 UNL     1      -0.453   5.146   0.476  1.00  0.00     0.117 C 
HETATM    9  C18 UNL     1       0.551   5.705   1.138  1.00  0.00     0.103 C 
HETATM   10  N2  UNL     1       1.431   4.931   1.684  1.00  0.00    -0.238 NA
HETATM   11  C19 UNL     1       1.018   3.561   1.819  1.00  0.00     0.236 C 
HETATM   12  N3  UNL     1       1.648   3.287   0.727  1.00  0.00    -0.217 NA
HETATM   13  H17 UNL     1       0.074   3.914  -0.658  1.00  0.00     0.159 HD
ENDROOT
BRANCH   2  14
HETATM   14  C9  UNL     1       2.367  -1.317  -1.118  1.00  0.00     0.093 C 
BRANCH  14  15
HETATM   15  C10 UNL     1       2.358  -2.364  -0.081  1.00  0.00    -0.011 C 
HETATM   16  C11 UNL     1       3.457  -2.955   0.349  1.00  0.00     0.063 C 
BRANCH  16  17
HETATM   17  C12 UNL     1       4.682  -2.493  -0.281  1.00  0.00    -0.049 C 
HETATM   18  C13 UNL     1       5.702  -2.110  -0.820  1.00  0.00     0.056 C 
BRANCH  18  19
HETATM   19  O1  UNL     1       6.860  -1.682  -1.409  1.00  0.00    -0.314 OA
HETATM   20  H14 UNL     1       7.545  -2.346  -1.780  1.00  0.00     0.230 HD
ENDBRANCH  18  19
ENDBRANCH  16  17
ENDBRANCH  14  15
ENDBRANCH   2  14
BRANCH   1  21
HETATM   21  C6  UNL     1      -0.720  -0.592  -0.594  1.00  0.00     0.011 C 
HETATM   22  C5  UNL     1      -0.968  -1.806  -1.048  1.00  0.00    -0.022 C 
BRANCH  22  23
HETATM   23  C4  UNL     1      -2.238  -2.564  -1.245  1.00  0.00     0.054 C 
BRANCH  23  24
HETATM   24  C3  UNL     1      -3.415  -1.736  -0.827  1.00  0.00    -0.027 C 
HETATM   25  C2  UNL     1      -4.337  -1.966   0.106  1.00  0.00    -0.035 C 
HETATM   26  C1  UNL     1      -5.552  -1.382   0.723  1.00  0.00     0.036 C 
ENDBRANCH  23  24
ENDBRANCH  22  23
ENDBRANCH   1  21
TORSDOF 7
