REMARK  6 active torsions:
REMARK  status: ('A' for Active; 'I' for Inactive)
REMARK    1  A    between atoms: C2_2  and  C3_3 
REMARK       I    between atoms: C3_3  and  N1_5 
REMARK    2  A    between atoms: N1_5  and  C4_6 
REMARK    3  A    between atoms: C8_10  and  C9_11 
REMARK    4  A    between atoms: C10_12  and  C11_13 
REMARK    5  A    between atoms: C11_13  and  C12_14 
REMARK    6  A    between atoms: C18_21  and  C19_22 
ROOT
HETATM    1  C9  UNL     1      -0.368   0.025   0.592  1.00  0.00    -0.016 C 
HETATM    2  C10 UNL     1      -1.574  -0.366   1.023  1.00  0.00     0.058 C 
HETATM    3  O2  UNL     1      -2.391   0.742   1.148  1.00  0.00    -0.349 OA
HETATM    4  C18 UNL     1      -1.890   1.740   0.309  1.00  0.00     0.132 C 
HETATM    5  C21 UNL     1      -0.398   1.523   0.426  1.00  0.00     0.074 C 
ENDROOT
BRANCH   1   6
HETATM    6  C8  UNL     1       0.904  -0.627   0.265  1.00  0.00    -0.025 A 
HETATM    7  C7  UNL     1       1.025  -1.809  -0.426  1.00  0.00     0.012 A 
HETATM    8  C6  UNL     1       2.222  -2.422  -0.719  1.00  0.00     0.003 A 
HETATM    9  C5  UNL     1       3.397  -1.833  -0.303  1.00  0.00     0.029 A 
HETATM   10  C4  UNL     1       3.330  -0.647   0.394  1.00  0.00     0.035 A 
HETATM   11  C22 UNL     1       2.116  -0.061   0.670  1.00  0.00     0.041 A 
BRANCH  10  12
HETATM   12  N1  UNL     1       4.579  -0.095   0.791  1.00  0.00    -0.324 N 
HETATM   13  C3  UNL     1       5.344   0.831   0.024  1.00  0.00     0.244 C 
HETATM   14  O1  UNL     1       5.128   1.352  -1.100  1.00  0.00    -0.268 OA
HETATM   15  H4  UNL     1       4.922  -0.412   1.707  1.00  0.00     0.169 HD
BRANCH  13  16
HETATM   16  C2  UNL     1       6.606   1.282   0.604  1.00  0.00     0.064 C 
HETATM   17  C1  UNL     1       6.906   2.080  -0.436  1.00  0.00     0.017 C 
ENDBRANCH  13  16
ENDBRANCH  10  12
ENDBRANCH   1   6
BRANCH   2  18
HETATM   18  C11 UNL     1      -1.993  -1.771   1.327  1.00  0.00     0.103 C 
BRANCH  18  19
HETATM   19  C12 UNL     1      -3.140  -2.113   0.465  1.00  0.00    -0.052 A 
HETATM   20  C13 UNL     1      -3.127  -2.641  -0.799  1.00  0.00     0.007 A 
HETATM   21  C14 UNL     1      -4.188  -2.967  -1.606  1.00  0.00     0.001 A 
HETATM   22  C15 UNL     1      -5.430  -2.708  -1.020  1.00  0.00     0.000 A 
HETATM   23  C16 UNL     1      -5.602  -2.176   0.248  1.00  0.00     0.001 A 
HETATM   24  C17 UNL     1      -4.436  -1.895   0.952  1.00  0.00     0.007 A 
ENDBRANCH  18  19
ENDBRANCH   2  18
BRANCH   4  25
HETATM   25  C19 UNL     1      -2.284   3.140   0.672  1.00  0.00     0.028 C 
HETATM   26  C20 UNL     1      -1.633   4.063  -0.364  1.00  0.00     0.007 C 
ENDBRANCH   4  25
TORSDOF 6
