REMARK  9 active torsions:
REMARK  status: ('A' for Active; 'I' for Inactive)
REMARK    1  A    between atoms: C2_2  and  C3_3 
REMARK       I    between atoms: C3_3  and  N1_5 
REMARK    2  A    between atoms: N1_5  and  C4_6 
REMARK    3  A    between atoms: C7_9  and  C8_10 
REMARK    4  A    between atoms: C8_10  and  C9_11 
REMARK    5  A    between atoms: C10_12  and  O2_13 
REMARK    6  A    between atoms: C12_17  and  C13_18 
REMARK    7  A    between atoms: C13_18  and  C14_19 
REMARK    8  A    between atoms: C13_18  and  C15_21 
REMARK    9  A    between atoms: C14_19  and  O3_20 
ROOT
HETATM    1  C9  UNL     1      -0.222  -1.869  -0.663  1.00  0.00     0.024 A 
HETATM    2  C10 UNL     1       0.772  -2.752  -0.295  1.00  0.00     0.172 A 
HETATM    3  N2  UNL     1       0.400  -3.821   0.462  1.00  0.00    -0.217 NA
HETATM    4  C11 UNL     1      -0.892  -3.959   0.805  1.00  0.00     0.236 A 
HETATM    5  N3  UNL     1      -1.838  -3.084   0.432  1.00  0.00    -0.245 NA
HETATM    6  C12 UNL     1      -1.547  -1.983  -0.328  1.00  0.00     0.057 A 
ENDROOT
BRANCH   1   7
HETATM    7  C8  UNL     1       0.209  -0.741  -1.490  1.00  0.00     0.079 C 
BRANCH   7   8
HETATM    8  C7  UNL     1       0.942   0.253  -0.636  1.00  0.00    -0.070 A 
HETATM    9  C6  UNL     1       0.473   1.001   0.551  1.00  0.00     0.064 A 
HETATM   10  C5  UNL     1       1.668   1.811   0.943  1.00  0.00     0.007 A 
HETATM   11  C4  UNL     1       2.696   1.603   0.140  1.00  0.00     0.031 A 
HETATM   12  C22 UNL     1       2.218   0.631  -0.832  1.00  0.00     0.032 A 
BRANCH  11  13
HETATM   13  N1  UNL     1       4.004   2.160   0.155  1.00  0.00    -0.324 N 
HETATM   14  C3  UNL     1       5.142   1.328   0.293  1.00  0.00     0.244 C 
HETATM   15  O1  UNL     1       5.192   0.077   0.414  1.00  0.00    -0.268 OA
HETATM   16  H4  UNL     1       4.242   3.186   0.070  1.00  0.00     0.169 HD
BRANCH  14  17
HETATM   17  C2  UNL     1       6.525   1.822   0.318  1.00  0.00     0.064 C 
HETATM   18  C1  UNL     1       7.345   0.774   0.459  1.00  0.00     0.017 C 
ENDBRANCH  14  17
ENDBRANCH  11  13
ENDBRANCH   7   8
ENDBRANCH   1   7
BRANCH   2  19
HETATM   19  O2  UNL     1       2.094  -2.569  -0.673  1.00  0.00    -0.344 OA
HETATM   20  H10 UNL     1       2.614  -3.253  -1.194  1.00  0.00     0.219 HD
ENDBRANCH   2  19
BRANCH   6  21
HETATM   21  C13 UNL     1      -2.664  -1.131  -0.681  1.00  0.00     0.095 C 
BRANCH  21  22
HETATM   22  C14 UNL     1      -4.012  -1.836  -0.483  1.00  0.00     0.179 C 
BRANCH  22  23
HETATM   23  O3  UNL     1      -5.008  -0.939  -0.835  1.00  0.00    -0.400 OA
HETATM   24  H15 UNL     1      -5.798  -1.084  -0.255  1.00  0.00     0.209 HD
ENDBRANCH  22  23
ENDBRANCH  21  22
BRANCH  21  25
HETATM   25  C15 UNL     1      -2.765   0.217  -0.164  1.00  0.00    -0.040 A 
HETATM   26  C16 UNL     1      -2.828   1.317  -1.043  1.00  0.00     0.008 A 
HETATM   27  C17 UNL     1      -2.956   2.647  -0.747  1.00  0.00     0.001 A 
HETATM   28  C18 UNL     1      -3.034   2.983   0.579  1.00  0.00     0.001 A 
HETATM   29  C19 UNL     1      -2.982   1.988   1.505  1.00  0.00     0.007 A 
HETATM   30  C20 UNL     1      -2.850   0.640   1.145  1.00  0.00    -0.055 A 
HETATM   31  C21 UNL     1      -2.784  -0.366   2.209  1.00  0.00     0.049 C 
ENDBRANCH  21  25
ENDBRANCH   6  21
TORSDOF 9
