REMARK  6 active torsions:
REMARK  status: ('A' for Active; 'I' for Inactive)
REMARK    1  A    between atoms: C2_2  and  C3_3 
REMARK       I    between atoms: C3_3  and  N1_5 
REMARK    2  A    between atoms: N1_5  and  C4_6 
REMARK    3  A    between atoms: C4_6  and  C5_7 
REMARK    4  A    between atoms: C5_7  and  C6_8 
REMARK    5  A    between atoms: C5_7  and  C9_11 
REMARK    6  A    between atoms: C10_12  and  C11_13 
ROOT
HETATM    1  C9  UNL     1      -0.992  -0.870  -0.407  1.00  0.00     0.002 A 
HETATM    2  C10 UNL     1      -2.141  -0.149  -0.347  1.00  0.00     0.096 A 
HETATM    3  O2  UNL     1      -3.158  -0.995  -0.514  1.00  0.00    -0.290 OA
HETATM    4  C17 UNL     1      -2.758  -2.206  -0.677  1.00  0.00     0.183 A 
HETATM    5  N2  UNL     1      -3.531  -3.300  -0.872  1.00  0.00    -0.217 NA
HETATM    6  C18 UNL     1      -2.911  -4.480  -1.024  1.00  0.00     0.235 A 
HETATM    7  N3  UNL     1      -1.548  -4.511  -0.975  1.00  0.00    -0.253 NA
HETATM    8  C19 UNL     1      -0.846  -3.399  -0.780  1.00  0.00     0.134 A 
HETATM    9  C20 UNL     1      -1.403  -2.162  -0.616  1.00  0.00     0.044 A 
ENDROOT
BRANCH   1  10
HETATM   10  C5  UNL     1       0.364  -0.361  -0.282  1.00  0.00     0.062 C 
BRANCH  10  11
HETATM   11  C4  UNL     1       0.751  -0.030   1.165  1.00  0.00     0.136 C 
BRANCH  11  12
HETATM   12  N1  UNL     1       2.107   0.475   1.203  1.00  0.00    -0.357 N 
HETATM   13  C3  UNL     1       2.678   1.581   0.540  1.00  0.00     0.237 C 
HETATM   14  O1  UNL     1       2.057   2.340  -0.236  1.00  0.00    -0.269 OA
HETATM   15  H4  UNL     1       2.938   0.105   1.765  1.00  0.00     0.162 HD
BRANCH  13  16
HETATM   16  C2  UNL     1       4.024   2.127   0.548  1.00  0.00     0.047 C 
HETATM   17  C1  UNL     1       3.895   3.167  -0.287  1.00  0.00     0.037 C 
ENDBRANCH  13  16
ENDBRANCH  11  12
ENDBRANCH  10  11
BRANCH  10  18
HETATM   18  C6  UNL     1       1.393  -1.399  -0.673  1.00  0.00    -0.020 C 
HETATM   19  C7  UNL     1       2.218  -2.009   0.170  1.00  0.00    -0.034 C 
HETATM   20  C8  UNL     1       3.157  -2.993  -0.398  1.00  0.00     0.036 C 
ENDBRANCH  10  18
ENDBRANCH   1  10
BRANCH   2  21
HETATM   21  C11 UNL     1      -2.440   1.247  -0.153  1.00  0.00    -0.002 A 
HETATM   22  C12 UNL     1      -1.599   2.310  -0.011  1.00  0.00     0.014 A 
HETATM   23  C13 UNL     1      -1.909   3.628   0.185  1.00  0.00     0.001 A 
HETATM   24  C14 UNL     1      -3.230   3.983   0.254  1.00  0.00     0.000 A 
HETATM   25  C15 UNL     1      -4.156   2.983   0.122  1.00  0.00     0.001 A 
HETATM   26  C16 UNL     1      -3.772   1.681  -0.072  1.00  0.00     0.014 A 
ENDBRANCH   2  21
TORSDOF 6
