REMARK  8 active torsions:
REMARK  status: ('A' for Active; 'I' for Inactive)
REMARK    1  A    between atoms: C2_2  and  C3_3 
REMARK       I    between atoms: C3_3  and  N1_5 
REMARK    2  A    between atoms: N1_5  and  C4_6 
REMARK    3  A    between atoms: C8_10  and  C9_11 
REMARK    4  A    between atoms: C9_11  and  C10_12 
REMARK    5  A    between atoms: C12_14  and  N2_15 
REMARK    6  A    between atoms: N2_15  and  C13_16 
REMARK    7  A    between atoms: C18_21  and  C19_22 
REMARK    8  A    between atoms: C19_22  and  O2_23 
ROOT
HETATM    1  C10 UNL     1      -0.289   1.070  -0.121  1.00  0.00     0.114 A 
HETATM    2  C11 UNL     1      -1.709   1.036  -0.596  1.00  0.00     0.046 A 
HETATM    3  C12 UNL     1      -1.896  -0.255  -0.299  1.00  0.00     0.100 A 
HETATM    4  N3  UNL     1      -0.559  -0.321   0.176  1.00  0.00    -0.368 N 
HETATM    5  H20 UNL     1      -0.024  -1.140   0.588  1.00  0.00     0.161 HD
ENDROOT
BRANCH   1   6
HETATM    6  C9  UNL     1       0.604   1.349  -1.289  1.00  0.00     0.068 C 
BRANCH   6   7
HETATM    7  C8  UNL     1       2.014   1.390  -0.858  1.00  0.00    -0.054 A 
HETATM    8  C7  UNL     1       2.573   2.574  -0.444  1.00  0.00     0.007 A 
HETATM    9  C6  UNL     1       3.892   2.559  -0.054  1.00  0.00     0.003 A 
HETATM   10  C5  UNL     1       4.576   1.376  -0.097  1.00  0.00     0.029 A 
HETATM   11  C4  UNL     1       4.057   0.173  -0.503  1.00  0.00     0.035 A 
HETATM   12  C20 UNL     1       2.740   0.219  -0.886  1.00  0.00     0.036 A 
BRANCH  11  13
HETATM   13  N1  UNL     1       4.715  -1.075  -0.572  1.00  0.00    -0.324 N 
HETATM   14  C3  UNL     1       6.053  -1.383  -0.251  1.00  0.00     0.241 C 
HETATM   15  O1  UNL     1       6.833  -0.494   0.159  1.00  0.00    -0.269 OA
HETATM   16  H4  UNL     1       4.215  -1.929  -0.893  1.00  0.00     0.169 HD
BRANCH  14  17
HETATM   17  C2  UNL     1       6.675  -2.694  -0.345  1.00  0.00     0.048 C 
HETATM   18  C1  UNL     1       7.903  -2.348   0.080  1.00  0.00     0.037 C 
ENDBRANCH  14  17
ENDBRANCH  11  13
ENDBRANCH   6   7
ENDBRANCH   1   6
BRANCH   3  19
HETATM   19  N2  UNL     1      -3.046  -1.113  -0.451  1.00  0.00    -0.342 N 
HETATM   20  H12 UNL     1      -2.802  -2.120  -0.510  1.00  0.00     0.167 HD
BRANCH  19  21
HETATM   21  C13 UNL     1      -4.350  -0.545  -0.504  1.00  0.00     0.042 A 
HETATM   22  C14 UNL     1      -4.873  -0.176  -1.738  1.00  0.00     0.030 A 
HETATM   23  C15 UNL     1      -6.122   0.383  -1.907  1.00  0.00     0.002 A 
HETATM   24  C16 UNL     1      -6.853   0.565  -0.750  1.00  0.00     0.001 A 
HETATM   25  C17 UNL     1      -6.409   0.227   0.516  1.00  0.00     0.011 A 
HETATM   26  C18 UNL     1      -5.137  -0.333   0.614  1.00  0.00    -0.008 A 
BRANCH  26  27
HETATM   27  C19 UNL     1      -4.585  -0.728   1.936  1.00  0.00     0.205 C 
BRANCH  27  28
HETATM   28  O2  UNL     1      -4.678  -2.127   2.022  1.00  0.00    -0.396 OA
HETATM   29  H19 UNL     1      -5.667  -2.305   1.968  1.00  0.00     0.209 HD
ENDBRANCH  27  28
ENDBRANCH  26  27
ENDBRANCH  19  21
ENDBRANCH   3  19
TORSDOF 8
