REMARK  7 active torsions:
REMARK  status: ('A' for Active; 'I' for Inactive)
REMARK    1  A    between atoms: O1_2  and  C2_3 
REMARK    2  A    between atoms: C6_9  and  N3_10 
REMARK    3  A    between atoms: N3_10  and  C7_11 
REMARK    4  A    between atoms: C14_21  and  O2_22 
REMARK    5  A    between atoms: O2_22  and  C15_23 
REMARK    6  A    between atoms: C15_23  and  C16_24 
REMARK    7  A    between atoms: C16_24  and  C17_25 
ROOT
HETATM    1  C2  UNL     1       0.444   1.821  -2.229  1.00  0.00     0.104 C 
HETATM    2  C3  UNL     1      -0.722   2.005  -2.884  1.00  0.00     0.072 C 
HETATM    3  C4  UNL     1      -1.849   1.364  -2.217  1.00  0.00     0.066 A 
HETATM    4  N1  UNL     1      -2.859   0.866  -2.888  1.00  0.00    -0.242 NA
HETATM    5  C5  UNL     1      -3.931   0.238  -2.146  1.00  0.00     0.230 A 
HETATM    6  N2  UNL     1      -4.012   0.100  -0.891  1.00  0.00    -0.253 NA
HETATM    7  C6  UNL     1      -3.133   0.485   0.164  1.00  0.00     0.238 A 
HETATM    8  P1  UNL     1      -1.736   1.392  -0.426  1.00  0.00    -0.021 P 
HETATM    9  C13 UNL     1      -0.295   0.767  -0.090  1.00  0.00     0.021 C 
HETATM   10  C14 UNL     1       0.672   1.069  -0.971  1.00  0.00     0.114 C 
HETATM   11  H11 UNL     1      -1.788   2.745   0.002  1.00  0.00     0.068 HD
ENDROOT
BRANCH   7  12
HETATM   12  N3  UNL     1      -3.910   1.196   1.168  1.00  0.00    -0.363 N 
HETATM   13  H7  UNL     1      -3.699   2.183   1.430  1.00  0.00     0.162 HD
BRANCH  12  14
HETATM   14  C7  UNL     1      -4.992   0.545   1.824  1.00  0.00     0.031 A 
HETATM   15  C8  UNL     1      -5.751   1.211   2.792  1.00  0.00     0.032 A 
HETATM   16  C9  UNL     1      -6.816   0.633   3.465  1.00  0.00     0.046 A 
HETATM   17  C10 UNL     1      -7.159  -0.666   3.179  1.00  0.00     0.138 A 
HETATM   18  F1  UNL     1      -8.197  -1.211   3.844  1.00  0.00    -0.204 F 
HETATM   19  C11 UNL     1      -6.418  -1.333   2.227  1.00  0.00     0.074 A 
HETATM   20 CL1  UNL     1      -6.911  -3.003   1.907  1.00  0.00    -0.081 Cl
HETATM   21  C12 UNL     1      -5.360  -0.746   1.564  1.00  0.00     0.056 A 
ENDBRANCH  12  14
ENDBRANCH   7  12
BRANCH  10  22
HETATM   22  O2  UNL     1       1.986   0.686  -0.755  1.00  0.00    -0.347 OA
BRANCH  22  23
HETATM   23  C15 UNL     1       2.734   0.904   0.400  1.00  0.00     0.180 C 
BRANCH  23  24
HETATM   24  C16 UNL     1       4.153   0.393   0.288  1.00  0.00     0.091 C 
BRANCH  24  25
HETATM   25  C17 UNL     1       4.128  -1.109   0.024  1.00  0.00     0.360 C 
HETATM   26  O3  UNL     1       3.507  -1.822   1.019  1.00  0.00    -0.355 OA
HETATM   27  C18 UNL     1       4.001  -3.107   0.957  1.00  0.00     0.201 C 
HETATM   28  C19 UNL     1       5.207  -3.081   0.039  1.00  0.00     0.301 C 
HETATM   29  N4  UNL     1       5.441  -1.653  -0.075  1.00  0.00     0.115 N 
HETATM   30  C20 UNL     1       6.235  -1.245   1.062  1.00  0.00     0.313 C 
ENDBRANCH  24  25
ENDBRANCH  23  24
ENDBRANCH  22  23
ENDBRANCH  10  22
BRANCH   1  31
HETATM   31  O1  UNL     1       1.514   2.434  -2.867  1.00  0.00    -0.353 OA
HETATM   32  C1  UNL     1       2.222   1.913  -3.951  1.00  0.00     0.210 C 
ENDBRANCH   1  31
TORSDOF 7
