REMARK  1 active torsions:
REMARK  status: ('A' for Active; 'I' for Inactive)
REMARK    1  A    between atoms: C9_12  and  O1_13 
ROOT
HETATM    1  C1  UNL     1      -1.528  -1.115   1.832  1.00  0.00     0.033 C 
HETATM    2  C2  UNL     1      -2.466  -0.657   0.728  1.00  0.00     0.085 C 
HETATM    3  C3  UNL     1      -2.800   0.762   0.929  1.00  0.00     0.047 C 
HETATM    4  C4  UNL     1      -1.653   1.434   1.040  1.00  0.00     0.131 A 
HETATM    5 CL1  UNL     1      -2.660   2.918   1.242  1.00  0.00    -0.137 Cl
HETATM    6  C5  UNL     1      -0.657   2.472   1.296  1.00  0.00     0.284 A 
HETATM    7  F1  UNL     1      -0.298   3.702   1.737  1.00  0.00    -0.198 F 
HETATM    8  N1  UNL     1       0.414   2.148   1.032  1.00  0.00    -0.247 NA
HETATM    9  C6  UNL     1       1.765   2.443   0.960  1.00  0.00     0.098 C 
HETATM   10  C7  UNL     1       2.826   1.721   0.464  1.00  0.00     0.065 C 
HETATM   11  C8  UNL     1       3.668   0.614  -0.163  1.00  0.00     0.040 C 
HETATM   12  C9  UNL     1       3.322  -0.620  -0.600  1.00  0.00     0.139 C 
HETATM   13  N2  UNL     1       1.864  -0.796  -0.348  1.00  0.00    -0.304 N 
HETATM   14  C10 UNL     1       1.443  -0.545  -1.674  1.00  0.00     0.248 C 
HETATM   15  O2  UNL     1       2.625  -0.338  -2.159  1.00  0.00    -0.268 OA
HETATM   16  C11 UNL     1       0.126  -0.541  -2.158  1.00  0.00     0.091 C 
HETATM   17  C12 UNL     1      -0.841  -0.792  -1.327  1.00  0.00     0.091 C 
HETATM   18  N3  UNL     1      -1.998  -1.036  -0.603  1.00  0.00    -0.389 N 
HETATM   19  C13 UNL     1      -2.835  -1.852  -1.459  1.00  0.00     0.149 C 
HETATM   20  H10 UNL     1       2.277  -0.972   0.619  1.00  0.00     0.171 HD
ENDROOT
BRANCH  12  21
HETATM   21  O1  UNL     1       4.505  -1.106  -1.052  1.00  0.00    -0.346 OA
HETATM   22  H9  UNL     1       4.501  -1.970  -1.588  1.00  0.00     0.219 HD
ENDBRANCH  12  21
TORSDOF 1
