REMARK  7 active torsions:
REMARK  status: ('A' for Active; 'I' for Inactive)
REMARK    1  A    between atoms: O1_2  and  C2_3 
REMARK    2  A    between atoms: C6_9  and  C7_10 
REMARK    3  A    between atoms: C15_20  and  O2_21 
REMARK    4  A    between atoms: O2_21  and  C16_22 
REMARK    5  A    between atoms: C16_22  and  C17_23 
REMARK    6  A    between atoms: C17_23  and  C18_24 
REMARK    7  A    between atoms: C18_24  and  N3_25 
ROOT
HETATM    1  C2  UNL     1      -1.117   3.361   0.767  1.00  0.00     0.103 A 
HETATM    2  C3  UNL     1      -2.347   3.738   0.218  1.00  0.00     0.072 A 
HETATM    3  C4  UNL     1      -3.183   2.761  -0.242  1.00  0.00     0.073 A 
HETATM    4  N1  UNL     1      -4.376   3.070  -0.765  1.00  0.00    -0.241 NA
HETATM    5  C5  UNL     1      -5.195   2.080  -1.205  1.00  0.00     0.234 A 
HETATM    6  N2  UNL     1      -4.843   0.774  -1.133  1.00  0.00    -0.240 NA
HETATM    7  C6  UNL     1      -3.640   0.397  -0.611  1.00  0.00     0.081 A 
HETATM    8  C13 UNL     1      -2.855   1.436  -0.181  1.00  0.00     0.025 A 
HETATM    9  C14 UNL     1      -1.643   1.108   0.364  1.00  0.00     0.055 A 
HETATM   10  C15 UNL     1      -0.732   2.017   0.854  1.00  0.00     0.103 A 
ENDROOT
BRANCH  10  11
HETATM   11  O2  UNL     1       0.481   1.885   1.412  1.00  0.00    -0.348 OA
BRANCH  11  12
HETATM   12  C16 UNL     1       1.316   0.851   1.717  1.00  0.00     0.177 C 
BRANCH  12  13
HETATM   13  C17 UNL     1       1.719   0.112   0.461  1.00  0.00     0.057 C 
BRANCH  13  14
HETATM   14  C18 UNL     1       2.655  -1.053   0.803  1.00  0.00     0.274 C 
BRANCH  14  15
HETATM   15  N3  UNL     1       2.994  -1.701  -0.427  1.00  0.00     0.092 N 
HETATM   16  C19 UNL     1       3.824  -2.878  -0.226  1.00  0.00     0.298 C 
HETATM   17  C20 UNL     1       5.270  -2.585  -0.004  1.00  0.00     0.198 C 
HETATM   18  O3  UNL     1       5.714  -1.494  -0.736  1.00  0.00    -0.388 OA
HETATM   19  C21 UNL     1       4.926  -1.434  -1.901  1.00  0.00     0.198 C 
HETATM   20  C22 UNL     1       3.602  -0.816  -1.412  1.00  0.00     0.298 C 
ENDBRANCH  14  15
ENDBRANCH  13  14
ENDBRANCH  12  13
ENDBRANCH  11  12
ENDBRANCH  10  11
BRANCH   1  21
HETATM   21  O1  UNL     1      -0.327   4.421   1.211  1.00  0.00    -0.353 OA
HETATM   22  C1  UNL     1      -0.770   5.753   1.096  1.00  0.00     0.210 C 
ENDBRANCH   1  21
BRANCH   7  23
HETATM   23  C7  UNL     1      -3.354  -1.022  -0.572  1.00  0.00    -0.005 A 
HETATM   24  C8  UNL     1      -4.403  -1.738   0.006  1.00  0.00     0.017 A 
HETATM   25  C9  UNL     1      -4.372  -3.114   0.140  1.00  0.00     0.045 A 
HETATM   26  C10 UNL     1      -3.287  -3.841  -0.299  1.00  0.00     0.138 A 
HETATM   27  F1  UNL     1      -3.133  -5.186  -0.228  1.00  0.00    -0.204 F 
HETATM   28  C11 UNL     1      -2.253  -3.131  -0.870  1.00  0.00     0.073 A 
HETATM   29 CL1  UNL     1      -0.826  -3.952  -1.464  1.00  0.00    -0.081 Cl
HETATM   30  C12 UNL     1      -2.280  -1.761  -1.006  1.00  0.00     0.041 A 
ENDBRANCH   7  23
TORSDOF 7
