REMARK  3 active torsions:
REMARK  status: ('A' for Active; 'I' for Inactive)
REMARK    1  A    between atoms: O1_2  and  C2_3 
REMARK    2  A    between atoms: C6_9  and  N2_10 
REMARK    3  A    between atoms: N2_10  and  C7_11 
ROOT
HETATM    1  C2  UNL     1       2.964   0.431  -0.177  1.00  0.00     0.170 C 
HETATM    2  C3  UNL     1       2.510   1.796   0.050  1.00  0.00     0.145 C 
HETATM    3  N1  UNL     1       1.761   2.101   1.243  1.00  0.00    -0.221 NA
HETATM    4 CL1  UNL     1       1.126   3.694   1.252  1.00  0.00    -0.021 Cl
HETATM    5  C4  UNL     1       0.686   1.075   1.331  1.00  0.00     0.146 C 
HETATM    6  C5  UNL     1      -0.011   0.972   0.068  1.00  0.00    -0.018 C 
HETATM    7  C6  UNL     1      -0.051  -0.422   0.242  1.00  0.00     0.023 C 
HETATM    8  C13 UNL     1       0.618  -1.773   0.039  1.00  0.00     0.062 C 
HETATM    9  C14 UNL     1       1.979  -1.683  -0.674  1.00  0.00    -0.003 C 
HETATM   10  C15 UNL     1       1.940  -0.414  -0.859  1.00  0.00     0.002 C 
HETATM   11  C16 UNL     1       0.796  -0.384  -1.869  1.00  0.00     0.074 C 
HETATM   12  C17 UNL     1       0.210  -1.524  -2.317  1.00  0.00     0.011 C 
HETATM   13  C18 UNL     1      -0.183  -2.426  -1.147  1.00  0.00     0.044 C 
HETATM   14  O2  UNL     1       0.488   1.050  -2.169  1.00  0.00    -0.347 OA
HETATM   15  C19 UNL     1      -0.495   1.705  -1.169  1.00  0.00     0.213 C 
ENDROOT
BRANCH   7  16
HETATM   16  N2  UNL     1      -1.275  -0.538   0.901  1.00  0.00    -0.359 N 
HETATM   17  H9  UNL     1      -1.356  -0.869   1.878  1.00  0.00     0.166 HD
BRANCH  16  18
HETATM   18  C7  UNL     1      -2.657  -0.331   0.673  1.00  0.00     0.032 A 
HETATM   19  C8  UNL     1      -3.634  -1.213   0.275  1.00  0.00     0.032 A 
HETATM   20  C9  UNL     1      -4.955  -0.887   0.076  1.00  0.00     0.044 A 
HETATM   21  C10 UNL     1      -5.313   0.426   0.296  1.00  0.00     0.116 A 
HETATM   22  F1  UNL     1      -6.629   0.705   0.088  1.00  0.00    -0.206 F 
HETATM   23  C11 UNL     1      -4.378   1.369   0.699  1.00  0.00     0.044 A 
HETATM   24  C12 UNL     1      -3.073   0.988   0.883  1.00  0.00     0.032 A 
ENDBRANCH  16  18
ENDBRANCH   7  16
BRANCH   1  25
HETATM   25  O1  UNL     1       3.694  -0.256   0.696  1.00  0.00    -0.385 OA
HETATM   26  C1  UNL     1       4.974  -0.501   0.200  1.00  0.00     0.202 C 
ENDBRANCH   1  25
TORSDOF 3
