REMARK  6 active torsions:
REMARK  status: ('A' for Active; 'I' for Inactive)
REMARK    1  A    between atoms: O1_2  and  C2_3 
REMARK    2  A    between atoms: C13_19  and  O3_20 
REMARK    3  A    between atoms: O3_20  and  C14_21 
REMARK    4  A    between atoms: C14_21  and  C15_22 
REMARK    5  A    between atoms: C15_22  and  C16_23 
REMARK    6  A    between atoms: C16_23  and  N3_24 
ROOT
HETATM    1  C2  UNL     1      -1.999   1.152  -0.025  1.00  0.00     0.304 C 
HETATM    2  O2  UNL     1      -2.947   2.042  -0.540  1.00  0.00    -0.328 OA
HETATM    3  C3  UNL     1      -3.924   1.388  -1.285  1.00  0.00     0.214 C 
HETATM    4  C4  UNL     1      -3.447  -0.082  -1.417  1.00  0.00    -0.007 C 
HETATM    5  C5  UNL     1      -3.750  -1.407  -1.017  1.00  0.00     0.051 C 
HETATM    6  C6  UNL     1      -4.920  -2.231  -1.400  1.00  0.00     0.144 C 
HETATM    7  C7  UNL     1      -5.648  -1.850  -0.257  1.00  0.00     0.084 C 
HETATM    8 CL1  UNL     1      -7.000  -2.895  -0.849  1.00  0.00    -0.116 Cl
HETATM    9  C8  UNL     1      -5.896  -1.121   1.096  1.00  0.00     0.111 C 
HETATM   10  F1  UNL     1      -7.127  -1.388   1.550  1.00  0.00    -0.209 F 
HETATM   11  C9  UNL     1      -4.947  -0.358   1.646  1.00  0.00     0.032 C 
HETATM   12  C10 UNL     1      -3.683   0.308   1.815  1.00  0.00     0.159 C 
HETATM   13  N1  UNL     1      -2.624   0.162   0.860  1.00  0.00    -0.311 N 
HETATM   14  C11 UNL     1      -2.401  -1.305   0.988  1.00  0.00     0.210 C 
HETATM   15  N2  UNL     1      -2.756  -2.123  -0.017  1.00  0.00    -0.247 NA
HETATM   16  C12 UNL     1      -2.135   0.103  -2.266  1.00  0.00     0.051 C 
HETATM   17  C13 UNL     1      -1.353   0.529  -1.211  1.00  0.00     0.132 C 
ENDROOT
BRANCH  17  18
HETATM   18  O3  UNL     1       0.074   0.395  -1.205  1.00  0.00    -0.348 OA
BRANCH  18  19
HETATM   19  C14 UNL     1       0.763  -0.197  -0.152  1.00  0.00     0.177 C 
BRANCH  19  20
HETATM   20  C15 UNL     1       2.233  -0.149  -0.516  1.00  0.00     0.057 C 
BRANCH  20  21
HETATM   21  C16 UNL     1       3.099  -0.767   0.559  1.00  0.00     0.274 C 
BRANCH  21  22
HETATM   22  N3  UNL     1       4.466  -0.675   0.125  1.00  0.00     0.092 N 
HETATM   23  C17 UNL     1       5.416  -1.235   1.066  1.00  0.00     0.298 C 
HETATM   24  C18 UNL     1       6.732  -1.356   0.332  1.00  0.00     0.198 C 
HETATM   25  O4  UNL     1       6.940  -0.265  -0.516  1.00  0.00    -0.388 OA
HETATM   26  C19 UNL     1       6.278   0.868  -0.074  1.00  0.00     0.198 C 
HETATM   27  C20 UNL     1       4.791   0.660  -0.269  1.00  0.00     0.298 C 
ENDBRANCH  21  22
ENDBRANCH  20  21
ENDBRANCH  19  20
ENDBRANCH  18  19
ENDBRANCH  17  18
BRANCH   1  28
HETATM   28  O1  UNL     1      -1.130   1.890   0.732  1.00  0.00    -0.338 OA
HETATM   29  C1  UNL     1      -0.464   2.896   0.089  1.00  0.00     0.208 C 
ENDBRANCH   1  28
TORSDOF 6
