REMARK  8 active torsions:
REMARK  status: ('A' for Active; 'I' for Inactive)
REMARK    1  A    between atoms: N1_2  and  C3_4 
REMARK    2  A    between atoms: C3_4  and  C4_5 
REMARK    3  A    between atoms: C5_6  and  C6_7 
REMARK       I    between atoms: C6_7  and  N2_9 
REMARK    4  A    between atoms: N2_9  and  C7_10 
REMARK    5  A    between atoms: C12_16  and  N4_17 
REMARK    6  A    between atoms: N4_17  and  C13_18 
REMARK    7  A    between atoms: C16_21  and  O2_22 
REMARK    8  A    between atoms: O2_22  and  C17_23 
ROOT
HETATM    1  C7  UNL     1       2.025   0.992   1.168  1.00  0.00     0.098 C 
HETATM    2  C8  UNL     1       1.097   1.818   1.552  1.00  0.00    -0.021 C 
HETATM    3  C9  UNL     1       1.381   2.994   2.408  1.00  0.00     0.044 C 
HETATM    4  C10 UNL     1       0.603   4.182   1.889  1.00  0.00     0.051 C 
HETATM    5  C11 UNL     1      -0.154   3.908   0.644  1.00  0.00     0.086 C 
HETATM    6  N3  UNL     1      -0.632   2.765   0.225  1.00  0.00    -0.276 NA
HETATM    7  C12 UNL     1      -0.321   1.694   1.186  1.00  0.00     0.236 C 
ENDROOT
BRANCH   7   8
HETATM    8  N4  UNL     1      -0.755   0.412   0.753  1.00  0.00    -0.364 N 
HETATM    9  H19 UNL     1      -0.079  -0.376   0.716  1.00  0.00     0.162 HD
BRANCH   8  10
HETATM   10  C13 UNL     1      -2.117   0.136   0.360  1.00  0.00     0.031 A 
HETATM   11  C14 UNL     1      -3.080   1.145   0.401  1.00  0.00     0.032 A 
HETATM   12  C15 UNL     1      -4.369   0.779  -0.007  1.00  0.00     0.041 A 
HETATM   13  C16 UNL     1      -4.725  -0.510  -0.441  1.00  0.00     0.091 A 
HETATM   14  C21 UNL     1      -3.699  -1.420  -0.439  1.00  0.00     0.069 A 
HETATM   15 CL1  UNL     1      -4.113  -3.012  -0.969  1.00  0.00    -0.081 Cl
HETATM   16  C22 UNL     1      -2.407  -1.167  -0.061  1.00  0.00     0.056 A 
BRANCH  13  17
HETATM   17  O2  UNL     1      -6.041  -0.512  -0.760  1.00  0.00    -0.342 OA
BRANCH  17  18
HETATM   18  C17 UNL     1      -6.916  -1.452  -1.224  1.00  0.00     0.154 C 
HETATM   19  C18 UNL     1      -7.453  -0.951  -2.568  1.00  0.00     0.061 C 
HETATM   20  C19 UNL     1      -8.909  -1.244  -2.449  1.00  0.00     0.170 C 
HETATM   21  O3  UNL     1      -9.243  -1.167  -1.105  1.00  0.00    -0.389 OA
HETATM   22  C20 UNL     1      -8.164  -1.564  -0.370  1.00  0.00     0.200 C 
ENDBRANCH  17  18
ENDBRANCH  13  17
ENDBRANCH   8  10
ENDBRANCH   7   8
BRANCH   1  23
HETATM   23  N2  UNL     1       3.416   0.997   1.444  1.00  0.00    -0.333 N 
HETATM   24  C6  UNL     1       4.402   0.059   0.989  1.00  0.00     0.244 C 
HETATM   25  O1  UNL     1       3.931  -0.856   0.258  1.00  0.00    -0.268 OA
HETATM   26  H11 UNL     1       3.810   1.759   2.048  1.00  0.00     0.168 HD
BRANCH  24  27
HETATM   27  C5  UNL     1       5.785   0.185   1.352  1.00  0.00     0.072 C 
HETATM   28  C4  UNL     1       6.682  -0.669   0.937  1.00  0.00     0.008 C 
BRANCH  28  29
HETATM   29  C3  UNL     1       6.749  -1.871   0.113  1.00  0.00     0.299 C 
BRANCH  29  30
HETATM   30  N1  UNL     1       7.630  -1.698  -1.031  1.00  0.00     0.083 N 
HETATM   31  C1  UNL     1       7.079  -0.740  -1.976  1.00  0.00     0.309 C 
HETATM   32  C2  UNL     1       7.760  -3.012  -1.647  1.00  0.00     0.309 C 
ENDBRANCH  29  30
ENDBRANCH  28  29
ENDBRANCH  24  27
ENDBRANCH   1  23
TORSDOF 8
