REMARK  2 active torsions:
REMARK  status: ('A' for Active; 'I' for Inactive)
REMARK    1  A    between atoms: O1_2  and  C2_3 
REMARK    2  A    between atoms: C7_8  and  O2_9 
ROOT
HETATM    1  C2  UNL     1       2.899   0.585   0.253  1.00  0.00     0.102 A 
HETATM    2  C3  UNL     1       1.700   0.855   0.879  1.00  0.00     0.050 A 
HETATM    3  C4  UNL     1       0.454   0.250   0.661  1.00  0.00    -0.018 A 
HETATM    4  C5  UNL     1       0.444  -0.738  -0.305  1.00  0.00     0.079 A 
HETATM    5  C6  UNL     1       1.646  -1.034  -0.958  1.00  0.00     0.077 A 
HETATM    6  C7  UNL     1       2.874  -0.403  -0.709  1.00  0.00     0.104 A 
HETATM    7  O3  UNL     1      -0.496  -1.561  -0.831  1.00  0.00    -0.338 OA
HETATM    8  C9  UNL     1      -0.900  -2.838  -0.515  1.00  0.00     0.190 C 
HETATM    9  C10 UNL     1      -2.129  -3.293  -1.245  1.00  0.00     0.143 C 
HETATM   10  N1  UNL     1      -2.834  -2.212  -1.326  1.00  0.00    -0.077 NA
HETATM   11  C11 UNL     1      -3.011  -1.597  -0.010  1.00  0.00     0.721 C 
HETATM   12  N2  UNL     1      -2.530  -2.071   1.126  1.00  0.00    -0.102 NA
HETATM   13  C12 UNL     1      -1.246  -2.788   0.996  1.00  0.00     0.206 C 
HETATM   14  N3  UNL     1      -3.612  -0.427   0.541  1.00  0.00    -0.188 N 
HETATM   15  C13 UNL     1      -3.003   0.885   0.370  1.00  0.00     0.057 A 
HETATM   16  C14 UNL     1      -3.901   1.683  -0.310  1.00  0.00     0.049 A 
HETATM   17  C15 UNL     1      -3.650   2.997  -0.664  1.00  0.00     0.013 A 
HETATM   18 BR1  UNL     1      -4.849   4.134  -1.597  1.00  0.00    -0.051 Br
HETATM   19  C16 UNL     1      -2.408   3.532  -0.303  1.00  0.00     0.020 A 
HETATM   20  C17 UNL     1      -1.553   2.688   0.375  1.00  0.00     0.011 A 
HETATM   21  C18 UNL     1      -1.768   1.375   0.744  1.00  0.00    -0.026 A 
HETATM   22  C19 UNL     1      -0.697   0.709   1.470  1.00  0.00     0.082 C 
HETATM   23  H13 UNL     1      -4.524  -0.463   1.092  1.00  0.00     0.184 HD
ENDROOT
BRANCH   1  24
HETATM   24  O1  UNL     1       4.056   1.255   0.561  1.00  0.00    -0.353 OA
HETATM   25  C1  UNL     1       4.179   2.264   1.514  1.00  0.00     0.210 C 
ENDBRANCH   1  24
BRANCH   6  26
HETATM   26  O2  UNL     1       4.069  -0.680  -1.340  1.00  0.00    -0.353 OA
HETATM   27  C8  UNL     1       4.294  -1.625  -2.334  1.00  0.00     0.210 C 
ENDBRANCH   6  26
TORSDOF 2
