REMARK  7 active torsions:
REMARK  status: ('A' for Active; 'I' for Inactive)
REMARK    1  A    between atoms: O1_2  and  C2_3 
REMARK    2  A    between atoms: C6_9  and  N3_10 
REMARK    3  A    between atoms: N3_10  and  C7_11 
REMARK    4  A    between atoms: C15_21  and  O2_22 
REMARK    5  A    between atoms: O2_22  and  C16_23 
REMARK    6  A    between atoms: C16_23  and  C17_24 
REMARK    7  A    between atoms: C17_24  and  N4_25 
ROOT
HETATM    1  C2  UNL     1      -2.535  -1.392  -0.439  1.00  0.00     0.103 A 
HETATM    2  C3  UNL     1      -1.900  -2.625  -0.501  1.00  0.00     0.072 A 
HETATM    3  C4  UNL     1      -0.570  -2.771  -0.138  1.00  0.00     0.075 A 
HETATM    4  N1  UNL     1       0.061  -3.955  -0.183  1.00  0.00    -0.241 NA
HETATM    5  C5  UNL     1       1.359  -4.018   0.196  1.00  0.00     0.236 A 
HETATM    6  N2  UNL     1       2.031  -2.920   0.616  1.00  0.00    -0.224 NA
HETATM    7  C6  UNL     1       1.448  -1.719   0.678  1.00  0.00     0.142 A 
HETATM    8  C13 UNL     1       0.121  -1.645   0.293  1.00  0.00     0.042 A 
HETATM    9  C14 UNL     1      -0.490  -0.418   0.360  1.00  0.00     0.057 A 
HETATM   10  C15 UNL     1      -1.815  -0.295  -0.005  1.00  0.00     0.103 A 
ENDROOT
BRANCH   7  11
HETATM   11  N3  UNL     1       2.243  -0.639   1.147  1.00  0.00    -0.340 N 
HETATM   12  H6  UNL     1       1.896  -0.522   2.120  1.00  0.00     0.167 HD
BRANCH  11  13
HETATM   13  C7  UNL     1       3.262   0.149   0.558  1.00  0.00     0.035 A 
HETATM   14  C8  UNL     1       3.804   1.176   1.308  1.00  0.00     0.032 A 
HETATM   15  C9  UNL     1       4.804   1.896   0.689  1.00  0.00     0.046 A 
HETATM   16  C10 UNL     1       5.260   1.629  -0.609  1.00  0.00     0.138 A 
HETATM   17  F1  UNL     1       6.266   2.416  -1.121  1.00  0.00    -0.204 F 
HETATM   18  C11 UNL     1       4.682   0.593  -1.307  1.00  0.00     0.074 A 
HETATM   19 CL1  UNL     1       5.256   0.252  -2.943  1.00  0.00    -0.081 Cl
HETATM   20  C12 UNL     1       3.678  -0.152  -0.724  1.00  0.00     0.056 A 
ENDBRANCH  11  13
ENDBRANCH   7  11
BRANCH  10  21
HETATM   21  O2  UNL     1      -2.538   0.885   0.021  1.00  0.00    -0.347 OA
BRANCH  21  22
HETATM   22  C16 UNL     1      -2.077   2.142   0.407  1.00  0.00     0.205 C 
BRANCH  22  23
HETATM   23  C17 UNL     1      -3.202   3.182   0.293  1.00  0.00     0.293 C 
BRANCH  23  24
HETATM   24  N4  UNL     1      -2.669   4.454   0.699  1.00  0.00     0.080 N 
HETATM   25  H15 UNL     1      -2.222   4.375   1.637  1.00  0.00     0.312 HD
HETATM   26  H16 UNL     1      -3.372   5.221   0.623  1.00  0.00     0.312 HD
ENDBRANCH  23  24
ENDBRANCH  22  23
ENDBRANCH  21  22
ENDBRANCH  10  21
BRANCH   1  27
HETATM   27  O1  UNL     1      -3.855  -1.299  -0.810  1.00  0.00    -0.353 OA
HETATM   28  C1  UNL     1      -4.703  -2.294  -1.261  1.00  0.00     0.210 C 
ENDBRANCH   1  27
TORSDOF 7
