REMARK  9 active torsions:
REMARK  status: ('A' for Active; 'I' for Inactive)
REMARK    1  A    between atoms: C1_2  and  O1_3 
REMARK    2  A    between atoms: O1_3  and  C2_4 
REMARK    3  A    between atoms: N1_9  and  C6_10 
REMARK    4  A    between atoms: C6_10  and  C7_11 
REMARK    5  A    between atoms: C7_11  and  C8_12 
REMARK    6  A    between atoms: C8_12  and  O3_13 
REMARK    7  A    between atoms: O3_13  and  C9_14 
REMARK    8  A    between atoms: C9_14  and  C10_15 
REMARK    9  A    between atoms: N2_18  and  C13_19 
ROOT
HETATM    1  C9  UNL     1       0.662  -0.117  -1.532  1.00  0.00     0.181 C 
ENDROOT
BRANCH   1   2
HETATM    2  O3  UNL     1      -0.243  -1.127  -1.299  1.00  0.00    -0.390 OA
BRANCH   2   3
HETATM    3  C8  UNL     1      -1.148  -0.801  -0.291  1.00  0.00     0.169 C 
BRANCH   3   4
HETATM    4  C7  UNL     1      -1.967   0.428  -0.577  1.00  0.00     0.046 C 
BRANCH   4   5
HETATM    5  C6  UNL     1      -2.942   0.828   0.458  1.00  0.00     0.121 C 
BRANCH   5   6
HETATM    6  N1  UNL     1      -3.971  -0.003   0.854  1.00  0.00    -0.384 N 
HETATM    7  C2  UNL     1      -5.265   0.208   0.321  1.00  0.00     0.245 C 
HETATM    8  C3  UNL     1      -5.843  -1.031  -0.278  1.00  0.00     0.221 C 
HETATM    9  O2  UNL     1      -4.980  -2.113  -0.288  1.00  0.00    -0.385 OA
HETATM   10  C4  UNL     1      -4.367  -2.382   0.924  1.00  0.00     0.187 C 
HETATM   11  C5  UNL     1      -3.768  -1.185   1.578  1.00  0.00     0.145 C 
BRANCH   7  12
HETATM   12  O1  UNL     1      -5.272   1.311  -0.530  1.00  0.00    -0.336 OA
BRANCH  12  13
HETATM   13  C1  UNL     1      -6.071   2.316   0.013  1.00  0.00     0.394 C 
HETATM   14  F1  UNL     1      -6.107   3.433  -0.803  1.00  0.00    -0.227 F 
ENDBRANCH  12  13
ENDBRANCH   7  12
ENDBRANCH   5   6
ENDBRANCH   4   5
ENDBRANCH   3   4
ENDBRANCH   2   3
ENDBRANCH   1   2
BRANCH   1  15
HETATM   15  C10 UNL     1       1.497   0.272  -0.341  1.00  0.00     0.075 A 
HETATM   16  C11 UNL     1       2.411   1.371  -0.781  1.00  0.00     0.005 A 
HETATM   17  C12 UNL     1       3.721   1.312  -0.677  1.00  0.00     0.115 A 
HETATM   18  N2  UNL     1       4.347   0.169  -0.126  1.00  0.00    -0.246 N 
HETATM   19  N3  UNL     1       3.527  -0.866   0.291  1.00  0.00    -0.184 NA
HETATM   20  C19 UNL     1       2.238  -0.864   0.214  1.00  0.00     0.123 A 
BRANCH  18  21
HETATM   21  C13 UNL     1       5.754   0.032   0.021  1.00  0.00     0.058 A 
HETATM   22  C14 UNL     1       6.309  -1.119   0.567  1.00  0.00     0.033 A 
HETATM   23  C15 UNL     1       7.670  -1.258   0.713  1.00  0.00     0.026 A 
HETATM   24  C16 UNL     1       8.529  -0.268   0.327  1.00  0.00     0.034 A 
HETATM   25 CL1  UNL     1      10.283  -0.402   0.497  1.00  0.00    -0.084 Cl
HETATM   26  C17 UNL     1       8.031   0.909  -0.227  1.00  0.00     0.026 A 
HETATM   27  C18 UNL     1       6.668   0.993  -0.349  1.00  0.00     0.033 A 
ENDBRANCH  18  21
ENDBRANCH   1  15
TORSDOF 9
