REMARK  7 active torsions:
REMARK  status: ('A' for Active; 'I' for Inactive)
REMARK    1  A    between atoms: O1_2  and  C2_3 
REMARK    2  A    between atoms: C3_4  and  C4_5 
REMARK    3  A    between atoms: C7_10  and  N2_11 
REMARK    4  A    between atoms: N2_11  and  C8_12 
REMARK    5  A    between atoms: C8_12  and  C9_13 
REMARK    6  A    between atoms: C10_14  and  N3_15 
REMARK    7  A    between atoms: C11_17  and  O3_18 
ROOT
HETATM    1  C4  UNL     1      -1.913  -0.988  -0.200  1.00  0.00     0.087 C 
HETATM    2  O2  UNL     1      -1.363  -2.222  -0.222  1.00  0.00    -0.293 OA
HETATM    3  C5  UNL     1      -0.557  -2.673   0.773  1.00  0.00     0.173 C 
HETATM    4  N1  UNL     1       0.587  -2.627   0.084  1.00  0.00    -0.237 NA
HETATM    5  C6  UNL     1       1.171  -1.408  -0.184  1.00  0.00     0.151 C 
HETATM    6  C7  UNL     1       1.161  -0.034   0.123  1.00  0.00     0.079 C 
HETATM    7  C11 UNL     1       0.201   0.944   0.208  1.00  0.00     0.096 C 
HETATM    8  C13 UNL     1      -0.953   1.087   0.948  1.00  0.00     0.050 C 
HETATM    9  C14 UNL     1      -1.514  -0.164   0.834  1.00  0.00     0.006 C 
HETATM   10  C15 UNL     1      -1.601  -0.543   2.283  1.00  0.00     0.311 C 
HETATM   11  N4  UNL     1      -2.115  -1.869   2.452  1.00  0.00     0.095 N 
HETATM   12  C16 UNL     1      -1.297  -2.962   2.022  1.00  0.00     0.356 C 
HETATM   13  H19 UNL     1      -2.425  -1.979   3.444  1.00  0.00     0.316 HD
ENDROOT
BRANCH   6  14
HETATM   14  N2  UNL     1       2.521   0.385   0.404  1.00  0.00    -0.383 N 
HETATM   15  H7  UNL     1       2.724   1.399   0.659  1.00  0.00     0.160 HD
BRANCH  14  16
HETATM   16  C8  UNL     1       3.728  -0.413   0.393  1.00  0.00     0.150 C 
BRANCH  16  17
HETATM   17  C9  UNL     1       4.950   0.316   0.732  1.00  0.00     0.029 C 
HETATM   18  C10 UNL     1       5.996   0.432  -0.091  1.00  0.00     0.071 C 
HETATM   19 BR1  UNL     1       7.516   1.428   0.525  1.00  0.00    -0.032 Br
BRANCH  18  20
HETATM   20  N3  UNL     1       5.641  -0.273  -1.270  1.00  0.00    -0.394 N 
HETATM   21  H11 UNL     1       5.085   0.186  -2.037  1.00  0.00     0.156 HD
HETATM   22  H12 UNL     1       6.011  -1.241  -1.218  1.00  0.00     0.156 HD
ENDBRANCH  18  20
ENDBRANCH  16  17
ENDBRANCH  14  16
ENDBRANCH   6  14
BRANCH   7  23
HETATM   23  O3  UNL     1       0.400   2.015  -0.595  1.00  0.00    -0.354 OA
HETATM   24  C12 UNL     1      -0.330   3.171  -0.785  1.00  0.00     0.210 C 
ENDBRANCH   7  23
BRANCH   1  25
HETATM   25  C3  UNL     1      -2.844  -0.703  -1.264  1.00  0.00     0.062 C 
HETATM   26  C2  UNL     1      -3.347   0.504  -1.197  1.00  0.00     0.137 C 
BRANCH  26  27
HETATM   27  O1  UNL     1      -4.175   1.455  -1.717  1.00  0.00    -0.368 OA
HETATM   28  C1  UNL     1      -5.414   1.291  -2.324  1.00  0.00     0.208 C 
ENDBRANCH  26  27
ENDBRANCH   1  25
TORSDOF 7
