REMARK  7 active torsions:
REMARK  status: ('A' for Active; 'I' for Inactive)
REMARK    1  A    between atoms: N1_2  and  C3_4 
REMARK    2  A    between atoms: C3_4  and  C4_5 
REMARK    3  A    between atoms: C4_5  and  P1_6 
REMARK    4  A    between atoms: P1_6  and  C5_7 
REMARK       I    between atoms: C5_7  and  N2_9 
REMARK    5  A    between atoms: C8_12  and  N3_13 
REMARK    6  A    between atoms: N3_13  and  C9_14 
REMARK    7  A    between atoms: C17_26  and  C18_27 
ROOT
HETATM    1  C5  UNL     1       1.268   0.440   1.173  1.00  0.00     0.253 C 
HETATM    2  O1  UNL     1       1.052   1.691   1.019  1.00  0.00    -0.267 OA
HETATM    3  N2  UNL     1       0.171  -0.218   0.569  1.00  0.00    -0.339 N 
HETATM    4  C6  UNL     1      -0.710   0.801   0.045  1.00  0.00     0.171 C 
HETATM    5  C7  UNL     1      -1.728   0.049  -0.731  1.00  0.00     0.033 A 
HETATM    6  C8  UNL     1      -2.667   0.700  -1.374  1.00  0.00     0.139 A 
HETATM    7  N4  UNL     1      -3.670   0.049  -2.134  1.00  0.00    -0.226 NA
HETATM    8  C15 UNL     1      -3.695  -1.263  -2.221  1.00  0.00     0.209 A 
HETATM    9  N5  UNL     1      -2.691  -1.981  -1.532  1.00  0.00    -0.350 N 
HETATM   10  C16 UNL     1      -1.671  -1.383  -0.764  1.00  0.00     0.049 A 
HETATM   11  C17 UNL     1      -0.900  -2.297  -0.210  1.00  0.00    -0.028 C 
HETATM   12  C22 UNL     1       0.190  -1.635   0.619  1.00  0.00     0.163 C 
HETATM   13  H17 UNL     1      -2.845  -2.967  -1.676  1.00  0.00     0.166 HD
ENDROOT
BRANCH   6  14
HETATM   14  N3  UNL     1      -2.705   2.118  -1.328  1.00  0.00    -0.340 N 
HETATM   15  H12 UNL     1      -2.141   2.538  -2.101  1.00  0.00     0.167 HD
BRANCH  14  16
HETATM   16  C9  UNL     1      -3.268   3.170  -0.563  1.00  0.00     0.035 A 
HETATM   17  C10 UNL     1      -2.773   3.868   0.516  1.00  0.00     0.032 A 
HETATM   18  C11 UNL     1      -3.531   4.863   1.100  1.00  0.00     0.046 A 
HETATM   19  C12 UNL     1      -4.771   5.165   0.619  1.00  0.00     0.138 A 
HETATM   20  F1  UNL     1      -5.411   6.163   1.283  1.00  0.00    -0.204 F 
HETATM   21  C13 UNL     1      -5.317   4.492  -0.467  1.00  0.00     0.074 A 
HETATM   22 CL1  UNL     1      -6.903   4.931  -1.026  1.00  0.00    -0.081 Cl
HETATM   23  C14 UNL     1      -4.543   3.487  -1.050  1.00  0.00     0.056 A 
ENDBRANCH  14  16
ENDBRANCH   6  14
BRANCH  11  24
HETATM   24  C18 UNL     1      -0.718  -3.706  -0.151  1.00  0.00     0.044 C 
HETATM   25  C19 UNL     1      -0.870  -4.278   1.275  1.00  0.00     0.037 C 
HETATM   26  C20 UNL     1      -2.114  -5.128   1.143  1.00  0.00     0.168 C 
HETATM   27  O2  UNL     1      -2.536  -5.127  -0.175  1.00  0.00    -0.390 OA
HETATM   28  C21 UNL     1      -1.431  -4.725  -0.928  1.00  0.00     0.176 C 
ENDBRANCH  11  24
BRANCH   1  29
HETATM   29  P1  UNL     1       2.824   0.129   2.062  1.00  0.00     0.043 P 
BRANCH  29  30
HETATM   30  C4  UNL     1       4.267   0.208   1.261  1.00  0.00     0.024 C 
BRANCH  30  31
HETATM   31  C3  UNL     1       5.125   0.412   0.089  1.00  0.00     0.300 C 
BRANCH  31  32
HETATM   32  N1  UNL     1       6.009   1.545   0.226  1.00  0.00     0.083 N 
HETATM   33  C1  UNL     1       7.017   1.336   1.228  1.00  0.00     0.309 C 
HETATM   34  C2  UNL     1       6.651   1.745  -1.051  1.00  0.00     0.309 C 
ENDBRANCH  31  32
ENDBRANCH  30  31
ENDBRANCH  29  30
ENDBRANCH   1  29
TORSDOF 7
