REMARK  3 active torsions:
REMARK  status: ('A' for Active; 'I' for Inactive)
REMARK    1  A    between atoms: C2_2  and  O1_3 
REMARK    2  A    between atoms: O1_3  and  C3_4 
REMARK    3  A    between atoms: C6_8  and  C7_9 
ROOT
HETATM    1  C1  UNL     1       1.525   1.846  -0.397  1.00  0.00     0.055 C 
HETATM    2  C2  UNL     1       1.216   0.746   0.629  1.00  0.00     0.125 C 
HETATM    3  C13 UNL     1       1.689  -0.549   0.038  1.00  0.00     0.073 C 
HETATM    4  C14 UNL     1       1.684  -1.697   0.944  1.00  0.00    -0.019 C 
HETATM    5  C15 UNL     1       2.933  -2.160   1.189  1.00  0.00     0.048 C 
HETATM    6  C16 UNL     1       3.999  -1.407   0.493  1.00  0.00     0.151 A 
HETATM    7  N1  UNL     1       4.387  -2.017  -0.664  1.00  0.00    -0.221 NA
HETATM    8  C17 UNL     1       5.349  -1.272  -1.243  1.00  0.00     0.258 A 
HETATM    9  N2  UNL     1       5.530  -0.222  -0.429  1.00  0.00    -0.160 NA
HETATM   10  N3  UNL     1       4.737  -0.278   0.614  1.00  0.00    -0.226 N 
HETATM   11  C18 UNL     1       4.408   0.414   1.784  1.00  0.00     0.124 C 
HETATM   12  C19 UNL     1       3.291   0.944   2.230  1.00  0.00     0.073 C 
HETATM   13  C20 UNL     1       1.922   1.131   1.870  1.00  0.00     0.185 C 
HETATM   14  O3  UNL     1       0.898   1.628   2.387  1.00  0.00    -0.290 OA
ENDROOT
BRANCH   2  15
HETATM   15  O1  UNL     1      -0.121   0.712   0.904  1.00  0.00    -0.364 OA
BRANCH  15  16
HETATM   16  C3  UNL     1      -1.013   0.499  -0.087  1.00  0.00     0.158 C 
HETATM   17  C4  UNL     1      -2.154   1.497  -0.048  1.00  0.00     0.061 C 
HETATM   18  C5  UNL     1      -3.066   0.883   0.987  1.00  0.00     0.171 C 
HETATM   19  O2  UNL     1      -2.442  -0.279   1.428  1.00  0.00    -0.379 OA
HETATM   20  C6  UNL     1      -1.792  -0.756   0.263  1.00  0.00     0.183 C 
BRANCH  20  21
HETATM   21  C7  UNL     1      -2.876  -1.042  -0.705  1.00  0.00    -0.025 A 
HETATM   22  C8  UNL     1      -2.916  -0.731  -2.024  1.00  0.00     0.013 A 
HETATM   23  C9  UNL     1      -4.014  -1.067  -2.813  1.00  0.00     0.044 A 
HETATM   24  C10 UNL     1      -5.092  -1.729  -2.263  1.00  0.00     0.138 A 
HETATM   25  F1  UNL     1      -6.173  -2.067  -3.009  1.00  0.00    -0.204 F 
HETATM   26  C11 UNL     1      -5.092  -2.064  -0.921  1.00  0.00     0.073 A 
HETATM   27 CL1  UNL     1      -6.448  -2.904  -0.195  1.00  0.00    -0.081 Cl
HETATM   28  C12 UNL     1      -3.982  -1.713  -0.170  1.00  0.00     0.036 A 
ENDBRANCH  20  21
ENDBRANCH  15  16
ENDBRANCH   2  15
TORSDOF 3
