REMARK  5 active torsions:
REMARK  status: ('A' for Active; 'I' for Inactive)
REMARK    1  A    between atoms: O1_2  and  C2_3 
REMARK    2  A    between atoms: C2_3  and  N1_4 
REMARK    3  A    between atoms: N1_4  and  C3_5 
REMARK    4  A    between atoms: C8_11  and  C9_12 
REMARK    5  A    between atoms: C9_12  and  C10_13 
ROOT
HETATM    1  C3  UNL     1       2.164   1.266  -0.758  1.00  0.00     0.096 A 
HETATM    2  C4  UNL     1       2.230   0.005  -1.543  1.00  0.00    -0.023 A 
HETATM    3  C5  UNL     1       1.052   0.035  -1.079  1.00  0.00     0.037 A 
HETATM    4  C6  UNL     1      -0.132   0.504  -0.388  1.00  0.00     0.041 C 
HETATM    5  C7  UNL     1      -1.265  -0.187  -0.001  1.00  0.00     0.106 A 
HETATM    6  O2  UNL     1      -2.041   0.881   0.520  1.00  0.00    -0.352 OA
HETATM    7  C8  UNL     1      -3.515   0.601   0.353  1.00  0.00     0.223 C 
HETATM    8  N3  UNL     1      -3.488  -0.682   1.001  1.00  0.00    -0.383 N 
HETATM    9  C13 UNL     1      -2.314  -1.094   0.383  1.00  0.00     0.079 A 
HETATM   10  C14 UNL     1      -0.856  -1.474   0.344  1.00  0.00     0.095 A 
HETATM   11  C15 UNL     1       0.530  -1.447   0.680  1.00  0.00    -0.004 A 
HETATM   12  C16 UNL     1       0.879  -2.468  -0.216  1.00  0.00     0.013 A 
HETATM   13  C17 UNL     1      -0.472  -2.552  -0.617  1.00  0.00     0.073 A 
HETATM   14  C18 UNL     1      -1.452  -1.825  -0.131  1.00  0.00     0.048 A 
HETATM   15  C19 UNL     1      -0.633  -3.554  -1.660  1.00  0.00     0.228 A 
HETATM   16  O3  UNL     1      -1.628  -3.965  -2.306  1.00  0.00    -0.273 OA
HETATM   17  N4  UNL     1       0.658  -4.062  -1.871  1.00  0.00    -0.359 N 
HETATM   18  C20 UNL     1       1.598  -3.455  -0.992  1.00  0.00     0.135 A 
HETATM   19  C21 UNL     1       1.479  -0.441   1.390  1.00  0.00    -0.044 A 
HETATM   20  C22 UNL     1       1.634  -0.682   2.706  1.00  0.00     0.008 A 
HETATM   21  C23 UNL     1       2.356   0.130   3.531  1.00  0.00     0.001 A 
HETATM   22  C24 UNL     1       2.952   1.240   3.002  1.00  0.00     0.001 A 
HETATM   23  C25 UNL     1       2.787   1.471   1.661  1.00  0.00     0.009 A 
HETATM   24  C26 UNL     1       2.098   0.747   0.727  1.00  0.00    -0.032 A 
HETATM   25  H18 UNL     1      -3.648  -1.537   1.563  1.00  0.00     0.156 HD
HETATM   26  H20 UNL     1       1.090  -4.773  -2.512  1.00  0.00     0.162 HD
ENDROOT
BRANCH   1  27
HETATM   27  N1  UNL     1       3.542   1.862  -0.813  1.00  0.00    -0.294 N 
HETATM   28  H6  UNL     1       3.372   2.860  -0.451  1.00  0.00     0.124 HD
BRANCH  27  29
HETATM   29  C2  UNL     1       3.930   1.988  -2.214  1.00  0.00     0.257 C 
BRANCH  29  30
HETATM   30  O1  UNL     1       5.212   2.593  -2.168  1.00  0.00    -0.382 OA
HETATM   31  C1  UNL     1       6.108   1.789  -1.453  1.00  0.00     0.203 C 
ENDBRANCH  29  30
ENDBRANCH  27  29
ENDBRANCH   1  27
BRANCH   7  32
HETATM   32  C9  UNL     1      -4.247   1.590   1.173  1.00  0.00     0.110 C 
BRANCH  32  33
HETATM   33  C10 UNL     1      -5.702   1.326   1.013  1.00  0.00     0.036 A 
HETATM   34  N2  UNL     1      -6.840   1.032   1.485  1.00  0.00    -0.285 NA
HETATM   35  C11 UNL     1      -6.898   1.219   0.134  1.00  0.00     0.151 A 
HETATM   36  C12 UNL     1      -6.906   0.037  -0.842  1.00  0.00     0.041 C 
ENDBRANCH  32  33
ENDBRANCH   7  32
TORSDOF 5
