REMARK  6 active torsions:
REMARK  status: ('A' for Active; 'I' for Inactive)
REMARK    1  A    between atoms: C2_2  and  C3_3 
REMARK    2  A    between atoms: C3_3  and  C4_4 
REMARK    3  A    between atoms: C4_4  and  C5_5 
REMARK    4  A    between atoms: C5_5  and  N1_6 
REMARK    5  A    between atoms: C5_5  and  C7_8 
REMARK    6  A    between atoms: C20_24  and  N4_25 
ROOT
HETATM    1  C7  UNL     1       0.703  -0.256  -1.489  1.00  0.00     0.264 C 
HETATM    2  O1  UNL     1       0.338  -1.581  -1.301  1.00  0.00    -0.340 OA
HETATM    3  C8  UNL     1      -0.972  -1.968  -1.319  1.00  0.00     0.219 C 
HETATM    4  C9  UNL     1      -1.007  -3.456  -1.586  1.00  0.00     0.063 C 
HETATM    5  N2  UNL     1      -1.718  -1.792  -0.029  1.00  0.00    -0.357 N 
HETATM    6  C10 UNL     1      -1.069  -0.939   0.917  1.00  0.00     0.116 A 
HETATM    7  C11 UNL     1      -0.971   0.209   0.128  1.00  0.00     0.060 A 
HETATM    8  C12 UNL     1      -1.937   1.254   0.421  1.00  0.00     0.001 A 
HETATM    9  C13 UNL     1      -1.683   2.303  -0.375  1.00  0.00     0.003 A 
HETATM   10  C14 UNL     1      -2.360   3.464  -0.394  1.00  0.00     0.014 A 
HETATM   11  C15 UNL     1      -1.850   4.361  -1.342  1.00  0.00     0.001 A 
HETATM   12  C16 UNL     1      -0.754   4.037  -2.157  1.00  0.00     0.002 A 
HETATM   13  C17 UNL     1      -0.108   2.818  -2.078  1.00  0.00     0.030 A 
HETATM   14  C18 UNL     1      -0.598   1.940  -1.159  1.00  0.00     0.048 A 
HETATM   15  N3  UNL     1      -0.184   0.697  -0.866  1.00  0.00    -0.317 N 
HETATM   16  C19 UNL     1      -2.904   0.871   1.329  1.00  0.00     0.025 C 
HETATM   17  C20 UNL     1      -3.182  -0.589   1.707  1.00  0.00     0.268 C 
HETATM   18  C21 UNL     1      -2.486  -1.689   1.138  1.00  0.00     0.153 A 
HETATM   19  C22 UNL     1      -1.508  -2.453   2.101  1.00  0.00     0.000 C 
HETATM   20  C23 UNL     1      -0.853  -1.301   2.373  1.00  0.00     0.011 C 
ENDROOT
BRANCH   1  21
HETATM   21  C5  UNL     1       2.154  -0.070  -1.391  1.00  0.00     0.268 C 
BRANCH  21  22
HETATM   22  C4  UNL     1       2.883  -0.447  -0.159  1.00  0.00     0.040 C 
BRANCH  22  23
HETATM   23  C3  UNL     1       2.504   0.360   1.026  1.00  0.00     0.002 C 
BRANCH  23  24
HETATM   24  C2  UNL     1       3.327  -0.074   2.271  1.00  0.00    -0.004 C 
HETATM   25  C1  UNL     1       2.914   0.764   3.442  1.00  0.00     0.005 C 
ENDBRANCH  23  24
ENDBRANCH  22  23
ENDBRANCH  21  22
BRANCH  21  26
HETATM   26  N1  UNL     1       2.714  -0.947  -2.476  1.00  0.00     0.088 N 
HETATM   27  C6  UNL     1       2.172  -0.606  -3.744  1.00  0.00     0.307 C 
HETATM   28  H11 UNL     1       2.431  -1.945  -2.268  1.00  0.00     0.316 HD
ENDBRANCH  21  26
ENDBRANCH   1  21
BRANCH  17  29
HETATM   29  N4  UNL     1      -3.045  -0.632   3.161  1.00  0.00     0.088 N 
HETATM   30  H26 UNL     1      -3.753  -1.337   3.499  1.00  0.00     0.313 HD
HETATM   31  H27 UNL     1      -3.346   0.273   3.593  1.00  0.00     0.313 HD
ENDBRANCH  17  29
TORSDOF 6
