REMARK  2 active torsions:
REMARK  status: ('A' for Active; 'I' for Inactive)
REMARK    1  A    between atoms: O1_2  and  C2_3 
REMARK    2  A    between atoms: C15_18  and  C16_19 
ROOT
HETATM    1  C2  UNL     1       1.821  -0.920   0.714  1.00  0.00     0.153 C 
HETATM    2  C3  UNL     1       0.479  -0.859   1.264  1.00  0.00     0.051 C 
HETATM    3  C4  UNL     1      -0.757  -1.407   0.723  1.00  0.00     0.079 C 
HETATM    4  C5  UNL     1      -1.706  -0.651   1.722  1.00  0.00    -0.038 A 
HETATM    5  C6  UNL     1      -1.932  -1.277   2.955  1.00  0.00     0.008 A 
HETATM    6  C7  UNL     1      -2.667  -0.652   3.912  1.00  0.00     0.001 A 
HETATM    7  C8  UNL     1      -3.209   0.599   3.708  1.00  0.00     0.001 A 
HETATM    8  C9  UNL     1      -3.037   1.282   2.526  1.00  0.00     0.013 A 
HETATM    9  C10 UNL     1      -2.307   0.648   1.587  1.00  0.00    -0.017 A 
HETATM   10  C11 UNL     1      -2.008   1.111   0.237  1.00  0.00     0.001 C 
HETATM   11  C12 UNL     1      -1.076   1.928   0.713  1.00  0.00    -0.015 C 
HETATM   12  C13 UNL     1      -0.030   2.859   1.115  1.00  0.00     0.163 C 
HETATM   13  N1  UNL     1      -0.450   4.082   0.396  1.00  0.00    -0.353 N 
HETATM   14  C14 UNL     1       0.218   3.577  -0.719  1.00  0.00     0.249 C 
HETATM   15  O2  UNL     1       0.864   4.416  -1.459  1.00  0.00    -0.268 OA
HETATM   16  C15 UNL     1      -0.157   2.107  -0.536  1.00  0.00     0.033 C 
HETATM   17  C16 UNL     1       0.373   1.026  -1.010  1.00  0.00     0.079 A 
HETATM   18  C17 UNL     1       1.193   1.680  -2.267  1.00  0.00     0.287 A 
HETATM   19  N2  UNL     1       0.626   0.533  -2.862  1.00  0.00     0.004 N 
HETATM   20  C18 UNL     1      -0.799  -0.131  -2.825  1.00  0.00     0.416 C 
HETATM   21  O3  UNL     1      -0.726  -0.715  -1.617  1.00  0.00    -0.331 OA
HETATM   22  C19 UNL     1      -1.254  -1.362  -0.679  1.00  0.00     0.160 C 
HETATM   23  C20 UNL     1      -1.552  -2.777  -1.129  1.00  0.00     0.074 C 
HETATM   24  N3  UNL     1      -2.659  -0.759  -0.728  1.00  0.00    -0.262 NA
HETATM   25  C21 UNL     1      -2.786   0.567  -0.909  1.00  0.00     0.127 C 
HETATM   26  C22 UNL     1       1.422  -0.397  -3.129  1.00  0.00     0.160 A 
HETATM   27  C23 UNL     1       2.167  -1.330  -3.614  1.00  0.00     0.036 A 
HETATM   28  C24 UNL     1       2.829  -2.076  -2.690  1.00  0.00     0.002 A 
HETATM   29  C25 UNL     1       2.584  -1.713  -1.404  1.00  0.00     0.008 A 
HETATM   30  C26 UNL     1       1.771  -0.690  -0.724  1.00  0.00    -0.009 A 
HETATM   31  C27 UNL     1       1.186  -0.008  -1.794  1.00  0.00     0.211 A 
HETATM   32  H14 UNL     1      -0.966   5.021   0.418  1.00  0.00     0.163 HD
ENDROOT
BRANCH   1  33
HETATM   33  O1  UNL     1       2.680  -0.007   1.323  1.00  0.00    -0.386 OA
HETATM   34  C1  UNL     1       3.838  -0.648   1.795  1.00  0.00     0.202 C 
ENDBRANCH   1  33
TORSDOF 2
