REMARK  6 active torsions:
REMARK  status: ('A' for Active; 'I' for Inactive)
REMARK    1  A    between atoms: C2_2  and  O1_3 
REMARK    2  A    between atoms: O1_3  and  C3_4 
REMARK    3  A    between atoms: C3_4  and  C4_5 
REMARK    4  A    between atoms: C4_5  and  O2_6 
REMARK    5  A    between atoms: O2_6  and  C5_7 
REMARK    6  A    between atoms: C9_12  and  C10_13 
ROOT
HETATM    1  C5  UNL     1       0.256  -1.309   1.517  1.00  0.00     0.214 A 
HETATM    2  C6  UNL     1      -1.182  -1.218   1.925  1.00  0.00     0.024 A 
HETATM    3 BR1  UNL     1      -1.780  -1.902   3.611  1.00  0.00    -0.053 Br
HETATM    4  C7  UNL     1      -1.960  -0.617   1.003  1.00  0.00     0.034 A 
HETATM    5  C8  UNL     1      -1.176  -0.216  -0.150  1.00  0.00     0.022 A 
HETATM    6  C9  UNL     1      -1.329   0.391  -1.360  1.00  0.00     0.081 A 
HETATM    7  N1  UNL     1      -0.236   0.522  -2.089  1.00  0.00    -0.240 NA
HETATM    8  C16 UNL     1       1.000   0.178  -1.880  1.00  0.00     0.234 A 
HETATM    9  N2  UNL     1       1.158  -0.428  -0.676  1.00  0.00    -0.242 NA
HETATM   10  C17 UNL     1       0.109  -0.614   0.151  1.00  0.00     0.082 A 
ENDROOT
BRANCH   6  11
HETATM   11  C10 UNL     1      -2.666   0.835  -1.744  1.00  0.00    -0.005 A 
HETATM   12  C11 UNL     1      -2.617   2.129  -2.308  1.00  0.00     0.017 A 
HETATM   13  C12 UNL     1      -3.893   2.563  -2.685  1.00  0.00     0.045 A 
HETATM   14  C13 UNL     1      -5.110   1.960  -2.596  1.00  0.00     0.138 A 
HETATM   15  F1  UNL     1      -6.253   2.537  -3.019  1.00  0.00    -0.204 F 
HETATM   16  C14 UNL     1      -5.017   0.710  -2.031  1.00  0.00     0.073 A 
HETATM   17 CL1  UNL     1      -6.503  -0.232  -1.827  1.00  0.00    -0.081 Cl
HETATM   18  C15 UNL     1      -3.858   0.104  -1.595  1.00  0.00     0.041 A 
ENDBRANCH   6  11
BRANCH   1  19
HETATM   19  O2  UNL     1       1.149  -0.889   2.263  1.00  0.00    -0.372 OA
BRANCH  19  20
HETATM   20  C4  UNL     1       2.051  -0.466   3.015  1.00  0.00     0.195 C 
BRANCH  20  21
HETATM   21  C3  UNL     1       3.387  -0.285   2.286  1.00  0.00     0.200 C 
BRANCH  21  22
HETATM   22  O1  UNL     1       3.864  -1.520   1.726  1.00  0.00    -0.362 OA
BRANCH  22  23
HETATM   23  C2  UNL     1       4.922  -1.449   0.787  1.00  0.00     0.124 C 
HETATM   24  C1  UNL     1       5.958  -0.848   1.343  1.00  0.00     0.037 C 
ENDBRANCH  22  23
ENDBRANCH  21  22
ENDBRANCH  20  21
ENDBRANCH  19  20
ENDBRANCH   1  19
TORSDOF 6
