REMARK  3 active torsions:
REMARK  status: ('A' for Active; 'I' for Inactive)
REMARK    1  A    between atoms: C1_2  and  N2_3 
REMARK    2  A    between atoms: C8_13  and  N4_14 
REMARK    3  A    between atoms: N4_14  and  C9_15 
ROOT
HETATM    1  N2  UNL     1      -1.364   2.393   0.258  1.00  0.00    -0.216 NA
HETATM    2  C2  UNL     1      -1.126   1.146   0.200  1.00  0.00     0.194 C 
HETATM    3  O1  UNL     1      -2.227   0.405   0.502  1.00  0.00    -0.327 OA
HETATM    4  C3  UNL     1      -3.596   0.788   0.435  1.00  0.00     0.228 C 
HETATM    5  C4  UNL     1      -4.376  -0.490   0.211  1.00  0.00     0.034 C 
HETATM    6 CL1  UNL     1      -6.093  -0.196   0.112  1.00  0.00    -0.087 Cl
HETATM    7  C5  UNL     1      -3.630  -1.586   0.134  1.00  0.00     0.014 C 
HETATM    8  C6  UNL     1      -2.490  -2.499   0.110  1.00  0.00     0.147 C 
HETATM    9  N3  UNL     1      -1.189  -1.916   0.275  1.00  0.00    -0.393 N 
HETATM   10  C7  UNL     1      -0.033  -1.158  -0.074  1.00  0.00     0.117 C 
HETATM   11  C8  UNL     1      -0.061   0.162  -0.087  1.00  0.00     0.101 C 
HETATM   12  H8  UNL     1      -0.716  -2.123   1.218  1.00  0.00     0.159 HD
ENDROOT
BRANCH  11  13
HETATM   13  N4  UNL     1       1.076   0.924  -0.459  1.00  0.00    -0.352 N 
HETATM   14  H10 UNL     1       1.234   1.891  -0.804  1.00  0.00     0.166 HD
BRANCH  13  15
HETATM   15  C9  UNL     1       2.354   0.290  -0.369  1.00  0.00     0.034 A 
HETATM   16  C10 UNL     1       2.669  -0.389  -1.530  1.00  0.00     0.029 A 
HETATM   17  C11 UNL     1       3.865  -1.071  -1.643  1.00  0.00     0.004 A 
HETATM   18  C12 UNL     1       4.733  -1.047  -0.548  1.00  0.00     0.019 A 
HETATM   19  C13 UNL     1       4.397  -0.361   0.600  1.00  0.00     0.013 A 
HETATM   20 BR1  UNL     1       5.525  -0.283   2.140  1.00  0.00    -0.051 Br
HETATM   21  C14 UNL     1       3.213   0.313   0.710  1.00  0.00     0.048 A 
ENDBRANCH  13  15
ENDBRANCH  11  13
BRANCH   1  22
HETATM   22  C1  UNL     1      -0.465   3.442   0.012  1.00  0.00     0.226 C 
HETATM   23  N1  UNL     1      -0.239   3.569   1.273  1.00  0.00    -0.293 NA
HETATM   24  H1  UNL     1       0.442   4.310   1.601  1.00  0.00     0.187 HD
ENDBRANCH   1  22
TORSDOF 3
