REMARK  4 active torsions:
REMARK  status: ('A' for Active; 'I' for Inactive)
REMARK    1  A    between atoms: N1_4  and  C4_5 
REMARK    2  A    between atoms: C6_8  and  N2_9 
REMARK    3  A    between atoms: C8_12  and  N3_13 
REMARK    4  A    between atoms: C10_15  and  O2_16 
ROOT
HETATM    1  C4  UNL     1      -0.235  -0.876  -0.399  1.00  0.00     0.163 C 
HETATM    2  C5  UNL     1      -0.266  -1.797  -1.613  1.00  0.00     0.074 C 
HETATM    3  O1  UNL     1      -0.527  -1.669   0.722  1.00  0.00    -0.338 OA
HETATM    4  C6  UNL     1      -1.743  -2.197   0.869  1.00  0.00     0.208 C 
HETATM    5  C7  UNL     1      -2.831  -1.145   0.964  1.00  0.00     0.086 C 
HETATM    6  C8  UNL     1      -2.115   0.186   0.876  1.00  0.00     0.257 C 
HETATM    7  C10 UNL     1      -1.230   0.204  -0.397  1.00  0.00     0.209 C 
ENDROOT
BRANCH   1   8
HETATM    8  N1  UNL     1       1.161  -0.587  -0.208  1.00  0.00    -0.342 N 
HETATM    9  C3  UNL     1       2.162  -1.574   0.277  1.00  0.00     0.165 C 
HETATM   10  C2  UNL     1       3.071  -0.775   1.125  1.00  0.00    -0.037 C 
HETATM   11  C1  UNL     1       3.693  -1.014   2.246  1.00  0.00     0.021 C 
HETATM   12  C17 UNL     1       3.155   0.481   0.387  1.00  0.00    -0.002 A 
HETATM   13  C12 UNL     1       2.009   0.566  -0.397  1.00  0.00     0.043 A 
HETATM   14  C16 UNL     1       4.071   1.539   0.301  1.00  0.00     0.014 A 
HETATM   15  C13 UNL     1       1.727   1.626  -1.251  1.00  0.00     0.030 A 
HETATM   16  C14 UNL     1       2.671   2.661  -1.306  1.00  0.00     0.002 A 
HETATM   17  C15 UNL     1       3.844   2.635  -0.540  1.00  0.00     0.001 A 
ENDBRANCH   1   8
BRANCH   7  18
HETATM   18  O2  UNL     1      -2.074   0.272  -1.430  1.00  0.00    -0.384 OA
HETATM   19  C11 UNL     1      -2.298   1.261  -2.256  1.00  0.00     0.202 C 
ENDBRANCH   7  18
BRANCH   4  20
HETATM   20  N2  UNL     1      -2.107  -3.326   0.043  1.00  0.00    -0.237 NA
HETATM   21  I1  UNL     1      -0.780  -4.882   0.538  1.00  0.00     0.020 I 
HETATM   22  H9  UNL     1      -3.049  -3.650   0.377  1.00  0.00     0.136 HD
ENDBRANCH   4  20
BRANCH   6  23
HETATM   23  N3  UNL     1      -3.011   1.308   0.898  1.00  0.00     0.086 N 
HETATM   24  C9  UNL     1      -2.235   2.522   1.029  1.00  0.00     0.307 C 
HETATM   25  H13 UNL     1      -3.657   1.224   1.692  1.00  0.00     0.316 HD
ENDBRANCH   6  23
TORSDOF 4
