REMARK  7 active torsions:
REMARK  status: ('A' for Active; 'I' for Inactive)
REMARK    1  A    between atoms: C2_2  and  C3_3 
REMARK    2  A    between atoms: C4_5  and  C5_6 
REMARK    3  A    between atoms: C7_8  and  N1_9 
REMARK    4  A    between atoms: N1_9  and  C8_10 
REMARK    5  A    between atoms: C8_10  and  C9_11 
REMARK    6  A    between atoms: C10_12  and  C11_14 
REMARK    7  A    between atoms: C12_18  and  N3_19 
ROOT
HETATM    1  C5  UNL     1      -0.498  -0.921  -0.741  1.00  0.00    -0.002 C 
HETATM    2  C6  UNL     1       0.567  -0.192  -0.642  1.00  0.00     0.037 C 
HETATM    3  C7  UNL     1       1.760  -0.646  -0.528  1.00  0.00     0.155 C 
HETATM    4  N2  UNL     1       2.275  -1.970  -0.652  1.00  0.00    -0.045 NA
HETATM    5  C12 UNL     1       1.684  -3.058  -1.050  1.00  0.00     0.721 C 
HETATM    6  N4  UNL     1       0.312  -3.144  -1.468  1.00  0.00    -0.075 NA
HETATM    7  C13 UNL     1      -0.621  -2.241  -1.340  1.00  0.00     0.148 C 
ENDROOT
BRANCH   1   8
HETATM    8  C4  UNL     1      -1.676  -0.306  -0.176  1.00  0.00     0.034 C 
HETATM    9  C3  UNL     1      -2.938  -0.679  -0.059  1.00  0.00     0.021 C 
HETATM   10 CL1  UNL     1      -3.835  -2.130  -0.538  1.00  0.00    -0.088 Cl
BRANCH   9  11
HETATM   11  C2  UNL     1      -4.150  -0.049   0.522  1.00  0.00     0.002 C 
HETATM   12  C1  UNL     1      -4.788  -0.861   1.612  1.00  0.00     0.022 C 
HETATM   13  C14 UNL     1      -5.101   0.429  -0.538  1.00  0.00     0.043 C 
HETATM   14  C15 UNL     1      -4.364   1.651  -1.030  1.00  0.00    -0.006 C 
HETATM   15  C16 UNL     1      -3.586   2.152  -0.051  1.00  0.00     0.009 C 
HETATM   16 CL2  UNL     1      -2.514   3.565  -0.075  1.00  0.00    -0.089 Cl
HETATM   17  C17 UNL     1      -3.758   1.294   1.152  1.00  0.00     0.066 C 
ENDBRANCH   9  11
ENDBRANCH   1   8
BRANCH   3  18
HETATM   18  N1  UNL     1       2.756   0.328  -0.223  1.00  0.00    -0.370 N 
HETATM   19  H5  UNL     1       2.756   0.994  -1.052  1.00  0.00     0.161 HD
BRANCH  18  20
HETATM   20  C8  UNL     1       3.672   0.548   0.898  1.00  0.00     0.151 C 
BRANCH  20  21
HETATM   21  C9  UNL     1       4.479   1.759   0.619  1.00  0.00     0.036 C 
HETATM   22  C10 UNL     1       5.794   1.589   0.559  1.00  0.00     0.155 C 
HETATM   23  F1  UNL     1       6.073   0.288   0.780  1.00  0.00    -0.205 F 
BRANCH  22  24
HETATM   24  C11 UNL     1       6.836   2.604   0.300  1.00  0.00     0.414 C 
HETATM   25  F2  UNL     1       6.272   3.841   0.110  1.00  0.00    -0.207 F 
HETATM   26  F3  UNL     1       7.511   2.265  -0.880  1.00  0.00    -0.207 F 
ENDBRANCH  22  24
ENDBRANCH  20  21
ENDBRANCH  18  20
ENDBRANCH   3  18
BRANCH   5  27
HETATM   27  N3  UNL     1       2.456  -4.252  -1.073  1.00  0.00    -0.231 N 
HETATM   28  H10 UNL     1       2.737  -4.329  -2.087  1.00  0.00     0.174 HD
HETATM   29  H11 UNL     1       2.362  -4.466  -0.059  1.00  0.00     0.174 HD
ENDBRANCH   5  27
TORSDOF 7
