REMARK  5 active torsions:
REMARK  status: ('A' for Active; 'I' for Inactive)
REMARK    1  A    between atoms: N1_1  and  C1_2 
REMARK    2  A    between atoms: C2_4  and  N3_5 
REMARK    3  A    between atoms: N3_5  and  C3_6 
REMARK    4  A    between atoms: C7_10  and  C8_11 
REMARK    5  A    between atoms: C12_20  and  C13_21 
ROOT
HETATM    1  C1  UNL     1       0.609  -1.502  -2.617  1.00  0.00     0.724 A 
HETATM    2  N2  UNL     1       0.969  -0.983  -1.431  1.00  0.00    -0.045 NA
HETATM    3  C2  UNL     1       0.156  -0.170  -0.742  1.00  0.00     0.159 A 
HETATM    4  C10 UNL     1      -1.096   0.186  -1.198  1.00  0.00     0.058 A 
HETATM    5  C11 UNL     1      -1.445  -0.358  -2.419  1.00  0.00     0.155 A 
HETATM    6  N4  UNL     1      -0.613  -1.173  -3.095  1.00  0.00    -0.045 NA
HETATM    7  N5  UNL     1      -2.699   0.308  -2.362  1.00  0.00    -0.364 N 
HETATM    8  C12 UNL     1      -2.370   0.897  -1.054  1.00  0.00     0.137 A 
HETATM    9  H8  UNL     1      -3.576   0.434  -2.911  1.00  0.00     0.162 HD
ENDROOT
BRANCH   3  10
HETATM   10  N3  UNL     1       0.645   0.321   0.498  1.00  0.00    -0.340 N 
HETATM   11  H3  UNL     1       0.165   0.976   1.134  1.00  0.00     0.167 HD
BRANCH  10  12
HETATM   12  C3  UNL     1       1.926  -0.100   0.962  1.00  0.00     0.034 A 
HETATM   13  C4  UNL     1       2.262  -1.268   1.619  1.00  0.00     0.029 A 
HETATM   14  C5  UNL     1       3.573  -1.493   1.978  1.00  0.00     0.003 A 
HETATM   15  C6  UNL     1       4.568  -0.579   1.697  1.00  0.00     0.016 A 
HETATM   16  C7  UNL     1       4.251   0.587   1.044  1.00  0.00     0.050 A 
HETATM   17  C9  UNL     1       2.927   0.822   0.678  1.00  0.00     0.045 A 
BRANCH  16  18
HETATM   18  C8  UNL     1       5.329   1.575   0.737  1.00  0.00     0.417 C 
HETATM   19  F1  UNL     1       5.315   2.607   1.625  1.00  0.00    -0.166 F 
HETATM   20  F2  UNL     1       6.533   0.890   0.686  1.00  0.00    -0.166 F 
HETATM   21  F3  UNL     1       5.115   2.088  -0.548  1.00  0.00    -0.166 F 
ENDBRANCH  16  18
ENDBRANCH  10  12
ENDBRANCH   3  10
BRANCH   1  22
HETATM   22  N1  UNL     1       1.413  -2.368  -3.407  1.00  0.00    -0.231 N 
HETATM   23  H1  UNL     1       2.028  -2.091  -4.217  1.00  0.00     0.174 HD
HETATM   24  H2  UNL     1       1.389  -3.360  -3.158  1.00  0.00     0.174 HD
ENDBRANCH   1  22
BRANCH   8  25
HETATM   25  C13 UNL     1      -3.352   0.343  -0.054  1.00  0.00     0.081 C 
HETATM   26  C14 UNL     1      -2.850   0.293   1.327  1.00  0.00    -0.000 C 
HETATM   27  C15 UNL     1      -3.740  -0.242   2.143  1.00  0.00    -0.006 C 
HETATM   28  C16 UNL     1      -5.024  -0.040   1.906  1.00  0.00     0.046 C 
HETATM   29 CL1  UNL     1      -6.202  -1.025   2.748  1.00  0.00    -0.083 Cl
HETATM   30  C17 UNL     1      -5.408   0.997   0.949  1.00  0.00     0.045 C 
HETATM   31  C18 UNL     1      -4.565   1.214  -0.069  1.00  0.00     0.023 C 
HETATM   32 CL2  UNL     1      -5.043   2.453  -1.196  1.00  0.00    -0.088 Cl
ENDBRANCH   8  25
TORSDOF 5
