REMARK  6 active torsions:
REMARK  status: ('A' for Active; 'I' for Inactive)
REMARK    1  A    between atoms: C3_3  and  N1_4 
REMARK    2  A    between atoms: C3_3  and  C14_21 
REMARK    3  A    between atoms: N1_4  and  C4_5 
REMARK    4  A    between atoms: C6_8  and  N3_9 
REMARK    5  A    between atoms: C9_12  and  C10_13 
REMARK    6  A    between atoms: C12_18  and  N4_19 
ROOT
HETATM    1  C4  UNL     1      -1.061  -0.366  -0.156  1.00  0.00     0.125 A 
HETATM    2  N2  UNL     1      -1.293   0.868   0.133  1.00  0.00    -0.267 NA
HETATM    3  C5  UNL     1      -0.043   1.591   0.271  1.00  0.00     0.208 A 
HETATM    4  C6  UNL     1       0.949   0.517   0.003  1.00  0.00     0.033 A 
HETATM    5  C13 UNL     1       0.368  -0.645  -0.251  1.00  0.00     0.076 A 
ENDROOT
BRANCH   1   6
HETATM    6  N1  UNL     1      -2.133  -1.314  -0.349  1.00  0.00    -0.341 N 
HETATM    7  H5  UNL     1      -1.947  -2.181  -0.938  1.00  0.00     0.167 HD
BRANCH   6   8
HETATM    8  C3  UNL     1      -3.434  -1.156   0.206  1.00  0.00     0.041 C 
HETATM    9  C2  UNL     1      -3.466  -1.818   1.347  1.00  0.00    -0.001 C 
HETATM   10  C1  UNL     1      -2.249  -2.534   1.793  1.00  0.00     0.038 C 
BRANCH   8  11
HETATM   11  C14 UNL     1      -4.406  -0.364  -0.524  1.00  0.00     0.012 A 
HETATM   12  C15 UNL     1      -4.054   0.214  -1.725  1.00  0.00     0.017 A 
HETATM   13  C16 UNL     1      -4.959   0.968  -2.432  1.00  0.00     0.025 A 
HETATM   14  C17 UNL     1      -6.228   1.174  -1.981  1.00  0.00     0.035 A 
HETATM   15 CL1  UNL     1      -7.348   2.141  -2.913  1.00  0.00    -0.084 Cl
HETATM   16  C18 UNL     1      -6.608   0.615  -0.794  1.00  0.00     0.048 A 
HETATM   17  C19 UNL     1      -5.696  -0.129  -0.109  1.00  0.00     0.048 A 
HETATM   18 CL2  UNL     1      -6.253  -0.812   1.400  1.00  0.00    -0.083 Cl
ENDBRANCH   8  11
ENDBRANCH   6   8
ENDBRANCH   1   6
BRANCH   4  19
HETATM   19  N3  UNL     1       2.389   0.613  -0.007  1.00  0.00    -0.349 N 
HETATM   20  C7  UNL     1       2.993   1.460   1.012  1.00  0.00     0.153 C 
HETATM   21  C8  UNL     1       4.487   1.276   0.916  1.00  0.00     0.005 C 
HETATM   22  C9  UNL     1       5.193   0.863  -0.124  1.00  0.00     0.027 C 
HETATM   23  C11 UNL     1       4.454   0.533  -1.364  1.00  0.00     0.100 C 
HETATM   24  C12 UNL     1       3.159  -0.118  -1.005  1.00  0.00     0.323 C 
BRANCH  22  25
HETATM   25  C10 UNL     1       6.669   0.739  -0.041  1.00  0.00     0.413 C 
HETATM   26  F1  UNL     1       7.076  -0.567  -0.282  1.00  0.00    -0.166 F 
HETATM   27  F2  UNL     1       7.190   1.541  -1.035  1.00  0.00    -0.166 F 
HETATM   28  F3  UNL     1       7.100   1.085   1.206  1.00  0.00    -0.166 F 
ENDBRANCH  22  25
BRANCH  24  29
HETATM   29  N4  UNL     1       3.403  -1.438  -0.403  1.00  0.00     0.101 N 
HETATM   30  H14 UNL     1       3.497  -2.191  -1.106  1.00  0.00     0.315 HD
HETATM   31  H15 UNL     1       4.168  -1.400   0.290  1.00  0.00     0.315 HD
ENDBRANCH  24  29
ENDBRANCH   4  19
TORSDOF 6
