REMARK  8 active torsions:
REMARK  status: ('A' for Active; 'I' for Inactive)
REMARK    1  A    between atoms: N1_1  and  C1_2 
REMARK    2  A    between atoms: C2_4  and  N3_5 
REMARK    3  A    between atoms: N3_5  and  C3_6 
REMARK    4  A    between atoms: C3_6  and  C4_7 
REMARK    5  A    between atoms: C5_8  and  C6_9 
REMARK    6  A    between atoms: C5_8  and  C7_11 
REMARK    7  A    between atoms: C10_15  and  C11_16 
REMARK    8  A    between atoms: C11_16  and  C12_17 
ROOT
HETATM    1  C1  UNL     1       0.710  -0.262  -2.625  1.00  0.00     0.714 C 
HETATM    2  N2  UNL     1       1.639   0.256  -1.740  1.00  0.00    -0.046 NA
HETATM    3  C2  UNL     1       1.416   0.004  -0.254  1.00  0.00     0.151 C 
HETATM    4  C8  UNL     1       0.145   0.314   0.114  1.00  0.00     0.010 C 
HETATM    5  C9  UNL     1      -0.952  -0.378   0.923  1.00  0.00     0.039 C 
HETATM    6  C10 UNL     1      -1.934  -0.488  -0.104  1.00  0.00     0.034 C 
HETATM    7  N4  UNL     1      -1.219   0.189  -1.214  1.00  0.00    -0.278 N 
HETATM    8  C18 UNL     1      -0.743   1.470  -0.508  1.00  0.00     0.192 C 
HETATM    9  N5  UNL     1      -0.815  -0.347  -2.488  1.00  0.00    -0.128 N 
HETATM   10  H19 UNL     1      -1.717  -0.636  -2.855  1.00  0.00     0.206 HD
ENDROOT
BRANCH   3  11
HETATM   11  N3  UNL     1       1.916  -0.472   0.978  1.00  0.00    -0.370 N 
HETATM   12  H3  UNL     1       1.547  -1.406   1.238  1.00  0.00     0.161 HD
BRANCH  11  13
HETATM   13  C3  UNL     1       2.855   0.469   1.603  1.00  0.00     0.149 C 
BRANCH  13  14
HETATM   14  C4  UNL     1       4.105   0.560   0.806  1.00  0.00     0.000 C 
HETATM   15  C5  UNL     1       5.316   0.259   1.237  1.00  0.00    -0.026 C 
BRANCH  15  16
HETATM   16  C6  UNL     1       5.765  -0.232   2.565  1.00  0.00     0.258 C 
HETATM   17  F1  UNL     1       6.677   0.682   3.112  1.00  0.00    -0.251 F 
ENDBRANCH  15  16
BRANCH  15  18
HETATM   18  C7  UNL     1       6.519   0.377   0.372  1.00  0.00     0.258 C 
HETATM   19  F2  UNL     1       7.453   1.265   0.897  1.00  0.00    -0.251 F 
ENDBRANCH  15  18
ENDBRANCH  13  14
ENDBRANCH  11  13
ENDBRANCH   3  11
BRANCH   1  20
HETATM   20  N1  UNL     1       0.857  -0.901  -3.879  1.00  0.00    -0.231 N 
HETATM   21  H1  UNL     1       0.885  -1.957  -3.954  1.00  0.00     0.174 HD
HETATM   22  H2  UNL     1       0.926  -0.183  -4.627  1.00  0.00     0.174 HD
ENDBRANCH   1  20
BRANCH   6  23
HETATM   23  C11 UNL     1      -3.194  -1.183  -0.272  1.00  0.00     0.099 C 
BRANCH  23  24
HETATM   24  C12 UNL     1      -4.365  -0.296  -0.242  1.00  0.00    -0.031 A 
HETATM   25  C13 UNL     1      -5.016  -0.285   1.005  1.00  0.00     0.011 A 
HETATM   26  C14 UNL     1      -6.124   0.452   1.347  1.00  0.00     0.024 A 
HETATM   27  C15 UNL     1      -6.668   1.271   0.386  1.00  0.00     0.035 A 
HETATM   28 CL1  UNL     1      -8.075   2.237   0.750  1.00  0.00    -0.084 Cl
HETATM   29  C16 UNL     1      -6.083   1.312  -0.862  1.00  0.00     0.048 A 
HETATM   30  C17 UNL     1      -4.988   0.543  -1.102  1.00  0.00     0.042 A 
HETATM   31 CL2  UNL     1      -4.291   0.603  -2.682  1.00  0.00    -0.084 Cl
ENDBRANCH  23  24
ENDBRANCH   6  23
TORSDOF 8
