REMARK  4 active torsions:
REMARK  status: ('A' for Active; 'I' for Inactive)
REMARK    1  A    between atoms: C7_7  and  N1_8 
REMARK    2  A    between atoms: N1_8  and  C8_9 
REMARK    3  A    between atoms: N3_11  and  N4_12 
REMARK    4  A    between atoms: C11_16  and  C12_17 
ROOT
HETATM    1  C1  UNL     1       7.451   1.715  -0.043  1.00  0.00     0.018 C 
HETATM    2  C2  UNL     1       6.415   1.159   0.296  1.00  0.00    -0.078 C 
HETATM    3  C3  UNL     1       5.189   0.512   0.673  1.00  0.00     0.019 A 
HETATM    4  C4  UNL     1       5.158  -0.715   1.292  1.00  0.00     0.021 A 
HETATM    5  C5  UNL     1       3.958  -1.304   1.642  1.00  0.00     0.004 A 
HETATM    6  C6  UNL     1       2.788  -0.600   1.340  1.00  0.00     0.029 A 
HETATM    7  C7  UNL     1       2.810   0.634   0.718  1.00  0.00     0.034 A 
HETATM    8  C20 UNL     1       4.036   1.200   0.379  1.00  0.00     0.050 A 
ENDROOT
BRANCH   7   9
HETATM    9  N1  UNL     1       1.495   1.188   0.502  1.00  0.00    -0.341 N 
HETATM   10  H5  UNL     1       0.885   1.842   1.053  1.00  0.00     0.167 HD
BRANCH   9  11
HETATM   11  C8  UNL     1       0.920   0.735  -0.731  1.00  0.00     0.163 C 
HETATM   12  N2  UNL     1       1.582   0.313  -1.773  1.00  0.00    -0.144 NA
HETATM   13  N3  UNL     1       0.832  -0.087  -2.884  1.00  0.00    -0.205 N 
HETATM   14  C9  UNL     1      -0.286  -1.010  -2.609  1.00  0.00     0.438 C 
HETATM   15  N5  UNL     1      -0.770  -0.771  -1.269  1.00  0.00     0.128 N 
HETATM   16  C10 UNL     1      -2.187  -0.803  -1.107  1.00  0.00     0.315 C 
HETATM   17  C19 UNL     1      -0.521   0.666  -1.032  1.00  0.00     0.319 C 
HETATM   18  C11 UNL     1      -2.437   0.026   0.102  1.00  0.00    -0.019 C 
HETATM   19  C18 UNL     1      -1.426   0.872   0.096  1.00  0.00     0.026 C 
BRANCH  13  20
HETATM   20  N4  UNL     1       1.004   0.274  -4.237  1.00  0.00    -0.229 NA
HETATM   21  H6  UNL     1       1.384   1.250  -4.347  1.00  0.00     0.144 HD
HETATM   22  H7  UNL     1       0.097   0.250  -4.711  1.00  0.00     0.144 HD
ENDBRANCH  13  20
BRANCH  18  23
HETATM   23  C12 UNL     1      -3.574  -0.172   0.982  1.00  0.00    -0.006 A 
HETATM   24  C13 UNL     1      -4.488  -1.162   0.738  1.00  0.00     0.015 A 
HETATM   25  C14 UNL     1      -5.595  -1.439   1.496  1.00  0.00     0.025 A 
HETATM   26  C15 UNL     1      -5.850  -0.675   2.613  1.00  0.00     0.035 A 
HETATM   27 CL1  UNL     1      -7.252  -0.993   3.609  1.00  0.00    -0.084 Cl
HETATM   28  C16 UNL     1      -4.967   0.334   2.909  1.00  0.00     0.048 A 
HETATM   29  C17 UNL     1      -3.872   0.562   2.107  1.00  0.00     0.046 A 
HETATM   30 CL2  UNL     1      -2.853   1.873   2.605  1.00  0.00    -0.083 Cl
ENDBRANCH  18  23
ENDBRANCH   9  11
ENDBRANCH   7   9
TORSDOF 4
