REMARK  6 active torsions:
REMARK  status: ('A' for Active; 'I' for Inactive)
REMARK    1  A    between atoms: C7_7  and  N1_8 
REMARK    2  A    between atoms: C9_11  and  N3_12 
REMARK    3  A    between atoms: C10_14  and  C11_15 
REMARK    4  A    between atoms: C12_16  and  C13_17 
REMARK    5  A    between atoms: C12_16  and  N5_26 
REMARK    6  A    between atoms: C13_17  and  C14_18 
ROOT
HETATM    1  C1  UNL     1      -1.417   4.135   1.630  1.00  0.00     0.018 C 
HETATM    2  C2  UNL     1      -2.004   3.067   1.575  1.00  0.00    -0.078 C 
HETATM    3  C3  UNL     1      -2.706   1.820   1.505  1.00  0.00     0.019 A 
HETATM    4  C4  UNL     1      -3.843   1.632   2.262  1.00  0.00     0.021 A 
HETATM    5  C5  UNL     1      -4.510   0.430   2.189  1.00  0.00     0.004 A 
HETATM    6  C6  UNL     1      -4.033  -0.564   1.362  1.00  0.00     0.030 A 
HETATM    7  C7  UNL     1      -2.905  -0.451   0.575  1.00  0.00     0.039 A 
HETATM    8  C21 UNL     1      -2.295   0.779   0.705  1.00  0.00     0.050 A 
ENDROOT
BRANCH   7   9
HETATM    9  N1  UNL     1      -2.435  -1.491  -0.280  1.00  0.00    -0.313 N 
HETATM   10  C8  UNL     1      -3.303  -2.597  -0.500  1.00  0.00     0.232 A 
HETATM   11  N2  UNL     1      -2.889  -3.557  -1.286  1.00  0.00    -0.058 NA
HETATM   12  C9  UNL     1      -1.588  -3.341  -1.818  1.00  0.00     0.718 A 
HETATM   13  N4  UNL     1      -0.762  -2.377  -1.657  1.00  0.00    -0.075 NA
HETATM   14  C10 UNL     1      -1.108  -1.265  -0.810  1.00  0.00     0.259 A 
BRANCH  12  15
HETATM   15  N3  UNL     1      -1.068  -4.360  -2.696  1.00  0.00    -0.231 N 
HETATM   16  H6  UNL     1      -1.152  -4.005  -3.680  1.00  0.00     0.174 HD
HETATM   17  H7  UNL     1      -0.641  -5.276  -2.947  1.00  0.00     0.174 HD
ENDBRANCH  12  15
BRANCH  14  18
HETATM   18  C11 UNL     1      -0.114  -1.061   0.273  1.00  0.00     0.047 C 
HETATM   19  C12 UNL     1       1.143  -0.725   0.083  1.00  0.00     0.009 C 
BRANCH  19  20
HETATM   20  C13 UNL     1       2.099  -0.425  -0.982  1.00  0.00     0.096 C 
BRANCH  20  21
HETATM   21  C14 UNL     1       2.719   0.912  -0.905  1.00  0.00    -0.031 A 
HETATM   22  C15 UNL     1       4.028   1.032  -0.427  1.00  0.00     0.011 A 
HETATM   23  C16 UNL     1       4.699   2.214  -0.308  1.00  0.00     0.024 A 
HETATM   24  C17 UNL     1       4.076   3.390  -0.673  1.00  0.00     0.035 A 
HETATM   25 CL1  UNL     1       4.903   4.924  -0.535  1.00  0.00    -0.084 Cl
HETATM   26  C18 UNL     1       2.778   3.323  -1.153  1.00  0.00     0.048 A 
HETATM   27  C19 UNL     1       2.149   2.100  -1.252  1.00  0.00     0.042 A 
HETATM   28 CL2  UNL     1       0.534   2.093  -1.864  1.00  0.00    -0.084 Cl
ENDBRANCH  20  21
ENDBRANCH  19  20
BRANCH  19  29
HETATM   29  N5  UNL     1       2.005  -0.559   1.231  1.00  0.00    -0.397 N 
HETATM   30  C20 UNL     1       2.545  -1.780   1.803  1.00  0.00     0.146 C 
HETATM   31  H15 UNL     1       2.339   0.275   1.762  1.00  0.00     0.158 HD
ENDBRANCH  19  29
ENDBRANCH  14  18
ENDBRANCH   7   9
TORSDOF 6
