REMARK  2 active torsions:
REMARK  status: ('A' for Active; 'I' for Inactive)
REMARK    1  A    between atoms: C7_7  and  N1_8 
REMARK    2  A    between atoms: N1_8  and  C8_9 
ROOT
HETATM    1  C1  UNL     1       5.899   1.466   0.553  1.00  0.00     0.018 C 
HETATM    2  C2  UNL     1       4.959   0.739   0.272  1.00  0.00    -0.078 C 
HETATM    3  C3  UNL     1       3.859  -0.123  -0.082  1.00  0.00     0.019 A 
HETATM    4  C4  UNL     1       4.009  -1.476   0.164  1.00  0.00     0.021 A 
HETATM    5  C5  UNL     1       2.980  -2.369  -0.159  1.00  0.00     0.004 A 
HETATM    6  C6  UNL     1       1.807  -1.918  -0.726  1.00  0.00     0.029 A 
HETATM    7  C7  UNL     1       1.653  -0.583  -0.971  1.00  0.00     0.035 A 
HETATM    8  C16 UNL     1       2.683   0.315  -0.648  1.00  0.00     0.050 A 
ENDROOT
BRANCH   7   9
HETATM    9  N1  UNL     1       0.582   0.159  -1.543  1.00  0.00    -0.341 N 
HETATM   10  H5  UNL     1       0.463   0.652  -2.453  1.00  0.00     0.167 HD
BRANCH   9  11
HETATM   11  C8  UNL     1      -0.643   0.359  -0.786  1.00  0.00     0.133 C 
HETATM   12  N2  UNL     1      -0.781  -0.629   0.116  1.00  0.00    -0.223 NA
HETATM   13  C9  UNL     1      -2.008  -0.848   0.926  1.00  0.00     0.217 A 
HETATM   14  N3  UNL     1      -2.254  -1.863   1.770  1.00  0.00    -0.210 NA
HETATM   15  N4  UNL     1      -2.678  -2.094   0.486  1.00  0.00    -0.210 NA
HETATM   16  C10 UNL     1      -2.873   0.413   0.723  1.00  0.00     0.004 C 
HETATM   17  H6  UNL     1      -1.512  -2.452   2.144  1.00  0.00     0.145 HD
HETATM   18  H7  UNL     1      -2.224  -2.724  -0.174  1.00  0.00     0.145 HD
HETATM   19  C11 UNL     1      -2.803   1.502   1.515  1.00  0.00     0.024 C 
HETATM   20  C15 UNL     1      -3.775   0.525  -0.506  1.00  0.00     0.069 C 
HETATM   21 CL1  UNL     1      -3.059   2.510   2.961  1.00  0.00    -0.088 Cl
HETATM   22  C12 UNL     1      -1.990   2.321   0.483  1.00  0.00     0.093 C 
HETATM   23  C13 UNL     1      -1.814   1.315  -0.688  1.00  0.00    -0.011 C 
HETATM   24  C14 UNL     1      -2.937   1.336  -1.509  1.00  0.00    -0.011 C 
ENDBRANCH   9  11
ENDBRANCH   7   9
TORSDOF 2
