REMARK  6 active torsions:
REMARK  status: ('A' for Active; 'I' for Inactive)
REMARK    1  A    between atoms: C2_2  and  C3_3 
REMARK    2  A    between atoms: C2_2  and  C4_5 
REMARK    3  A    between atoms: C7_8  and  N1_9 
REMARK    4  A    between atoms: N1_9  and  C8_10 
REMARK    5  A    between atoms: C9_11  and  C10_12 
REMARK    6  A    between atoms: C18_23  and  N4_24 
ROOT
HETATM    1  C8  UNL     1      -1.570  -0.444   0.189  1.00  0.00     0.088 A 
HETATM    2  C9  UNL     1      -2.744   0.088  -0.065  1.00  0.00     0.001 A 
HETATM    3  C16 UNL     1      -3.553  -0.846  -0.868  1.00  0.00     0.168 A 
HETATM    4  N2  UNL     1      -2.772  -2.037  -0.955  1.00  0.00    -0.340 N 
HETATM    5  C17 UNL     1      -3.271  -3.248  -1.568  1.00  0.00     0.295 A 
HETATM    6  N3  UNL     1      -2.209  -4.242  -1.618  1.00  0.00    -0.086 NA
HETATM    7  C18 UNL     1      -1.041  -3.994  -1.080  1.00  0.00     0.719 A 
HETATM    8  N5  UNL     1      -0.674  -2.782  -0.442  1.00  0.00    -0.043 NA
HETATM    9  C19 UNL     1      -1.506  -1.808  -0.352  1.00  0.00     0.174 A 
ENDROOT
BRANCH   1  10
HETATM   10  N1  UNL     1      -0.458   0.073   0.896  1.00  0.00    -0.353 N 
HETATM   11  H9  UNL     1      -0.798   0.429   1.812  1.00  0.00     0.166 HD
BRANCH  10  12
HETATM   12  C7  UNL     1       0.915   0.168   0.586  1.00  0.00     0.032 A 
HETATM   13  C6  UNL     1       1.535  -0.272  -0.560  1.00  0.00     0.030 A 
HETATM   14  C5  UNL     1       2.889  -0.159  -0.786  1.00  0.00     0.010 A 
HETATM   15  C4  UNL     1       3.718   0.430   0.173  1.00  0.00    -0.053 A 
HETATM   16  C21 UNL     1       3.084   0.862   1.304  1.00  0.00     0.010 A 
HETATM   17  C20 UNL     1       1.733   0.750   1.534  1.00  0.00     0.030 A 
BRANCH  15  18
HETATM   18  C2  UNL     1       5.146   0.500  -0.139  1.00  0.00     0.028 C 
HETATM   19  C1  UNL     1       5.634   1.910  -0.462  1.00  0.00     0.016 C 
BRANCH  18  20
HETATM   20  C3  UNL     1       6.036  -0.120   0.911  1.00  0.00     0.123 C 
HETATM   21 CL1  UNL     1       6.090   0.784   2.424  1.00  0.00    -0.130 Cl
ENDBRANCH  18  20
ENDBRANCH  15  18
ENDBRANCH  10  12
ENDBRANCH   1  10
BRANCH   2  22
HETATM   22  C10 UNL     1      -3.437   1.342   0.220  1.00  0.00    -0.026 A 
HETATM   23  C11 UNL     1      -3.326   1.791   1.515  1.00  0.00     0.014 A 
HETATM   24  C12 UNL     1      -3.926   2.988   1.918  1.00  0.00     0.024 A 
HETATM   25  C13 UNL     1      -4.655   3.756   1.017  1.00  0.00     0.034 A 
HETATM   26 CL2  UNL     1      -5.433   5.263   1.449  1.00  0.00    -0.084 Cl
HETATM   27  C14 UNL     1      -4.737   3.257  -0.281  1.00  0.00     0.024 A 
HETATM   28  C15 UNL     1      -4.150   2.083  -0.685  1.00  0.00     0.014 A 
ENDBRANCH   2  22
BRANCH   7  29
HETATM   29  N4  UNL     1       0.100  -4.883  -1.051  1.00  0.00    -0.231 N 
HETATM   30  H18 UNL     1       0.594  -5.002  -1.961  1.00  0.00     0.174 HD
HETATM   31  H19 UNL     1       0.362  -5.341  -0.163  1.00  0.00     0.174 HD
ENDBRANCH   7  29
TORSDOF 6
