REMARK  6 active torsions:
REMARK  status: ('A' for Active; 'I' for Inactive)
REMARK    1  A    between atoms: C1_2  and  C2_3 
REMARK    2  A    between atoms: C5_7  and  N2_8 
REMARK    3  A    between atoms: N2_8  and  C6_9 
REMARK    4  A    between atoms: C7_10  and  C8_11 
REMARK    5  A    between atoms: C9_12  and  C10_14 
REMARK    6  A    between atoms: C10_14  and  C11_15 
ROOT
HETATM    1  C6  UNL     1      -0.845   0.845   0.505  1.00  0.00     0.085 C 
HETATM    2  C7  UNL     1       0.138   0.041   0.106  1.00  0.00     0.018 C 
ENDROOT
BRANCH   1   3
HETATM    3  N2  UNL     1      -1.964   1.116  -0.329  1.00  0.00    -0.374 N 
HETATM    4  H6  UNL     1      -2.021   0.630  -1.250  1.00  0.00     0.161 HD
BRANCH   3   5
HETATM    5  C5  UNL     1      -2.971   2.066   0.164  1.00  0.00     0.231 C 
HETATM    6  N1  UNL     1      -3.472   1.609   1.421  1.00  0.00    -0.272 NA
HETATM    7  C4  UNL     1      -4.291   0.683   1.779  1.00  0.00     0.114 C 
HETATM    8  C3  UNL     1      -4.949  -0.195   0.810  1.00  0.00     0.031 C 
HETATM    9  C2  UNL     1      -5.271   0.040  -0.474  1.00  0.00     0.010 C 
HETATM   10  C18 UNL     1      -5.012   1.297  -1.209  1.00  0.00     0.125 C 
HETATM   11  C17 UNL     1      -4.014   2.145  -0.907  1.00  0.00     0.064 C 
HETATM   12  F2  UNL     1      -5.845   1.563  -2.225  1.00  0.00    -0.206 F 
BRANCH   9  13
HETATM   13  C1  UNL     1      -5.955  -1.028  -1.287  1.00  0.00     0.263 C 
HETATM   14  F1  UNL     1      -7.161  -0.571  -1.723  1.00  0.00    -0.250 F 
ENDBRANCH   9  13
ENDBRANCH   3   5
ENDBRANCH   1   3
BRANCH   2  15
HETATM   15  C8  UNL     1       1.303  -0.246   0.963  1.00  0.00     0.021 C 
HETATM   16  C9  UNL     1       2.219  -1.053   0.476  1.00  0.00     0.016 C 
HETATM   17 CL1  UNL     1       1.978  -1.704  -1.120  1.00  0.00    -0.089 Cl
BRANCH  16  18
HETATM   18  C10 UNL     1       3.460  -1.464   1.179  1.00  0.00     0.091 C 
BRANCH  18  19
HETATM   19  C11 UNL     1       4.632  -1.021   0.349  1.00  0.00    -0.031 A 
HETATM   20  C12 UNL     1       5.364  -1.898  -0.423  1.00  0.00     0.009 A 
HETATM   21  C13 UNL     1       6.437  -1.548  -1.198  1.00  0.00     0.001 A 
HETATM   22  C14 UNL     1       6.822  -0.215  -1.212  1.00  0.00     0.002 A 
HETATM   23  C15 UNL     1       6.115   0.717  -0.448  1.00  0.00     0.024 A 
HETATM   24  C16 UNL     1       5.041   0.302   0.313  1.00  0.00     0.040 A 
HETATM   25 CL2  UNL     1       4.156   1.469   1.271  1.00  0.00    -0.084 Cl
ENDBRANCH  18  19
ENDBRANCH  16  18
ENDBRANCH   2  15
TORSDOF 6
