REMARK  6 active torsions:
REMARK  status: ('A' for Active; 'I' for Inactive)
REMARK    1  A    between atoms: C5_5  and  C6_6 
REMARK    2  A    between atoms: C6_6  and  C7_7 
REMARK    3  A    between atoms: C7_7  and  N1_8 
REMARK    4  A    between atoms: C11_14  and  N4_15 
REMARK    5  A    between atoms: N5_16  and  C12_17 
REMARK    6  A    between atoms: C15_20  and  C16_21 
ROOT
HETATM    1  C7  UNL     1       1.093  -0.351   0.401  1.00  0.00     0.310 C 
HETATM    2  N2  UNL     1       1.686  -1.634   0.875  1.00  0.00    -0.353 N 
HETATM    3  C8  UNL     1       1.079  -2.695   0.136  1.00  0.00     0.182 A 
HETATM    4  C9  UNL     1       1.132  -2.937  -1.297  1.00  0.00     0.328 A 
HETATM    5  C10 UNL     1       0.414  -1.823  -0.735  1.00  0.00     0.306 A 
HETATM    6  N3  UNL     1      -0.431  -3.040  -1.119  1.00  0.00     0.171 N 
HETATM    7  C11 UNL     1       0.127  -3.915   0.055  1.00  0.00     0.489 C 
HETATM    8  N5  UNL     1      -0.271  -0.748  -0.113  1.00  0.00    -0.289 N 
HETATM    9  H10 UNL     1       2.328  -2.219   1.484  1.00  0.00     0.158 HD
ENDROOT
BRANCH   1  10
HETATM   10  C6  UNL     1       1.861   0.288  -0.689  1.00  0.00     0.128 C 
BRANCH  10  11
HETATM   11  C5  UNL     1       3.226   0.690  -0.357  1.00  0.00    -0.030 A 
HETATM   12  C4  UNL     1       3.983   0.543   0.786  1.00  0.00     0.009 A 
HETATM   13  C3  UNL     1       5.275   1.013   0.873  1.00  0.00     0.007 A 
HETATM   14  C2  UNL     1       5.825   1.648  -0.218  1.00  0.00    -0.060 A 
HETATM   15  C1  UNL     1       7.221   2.125  -0.040  1.00  0.00     0.048 C 
HETATM   16  C22 UNL     1       5.128   1.827  -1.384  1.00  0.00     0.031 A 
HETATM   17  C21 UNL     1       3.817   1.341  -1.446  1.00  0.00     0.041 A 
HETATM   18 CL1  UNL     1       3.047   1.647  -3.014  1.00  0.00    -0.084 Cl
ENDBRANCH  10  11
ENDBRANCH   1  10
BRANCH   1  19
HETATM   19  N1  UNL     1       0.924   0.485   1.560  1.00  0.00     0.128 N 
HETATM   20  H8  UNL     1       1.453   1.352   1.429  1.00  0.00     0.318 HD
HETATM   21  H9  UNL     1       1.218   0.052   2.457  1.00  0.00     0.318 HD
ENDBRANCH   1  19
BRANCH   8  22
HETATM   22  C12 UNL     1      -1.615  -0.285  -0.058  1.00  0.00     0.036 A 
HETATM   23  C13 UNL     1      -2.362  -0.778   1.008  1.00  0.00     0.030 A 
HETATM   24  C14 UNL     1      -3.679  -0.396   1.158  1.00  0.00     0.010 A 
HETATM   25  C15 UNL     1      -4.181   0.475   0.212  1.00  0.00    -0.055 A 
HETATM   26  C19 UNL     1      -3.453   0.971  -0.848  1.00  0.00     0.010 A 
HETATM   27  C20 UNL     1      -2.128   0.583  -0.994  1.00  0.00     0.030 A 
BRANCH  25  28
HETATM   28  C16 UNL     1      -5.612   0.915   0.342  1.00  0.00     0.010 C 
HETATM   29  C17 UNL     1      -5.683   2.415   0.582  1.00  0.00     0.015 C 
HETATM   30  C18 UNL     1      -6.408   0.523  -0.863  1.00  0.00     0.015 C 
ENDBRANCH  25  28
ENDBRANCH   8  22
BRANCH   7  31
HETATM   31  N4  UNL     1      -0.820  -3.998   1.087  1.00  0.00     0.115 N 
HETATM   32  H13 UNL     1      -0.481  -3.482   1.903  1.00  0.00     0.315 HD
HETATM   33  H14 UNL     1      -1.783  -3.785   0.791  1.00  0.00     0.315 HD
ENDBRANCH   7  31
TORSDOF 6
