REMARK  4 active torsions:
REMARK  status: ('A' for Active; 'I' for Inactive)
REMARK    1  A    between atoms: C2_2  and  C4_4 
REMARK    2  A    between atoms: C7_7  and  N1_8 
REMARK    3  A    between atoms: N1_8  and  C8_9 
REMARK    4  A    between atoms: C9_11  and  N3_12 
ROOT
HETATM    1  C8  UNL     1      -2.449   0.289   0.418  1.00  0.00     0.159 A 
HETATM    2  N2  UNL     1      -2.783   1.568   0.104  1.00  0.00    -0.045 NA
HETATM    3  C9  UNL     1      -4.078   1.866  -0.230  1.00  0.00     0.724 A 
HETATM    4  N4  UNL     1      -5.025   0.915  -0.250  1.00  0.00    -0.043 NA
HETATM    5  C10 UNL     1      -4.780  -0.358   0.046  1.00  0.00     0.178 A 
HETATM    6  C11 UNL     1      -3.472  -0.643   0.378  1.00  0.00     0.063 A 
HETATM    7  C12 UNL     1      -3.432  -2.111   0.654  1.00  0.00     0.248 C 
HETATM    8  O1  UNL     1      -4.756  -2.342   1.005  1.00  0.00    -0.274 OA
HETATM    9  N5  UNL     1      -5.507  -1.586   0.138  1.00  0.00    -0.247 N 
HETATM   10  H15 UNL     1      -6.413  -1.769  -0.384  1.00  0.00     0.196 HD
ENDROOT
BRANCH   1  11
HETATM   11  N1  UNL     1      -1.145  -0.136   0.770  1.00  0.00    -0.340 N 
HETATM   12  H10 UNL     1      -1.272  -0.684   1.684  1.00  0.00     0.167 HD
BRANCH  11  13
HETATM   13  C7  UNL     1       0.200  -0.061   0.334  1.00  0.00     0.033 A 
HETATM   14  C6  UNL     1       0.717   1.016  -0.352  1.00  0.00     0.030 A 
HETATM   15  C5  UNL     1       2.053   1.005  -0.756  1.00  0.00     0.010 A 
HETATM   16  C4  UNL     1       2.833  -0.106  -0.451  1.00  0.00    -0.055 A 
HETATM   17  C14 UNL     1       2.322  -1.188   0.237  1.00  0.00     0.010 A 
HETATM   18  C13 UNL     1       1.000  -1.165   0.630  1.00  0.00     0.030 A 
BRANCH  16  19
HETATM   19  C2  UNL     1       4.256  -0.143  -0.865  1.00  0.00     0.010 C 
HETATM   20  C1  UNL     1       4.895   1.229  -0.915  1.00  0.00     0.015 C 
HETATM   21  C3  UNL     1       5.083  -1.034   0.049  1.00  0.00     0.015 C 
ENDBRANCH  16  19
ENDBRANCH  11  13
ENDBRANCH   1  11
BRANCH   3  22
HETATM   22  N3  UNL     1      -4.497   3.175  -0.579  1.00  0.00    -0.231 N 
HETATM   23  H11 UNL     1      -4.244   3.177  -1.603  1.00  0.00     0.174 HD
HETATM   24  H12 UNL     1      -4.926   4.045  -0.184  1.00  0.00     0.174 HD
ENDBRANCH   3  22
TORSDOF 4
