REMARK  4 active torsions:
REMARK  status: ('A' for Active; 'I' for Inactive)
REMARK    1  A    between atoms: O1_2  and  C2_3 
REMARK    2  A    between atoms: C7_8  and  O2_9 
REMARK    3  A    between atoms: C12_17  and  N3_18 
REMARK    4  A    between atoms: N3_18  and  C13_19 
ROOT
HETATM    1  C2  UNL     1       3.732   1.133  -0.009  1.00  0.00     0.112 C 
HETATM    2  C3  UNL     1       2.789   2.063   0.056  1.00  0.00     0.011 C 
HETATM    3  C4  UNL     1       1.588   1.642   0.401  1.00  0.00     0.018 C 
HETATM    4  C5  UNL     1       1.255   0.378  -0.295  1.00  0.00     0.142 C 
HETATM    5  C6  UNL     1       2.156  -0.727   0.190  1.00  0.00     0.007 C 
HETATM    6  C7  UNL     1       3.420  -0.274   0.317  1.00  0.00     0.109 C 
HETATM    7  C9  UNL     1       2.179  -2.133   0.587  1.00  0.00     0.217 C 
HETATM    8  O3  UNL     1       1.099  -2.918   0.213  1.00  0.00    -0.328 OA
HETATM    9  C10 UNL     1      -0.147  -2.508  -0.223  1.00  0.00     0.197 A 
HETATM   10  N1  UNL     1      -0.862  -3.628  -0.510  1.00  0.00    -0.216 NA
HETATM   11  C11 UNL     1      -2.126  -3.437  -0.960  1.00  0.00     0.238 A 
HETATM   12  N2  UNL     1      -2.705  -2.232  -1.137  1.00  0.00    -0.222 NA
HETATM   13  C12 UNL     1      -2.033  -1.084  -0.866  1.00  0.00     0.160 A 
HETATM   14  C19 UNL     1      -0.745  -1.253  -0.404  1.00  0.00     0.131 A 
HETATM   15  N4  UNL     1      -0.136   0.016  -0.080  1.00  0.00    -0.366 N 
HETATM   16  C20 UNL     1      -1.077   0.921   0.541  1.00  0.00     0.151 C 
ENDROOT
BRANCH  13  17
HETATM   17  N3  UNL     1      -2.608   0.199  -1.072  1.00  0.00    -0.339 N 
HETATM   18  H12 UNL     1      -2.120   1.050  -1.490  1.00  0.00     0.167 HD
BRANCH  17  19
HETATM   19  C13 UNL     1      -3.999   0.509  -0.809  1.00  0.00     0.035 A 
HETATM   20  C14 UNL     1      -4.841  -0.405  -0.213  1.00  0.00     0.029 A 
HETATM   21  C15 UNL     1      -6.173  -0.189   0.066  1.00  0.00     0.004 A 
HETATM   22  C16 UNL     1      -6.712   1.036  -0.274  1.00  0.00     0.019 A 
HETATM   23  C17 UNL     1      -5.908   1.986  -0.875  1.00  0.00     0.013 A 
HETATM   24 BR1  UNL     1      -6.605   3.674  -1.355  1.00  0.00    -0.051 Br
HETATM   25  C18 UNL     1      -4.584   1.692  -1.121  1.00  0.00     0.048 A 
ENDBRANCH  17  19
ENDBRANCH  13  17
BRANCH   6  26
HETATM   26  O2  UNL     1       4.451  -1.076   0.744  1.00  0.00    -0.353 OA
HETATM   27  C8  UNL     1       5.635  -1.369   0.064  1.00  0.00     0.210 C 
ENDBRANCH   6  26
BRANCH   1  28
HETATM   28  O1  UNL     1       5.024   1.509  -0.393  1.00  0.00    -0.352 OA
HETATM   29  C1  UNL     1       5.699   2.602   0.174  1.00  0.00     0.210 C 
ENDBRANCH   1  28
TORSDOF 4
