REMARK  3 active torsions:
REMARK  status: ('A' for Active; 'I' for Inactive)
REMARK    1  A    between atoms: C5_5  and  N1_6 
REMARK    2  A    between atoms: N1_6  and  C6_7 
REMARK    3  A    between atoms: C18_23  and  N4_24 
ROOT
HETATM    1  C6  UNL     1       1.140   0.823  -1.471  1.00  0.00     0.053 C 
HETATM    2  C7  UNL     1       0.181   1.733  -1.216  1.00  0.00     0.029 C 
HETATM    3  C8  UNL     1      -1.239   2.111  -1.053  1.00  0.00    -0.002 C 
HETATM    4  C9  UNL     1      -2.335   1.394  -1.170  1.00  0.00    -0.022 C 
HETATM    5  C10 UNL     1      -3.255   0.278  -1.395  1.00  0.00     0.070 C 
HETATM    6  C11 UNL     1      -3.948  -0.101  -0.121  1.00  0.00    -0.006 A 
HETATM    7  C12 UNL     1      -5.230   0.308   0.159  1.00  0.00     0.044 A 
HETATM    8 CL1  UNL     1      -6.013   1.307  -1.065  1.00  0.00    -0.084 Cl
HETATM    9  C13 UNL     1      -5.943   0.006   1.299  1.00  0.00     0.048 A 
HETATM   10  C14 UNL     1      -5.284  -0.778   2.224  1.00  0.00     0.037 A 
HETATM   11 CL2  UNL     1      -6.136  -1.195   3.691  1.00  0.00    -0.084 Cl
HETATM   12  C15 UNL     1      -3.998  -1.206   1.978  1.00  0.00     0.054 A 
HETATM   13  C16 UNL     1      -3.299  -0.883   0.809  1.00  0.00     0.043 A 
HETATM   14  N2  UNL     1      -1.978  -1.427   0.751  1.00  0.00    -0.351 N 
HETATM   15  C17 UNL     1      -1.209  -1.739  -0.409  1.00  0.00     0.204 C 
HETATM   16  N3  UNL     1      -0.493  -0.695  -0.551  1.00  0.00    -0.253 NA
HETATM   17  C18 UNL     1       0.490  -0.529  -1.639  1.00  0.00     0.251 C 
HETATM   18  H14 UNL     1      -1.484  -1.633   1.642  1.00  0.00     0.166 HD
ENDROOT
BRANCH   1  19
HETATM   19  N1  UNL     1       2.553   0.729  -1.578  1.00  0.00    -0.357 N 
HETATM   20  H6  UNL     1       2.886   0.655  -2.577  1.00  0.00     0.166 HD
BRANCH  19  21
HETATM   21  C5  UNL     1       3.372   0.741  -0.406  1.00  0.00     0.048 A 
HETATM   22  C4  UNL     1       3.237   1.563   0.632  1.00  0.00     0.028 A 
HETATM   23  C3  UNL     1       4.290   1.216   1.596  1.00  0.00     0.008 A 
HETATM   24  C2  UNL     1       5.022   0.210   1.122  1.00  0.00    -0.044 A 
HETATM   25  C1  UNL     1       6.181  -0.492   1.706  1.00  0.00     0.046 C 
HETATM   26  C19 UNL     1       4.513  -0.210  -0.222  1.00  0.00     0.248 A 
HETATM   27  F1  UNL     1       5.484   0.055  -1.184  1.00  0.00    -0.238 F 
ENDBRANCH  19  21
ENDBRANCH   1  19
BRANCH  17  28
HETATM   28  N4  UNL     1       1.405  -1.618  -1.634  1.00  0.00    -0.405 N 
HETATM   29  H17 UNL     1       1.522  -2.118  -0.743  1.00  0.00     0.152 HD
HETATM   30  H18 UNL     1       1.382  -2.206  -2.489  1.00  0.00     0.152 HD
ENDBRANCH  17  28
TORSDOF 3
