REMARK  5 active torsions:
REMARK  status: ('A' for Active; 'I' for Inactive)
REMARK    1  A    between atoms: C2_2  and  C4_4 
REMARK    2  A    between atoms: C7_7  and  C8_8 
REMARK    3  A    between atoms: C9_10  and  N2_11 
REMARK    4  A    between atoms: C13_15  and  C14_16 
REMARK    5  A    between atoms: N3_23  and  N4_24 
ROOT
HETATM    1  C8  UNL     1       0.766   0.340   0.533  1.00  0.00     0.045 C 
HETATM    2  N1  UNL     1       0.291   1.243   1.284  1.00  0.00    -0.256 NA
HETATM    3  C9  UNL     1      -1.119   1.407   1.517  1.00  0.00     0.362 C 
HETATM    4  C10 UNL     1      -1.858   1.148   0.242  1.00  0.00     0.163 C 
HETATM    5  C11 UNL     1      -1.461  -0.170  -0.329  1.00  0.00    -0.053 C 
HETATM    6  C12 UNL     1      -2.523  -0.727  -0.905  1.00  0.00     0.004 C 
HETATM    7  C13 UNL     1      -3.641   0.218  -0.722  1.00  0.00     0.137 C 
HETATM    8  N3  UNL     1      -3.277   0.866   0.525  1.00  0.00    -0.213 NA
HETATM    9  C20 UNL     1      -0.046  -0.648  -0.192  1.00  0.00     0.095 C 
ENDROOT
BRANCH   1  10
HETATM   10  C7  UNL     1       2.224   0.307   0.401  1.00  0.00    -0.011 A 
HETATM   11  C6  UNL     1       2.881  -0.620  -0.380  1.00  0.00     0.014 A 
HETATM   12  C5  UNL     1       4.251  -0.682  -0.530  1.00  0.00     0.008 A 
HETATM   13  C4  UNL     1       5.034   0.238   0.139  1.00  0.00    -0.055 A 
HETATM   14  C22 UNL     1       4.434   1.185   0.931  1.00  0.00     0.008 A 
HETATM   15  C21 UNL     1       3.065   1.194   1.039  1.00  0.00     0.014 A 
BRANCH  13  16
HETATM   16  C2  UNL     1       6.515   0.163  -0.030  1.00  0.00     0.010 C 
HETATM   17  C1  UNL     1       6.899   0.438  -1.475  1.00  0.00     0.015 C 
HETATM   18  C3  UNL     1       7.046  -1.179   0.381  1.00  0.00     0.015 C 
ENDBRANCH  13  16
ENDBRANCH   1  10
BRANCH   3  19
HETATM   19  N2  UNL     1      -1.292   2.796   1.927  1.00  0.00     0.105 N 
HETATM   20  H11 UNL     1      -0.710   2.931   2.775  1.00  0.00     0.315 HD
HETATM   21  H12 UNL     1      -2.277   3.037   2.122  1.00  0.00     0.315 HD
ENDBRANCH   3  19
BRANCH   8  22
HETATM   22  N4  UNL     1      -3.289   0.001   1.600  1.00  0.00    -0.362 N 
HETATM   23  H20 UNL     1      -2.658  -0.801   1.552  1.00  0.00     0.171 HD
HETATM   24  H21 UNL     1      -3.508   0.397   2.515  1.00  0.00     0.171 HD
ENDBRANCH   8  22
BRANCH   7  25
HETATM   25  C14 UNL     1      -4.973  -0.389  -0.720  1.00  0.00    -0.013 A 
HETATM   26  C15 UNL     1      -5.200  -1.523  -0.008  1.00  0.00     0.011 A 
HETATM   27  C16 UNL     1      -6.436  -2.160   0.045  1.00  0.00     0.001 A 
HETATM   28  C17 UNL     1      -7.510  -1.636  -0.652  1.00  0.00     0.002 A 
HETATM   29  C18 UNL     1      -7.288  -0.468  -1.389  1.00  0.00     0.024 A 
HETATM   30  C19 UNL     1      -6.042   0.151  -1.427  1.00  0.00     0.042 A 
HETATM   31 CL1  UNL     1      -5.809   1.612  -2.363  1.00  0.00    -0.084 Cl
ENDBRANCH   7  25
TORSDOF 5
