REMARK  5 active torsions:
REMARK  status: ('A' for Active; 'I' for Inactive)
REMARK    1  A    between atoms: C2_2  and  C4_4 
REMARK    2  A    between atoms: C9_9  and  N1_10 
REMARK    3  A    between atoms: N1_10  and  C10_11 
REMARK    4  A    between atoms: C11_13  and  N3_14 
REMARK    5  A    between atoms: C15_19  and  C16_20 
ROOT
HETATM    1  C10 UNL     1      -0.142  -0.017  -1.416  1.00  0.00     0.157 A 
HETATM    2  N2  UNL     1      -0.193  -0.024  -2.773  1.00  0.00    -0.045 NA
HETATM    3  C11 UNL     1       0.875  -0.378  -3.512  1.00  0.00     0.724 A 
HETATM    4  N4  UNL     1       2.064  -0.749  -2.963  1.00  0.00    -0.045 NA
HETATM    5  C12 UNL     1       2.181  -0.763  -1.613  1.00  0.00     0.153 A 
HETATM    6  C13 UNL     1       1.079  -0.398  -0.842  1.00  0.00     0.037 A 
HETATM    7  C14 UNL     1       1.441  -0.492   0.601  1.00  0.00     0.076 A 
HETATM    8  C15 UNL     1       2.874  -0.911   0.574  1.00  0.00     0.123 A 
HETATM    9  N5  UNL     1       3.272  -1.098  -0.788  1.00  0.00    -0.365 N 
HETATM   10  H19 UNL     1       4.217  -1.424  -0.993  1.00  0.00     0.162 HD
ENDROOT
BRANCH   1  11
HETATM   11  N1  UNL     1      -1.222   0.336  -0.552  1.00  0.00    -0.339 N 
HETATM   12  H12 UNL     1      -0.975   1.345  -0.579  1.00  0.00     0.167 HD
BRANCH  11  13
HETATM   13  C9  UNL     1      -2.108  -0.647  -0.038  1.00  0.00     0.040 A 
HETATM   14  C4  UNL     1      -3.138  -0.283   0.798  1.00  0.00    -0.028 A 
HETATM   15  C5  UNL     1      -3.952  -1.312   1.275  1.00  0.00     0.010 A 
HETATM   16  C6  UNL     1      -3.684  -2.608   0.889  1.00  0.00     0.001 A 
HETATM   17  C7  UNL     1      -2.641  -2.933   0.048  1.00  0.00     0.002 A 
HETATM   18  C8  UNL     1      -1.816  -1.931  -0.441  1.00  0.00     0.030 A 
BRANCH  14  19
HETATM   19  C2  UNL     1      -3.421   1.128   1.186  1.00  0.00     0.013 C 
HETATM   20  C1  UNL     1      -2.523   1.630   2.292  1.00  0.00     0.015 C 
HETATM   21  C3  UNL     1      -3.469   2.042  -0.009  1.00  0.00     0.015 C 
ENDBRANCH  14  19
ENDBRANCH  11  13
ENDBRANCH   1  11
BRANCH   3  22
HETATM   22  N3  UNL     1       0.686  -0.340  -4.920  1.00  0.00    -0.231 N 
HETATM   23  H13 UNL     1       0.224  -1.276  -5.122  1.00  0.00     0.174 HD
HETATM   24  H14 UNL     1       1.101   0.614  -5.097  1.00  0.00     0.174 HD
ENDBRANCH   3  22
BRANCH   8  25
HETATM   25  C16 UNL     1       3.779   0.100   1.161  1.00  0.00    -0.001 C 
HETATM   26  C17 UNL     1       4.610   0.044   2.189  1.00  0.00     0.008 C 
HETATM   27  C18 UNL     1       5.702   0.765   1.987  1.00  0.00     0.047 C 
HETATM   28 CL1  UNL     1       7.430   0.801   2.319  1.00  0.00    -0.083 Cl
HETATM   29  C19 UNL     1       5.143   1.889   1.208  1.00  0.00     0.049 C 
HETATM   30  C20 UNL     1       3.966   1.492   0.698  1.00  0.00     0.044 C 
HETATM   31 CL2  UNL     1       2.834   2.396  -0.318  1.00  0.00    -0.084 Cl
ENDBRANCH   8  25
TORSDOF 5
