REMARK  6 active torsions:
REMARK  status: ('A' for Active; 'I' for Inactive)
REMARK    1  A    between atoms: C2_2  and  C4_4 
REMARK    2  A    between atoms: C9_9  and  N1_10 
REMARK    3  A    between atoms: N1_10  and  C10_11 
REMARK    4  A    between atoms: C11_13  and  N3_14 
REMARK    5  A    between atoms: C13_17  and  C14_18 
REMARK    6  A    between atoms: C15_19  and  N5_20 
ROOT
HETATM    1  C10 UNL     1       1.558  -0.945  -0.523  1.00  0.00     0.159 A 
HETATM    2  N2  UNL     1       1.613  -2.262  -0.749  1.00  0.00    -0.044 NA
HETATM    3  C11 UNL     1       2.720  -2.912  -1.110  1.00  0.00     0.721 A 
HETATM    4  N4  UNL     1       3.864  -2.261  -1.267  1.00  0.00    -0.074 NA
HETATM    5  C12 UNL     1       3.918  -0.918  -1.062  1.00  0.00     0.151 A 
HETATM    6  C13 UNL     1       2.745  -0.280  -0.689  1.00  0.00     0.030 A 
ENDROOT
BRANCH   1   7
HETATM    7  N1  UNL     1       0.366  -0.302  -0.145  1.00  0.00    -0.339 N 
HETATM    8  H12 UNL     1       0.436   0.695  -0.003  1.00  0.00     0.167 HD
BRANCH   7   9
HETATM    9  C9  UNL     1      -0.921  -0.834   0.066  1.00  0.00     0.040 A 
HETATM   10  C4  UNL     1      -1.982  -0.021   0.444  1.00  0.00    -0.028 A 
HETATM   11  C5  UNL     1      -3.243  -0.537   0.648  1.00  0.00     0.010 A 
HETATM   12  C6  UNL     1      -3.514  -1.874   0.488  1.00  0.00     0.001 A 
HETATM   13  C7  UNL     1      -2.492  -2.720   0.113  1.00  0.00     0.002 A 
HETATM   14  C8  UNL     1      -1.247  -2.164  -0.080  1.00  0.00     0.030 A 
BRANCH  10  15
HETATM   15  C2  UNL     1      -1.827   1.442   0.657  1.00  0.00     0.013 C 
HETATM   16  C1  UNL     1      -2.057   2.119  -0.694  1.00  0.00     0.015 C 
HETATM   17  C3  UNL     1      -2.967   1.963   1.545  1.00  0.00     0.015 C 
ENDBRANCH  10  15
ENDBRANCH   7   9
ENDBRANCH   1   7
BRANCH   6  18
HETATM   18  C14 UNL     1       2.882   1.141  -0.489  1.00  0.00     0.033 C 
HETATM   19  C15 UNL     1       2.285   2.255  -0.170  1.00  0.00     0.081 C 
BRANCH  19  20
HETATM   20  N5  UNL     1       2.805   3.597  -0.072  1.00  0.00    -0.408 N 
HETATM   21  H18 UNL     1       3.243   4.155   0.716  1.00  0.00     0.155 HD
HETATM   22  H19 UNL     1       2.900   4.395  -0.770  1.00  0.00     0.155 HD
ENDBRANCH  19  20
ENDBRANCH   6  18
BRANCH   3  23
HETATM   23  N3  UNL     1       2.545  -4.302  -1.295  1.00  0.00    -0.231 N 
HETATM   24  H13 UNL     1       2.459  -4.559  -2.310  1.00  0.00     0.174 HD
HETATM   25  H14 UNL     1       2.513  -4.951  -0.489  1.00  0.00     0.174 HD
ENDBRANCH   3  23
TORSDOF 6
