REMARK  8 active torsions:
REMARK  status: ('A' for Active; 'I' for Inactive)
REMARK    1  A    between atoms: C2_2  and  C3_3 
REMARK    2  A    between atoms: C3_3  and  C4_4 
REMARK    3  A    between atoms: C3_3  and  C19_25 
REMARK    4  A    between atoms: C4_4  and  C5_5 
REMARK    5  A    between atoms: C7_10  and  N3_11 
REMARK    6  A    between atoms: C8_13  and  N5_14 
REMARK    7  A    between atoms: N5_14  and  C9_15 
REMARK    8  A    between atoms: C14_20  and  C15_21 
ROOT
HETATM    1  C5  UNL     1       2.364   1.150   0.058  1.00  0.00     0.048 A 
HETATM    2  N1  UNL     1       3.563   1.815  -0.282  1.00  0.00    -0.361 N 
HETATM    3  P1  UNL     1       3.075   3.547  -0.580  1.00  0.00     0.026 P 
HETATM    4  C6  UNL     1       1.299   3.199  -0.147  1.00  0.00     0.113 A 
HETATM    5  N2  UNL     1       0.328   4.117  -0.130  1.00  0.00    -0.060 NA
HETATM    6  C7  UNL     1      -0.929   3.766   0.181  1.00  0.00     0.722 A 
HETATM    7  N4  UNL     1      -1.054   2.497   0.444  1.00  0.00    -0.044 NA
HETATM    8  C8  UNL     1      -0.173   1.503   0.459  1.00  0.00     0.162 A 
HETATM    9  C18 UNL     1       1.117   1.872   0.139  1.00  0.00     0.069 A 
HETATM   10  H6  UNL     1       4.539   1.894  -0.459  1.00  0.00     0.164 HD
HETATM   11  H7  UNL     1       3.161   3.749  -2.036  1.00  0.00     0.086 HD
ENDROOT
BRANCH   8  12
HETATM   12  N5  UNL     1      -0.498   0.118   0.767  1.00  0.00    -0.339 N 
HETATM   13  H10 UNL     1      -0.337  -0.526   1.598  1.00  0.00     0.167 HD
BRANCH  12  14
HETATM   14  C9  UNL     1      -1.221  -0.816  -0.021  1.00  0.00     0.040 A 
HETATM   15  C10 UNL     1      -0.685  -1.925  -0.638  1.00  0.00     0.030 A 
HETATM   16  C11 UNL     1      -1.355  -2.859  -1.397  1.00  0.00     0.002 A 
HETATM   17  C12 UNL     1      -2.711  -2.702  -1.583  1.00  0.00     0.001 A 
HETATM   18  C13 UNL     1      -3.325  -1.596  -0.982  1.00  0.00     0.010 A 
HETATM   19  C14 UNL     1      -2.567  -0.709  -0.232  1.00  0.00    -0.028 A 
BRANCH  19  20
HETATM   20  C15 UNL     1      -3.469   0.287   0.382  1.00  0.00     0.013 C 
HETATM   21  C16 UNL     1      -4.389  -0.570   1.309  1.00  0.00     0.015 C 
HETATM   22  C17 UNL     1      -4.388   0.952  -0.602  1.00  0.00     0.015 C 
ENDBRANCH  19  20
ENDBRANCH  12  14
ENDBRANCH   8  12
BRANCH   6  23
HETATM   23  N3  UNL     1      -2.139   4.501   0.279  1.00  0.00    -0.231 N 
HETATM   24  H8  UNL     1      -2.463   4.677  -0.688  1.00  0.00     0.174 HD
HETATM   25  H9  UNL     1      -2.669   4.840   1.105  1.00  0.00     0.174 HD
ENDBRANCH   6  23
BRANCH   1  26
HETATM   26  C4  UNL     1       2.554  -0.117   0.304  1.00  0.00     0.038 C 
BRANCH  26  27
HETATM   27  C3  UNL     1       3.653  -1.044   0.331  1.00  0.00    -0.046 C 
BRANCH  27  28
HETATM   28  C2  UNL     1       3.378  -2.336   0.529  1.00  0.00    -0.023 C 
HETATM   29  C1  UNL     1       4.354  -3.408   0.586  1.00  0.00     0.036 C 
ENDBRANCH  27  28
BRANCH  27  30
HETATM   30  C19 UNL     1       5.110  -0.815   0.186  1.00  0.00     0.152 C 
HETATM   31 CL1  UNL     1       5.774   0.216   1.479  1.00  0.00    -0.126 Cl
ENDBRANCH  27  30
ENDBRANCH  26  27
ENDBRANCH   1  26
TORSDOF 8
