REMARK  3 active torsions:
REMARK  status: ('A' for Active; 'I' for Inactive)
REMARK    1  A    between atoms: O1_2  and  C2_3 
REMARK    2  A    between atoms: C7_8  and  O2_9 
REMARK    3  A    between atoms: C11_16  and  N3_17 
ROOT
HETATM    1  C2  UNL     1      -3.999  -0.313  -0.495  1.00  0.00     0.102 A 
HETATM    2  C3  UNL     1      -2.830  -0.674  -1.127  1.00  0.00     0.051 A 
HETATM    3  C4  UNL     1      -1.648  -0.359  -0.497  1.00  0.00     0.006 A 
HETATM    4  C5  UNL     1      -1.582   0.296   0.728  1.00  0.00     0.088 A 
HETATM    5  C6  UNL     1      -2.812   0.633   1.310  1.00  0.00     0.077 A 
HETATM    6  C7  UNL     1      -4.019   0.338   0.716  1.00  0.00     0.104 A 
HETATM    7  O3  UNL     1      -0.504   0.713   1.544  1.00  0.00    -0.293 OA
HETATM    8  C9  UNL     1       0.823   0.760   1.068  1.00  0.00     0.185 C 
HETATM    9  N1  UNL     1       1.286   0.634   2.263  1.00  0.00    -0.220 NA
HETATM   10  C10 UNL     1       2.582   0.571   2.829  1.00  0.00     0.232 C 
HETATM   11  N2  UNL     1       3.668  -0.078   2.483  1.00  0.00    -0.243 NA
HETATM   12  C11 UNL     1       3.824  -0.978   1.324  1.00  0.00     0.374 C 
HETATM   13  C12 UNL     1       3.794  -0.177   0.071  1.00  0.00     0.006 A 
HETATM   14  C13 UNL     1       5.048  -0.237  -0.494  1.00  0.00     0.030 A 
HETATM   15  C14 UNL     1       5.263   0.442  -1.674  1.00  0.00     0.011 A 
HETATM   16 BR1  UNL     1       6.992   0.366  -2.463  1.00  0.00    -0.051 Br
HETATM   17  C15 UNL     1       4.237   1.154  -2.251  1.00  0.00     0.020 A 
HETATM   18  C16 UNL     1       3.002   1.182  -1.647  1.00  0.00     0.012 A 
HETATM   19  C17 UNL     1       2.725   0.511  -0.447  1.00  0.00    -0.007 A 
HETATM   20  C18 UNL     1       1.296   0.905  -0.322  1.00  0.00     0.330 C 
HETATM   21  N4  UNL     1       0.518   0.355  -1.349  1.00  0.00     0.104 NA
HETATM   22  C19 UNL     1      -0.339  -0.733  -1.148  1.00  0.00     0.312 C 
HETATM   23  H17 UNL     1       1.069   0.177  -2.218  1.00  0.00     0.317 HD
ENDROOT
BRANCH  12  24
HETATM   24  N3  UNL     1       2.866  -2.040   1.327  1.00  0.00     0.107 N 
HETATM   25  H11 UNL     1       2.531  -2.264   0.348  1.00  0.00     0.316 HD
HETATM   26  H12 UNL     1       3.270  -2.960   1.675  1.00  0.00     0.316 HD
ENDBRANCH  12  24
BRANCH   6  27
HETATM   27  O2  UNL     1      -5.240   0.669   1.289  1.00  0.00    -0.353 OA
HETATM   28  C8  UNL     1      -5.314   1.339   2.535  1.00  0.00     0.210 C 
ENDBRANCH   6  27
BRANCH   1  29
HETATM   29  O1  UNL     1      -5.173  -0.643  -1.154  1.00  0.00    -0.353 OA
HETATM   30  C1  UNL     1      -5.191  -1.308  -2.393  1.00  0.00     0.210 C 
ENDBRANCH   1  29
TORSDOF 3
