REMARK  3 active torsions:
REMARK  status: ('A' for Active; 'I' for Inactive)
REMARK    1  A    between atoms: N1_1  and  C1_2 
REMARK    2  A    between atoms: C3_6  and  C4_7 
REMARK    3  A    between atoms: C4_7  and  C5_8 
ROOT
HETATM    1  C1  UNL     1       2.506   2.642   0.303  1.00  0.00     0.718 C 
HETATM    2  N2  UNL     1       1.293   2.673   0.740  1.00  0.00    -0.064 NA
HETATM    3  C2  UNL     1       0.554   1.542   1.030  1.00  0.00     0.397 C 
HETATM    4  N3  UNL     1      -0.724   1.230   0.518  1.00  0.00     0.122 N 
HETATM    5  C3  UNL     1      -0.911  -0.187   1.012  1.00  0.00     0.261 C 
HETATM    6  C11 UNL     1       0.442  -0.743   0.633  1.00  0.00    -0.010 A 
HETATM    7  C12 UNL     1       1.021  -1.962   0.336  1.00  0.00     0.048 A 
HETATM    8  C13 UNL     1       2.364  -2.016  -0.064  1.00  0.00     0.088 A 
HETATM    9  C14 UNL     1       3.173  -0.892  -0.186  1.00  0.00     0.028 A 
HETATM   10  C15 UNL     1       2.611   0.316   0.104  1.00  0.00     0.099 A 
HETATM   11  C16 UNL     1       1.316   0.345   0.495  1.00  0.00     0.035 A 
HETATM   12  N4  UNL     1       3.231   1.441  -0.037  1.00  0.00    -0.062 NA
HETATM   13  C17 UNL     1       4.438  -0.971  -0.566  1.00  0.00     0.018 A 
HETATM   14  C18 UNL     1       4.977  -2.295  -0.861  1.00  0.00     0.026 A 
HETATM   15  C19 UNL     1       4.244  -3.414  -0.761  1.00  0.00     0.142 A 
HETATM   16  O1  UNL     1       2.901  -3.284  -0.353  1.00  0.00    -0.322 OA
HETATM   17  H4  UNL     1      -0.695   1.193  -0.524  1.00  0.00     0.320 HD
ENDROOT
BRANCH   5  18
HETATM   18  C4  UNL     1      -1.944  -0.830   0.178  1.00  0.00     0.081 C 
BRANCH  18  19
HETATM   19  C5  UNL     1      -3.277  -0.202   0.177  1.00  0.00    -0.034 A 
HETATM   20  C6  UNL     1      -4.060  -0.672  -0.882  1.00  0.00     0.010 A 
HETATM   21  C7  UNL     1      -5.353  -0.249  -1.110  1.00  0.00     0.024 A 
HETATM   22  C8  UNL     1      -5.931   0.681  -0.273  1.00  0.00     0.035 A 
HETATM   23 CL1  UNL     1      -7.555   1.276  -0.478  1.00  0.00    -0.084 Cl
HETATM   24  C9  UNL     1      -5.178   1.158   0.778  1.00  0.00     0.048 A 
HETATM   25  C10 UNL     1      -3.891   0.715   0.978  1.00  0.00     0.042 A 
HETATM   26 CL2  UNL     1      -2.956   1.313   2.299  1.00  0.00    -0.084 Cl
ENDBRANCH  18  19
ENDBRANCH   5  18
BRANCH   1  27
HETATM   27  N1  UNL     1       3.285   3.813   0.007  1.00  0.00    -0.231 N 
HETATM   28  H1  UNL     1       3.687   4.626   0.547  1.00  0.00     0.174 HD
HETATM   29  H2  UNL     1       3.721   4.270  -0.805  1.00  0.00     0.174 HD
ENDBRANCH   1  27
TORSDOF 3
