REMARK  1 active torsions:
REMARK  status: ('A' for Active; 'I' for Inactive)
REMARK    1  A    between atoms: C5_6  and  N2_7 
ROOT
HETATM    1  C1  UNL     1       3.188  -2.458  -0.643  1.00  0.00     0.019 C 
HETATM    2  C2  UNL     1       2.063  -1.449  -0.735  1.00  0.00     0.043 C 
HETATM    3  C3  UNL     1       0.864  -2.330  -0.608  1.00  0.00     0.033 C 
HETATM    4  C4  UNL     1       0.298  -1.454  -1.422  1.00  0.00     0.126 C 
HETATM    5  N1  UNL     1       0.444  -0.165  -2.264  1.00  0.00    -0.216 NA
HETATM    6  C5  UNL     1      -0.098   0.910  -1.535  1.00  0.00     0.129 C 
HETATM    7  C6  UNL     1      -0.953   1.376  -0.367  1.00  0.00     0.102 C 
HETATM    8  C7  UNL     1      -1.851   1.886  -1.356  1.00  0.00     0.069 C 
HETATM    9  C8  UNL     1      -2.406   0.439  -1.632  1.00  0.00     0.002 C 
HETATM   10  C9  UNL     1      -1.890  -0.650  -0.822  1.00  0.00     0.023 C 
HETATM   11  N3  UNL     1      -1.020  -1.919  -0.843  1.00  0.00    -0.344 N 
HETATM   12  C10 UNL     1      -2.018  -0.746   0.796  1.00  0.00     0.060 A 
HETATM   13  C11 UNL     1      -1.603   0.276   1.615  1.00  0.00     0.014 C 
HETATM   14 CL1  UNL     1      -0.999   0.879   3.010  1.00  0.00    -0.092 Cl
HETATM   15  C12 UNL     1      -1.915   1.284   0.642  1.00  0.00     0.070 C 
HETATM   16  C13 UNL     1      -3.379   0.626   0.512  1.00  0.00     0.029 C 
HETATM   17  C14 UNL     1      -3.753  -0.726   0.971  1.00  0.00     0.061 A 
HETATM   18 CL2  UNL     1      -5.225  -1.136   1.629  1.00  0.00    -0.117 Cl
HETATM   19  C15 UNL     1      -2.600  -1.936   0.820  1.00  0.00     0.051 A 
HETATM   20  N4  UNL     1       0.267   1.596   0.249  1.00  0.00    -0.372 N 
HETATM   21  C16 UNL     1       1.442   0.841   0.584  1.00  0.00     0.036 A 
HETATM   22  C17 UNL     1       1.971   1.644   1.612  1.00  0.00     0.030 A 
HETATM   23  C18 UNL     1       3.131   1.473   2.355  1.00  0.00     0.002 A 
HETATM   24  C19 UNL     1       3.803   0.335   1.973  1.00  0.00     0.001 A 
HETATM   25  C20 UNL     1       3.303  -0.467   0.966  1.00  0.00     0.010 A 
HETATM   26  C21 UNL     1       2.140  -0.308   0.212  1.00  0.00    -0.024 A 
HETATM   27  H11 UNL     1      -1.611  -2.613  -0.409  1.00  0.00     0.167 HD
HETATM   28  H16 UNL     1       0.040   2.569   0.345  1.00  0.00     0.161 HD
ENDROOT
BRANCH   6  29
HETATM   29  N2  UNL     1       0.441   2.031  -2.251  1.00  0.00    -0.385 N 
HETATM   30  H6  UNL     1       1.175   2.744  -1.981  1.00  0.00     0.157 HD
HETATM   31  H7  UNL     1       0.320   2.480  -3.161  1.00  0.00     0.157 HD
ENDBRANCH   6  29
TORSDOF 1
