REMARK  6 active torsions:
REMARK  status: ('A' for Active; 'I' for Inactive)
REMARK    1  A    between atoms: C3_3  and  C4_4 
REMARK    2  A    between atoms: C5_5  and  B1_6 
REMARK    3  A    between atoms: C5_5  and  C18_27 
REMARK    4  A    between atoms: B1_6  and  N1_7 
REMARK    5  A    between atoms: N1_7  and  C6_8 
REMARK    6  A    between atoms: C7_10  and  N3_11 
ROOT
HETATM    1  C6  UNL     1       0.734   1.210   0.496  1.00  0.00     0.162 A 
HETATM    2  N2  UNL     1       0.287   2.109   1.432  1.00  0.00    -0.044 NA
HETATM    3  C7  UNL     1       0.864   1.987   2.664  1.00  0.00     0.724 A 
HETATM    4  N4  UNL     1       1.794   1.054   2.921  1.00  0.00    -0.046 NA
HETATM    5  C8  UNL     1       2.233   0.175   2.009  1.00  0.00     0.142 A 
HETATM    6  C9  UNL     1       1.705   0.230   0.744  1.00  0.00     0.055 A 
HETATM    7  C10 UNL     1       2.040  -0.599  -0.409  1.00  0.00     0.016 C 
HETATM    8  C11 UNL     1       2.922  -0.697  -1.386  1.00  0.00    -0.011 C 
HETATM    9  C12 UNL     1       4.081   0.114  -1.746  1.00  0.00     0.087 A 
HETATM   10  C13 UNL     1       4.530  -0.250  -3.142  1.00  0.00     0.024 A 
HETATM   11 CL1  UNL     1       3.463   0.066  -4.518  1.00  0.00    -0.088 Cl
HETATM   12  C14 UNL     1       5.737  -0.751  -2.829  1.00  0.00     0.030 A 
HETATM   13  C15 UNL     1       5.397  -0.431  -1.424  1.00  0.00    -0.023 A 
HETATM   14  C16 UNL     1       6.215  -0.654  -0.401  1.00  0.00     0.028 C 
HETATM   15 CL2  UNL     1       7.795  -1.318  -0.062  1.00  0.00    -0.085 Cl
HETATM   16  C17 UNL     1       5.431  -0.122   0.702  1.00  0.00    -0.036 C 
HETATM   17  B2  UNL     1       4.140  -1.386   1.196  1.00  0.00     0.307 B 
HETATM   18  N5  UNL     1       3.207  -0.721   2.524  1.00  0.00    -0.423 N 
HETATM   19  H14 UNL     1       3.303  -0.912   3.532  1.00  0.00     0.139 HD
ENDROOT
BRANCH   1  20
HETATM   20  N1  UNL     1       0.200   1.199  -0.846  1.00  0.00    -0.339 NA
BRANCH  20  21
HETATM   21  B1  UNL     1      -1.352   0.400  -1.051  1.00  0.00     0.343 B 
BRANCH  21  22
HETATM   22  C5  UNL     1      -2.852  -0.490  -0.676  1.00  0.00    -0.095 C 
HETATM   23  C4  UNL     1      -3.854   0.222  -0.204  1.00  0.00    -0.008 C 
BRANCH  23  24
HETATM   24  C3  UNL     1      -3.671   1.655  -0.027  1.00  0.00    -0.005 C 
HETATM   25  C2  UNL     1      -4.682   2.395   0.452  1.00  0.00    -0.031 C 
HETATM   26  C1  UNL     1      -5.923   1.648   0.760  1.00  0.00     0.036 C 
ENDBRANCH  23  24
BRANCH  22  27
HETATM   27  C18 UNL     1      -2.893  -1.943  -0.906  1.00  0.00    -0.003 C 
HETATM   28  C19 UNL     1      -2.649  -2.169  -2.375  1.00  0.00     0.013 C 
HETATM   29  C20 UNL     1      -4.279  -2.430  -0.502  1.00  0.00     0.013 C 
ENDBRANCH  22  27
ENDBRANCH  21  22
ENDBRANCH  20  21
ENDBRANCH   1  20
BRANCH   3  30
HETATM   30  N3  UNL     1       0.368   2.940   3.593  1.00  0.00    -0.231 N 
HETATM   31  H7  UNL     1      -0.494   2.521   3.988  1.00  0.00     0.174 HD
HETATM   32  H8  UNL     1       0.697   3.880   3.900  1.00  0.00     0.174 HD
ENDBRANCH   3  30
TORSDOF 6
