REMARK  4 active torsions:
REMARK  status: ('A' for Active; 'I' for Inactive)
REMARK    1  A    between atoms: C3_4  and  N2_5 
REMARK    2  A    between atoms: N2_5  and  C4_6 
REMARK    3  A    between atoms: C9_11  and  C10_12 
REMARK    4  A    between atoms: C13_15  and  C14_16 
ROOT
HETATM    1  C1  UNL     1      -0.150   3.854   0.906  1.00  0.00     0.068 C 
HETATM    2  C2  UNL     1      -1.117   2.822   0.312  1.00  0.00     0.341 C 
HETATM    3  N1  UNL     1      -0.310   1.642   0.038  1.00  0.00    -0.238 NA
HETATM    4  C3  UNL     1      -0.627   0.364   0.087  1.00  0.00     0.140 C 
HETATM    5  C13 UNL     1      -1.961  -0.093   0.476  1.00  0.00     0.326 C 
HETATM    6  N3  UNL     1      -2.927   0.844  -0.132  1.00  0.00     0.128 N 
HETATM    7  C20 UNL     1      -3.281   1.875   0.798  1.00  0.00     0.541 C 
HETATM    8  N4  UNL     1      -2.131   2.584   1.320  1.00  0.00     0.135 N 
HETATM    9  H21 UNL     1      -2.486   1.321  -0.960  1.00  0.00     0.319 HD
HETATM   10  H24 UNL     1      -2.466   3.535   1.602  1.00  0.00     0.320 HD
ENDROOT
BRANCH   4  11
HETATM   11  N2  UNL     1       0.505  -0.442  -0.268  1.00  0.00    -0.342 N 
HETATM   12  H5  UNL     1       0.351  -1.434   0.095  1.00  0.00     0.167 HD
BRANCH  11  13
HETATM   13  C4  UNL     1       1.581   0.169  -1.009  1.00  0.00     0.040 A 
HETATM   14  C5  UNL     1       1.243   0.938  -2.106  1.00  0.00     0.030 A 
HETATM   15  C6  UNL     1       2.178   1.572  -2.890  1.00  0.00     0.002 A 
HETATM   16  C7  UNL     1       3.480   1.402  -2.526  1.00  0.00     0.001 A 
HETATM   17  C8  UNL     1       3.848   0.652  -1.454  1.00  0.00     0.010 A 
HETATM   18  C9  UNL     1       2.899   0.000  -0.645  1.00  0.00    -0.028 A 
BRANCH  18  19
HETATM   19  C10 UNL     1       3.311  -0.798   0.538  1.00  0.00     0.013 C 
HETATM   20  C11 UNL     1       3.390  -2.262   0.267  1.00  0.00     0.015 C 
HETATM   21  C12 UNL     1       2.616  -0.399   1.797  1.00  0.00     0.015 C 
ENDBRANCH  18  19
ENDBRANCH  11  13
ENDBRANCH   4  11
BRANCH   5  22
HETATM   22  C14 UNL     1      -2.315  -1.479   0.205  1.00  0.00     0.004 A 
HETATM   23  C15 UNL     1      -2.913  -2.221   1.233  1.00  0.00     0.013 A 
HETATM   24  C16 UNL     1      -3.316  -3.535   1.196  1.00  0.00     0.024 A 
HETATM   25  C17 UNL     1      -3.105  -4.200   0.011  1.00  0.00     0.035 A 
HETATM   26 CL1  UNL     1      -3.605  -5.877  -0.075  1.00  0.00    -0.084 Cl
HETATM   27  C18 UNL     1      -2.520  -3.535  -1.049  1.00  0.00     0.048 A 
HETATM   28  C19 UNL     1      -2.140  -2.212  -0.943  1.00  0.00     0.044 A 
HETATM   29 CL2  UNL     1      -1.413  -1.374  -2.293  1.00  0.00    -0.084 Cl
ENDBRANCH   5  22
TORSDOF 4
