REMARK  6 active torsions:
REMARK  status: ('A' for Active; 'I' for Inactive)
REMARK    1  A    between atoms: C2_2  and  C3_3 
REMARK    2  A    between atoms: C5_5  and  N1_6 
REMARK    3  A    between atoms: N1_6  and  C6_7 
REMARK    4  A    between atoms: C14_19  and  O1_20 
REMARK    5  A    between atoms: C14_19  and  C15_21 
REMARK    6  A    between atoms: C15_21  and  O2_22 
ROOT
HETATM    1  C3  UNL     1       2.214  -0.440  -0.300  1.00  0.00    -0.019 C 
HETATM    2  C4  UNL     1       1.577  -0.592  -1.460  1.00  0.00     0.044 C 
HETATM    3  C5  UNL     1       0.298   0.061  -1.137  1.00  0.00     0.184 A 
HETATM    4  N2  UNL     1      -0.357   0.578  -2.324  1.00  0.00    -0.275 N 
HETATM    5  N3  UNL     1      -0.729   1.914  -2.617  1.00  0.00    -0.170 NA
HETATM    6  C12 UNL     1      -0.410   2.826  -1.732  1.00  0.00     0.254 A 
HETATM    7  N4  UNL     1       0.284   2.489  -0.510  1.00  0.00    -0.241 NA
HETATM    8  C13 UNL     1       0.590   1.233  -0.283  1.00  0.00     0.108 A 
HETATM    9  C14 UNL     1       1.324   0.328   0.651  1.00  0.00     0.150 C 
HETATM   10  H10 UNL     1      -0.564  -0.158  -3.030  1.00  0.00     0.186 HD
ENDROOT
BRANCH   3  11
HETATM   11  N1  UNL     1      -0.533  -0.947  -0.499  1.00  0.00    -0.354 N 
HETATM   12  H5  UNL     1      -0.098  -1.910  -0.381  1.00  0.00     0.163 HD
BRANCH  11  13
HETATM   13  C6  UNL     1      -1.863  -0.873   0.007  1.00  0.00     0.031 A 
HETATM   14  C7  UNL     1      -2.657   0.251  -0.016  1.00  0.00     0.029 A 
HETATM   15  C8  UNL     1      -3.945   0.333   0.468  1.00  0.00     0.004 A 
HETATM   16  C9  UNL     1      -4.506  -0.795   1.029  1.00  0.00     0.019 A 
HETATM   17  C10 UNL     1      -3.743  -1.941   1.071  1.00  0.00     0.013 A 
HETATM   18 BR1  UNL     1      -4.482  -3.521   1.838  1.00  0.00    -0.051 Br
HETATM   19  C11 UNL     1      -2.462  -1.975   0.575  1.00  0.00     0.048 A 
ENDBRANCH  11  13
ENDBRANCH   3  11
BRANCH   1  20
HETATM   20  C2  UNL     1       3.547  -0.918  -0.061  1.00  0.00    -0.016 C 
HETATM   21  C1  UNL     1       4.519  -1.010   0.818  1.00  0.00     0.031 C 
ENDBRANCH   1  20
BRANCH   9  22
HETATM   22  O1  UNL     1       0.470  -0.461   1.336  1.00  0.00    -0.376 OA
HETATM   23  H12 UNL     1       0.459  -0.331   2.323  1.00  0.00     0.211 HD
ENDBRANCH   9  22
BRANCH   9  24
HETATM   24  C15 UNL     1       2.261   1.123   1.541  1.00  0.00     0.213 C 
BRANCH  24  25
HETATM   25  O2  UNL     1       1.445   1.932   2.356  1.00  0.00    -0.397 OA
HETATM   26  H15 UNL     1       0.584   2.093   1.896  1.00  0.00     0.209 HD
ENDBRANCH  24  25
ENDBRANCH   9  24
TORSDOF 6
