REMARK  5 active torsions:
REMARK  status: ('A' for Active; 'I' for Inactive)
REMARK    1  A    between atoms: O1_2  and  C2_3 
REMARK    2  A    between atoms: C2_3  and  C3_4 
REMARK    3  A    between atoms: C3_4  and  O2_5 
REMARK    4  A    between atoms: C9_13  and  N3_14 
REMARK    5  A    between atoms: N3_14  and  C10_15 
ROOT
HETATM    1  C3  UNL     1       1.520   0.071   0.136  1.00  0.00     0.081 C 
HETATM    2  C5  UNL     1       0.771   1.086  -0.332  1.00  0.00     0.041 A 
HETATM    3  C6  UNL     1       1.148   2.493  -0.380  1.00  0.00     0.044 A 
HETATM    4  C7  UNL     1       2.473   2.883   0.095  1.00  0.00     0.071 C 
HETATM    5  N1  UNL     1       0.334   3.382  -0.838  1.00  0.00    -0.246 NA
HETATM    6  C8  UNL     1      -0.942   3.074  -1.315  1.00  0.00     0.229 A 
HETATM    7  N2  UNL     1      -1.325   1.864  -1.302  1.00  0.00    -0.252 NA
HETATM    8  C9  UNL     1      -0.580   0.736  -0.841  1.00  0.00     0.245 A 
ENDROOT
BRANCH   8   9
HETATM    9  N3  UNL     1      -1.389   0.101   0.188  1.00  0.00    -0.363 N 
HETATM   10  H14 UNL     1      -0.965  -0.021   1.111  1.00  0.00     0.162 HD
BRANCH   9  11
HETATM   11  C10 UNL     1      -2.720  -0.341  -0.051  1.00  0.00     0.031 A 
HETATM   12  C11 UNL     1      -3.364  -0.218  -1.262  1.00  0.00     0.029 A 
HETATM   13  C12 UNL     1      -4.654  -0.644  -1.500  1.00  0.00     0.004 A 
HETATM   14  C13 UNL     1      -5.351  -1.237  -0.447  1.00  0.00     0.019 A 
HETATM   15  C14 UNL     1      -4.732  -1.377   0.786  1.00  0.00     0.013 A 
HETATM   16 BR1  UNL     1      -5.685  -2.189   2.227  1.00  0.00    -0.051 Br
HETATM   17  C15 UNL     1      -3.439  -0.932   0.964  1.00  0.00     0.048 A 
ENDBRANCH   9  11
ENDBRANCH   8   9
BRANCH   1  18
HETATM   18  C2  UNL     1       2.831  -0.165   0.729  1.00  0.00     0.232 C 
BRANCH  18  19
HETATM   19  O1  UNL     1       3.522  -1.037  -0.115  1.00  0.00    -0.390 OA
HETATM   20  C1  UNL     1       4.788  -1.350   0.323  1.00  0.00     0.201 C 
ENDBRANCH  18  19
ENDBRANCH   1  18
BRANCH   1  21
HETATM   21  O2  UNL     1       0.893  -1.173   0.052  1.00  0.00    -0.357 OA
HETATM   22  C4  UNL     1       1.465  -2.384  -0.302  1.00  0.00     0.209 C 
ENDBRANCH   1  21
TORSDOF 5
