REMARK  5 active torsions:
REMARK  status: ('A' for Active; 'I' for Inactive)
REMARK    1  A    between atoms: O1_2  and  C2_3 
REMARK    2  A    between atoms: C11_14  and  C12_15 
REMARK    3  A    between atoms: C11_14  and  C13_17 
REMARK    4  A    between atoms: C12_15  and  N1_16 
REMARK    5  A    between atoms: C13_17  and  C14_18 
ROOT
HETATM    1  C2  UNL     1       3.038   0.852   0.502  1.00  0.00     0.103 A 
HETATM    2  C3  UNL     1       1.969   1.614   0.685  1.00  0.00     0.050 A 
HETATM    3  C4  UNL     1       1.160   0.956  -0.339  1.00  0.00    -0.015 A 
HETATM    4  C5  UNL     1       2.249   0.175  -0.529  1.00  0.00     0.114 A 
HETATM    5  O2  UNL     1       2.344  -0.893  -1.482  1.00  0.00    -0.320 OA
HETATM    6  C6  UNL     1       2.618  -2.173  -0.989  1.00  0.00     0.140 C 
HETATM    7  C7  UNL     1       2.064  -2.754   0.089  1.00  0.00     0.024 C 
HETATM    8  C8  UNL     1       1.065  -2.479   1.153  1.00  0.00     0.197 C 
HETATM    9  O3  UNL     1       0.503  -1.189   0.933  1.00  0.00    -0.383 OA
HETATM   10  C9  UNL     1      -0.411  -1.427  -0.111  1.00  0.00     0.203 C 
HETATM   11  C10 UNL     1      -1.043  -0.202  -0.644  1.00  0.00    -0.048 C 
HETATM   12  C11 UNL     1      -2.347   0.119  -0.656  1.00  0.00    -0.047 C 
HETATM   13  C15 UNL     1       0.049   0.599  -1.241  1.00  0.00     0.078 C 
ENDROOT
BRANCH  12  14
HETATM   14  C12 UNL     1      -3.403  -0.770  -0.100  1.00  0.00     0.301 C 
BRANCH  14  15
HETATM   15  N1  UNL     1      -4.093  -0.155   0.997  1.00  0.00     0.082 N 
HETATM   16  H13 UNL     1      -5.104  -0.387   1.059  1.00  0.00     0.313 HD
HETATM   17  H14 UNL     1      -3.640  -0.309   1.917  1.00  0.00     0.313 HD
ENDBRANCH  14  15
ENDBRANCH  12  14
BRANCH  12  18
HETATM   18  C13 UNL     1      -2.904   1.356  -1.257  1.00  0.00     0.047 C 
BRANCH  18  19
HETATM   19  C14 UNL     1      -3.576   2.294  -0.293  1.00  0.00     0.089 C 
HETATM   20 BR1  UNL     1      -4.173   3.859  -1.327  1.00  0.00    -0.096 Br
ENDBRANCH  18  19
ENDBRANCH  12  18
BRANCH   1  21
HETATM   21  O1  UNL     1       4.280   0.855   1.125  1.00  0.00    -0.353 OA
HETATM   22  C1  UNL     1       5.281   1.761   0.688  1.00  0.00     0.210 C 
ENDBRANCH   1  21
TORSDOF 5
