REMARK  5 active torsions:
REMARK  status: ('A' for Active; 'I' for Inactive)
REMARK    1  A    between atoms: O1_2  and  C2_3 
REMARK    2  A    between atoms: C7_10  and  O2_11 
REMARK    3  A    between atoms: O2_11  and  C8_12 
REMARK    4  A    between atoms: C8_12  and  N3_13 
REMARK    5  A    between atoms: N3_13  and  C9_14 
ROOT
HETATM    1  O2  UNL     1      -0.085   1.081  -0.725  1.00  0.00    -0.359 OA
ENDROOT
BRANCH   1   2
HETATM    2  C7  UNL     1       0.820   0.250  -0.122  1.00  0.00     0.200 C 
HETATM    3  C2  UNL     1       2.239   0.694  -0.362  1.00  0.00     0.077 C 
HETATM    4  C3  UNL     1       3.369   0.054  -0.105  1.00  0.00     0.054 C 
HETATM    5  C4  UNL     1       3.784  -1.240   0.468  1.00  0.00     0.120 C 
HETATM    6  N1  UNL     1       3.155  -2.126   1.172  1.00  0.00    -0.255 NA
HETATM    7  C5  UNL     1       1.807  -2.206   1.678  1.00  0.00     0.226 C 
HETATM    8  N2  UNL     1       0.852  -1.338   1.729  1.00  0.00    -0.280 NA
HETATM    9  C6  UNL     1       0.643   0.042   1.345  1.00  0.00     0.189 C 
BRANCH   3  10
HETATM   10  O1  UNL     1       2.261   1.958  -0.934  1.00  0.00    -0.357 OA
HETATM   11  C1  UNL     1       3.482   2.549  -1.339  1.00  0.00     0.209 C 
ENDBRANCH   3  10
ENDBRANCH   1   2
BRANCH   1  12
HETATM   12  C8  UNL     1      -0.777   0.387  -1.716  1.00  0.00     0.291 C 
BRANCH  12  13
HETATM   13  N3  UNL     1      -1.509  -0.754  -1.200  1.00  0.00    -0.369 N 
HETATM   14  H12 UNL     1      -1.330  -1.730  -1.514  1.00  0.00     0.161 HD
BRANCH  13  15
HETATM   15  C9  UNL     1      -2.536  -0.598  -0.214  1.00  0.00     0.030 A 
HETATM   16  C10 UNL     1      -3.256  -1.654   0.304  1.00  0.00     0.029 A 
HETATM   17  C11 UNL     1      -4.244  -1.509   1.252  1.00  0.00     0.004 A 
HETATM   18  C12 UNL     1      -4.507  -0.240   1.686  1.00  0.00     0.019 A 
HETATM   19  C13 UNL     1      -3.846   0.881   1.233  1.00  0.00     0.013 A 
HETATM   20 BR1  UNL     1      -4.235   2.631   1.858  1.00  0.00    -0.051 Br
HETATM   21  C14 UNL     1      -2.864   0.670   0.282  1.00  0.00     0.048 A 
ENDBRANCH  13  15
ENDBRANCH  12  13
ENDBRANCH   1  12
TORSDOF 5
