REMARK  5 active torsions:
REMARK  status: ('A' for Active; 'I' for Inactive)
REMARK    1  A    between atoms: C2_2  and  C4_4 
REMARK    2  A    between atoms: C9_9  and  N1_10 
REMARK    3  A    between atoms: C10_12  and  N3_13 
REMARK    4  A    between atoms: C15_19  and  C16_20 
REMARK    5  A    between atoms: C16_20  and  C17_21 
ROOT
HETATM    1  N1  UNL     1      -1.119  -1.062  -0.349  1.00  0.00    -0.243 N 
HETATM    2  N2  UNL     1      -0.855  -1.164  -1.727  1.00  0.00    -0.123 N 
HETATM    3  C10 UNL     1       0.513  -1.260  -2.115  1.00  0.00     0.713 A 
HETATM    4  N4  UNL     1       1.414  -1.247  -1.195  1.00  0.00    -0.061 NA
HETATM    5  C11 UNL     1       1.130  -1.143   0.197  1.00  0.00     0.107 A 
HETATM    6  C12 UNL     1      -0.119  -1.049   0.662  1.00  0.00     0.068 A 
HETATM    7  C13 UNL     1      -0.096  -0.960   2.129  1.00  0.00     0.089 A 
HETATM    8  C14 UNL     1       1.361  -1.022   2.416  1.00  0.00    -0.011 A 
HETATM    9  C15 UNL     1       2.089  -1.129   1.292  1.00  0.00    -0.026 A 
HETATM   10  H12 UNL     1      -1.594  -1.171  -2.455  1.00  0.00     0.206 HD
ENDROOT
BRANCH   1  11
HETATM   11  C9  UNL     1      -2.514  -0.983   0.019  1.00  0.00     0.063 A 
HETATM   12  C4  UNL     1      -3.265   0.135  -0.277  1.00  0.00    -0.026 A 
HETATM   13  C5  UNL     1      -4.600   0.153   0.116  1.00  0.00     0.010 A 
HETATM   14  C6  UNL     1      -5.186  -0.913   0.788  1.00  0.00     0.001 A 
HETATM   15  C7  UNL     1      -4.377  -2.022   1.063  1.00  0.00     0.002 A 
HETATM   16  C8  UNL     1      -3.049  -2.073   0.688  1.00  0.00     0.032 A 
BRANCH  12  17
HETATM   17  C2  UNL     1      -2.683   1.299  -0.991  1.00  0.00     0.013 C 
HETATM   18  C1  UNL     1      -2.354   2.329   0.081  1.00  0.00     0.015 C 
HETATM   19  C3  UNL     1      -3.646   1.955  -1.957  1.00  0.00     0.015 C 
ENDBRANCH  12  17
ENDBRANCH   1  11
BRANCH   3  20
HETATM   20  N3  UNL     1       0.824  -1.362  -3.499  1.00  0.00    -0.232 N 
HETATM   21  H13 UNL     1       0.711  -2.085  -4.241  1.00  0.00     0.174 HD
HETATM   22  H14 UNL     1       1.270  -0.483  -3.820  1.00  0.00     0.174 HD
ENDBRANCH   3  20
BRANCH   9  23
HETATM   23  C16 UNL     1       3.566  -1.212   1.236  1.00  0.00     0.081 C 
BRANCH  23  24
HETATM   24  C17 UNL     1       4.179  -0.109   0.463  1.00  0.00    -0.032 A 
HETATM   25  C18 UNL     1       4.675  -0.230  -0.841  1.00  0.00     0.011 A 
HETATM   26  C19 UNL     1       5.236   0.804  -1.555  1.00  0.00     0.024 A 
HETATM   27  C20 UNL     1       5.308   2.033  -0.928  1.00  0.00     0.035 A 
HETATM   28 CL1  UNL     1       6.019   3.411  -1.771  1.00  0.00    -0.084 Cl
HETATM   29  C21 UNL     1       4.832   2.183   0.348  1.00  0.00     0.048 A 
HETATM   30  C22 UNL     1       4.269   1.145   1.059  1.00  0.00     0.042 A 
HETATM   31 CL2  UNL     1       3.663   1.346   2.681  1.00  0.00    -0.084 Cl
ENDBRANCH  23  24
ENDBRANCH   9  23
TORSDOF 5
