REMARK  10 active torsions:
REMARK  status: ('A' for Active; 'I' for Inactive)
REMARK    1  A    between atoms: O1_2  and  C2_3 
REMARK    2  A    between atoms: C2_3  and  C3_4 
REMARK    3  A    between atoms: C6_7  and  N2_25 
REMARK    4  A    between atoms: O2_10  and  C9_11 
REMARK    5  A    between atoms: C9_11  and  C10_12 
REMARK    6  A    between atoms: C10_12  and  O3_13 
REMARK    7  A    between atoms: C12_15  and  N1_16 
REMARK    8  A    between atoms: N1_16  and  C13_17 
REMARK    9  A    between atoms: C13_17  and  C14_18 
REMARK   10  A    between atoms: C15_19  and  C16_20 
ROOT
HETATM    1  C3  UNL     1       3.573   0.693   0.781  1.00  0.00    -0.043 A 
HETATM    2  C4  UNL     1       2.250   1.187   1.072  1.00  0.00     0.014 A 
HETATM    3  C5  UNL     1       1.946   0.603  -0.102  1.00  0.00    -0.017 A 
HETATM    4  C6  UNL     1       2.475  -0.102  -1.131  1.00  0.00     0.051 A 
HETATM    5  C7  UNL     1       3.840  -0.740  -1.625  1.00  0.00     0.037 A 
HETATM    6  C8  UNL     1       3.656  -0.047  -0.483  1.00  0.00     0.030 A 
HETATM    7  O2  UNL     1       2.973  -0.889  -1.672  1.00  0.00     0.000 OA
HETATM    8  C9  UNL     1       1.539  -1.441  -1.255  1.00  0.00     0.080 C 
HETATM    9  C12 UNL     1       0.852  -0.130  -0.944  1.00  0.00     0.097 A 
HETATM   10  C20 UNL     1       0.590   0.799  -1.997  1.00  0.00     0.080 A 
HETATM   11  N2  UNL     1       1.526   0.059  -2.377  1.00  0.00    -0.252 NA
ENDROOT
BRANCH   9  12
HETATM   12  N1  UNL     1      -0.325  -0.380  -0.175  1.00  0.00    -0.295 NA
HETATM   13  H14 UNL     1      -0.931  -0.998  -0.749  1.00  0.00     0.124 HD
BRANCH  12  14
HETATM   14  C13 UNL     1      -1.089   0.781   0.187  1.00  0.00     0.116 C 
BRANCH  14  15
HETATM   15  C14 UNL     1      -2.280   0.408   0.980  1.00  0.00    -0.012 C 
HETATM   16  C15 UNL     1      -3.548   0.631   0.677  1.00  0.00    -0.003 C 
BRANCH  16  17
HETATM   17  C16 UNL     1      -4.683   0.231   1.515  1.00  0.00     0.002 C 
HETATM   18  C17 UNL     1      -5.908   0.485   1.150  1.00  0.00    -0.088 C 
HETATM   19  C18 UNL     1      -7.002   0.039   2.069  1.00  0.00     0.043 C 
HETATM   20  C19 UNL     1      -6.173   1.181  -0.116  1.00  0.00     0.043 C 
ENDBRANCH  16  17
ENDBRANCH  14  15
ENDBRANCH  12  14
ENDBRANCH   9  12
BRANCH   8  21
HETATM   21  C10 UNL     1       1.018  -2.254  -2.298  1.00  0.00     0.178 C 
BRANCH  21  22
HETATM   22  O3  UNL     1       1.799  -3.374  -2.649  1.00  0.00    -0.395 OA
HETATM   23  C11 UNL     1       1.967  -4.240  -1.601  1.00  0.00     0.201 C 
ENDBRANCH  21  22
ENDBRANCH   8  21
BRANCH   1  24
HETATM   24  C2  UNL     1       4.728   0.943   1.741  1.00  0.00     0.202 C 
BRANCH  24  25
HETATM   25  O1  UNL     1       5.570   1.939   1.366  1.00  0.00    -0.392 OA
HETATM   26  C1  UNL     1       4.860   3.158   1.263  1.00  0.00     0.201 C 
ENDBRANCH  24  25
ENDBRANCH   1  24
TORSDOF 10
