REMARK  5 active torsions:
REMARK  status: ('A' for Active; 'I' for Inactive)
REMARK    1  A    between atoms: O1_2  and  C2_3 
REMARK    2  A    between atoms: C2_3  and  C3_5 
REMARK    3  A    between atoms: C5_7  and  C6_8 
REMARK    4  A    between atoms: C9_13  and  N3_14 
REMARK    5  A    between atoms: N3_14  and  C10_15 
ROOT
HETATM    1  C6  UNL     1       1.074  -1.427   0.620  1.00  0.00     0.028 A 
HETATM    2  C7  UNL     1       1.885  -2.173   1.441  1.00  0.00     0.133 A 
HETATM    3  N1  UNL     1       1.389  -2.678   2.601  1.00  0.00    -0.253 NA
HETATM    4  C8  UNL     1       0.084  -2.393   2.861  1.00  0.00     0.234 A 
HETATM    5  N2  UNL     1      -0.718  -1.671   2.074  1.00  0.00    -0.224 NA
HETATM    6  C9  UNL     1      -0.248  -1.164   0.927  1.00  0.00     0.141 A 
ENDROOT
BRANCH   6   7
HETATM    7  N3  UNL     1      -1.030  -0.396   0.054  1.00  0.00    -0.340 N 
HETATM    8  H11 UNL     1      -0.554  -0.037  -0.828  1.00  0.00     0.167 HD
BRANCH   7   9
HETATM    9  C10 UNL     1      -2.377  -0.010   0.161  1.00  0.00     0.034 A 
HETATM   10  C11 UNL     1      -3.216  -0.258   1.223  1.00  0.00     0.029 A 
HETATM   11  C12 UNL     1      -4.530   0.107   1.343  1.00  0.00     0.003 A 
HETATM   12  C13 UNL     1      -5.094   0.801   0.294  1.00  0.00     0.007 A 
HETATM   13  C14 UNL     1      -4.326   1.092  -0.810  1.00  0.00    -0.060 A 
HETATM   14  C15 UNL     1      -4.922   1.840  -1.947  1.00  0.00     0.048 C 
HETATM   15  C16 UNL     1      -3.012   0.687  -0.847  1.00  0.00     0.036 A 
ENDBRANCH   7   9
ENDBRANCH   6   7
BRANCH   1  16
HETATM   16  C5  UNL     1       1.731  -0.949  -0.571  1.00  0.00     0.024 C 
HETATM   17  C3  UNL     1       2.929  -0.446  -0.793  1.00  0.00    -0.024 C 
HETATM   18  C4  UNL     1       3.337  -0.037  -2.158  1.00  0.00     0.049 C 
BRANCH  17  19
HETATM   19  C2  UNL     1       4.123  -0.141   0.031  1.00  0.00     0.336 C 
HETATM   20  F1  UNL     1       5.259  -0.797  -0.435  1.00  0.00    -0.215 F 
BRANCH  19  21
HETATM   21  O1  UNL     1       4.450   1.235  -0.064  1.00  0.00    -0.358 OA
HETATM   22  C1  UNL     1       4.440   1.810   1.191  1.00  0.00     0.205 C 
ENDBRANCH  19  21
ENDBRANCH  17  19
ENDBRANCH   1  16
TORSDOF 5
