REMARK  7 active torsions:
REMARK  status: ('A' for Active; 'I' for Inactive)
REMARK    1  A    between atoms: C12_14  and  O1_15 
REMARK    2  A    between atoms: O1_15  and  C13_16 
REMARK    3  A    between atoms: C13_16  and  C14_17 
REMARK    4  A    between atoms: C14_17  and  O2_18 
REMARK    5  A    between atoms: C17_21  and  C18_22 
REMARK    6  A    between atoms: C18_22  and  C19_23 
REMARK    7  A    between atoms: C19_23  and  O3_24 
ROOT
HETATM    1  C1  UNL     1       6.659  -2.913   0.695  1.00  0.00     0.018 C 
HETATM    2  C2  UNL     1       5.732  -2.269   0.273  1.00  0.00    -0.078 C 
HETATM    3  C3  UNL     1       4.633  -1.484  -0.213  1.00  0.00     0.019 A 
HETATM    4  C4  UNL     1       4.291  -0.223   0.224  1.00  0.00     0.021 A 
HETATM    5  C5  UNL     1       3.203   0.455  -0.315  1.00  0.00     0.011 A 
HETATM    6  C6  UNL     1       2.423  -0.131  -1.321  1.00  0.00    -0.027 A 
HETATM    7  C7  UNL     1       2.802  -1.416  -1.738  1.00  0.00     0.041 A 
HETATM    8  C8  UNL     1       3.877  -2.077  -1.202  1.00  0.00     0.050 A 
HETATM    9  N1  UNL     1       1.913  -1.950  -2.751  1.00  0.00    -0.350 N 
HETATM   10  C9  UNL     1       0.550  -2.429  -2.872  1.00  0.00     0.207 C 
HETATM   11  N2  UNL     1       0.343  -1.781  -1.835  1.00  0.00    -0.255 NA
HETATM   12  C10 UNL     1      -0.815  -1.628  -1.117  1.00  0.00     0.132 C 
HETATM   13  C11 UNL     1      -0.838  -0.355  -0.771  1.00  0.00     0.022 A 
HETATM   14  C12 UNL     1      -1.938   0.180   0.022  1.00  0.00     0.081 A 
HETATM   15  C16 UNL     1      -1.698   1.492   0.211  1.00  0.00     0.045 A 
HETATM   16  C17 UNL     1      -0.443   1.810  -0.459  1.00  0.00    -0.046 A 
HETATM   17  C21 UNL     1       0.085   0.734  -1.049  1.00  0.00    -0.033 A 
HETATM   18  C22 UNL     1       1.319   0.659  -1.853  1.00  0.00     0.081 C 
HETATM   19  H5  UNL     1       2.632  -1.904  -3.535  1.00  0.00     0.166 HD
ENDROOT
BRANCH  16  20
HETATM   20  C18 UNL     1       0.132   3.205  -0.443  1.00  0.00     0.065 C 
BRANCH  20  21
HETATM   21  C19 UNL     1       0.386   3.655   0.980  1.00  0.00     0.171 C 
BRANCH  21  22
HETATM   22  O3  UNL     1       0.916   4.947   0.915  1.00  0.00    -0.396 OA
HETATM   23  C20 UNL     1       1.199   5.488   2.151  1.00  0.00     0.201 C 
ENDBRANCH  21  22
ENDBRANCH  20  21
ENDBRANCH  16  20
BRANCH  14  24
HETATM   24  O1  UNL     1      -3.100  -0.310   0.592  1.00  0.00    -0.348 OA
BRANCH  24  25
HETATM   25  C13 UNL     1      -3.559  -1.618   0.562  1.00  0.00     0.201 C 
BRANCH  25  26
HETATM   26  C14 UNL     1      -4.885  -1.749   1.322  1.00  0.00     0.193 C 
BRANCH  26  27
HETATM   27  O2  UNL     1      -5.317  -3.093   1.268  1.00  0.00    -0.394 OA
HETATM   28  C15 UNL     1      -6.520  -3.246   1.949  1.00  0.00     0.201 C 
ENDBRANCH  26  27
ENDBRANCH  25  26
ENDBRANCH  24  25
ENDBRANCH  14  24
TORSDOF 7
