REMARK  4 active torsions:
REMARK  status: ('A' for Active; 'I' for Inactive)
REMARK    1  A    between atoms: C7_7  and  C8_8 
REMARK    2  A    between atoms: C8_8  and  C9_9 
REMARK    3  A    between atoms: C13_14  and  N2_15 
REMARK    4  A    between atoms: N4_17  and  C14_18 
ROOT
HETATM    1  C9  UNL     1       1.049   0.337   0.327  1.00  0.00     0.113 A 
HETATM    2  C10 UNL     1      -0.365   0.547  -0.064  1.00  0.00     0.034 A 
HETATM    3  C11 UNL     1      -1.174  -0.471   0.292  1.00  0.00     0.106 A 
HETATM    4  C12 UNL     1      -0.248  -1.420   0.948  1.00  0.00     0.172 A 
HETATM    5  N1  UNL     1      -0.826  -2.481   1.396  1.00  0.00    -0.042 NA
HETATM    6  C13 UNL     1      -2.228  -2.705   1.264  1.00  0.00     0.739 A 
HETATM    7  N3  UNL     1      -3.038  -1.876   0.689  1.00  0.00     0.028 NA
HETATM    8  N4  UNL     1      -2.554  -0.668   0.148  1.00  0.00    -0.191 N 
HETATM    9  N5  UNL     1       1.102  -0.927   0.951  1.00  0.00    -0.364 N 
HETATM   10  H18 UNL     1       1.841  -1.518   1.380  1.00  0.00     0.162 HD
ENDROOT
BRANCH   1  11
HETATM   11  C8  UNL     1       2.011   0.592  -0.782  1.00  0.00     0.068 C 
BRANCH  11  12
HETATM   12  C7  UNL     1       3.437   0.373  -0.426  1.00  0.00    -0.050 A 
HETATM   13  C2  UNL     1       4.407  -0.258  -1.170  1.00  0.00    -0.056 A 
HETATM   14  C1  UNL     1       4.051  -0.670  -2.547  1.00  0.00     0.049 C 
HETATM   15  C3  UNL     1       5.692  -0.475  -0.688  1.00  0.00     0.007 A 
HETATM   16  C4  UNL     1       6.041  -0.065   0.561  1.00  0.00     0.001 A 
HETATM   17  C5  UNL     1       5.081   0.573   1.329  1.00  0.00     0.001 A 
HETATM   18  C6  UNL     1       3.802   0.786   0.839  1.00  0.00     0.007 A 
ENDBRANCH  11  12
ENDBRANCH   1  11
BRANCH   8  19
HETATM   19  C14 UNL     1      -3.410   0.273  -0.483  1.00  0.00     0.189 C 
HETATM   20  C15 UNL     1      -3.443   1.362   0.310  1.00  0.00     0.064 C 
HETATM   21 BR1  UNL     1      -2.445   1.415   1.944  1.00  0.00    -0.046 Br
HETATM   22  C16 UNL     1      -4.197   2.622   0.066  1.00  0.00     0.024 C 
HETATM   23  C17 UNL     1      -5.319   2.732  -0.669  1.00  0.00     0.003 C 
HETATM   24  C18 UNL     1      -6.037   1.652  -1.386  1.00  0.00     0.025 C 
HETATM   25  C19 UNL     1      -5.512   0.502  -1.854  1.00  0.00     0.144 C 
HETATM   26  O1  UNL     1      -4.133   0.178  -1.696  1.00  0.00    -0.303 OA
ENDBRANCH   8  19
BRANCH   6  27
HETATM   27  N2  UNL     1      -2.881  -3.865   1.765  1.00  0.00    -0.230 N 
HETATM   28  H12 UNL     1      -2.686  -4.665   1.087  1.00  0.00     0.174 HD
HETATM   29  H13 UNL     1      -3.448  -3.911   2.647  1.00  0.00     0.174 HD
ENDBRANCH   6  27
TORSDOF 4
