REMARK  2 active torsions:
REMARK  status: ('A' for Active; 'I' for Inactive)
REMARK    1  A    between atoms: C13_16  and  C14_17 
REMARK    2  A    between atoms: C20_25  and  N5_26 
ROOT
HETATM    1  C1  UNL     1      -3.574  -0.824   2.507  1.00  0.00     0.049 C 
HETATM    2  C2  UNL     1      -3.251  -0.674   1.078  1.00  0.00    -0.053 A 
HETATM    3  C3  UNL     1      -4.152  -0.932   0.041  1.00  0.00     0.007 A 
HETATM    4  C4  UNL     1      -3.902  -0.805  -1.298  1.00  0.00     0.002 A 
HETATM    5  C5  UNL     1      -2.633  -0.382  -1.630  1.00  0.00     0.014 A 
HETATM    6  C6  UNL     1      -1.677  -0.106  -0.651  1.00  0.00    -0.000 A 
HETATM    7  C7  UNL     1      -1.995  -0.253   0.687  1.00  0.00    -0.020 A 
HETATM    8  C8  UNL     1      -1.182  -0.018   1.899  1.00  0.00     0.190 C 
HETATM    9  N1  UNL     1      -0.690   1.333   1.983  1.00  0.00    -0.281 NA
HETATM   10  C9  UNL     1      -0.061   2.213   1.284  1.00  0.00     0.198 C 
HETATM   11  N2  UNL     1       0.423   2.062  -0.041  1.00  0.00    -0.359 N 
HETATM   12  C10 UNL     1       0.508   1.362  -1.265  1.00  0.00     0.181 A 
HETATM   13  C11 UNL     1      -0.508   0.291  -1.469  1.00  0.00     0.079 C 
HETATM   14  N3  UNL     1      -0.332  -0.430  -2.497  1.00  0.00    -0.300 NA
HETATM   15  C12 UNL     1       1.868   1.004  -1.735  1.00  0.00     0.079 A 
HETATM   16  C13 UNL     1       2.912   0.252  -1.385  1.00  0.00     0.042 C 
HETATM   17  N4  UNL     1       1.811   1.849  -2.910  1.00  0.00    -0.233 NA
HETATM   18  C20 UNL     1       0.634   2.164  -2.508  1.00  0.00     0.139 A 
HETATM   19  H10 UNL     1       1.053   2.897  -0.236  1.00  0.00     0.162 HD
HETATM   20  H11 UNL     1      -0.914  -1.217  -2.767  1.00  0.00     0.186 HD
ENDROOT
BRANCH  18  21
HETATM   21  N5  UNL     1      -0.048   3.077  -3.323  1.00  0.00    -0.385 N 
HETATM   22  H17 UNL     1      -0.046   4.088  -3.007  1.00  0.00     0.157 HD
HETATM   23  H18 UNL     1      -0.575   2.949  -4.210  1.00  0.00     0.157 HD
ENDBRANCH  18  21
BRANCH  16  24
HETATM   24  C14 UNL     1       3.083  -0.600  -0.242  1.00  0.00    -0.033 A 
HETATM   25  C15 UNL     1       2.170  -1.442   0.304  1.00  0.00     0.011 A 
HETATM   26  C16 UNL     1       2.317  -2.251   1.406  1.00  0.00     0.002 A 
HETATM   27  C17 UNL     1       3.558  -2.209   2.052  1.00  0.00     0.019 A 
HETATM   28  C18 UNL     1       4.554  -1.391   1.582  1.00  0.00     0.011 A 
HETATM   29 BR1  UNL     1       6.235  -1.342   2.470  1.00  0.00    -0.051 Br
HETATM   30  C19 UNL     1       4.290  -0.624   0.468  1.00  0.00     0.030 A 
ENDBRANCH  16  24
TORSDOF 2
