REMARK  7 active torsions:
REMARK  status: ('A' for Active; 'I' for Inactive)
REMARK    1  A    between atoms: C2_2  and  N1_3 
REMARK    2  A    between atoms: N1_3  and  C3_4 
REMARK    3  A    between atoms: N1_3  and  C5_6 
REMARK    4  A    between atoms: C5_6  and  C6_7 
REMARK    5  A    between atoms: C6_7  and  N2_8 
REMARK       I    between atoms: N2_8  and  C7_9 
REMARK    6  A    between atoms: C7_9  and  C8_11 
REMARK    7  A    between atoms: C10_14  and  C11_15 
ROOT
HETATM    1  C8  UNL     1       2.073  -1.959  -0.882  1.00  0.00     0.038 A 
HETATM    2  C9  UNL     1       2.963  -2.551  -1.655  1.00  0.00     0.141 A 
HETATM    3  N3  UNL     1       3.912  -2.003  -0.677  1.00  0.00    -0.399 N 
HETATM    4  C10 UNL     1       2.902  -1.335   0.139  1.00  0.00     0.144 A 
HETATM    5  H17 UNL     1       4.873  -1.808  -0.151  1.00  0.00     0.155 HD
ENDROOT
BRANCH   1   6
HETATM    6  C7  UNL     1       0.791  -2.238  -1.480  1.00  0.00     0.248 C 
HETATM    7  N2  UNL     1      -0.151  -1.573  -0.565  1.00  0.00    -0.356 N 
HETATM    8  H15 UNL     1       0.063  -1.013   0.332  1.00  0.00     0.162 HD
HETATM    9  O1  UNL     1      -0.072  -2.642  -2.224  1.00  0.00    -0.268 OA
BRANCH   7  10
HETATM   10  C6  UNL     1      -1.593  -1.653  -0.856  1.00  0.00     0.142 C 
BRANCH  10  11
HETATM   11  C5  UNL     1      -2.348  -0.905   0.191  1.00  0.00     0.136 C 
BRANCH  11  12
HETATM   12  N1  UNL     1      -3.746  -0.936   0.020  1.00  0.00    -0.412 N 
BRANCH  12  13
HETATM   13  C2  UNL     1      -4.519  -0.165   0.933  1.00  0.00     0.112 C 
HETATM   14  C1  UNL     1      -5.849  -0.782   1.284  1.00  0.00     0.026 C 
ENDBRANCH  12  13
BRANCH  12  15
HETATM   15  C3  UNL     1      -4.292  -1.011  -1.270  1.00  0.00     0.112 C 
HETATM   16  C4  UNL     1      -4.256   0.330  -1.947  1.00  0.00     0.026 C 
ENDBRANCH  12  15
ENDBRANCH  11  12
ENDBRANCH  10  11
ENDBRANCH   7  10
ENDBRANCH   1   6
BRANCH   4  17
HETATM   17  C11 UNL     1       2.942   0.146   0.057  1.00  0.00    -0.044 A 
HETATM   18  C12 UNL     1       2.721   1.378  -0.363  1.00  0.00     0.081 A 
HETATM   19  C13 UNL     1       2.625   2.810  -0.627  1.00  0.00     0.266 A 
HETATM   20  O2  UNL     1       1.913   3.116  -1.636  1.00  0.00    -0.266 OA
HETATM   21  N4  UNL     1       3.354   3.515   0.309  1.00  0.00    -0.223 NA
HETATM   22  C14 UNL     1       3.623   4.647   0.574  1.00  0.00     0.123 A 
HETATM   23  C15 UNL     1       4.397   4.093   1.699  1.00  0.00     0.056 A 
HETATM   24  C16 UNL     1       4.732   2.893   2.282  1.00  0.00     0.086 A 
HETATM   25  F1  UNL     1       5.275   1.918   3.129  1.00  0.00    -0.360 F 
HETATM   26  C17 UNL     1       4.435   1.455   2.010  1.00  0.00     0.229 A 
HETATM   27  C18 UNL     1       3.820   0.497   1.245  1.00  0.00     0.044 A 
ENDBRANCH   4  17
TORSDOF 7
