REMARK  2 active torsions:
REMARK  status: ('A' for Active; 'I' for Inactive)
REMARK    1  A    between atoms: O1_2  and  C2_3 
REMARK    2  A    between atoms: N3_14  and  C10_15 
ROOT
HETATM    1  C2  UNL     1       3.155  -0.258  -0.192  1.00  0.00     0.102 A 
HETATM    2  C3  UNL     1       2.460  -0.546   0.952  1.00  0.00     0.049 A 
HETATM    3  C4  UNL     1       1.624   0.461   1.295  1.00  0.00    -0.029 A 
HETATM    4  C5  UNL     1       1.347   1.694   0.744  1.00  0.00    -0.030 A 
HETATM    5  C6  UNL     1       2.069   1.972  -0.425  1.00  0.00     0.049 A 
HETATM    6  C7  UNL     1       2.935   0.931  -0.808  1.00  0.00     0.110 A 
HETATM    7  O2  UNL     1       3.417   1.544  -2.006  1.00  0.00    -0.301 OA
HETATM    8  C8  UNL     1       2.263   1.437  -2.954  1.00  0.00     0.260 C 
HETATM    9  N1  UNL     1       1.235   1.147  -2.351  1.00  0.00    -0.228 NA
HETATM   10  C9  UNL     1      -0.066   0.887  -2.394  1.00  0.00     0.257 C 
HETATM   11  N2  UNL     1      -1.200   0.608  -1.972  1.00  0.00    -0.159 NA
HETATM   12  N3  UNL     1      -1.613   0.371  -0.666  1.00  0.00    -0.217 N 
HETATM   13  C16 UNL     1      -1.082   0.739   0.649  1.00  0.00     0.123 C 
HETATM   14  C17 UNL     1      -0.641  -0.251   1.493  1.00  0.00     0.044 C 
HETATM   15  C18 UNL     1       0.628  -0.055   2.344  1.00  0.00     0.117 C 
HETATM   16 BR1  UNL     1       1.149  -1.737   3.032  1.00  0.00    -0.082 Br
HETATM   17  N4  UNL     1      -1.014   2.149   1.010  1.00  0.00    -0.371 N 
HETATM   18  C19 UNL     1       0.337   2.718   1.240  1.00  0.00     0.160 C 
HETATM   19  H15 UNL     1      -1.758   2.879   1.147  1.00  0.00     0.161 HD
ENDROOT
BRANCH  12  20
HETATM   20  C10 UNL     1      -2.741  -0.375  -0.255  1.00  0.00     0.060 A 
HETATM   21  C11 UNL     1      -3.582  -0.393   0.836  1.00  0.00     0.031 A 
HETATM   22  C12 UNL     1      -4.630  -1.268   0.966  1.00  0.00     0.002 A 
HETATM   23  C13 UNL     1      -4.914  -2.202  -0.005  1.00  0.00     0.000 A 
HETATM   24  C14 UNL     1      -4.102  -2.230  -1.124  1.00  0.00     0.002 A 
HETATM   25  C15 UNL     1      -3.042  -1.321  -1.220  1.00  0.00     0.031 A 
ENDBRANCH  12  20
BRANCH   1  26
HETATM   26  O1  UNL     1       4.095  -1.002  -0.874  1.00  0.00    -0.353 OA
HETATM   27  C1  UNL     1       4.430  -2.270  -0.351  1.00  0.00     0.210 C 
ENDBRANCH   1  26
TORSDOF 2
