REMARK  3 active torsions:
REMARK  status: ('A' for Active; 'I' for Inactive)
REMARK    1  A    between atoms: C2_2  and  N1_3 
REMARK    2  A    between atoms: C7_10  and  C8_11 
REMARK    3  A    between atoms: C8_11  and  C9_12 
ROOT
HETATM    1  N1  UNL     1      -3.375  -0.874   0.405  1.00  0.00    -0.411 N 
HETATM    2  C3  UNL     1      -3.084  -2.168   0.023  1.00  0.00     0.136 C 
HETATM    3  C4  UNL     1      -2.563  -2.475  -1.357  1.00  0.00     0.142 C 
HETATM    4  N2  UNL     1      -1.272  -1.747  -1.505  1.00  0.00    -0.356 N 
HETATM    5  C5  UNL     1      -0.053  -1.062  -1.647  1.00  0.00     0.241 C 
HETATM    6  O1  UNL     1       0.136  -1.739  -2.664  1.00  0.00    -0.269 OA
HETATM    7  C6  UNL     1       0.698   0.007  -0.952  1.00  0.00     0.077 C 
HETATM    8  C7  UNL     1       0.642   0.918  -0.006  1.00  0.00    -0.070 C 
HETATM    9  C17 UNL     1      -0.485   1.483   0.810  1.00  0.00     0.012 C 
HETATM   10  C18 UNL     1      -0.512   2.993   0.838  1.00  0.00     0.015 C 
HETATM   11  C19 UNL     1      -1.829   0.985   0.490  1.00  0.00     0.028 C 
HETATM   12  C20 UNL     1      -2.373  -0.198   1.199  1.00  0.00     0.117 C 
HETATM   13  H10 UNL     1      -1.190  -1.287  -0.615  1.00  0.00     0.162 HD
ENDROOT
BRANCH   8  14
HETATM   14  C8  UNL     1       1.782   1.789   0.322  1.00  0.00     0.053 C 
BRANCH  14  15
HETATM   15  C9  UNL     1       3.046   1.637  -0.416  1.00  0.00     0.117 C 
HETATM   16  C10 UNL     1       3.058   1.825  -1.858  1.00  0.00     0.231 C 
HETATM   17  O2  UNL     1       2.422   2.642  -2.573  1.00  0.00    -0.272 OA
HETATM   18  N3  UNL     1       3.978   0.869  -2.435  1.00  0.00    -0.326 N 
HETATM   19  C11 UNL     1       4.415   0.013  -1.364  1.00  0.00     0.042 A 
HETATM   20  H15 UNL     1       4.260   0.822  -3.439  1.00  0.00     0.169 HD
HETATM   21  C12 UNL     1       5.256  -1.088  -1.467  1.00  0.00     0.033 A 
HETATM   22  C16 UNL     1       3.817   0.399  -0.168  1.00  0.00    -0.015 A 
HETATM   23  C13 UNL     1       5.516  -1.841  -0.343  1.00  0.00     0.044 A 
HETATM   24  C14 UNL     1       4.934  -1.482   0.857  1.00  0.00     0.117 A 
HETATM   25  F1  UNL     1       5.230  -2.266   1.924  1.00  0.00    -0.206 F 
HETATM   26  C15 UNL     1       4.100  -0.373   0.917  1.00  0.00     0.052 A 
ENDBRANCH  14  15
ENDBRANCH   8  14
BRANCH   1  27
HETATM   27  C2  UNL     1      -4.519  -0.182   0.030  1.00  0.00     0.112 C 
HETATM   28  C1  UNL     1      -5.806  -0.719   0.632  1.00  0.00     0.026 C 
ENDBRANCH   1  27
TORSDOF 3
