REMARK  5 active torsions:
REMARK  status: ('A' for Active; 'I' for Inactive)
REMARK    1  A    between atoms: B1_1  and  C1_2 
REMARK    2  A    between atoms: C6_7  and  C7_8 
REMARK    3  A    between atoms: C10_11  and  N1_12 
REMARK    4  A    between atoms: N1_12  and  C11_13 
REMARK    5  A    between atoms: C18_22  and  N3_23 
ROOT
HETATM    1  C7  UNL     1       1.649   0.631   0.531  1.00  0.00     0.117 C 
HETATM    2  C8  UNL     1       1.068  -0.568   1.173  1.00  0.00     0.015 C 
HETATM    3  C9  UNL     1      -0.225  -0.633   1.456  1.00  0.00     0.023 C 
HETATM    4  C10 UNL     1      -0.975   0.017   0.597  1.00  0.00     0.158 C 
HETATM    5  N2  UNL     1      -0.498   1.300   0.726  1.00  0.00    -0.044 NA
HETATM    6  C18 UNL     1      -0.350   2.305   0.005  1.00  0.00     0.723 C 
HETATM    7  N4  UNL     1       0.290   3.463   0.603  1.00  0.00    -0.059 NA
HETATM    8  C19 UNL     1       1.362   3.248   1.355  1.00  0.00     0.223 C 
HETATM    9  N5  UNL     1       1.412   1.841   1.232  1.00  0.00    -0.375 N 
HETATM   10  H21 UNL     1       1.128   1.677   2.253  1.00  0.00     0.161 HD
ENDROOT
BRANCH   4  11
HETATM   11  N1  UNL     1      -1.992  -0.624  -0.192  1.00  0.00    -0.339 N 
HETATM   12  H11 UNL     1      -1.563  -1.328  -0.844  1.00  0.00     0.167 HD
BRANCH  11  13
HETATM   13  C11 UNL     1      -3.406  -0.557  -0.320  1.00  0.00     0.041 A 
HETATM   14  C12 UNL     1      -3.970   0.309  -1.209  1.00  0.00     0.030 A 
HETATM   15  C13 UNL     1      -5.342   0.373  -1.331  1.00  0.00     0.004 A 
HETATM   16  C14 UNL     1      -6.125  -0.454  -0.538  1.00  0.00     0.020 A 
HETATM   17  C15 UNL     1      -5.553  -1.325   0.355  1.00  0.00     0.019 A 
HETATM   18 BR1  UNL     1      -6.681  -2.434   1.415  1.00  0.00    -0.051 Br
HETATM   19  C16 UNL     1      -4.183  -1.372   0.460  1.00  0.00    -0.018 A 
HETATM   20  C17 UNL     1      -3.558  -2.312   1.426  1.00  0.00     0.052 C 
ENDBRANCH  11  13
ENDBRANCH   4  11
BRANCH   6  21
HETATM   21  N3  UNL     1      -0.704   2.405  -1.390  1.00  0.00    -0.231 N 
HETATM   22  H18 UNL     1      -0.384   2.272  -2.382  1.00  0.00     0.174 HD
HETATM   23  H19 UNL     1      -1.673   2.756  -1.208  1.00  0.00     0.174 HD
ENDBRANCH   6  21
BRANCH   1  24
HETATM   24  C6  UNL     1       3.144   0.448   0.496  1.00  0.00     0.052 A 
HETATM   25  C1  UNL     1       3.599  -0.740  -0.258  1.00  0.00    -0.114 A 
HETATM   26  C2  UNL     1       4.423  -0.383  -1.249  1.00  0.00    -0.071 A 
HETATM   27  C3  UNL     1       4.984  -1.466  -2.123  1.00  0.00     0.047 C 
HETATM   28  C4  UNL     1       4.580   1.067  -1.230  1.00  0.00     0.003 A 
HETATM   29  C5  UNL     1       3.841   1.543  -0.223  1.00  0.00    -0.016 A 
BRANCH  25  30
HETATM   30  B1  UNL     1       3.281  -2.265  -0.085  1.00  0.00     0.171 B 
HETATM   31  H1  UNL     1       2.518  -2.731  -0.839  1.00  0.00    -0.026 HD
HETATM   32  H2  UNL     1       3.734  -2.833   0.822  1.00  0.00    -0.026 HD
ENDBRANCH  25  30
ENDBRANCH   1  24
TORSDOF 5
