REMARK  9 active torsions:
REMARK  status: ('A' for Active; 'I' for Inactive)
REMARK    1  A    between atoms: N1_1  and  C1_2 
REMARK    2  A    between atoms: C1_2  and  O1_3 
REMARK    3  A    between atoms: O1_3  and  C2_4 
REMARK    4  A    between atoms: C2_4  and  C3_5 
REMARK    5  A    between atoms: C6_8  and  C7_9 
REMARK    6  A    between atoms: C7_9  and  O2_10 
REMARK    7  A    between atoms: C9_12  and  C10_13 
REMARK    8  A    between atoms: C10_13  and  C11_14 
REMARK    9  A    between atoms: C17_20  and  C18_21 
ROOT
HETATM    1  C3  UNL     1      -2.351   0.219  -0.567  1.00  0.00    -0.028 A 
HETATM    2  C4  UNL     1      -3.161  -0.746  -1.129  1.00  0.00     0.010 A 
HETATM    3  C5  UNL     1      -2.741  -2.079  -0.993  1.00  0.00     0.010 A 
HETATM    4  C6  UNL     1      -1.591  -2.461  -0.346  1.00  0.00    -0.034 A 
HETATM    5  C8  UNL     1      -0.791  -1.475   0.210  1.00  0.00     0.017 A 
HETATM    6  C9  UNL     1      -1.204  -0.171   0.076  1.00  0.00    -0.044 A 
ENDROOT
BRANCH   6   7
HETATM    7  C10 UNL     1      -0.280   0.862   0.600  1.00  0.00     0.096 C 
BRANCH   7   8
HETATM    8  C11 UNL     1       1.130   0.368   0.595  1.00  0.00     0.011 A 
HETATM    9  C12 UNL     1       2.086   0.386   1.504  1.00  0.00     0.012 A 
HETATM   10  C13 UNL     1       3.250  -0.224   1.024  1.00  0.00     0.090 A 
HETATM   11  C14 UNL     1       4.545   0.508   0.957  1.00  0.00    -0.001 A 
HETATM   12  C20 UNL     1       2.932  -0.530  -0.464  1.00  0.00     0.108 A 
HETATM   13  C15 UNL     1       5.256   1.525   0.334  1.00  0.00    -0.003 A 
HETATM   14  C18 UNL     1       5.893   0.371   1.424  1.00  0.00     0.020 A 
HETATM   15  C17 UNL     1       5.585  -0.205   0.198  1.00  0.00     0.008 A 
HETATM   16  C16 UNL     1       5.318   0.940  -0.899  1.00  0.00     0.015 A 
HETATM   17  C19 UNL     1       5.319  -0.452  -1.246  1.00  0.00     0.131 A 
HETATM   18  N2  UNL     1       3.888  -0.977  -1.290  1.00  0.00    -0.269 NA
HETATM   19  N3  UNL     1       1.537  -0.188  -0.674  1.00  0.00    -0.348 N 
HETATM   20  H19 UNL     1       1.125  -0.388  -1.594  1.00  0.00     0.167 HD
ENDBRANCH   7   8
ENDBRANCH   6   7
BRANCH   1  21
HETATM   21  C2  UNL     1      -2.830   1.628  -0.656  1.00  0.00     0.209 C 
BRANCH  21  22
HETATM   22  O1  UNL     1      -3.436   1.877   0.572  1.00  0.00    -0.358 OA
BRANCH  22  23
HETATM   23  C1  UNL     1      -3.981   3.121   0.720  1.00  0.00     0.434 C 
BRANCH  23  24
HETATM   24  N1  UNL     1      -4.964   3.479  -0.289  1.00  0.00     0.101 N 
HETATM   25  H1  UNL     1      -5.856   3.747   0.157  1.00  0.00     0.315 HD
HETATM   26  H2  UNL     1      -4.648   4.329  -0.816  1.00  0.00     0.315 HD
ENDBRANCH  23  24
ENDBRANCH  22  23
ENDBRANCH  21  22
ENDBRANCH   1  21
BRANCH   4  27
HETATM   27  C7  UNL     1      -1.355  -3.954  -0.317  1.00  0.00     0.202 C 
BRANCH  27  28
HETATM   28  O2  UNL     1      -0.626  -4.291  -1.461  1.00  0.00    -0.396 OA
HETATM   29  H11 UNL     1      -1.218  -4.369  -2.253  1.00  0.00     0.209 HD
ENDBRANCH  27  28
ENDBRANCH   4  27
TORSDOF 9
