REMARK  3 active torsions:
REMARK  status: ('A' for Active; 'I' for Inactive)
REMARK    1  A    between atoms: O1_2  and  C2_3 
REMARK    2  A    between atoms: C10_14  and  N3_15 
REMARK    3  A    between atoms: N5_17  and  C11_18 
ROOT
HETATM    1  C2  UNL     1       4.499  -0.320   0.100  1.00  0.00     0.098 A 
HETATM    2  C3  UNL     1       5.279   0.241   1.004  1.00  0.00     0.013 A 
HETATM    3  C4  UNL     1       4.709   1.075   2.049  1.00  0.00     0.034 A 
HETATM    4  C5  UNL     1       3.263   1.240   2.046  1.00  0.00     0.041 A 
HETATM    5  C6  UNL     1       2.468   0.576   0.994  1.00  0.00    -0.038 A 
HETATM    6  C7  UNL     1       3.058  -0.176   0.056  1.00  0.00     0.106 A 
HETATM    7  O2  UNL     1       2.710  -0.957  -1.084  1.00  0.00    -0.329 OA
HETATM    8  C8  UNL     1       1.452  -1.669  -1.033  1.00  0.00     0.299 C 
HETATM    9  N1  UNL     1       0.426  -0.748  -1.466  1.00  0.00    -0.351 N 
HETATM   10  C9  UNL     1      -0.966  -0.671  -1.364  1.00  0.00     0.173 A 
HETATM   11  N2  UNL     1      -1.231  -1.442  -2.351  1.00  0.00    -0.042 NA
HETATM   12  C10 UNL     1      -2.646  -1.637  -2.609  1.00  0.00     0.739 A 
HETATM   13  N4  UNL     1      -3.498  -1.041  -1.855  1.00  0.00     0.026 NA
HETATM   14  N5  UNL     1      -3.164  -0.207  -0.789  1.00  0.00    -0.215 N 
HETATM   15  C17 UNL     1      -1.823   0.053  -0.442  1.00  0.00     0.102 A 
HETATM   16  C18 UNL     1      -1.400   0.736   0.600  1.00  0.00     0.010 C 
HETATM   17  C19 UNL     1      -0.134   1.056   1.249  1.00  0.00     0.006 C 
HETATM   18  C20 UNL     1       1.030   0.567   0.749  1.00  0.00     0.061 C 
HETATM   19  H11 UNL     1       0.741   0.115  -2.021  1.00  0.00     0.163 HD
ENDROOT
BRANCH  14  20
HETATM   20  C11 UNL     1      -4.191   0.398  -0.015  1.00  0.00     0.059 A 
HETATM   21  C12 UNL     1      -4.518   1.706   0.321  1.00  0.00     0.031 A 
HETATM   22  C13 UNL     1      -5.599   1.958   1.132  1.00  0.00     0.002 A 
HETATM   23  C14 UNL     1      -6.397   0.963   1.644  1.00  0.00     0.000 A 
HETATM   24  C15 UNL     1      -6.090  -0.349   1.322  1.00  0.00     0.002 A 
HETATM   25  C16 UNL     1      -5.004  -0.617   0.506  1.00  0.00     0.031 A 
ENDBRANCH  14  20
BRANCH  12  26
HETATM   26  N3  UNL     1      -3.268  -2.431  -3.614  1.00  0.00    -0.230 N 
HETATM   27  H12 UNL     1      -3.763  -2.026  -4.455  1.00  0.00     0.174 HD
HETATM   28  H13 UNL     1      -3.274  -3.472  -3.585  1.00  0.00     0.174 HD
ENDBRANCH  12  26
BRANCH   1  29
HETATM   29  O1  UNL     1       5.359  -1.028  -0.725  1.00  0.00    -0.353 OA
HETATM   30  C1  UNL     1       6.465  -0.486  -1.400  1.00  0.00     0.210 C 
ENDBRANCH   1  29
TORSDOF 3
