REMARK  6 active torsions:
REMARK  status: ('A' for Active; 'I' for Inactive)
REMARK    1  A    between atoms: C7_7  and  C8_8 
REMARK    2  A    between atoms: C8_8  and  C9_9 
REMARK    3  A    between atoms: N1_13  and  C13_14 
REMARK       I    between atoms: N2_15  and  C14_16 
REMARK       I    between atoms: C14_16  and  N3_17 
REMARK    4  A    between atoms: N4_18  and  C15_19 
REMARK    5  A    between atoms: C15_19  and  N5_20 
REMARK    6  A    between atoms: N5_20  and  C16_21 
ROOT
HETATM    1  C13 UNL     1      -0.980   0.634  -0.510  1.00  0.00     0.229 C 
HETATM    2  N2  UNL     1       0.046   1.413  -0.572  1.00  0.00    -0.059 NA
HETATM    3  C14 UNL     1       1.344   0.938  -0.196  1.00  0.00     0.718 C 
HETATM    4  N3  UNL     1       1.391  -0.265   0.603  1.00  0.00    -0.231 N 
HETATM    5  N4  UNL     1       2.608   0.798  -0.044  1.00  0.00    -0.086 NA
HETATM    6  H16 UNL     1       1.433  -1.169   1.161  1.00  0.00     0.174 HD
HETATM    7  H17 UNL     1       1.374  -0.999   1.360  1.00  0.00     0.174 HD
ENDROOT
BRANCH   1   8
HETATM    8  N1  UNL     1      -1.455  -0.668  -0.187  1.00  0.00    -0.344 N 
HETATM    9  C9  UNL     1      -2.408  -0.907   0.857  1.00  0.00     0.013 C 
HETATM   10  C10 UNL     1      -2.256  -2.201   1.213  1.00  0.00     0.000 C 
HETATM   11  C11 UNL     1      -1.213  -2.858   0.389  1.00  0.00     0.049 C 
HETATM   12  C12 UNL     1      -1.087  -1.940  -0.817  1.00  0.00     0.133 C 
BRANCH   9  13
HETATM   13  C8  UNL     1      -3.349   0.013   1.471  1.00  0.00     0.096 C 
BRANCH  13  14
HETATM   14  C7  UNL     1      -4.399   0.617   0.685  1.00  0.00    -0.047 A 
HETATM   15  C2  UNL     1      -4.887   0.485  -0.592  1.00  0.00    -0.055 A 
HETATM   16  C1  UNL     1      -4.209  -0.532  -1.421  1.00  0.00     0.049 C 
HETATM   17  C3  UNL     1      -5.935   1.212  -1.110  1.00  0.00     0.007 A 
HETATM   18  C4  UNL     1      -6.574   2.139  -0.356  1.00  0.00     0.001 A 
HETATM   19  C5  UNL     1      -6.142   2.326   0.930  1.00  0.00     0.001 A 
HETATM   20  C6  UNL     1      -5.092   1.590   1.430  1.00  0.00     0.008 A 
ENDBRANCH  13  14
ENDBRANCH   9  13
ENDBRANCH   1   8
BRANCH   5  21
HETATM   21  C15 UNL     1       3.456   1.814  -0.676  1.00  0.00     0.290 C 
BRANCH  21  22
HETATM   22  N5  UNL     1       4.767   1.869  -0.084  1.00  0.00    -0.371 N 
HETATM   23  H20 UNL     1       5.116   2.760   0.368  1.00  0.00     0.161 HD
BRANCH  22  24
HETATM   24  C16 UNL     1       5.631   0.762  -0.080  1.00  0.00     0.030 A 
HETATM   25  C17 UNL     1       5.290  -0.452  -0.638  1.00  0.00     0.029 A 
HETATM   26  C18 UNL     1       6.139  -1.542  -0.635  1.00  0.00     0.004 A 
HETATM   27  C19 UNL     1       7.375  -1.468  -0.072  1.00  0.00     0.019 A 
HETATM   28  C20 UNL     1       7.769  -0.261   0.507  1.00  0.00     0.013 A 
HETATM   29 BR1  UNL     1       9.494  -0.058   1.328  1.00  0.00    -0.051 Br
HETATM   30  C21 UNL     1       6.880   0.790   0.474  1.00  0.00     0.048 A 
ENDBRANCH  22  24
ENDBRANCH  21  22
ENDBRANCH   5  21
TORSDOF 6
