REMARK  8 active torsions:
REMARK  status: ('A' for Active; 'I' for Inactive)
REMARK    1  A    between atoms: O1_2  and  C2_3 
REMARK    2  A    between atoms: C5_6  and  O2_7 
REMARK    3  A    between atoms: O2_7  and  C6_8 
REMARK    4  A    between atoms: C6_8  and  N1_9 
REMARK    5  A    between atoms: C7_10  and  C8_11 
REMARK    6  A    between atoms: C11_14  and  N2_15 
REMARK    7  A    between atoms: N2_15  and  C12_16 
REMARK    8  A    between atoms: C18_22  and  N3_23 
ROOT
HETATM    1  C8  UNL     1      -0.099  -0.016  -0.775  1.00  0.00     0.009 A 
HETATM    2  C9  UNL     1       0.698  -0.920  -1.311  1.00  0.00     0.017 A 
HETATM    3  C10 UNL     1       2.095  -0.531  -1.321  1.00  0.00     0.033 A 
HETATM    4  C11 UNL     1       2.196   0.667  -0.771  1.00  0.00     0.063 A 
HETATM    5  C18 UNL     1       0.822   1.043  -0.404  1.00  0.00     0.101 A 
ENDROOT
BRANCH   1   6
HETATM    6  C7  UNL     1      -1.539  -0.056  -0.595  1.00  0.00     0.013 A 
HETATM    7  C5  UNL     1      -2.344  -1.100  -0.975  1.00  0.00     0.082 A 
HETATM    8  C4  UNL     1      -3.711  -1.143  -0.806  1.00  0.00     0.040 A 
HETATM    9  C3  UNL     1      -4.350  -0.072  -0.213  1.00  0.00     0.039 A 
HETATM   10  C2  UNL     1      -3.588   1.005   0.189  1.00  0.00     0.069 A 
HETATM   11  C19 UNL     1      -2.227   0.984  -0.010  1.00  0.00     0.052 A 
BRANCH   7  12
HETATM   12  O2  UNL     1      -1.799  -2.203  -1.570  1.00  0.00    -0.332 OA
BRANCH  12  13
HETATM   13  C6  UNL     1      -2.458  -3.345  -2.015  1.00  0.00     0.290 C 
BRANCH  13  14
HETATM   14  N1  UNL     1      -3.174  -4.086  -1.029  1.00  0.00    -0.410 N 
HETATM   15  H8  UNL     1      -4.137  -4.362  -1.272  1.00  0.00     0.151 HD
HETATM   16  H9  UNL     1      -3.041  -3.716  -0.078  1.00  0.00     0.151 HD
ENDBRANCH  13  14
ENDBRANCH  12  13
ENDBRANCH   7  12
BRANCH  10  17
HETATM   17  O1  UNL     1      -4.252   2.050   0.772  1.00  0.00    -0.356 OA
HETATM   18  C1  UNL     1      -5.650   1.994   0.940  1.00  0.00     0.210 C 
ENDBRANCH  10  17
ENDBRANCH   1   6
BRANCH   5  19
HETATM   19  N3  UNL     1       0.565   2.169   0.162  1.00  0.00    -0.212 NA
HETATM   20  I1  UNL     1       2.016   3.580   0.625  1.00  0.00     0.084 I 
ENDBRANCH   5  19
BRANCH   4  21
HETATM   21  N2  UNL     1       3.403   1.436  -0.576  1.00  0.00    -0.354 N 
HETATM   22  H12 UNL     1       3.589   2.210  -1.249  1.00  0.00     0.166 HD
BRANCH  21  23
HETATM   23  C12 UNL     1       4.273   1.133   0.483  1.00  0.00     0.032 A 
HETATM   24  C13 UNL     1       3.977   0.098   1.344  1.00  0.00     0.029 A 
HETATM   25  C14 UNL     1       4.823  -0.229   2.408  1.00  0.00     0.002 A 
HETATM   26  C15 UNL     1       5.974   0.545   2.550  1.00  0.00     0.000 A 
HETATM   27  C16 UNL     1       6.281   1.592   1.686  1.00  0.00     0.002 A 
HETATM   28  C17 UNL     1       5.417   1.887   0.641  1.00  0.00     0.029 A 
ENDBRANCH  21  23
ENDBRANCH   4  21
TORSDOF 8
