REMARK  7 active torsions:
REMARK  status: ('A' for Active; 'I' for Inactive)
REMARK    1  A    between atoms: O1_2  and  C2_3 
REMARK    2  A    between atoms: C5_6  and  O2_7 
REMARK    3  A    between atoms: C7_9  and  C8_10 
REMARK    4  A    between atoms: C8_10  and  C9_11 
REMARK    5  A    between atoms: C12_14  and  N1_15 
REMARK    6  A    between atoms: C12_14  and  N2_16 
REMARK    7  A    between atoms: N2_16  and  C13_17 
ROOT
HETATM    1  C9  UNL     1      -0.696   1.286  -0.181  1.00  0.00     0.033 A 
HETATM    2  C10 UNL     1       0.399   0.622  -0.542  1.00  0.00     0.043 A 
HETATM    3  C11 UNL     1       1.523   0.590   0.378  1.00  0.00     0.023 A 
HETATM    4  C12 UNL     1       2.623  -0.060   0.050  1.00  0.00     0.090 C 
HETATM    5  C19 UNL     1       1.412   1.281   1.654  1.00  0.00     0.153 A 
HETATM    6  N3  UNL     1       0.302   1.901   1.914  1.00  0.00    -0.186 NA
HETATM    7  N4  UNL     1      -0.793   1.954   1.062  1.00  0.00    -0.282 N 
HETATM    8  H20 UNL     1      -1.631   2.485   1.382  1.00  0.00     0.189 HD
ENDROOT
BRANCH   4   9
HETATM    9  N1  UNL     1       2.735  -0.736  -1.195  1.00  0.00    -0.288 NA
HETATM   10  H12 UNL     1       2.726  -1.674  -1.650  1.00  0.00     0.125 HD
HETATM   11  H13 UNL     1       2.720  -1.691  -1.609  1.00  0.00     0.125 HD
ENDBRANCH   4   9
BRANCH   4  12
HETATM   12  N2  UNL     1       3.754  -0.126   0.910  1.00  0.00    -0.346 N 
HETATM   13  H14 UNL     1       3.867   0.011   1.935  1.00  0.00     0.167 HD
BRANCH  12  14
HETATM   14  C13 UNL     1       5.052  -0.425   0.430  1.00  0.00     0.034 A 
HETATM   15  C14 UNL     1       5.796   0.662   0.045  1.00  0.00     0.029 A 
HETATM   16  C15 UNL     1       7.079   0.546  -0.444  1.00  0.00     0.004 A 
HETATM   17  C16 UNL     1       7.686  -0.707  -0.570  1.00  0.00     0.019 A 
HETATM   18  C17 UNL     1       6.916  -1.795  -0.174  1.00  0.00     0.013 A 
HETATM   19 BR1  UNL     1       7.668  -3.547  -0.313  1.00  0.00    -0.051 Br
HETATM   20  C18 UNL     1       5.631  -1.656   0.314  1.00  0.00     0.048 A 
ENDBRANCH  12  14
ENDBRANCH   4  12
BRANCH   1  21
HETATM   21  C8  UNL     1      -1.820   1.308  -1.120  1.00  0.00     0.100 C 
BRANCH  21  22
HETATM   22  C7  UNL     1      -3.072   0.730  -0.613  1.00  0.00    -0.017 A 
HETATM   23  C5  UNL     1      -3.257  -0.633  -0.509  1.00  0.00     0.075 A 
HETATM   24  C4  UNL     1      -4.444  -1.148  -0.031  1.00  0.00     0.040 A 
HETATM   25  C3  UNL     1      -5.484  -0.330   0.360  1.00  0.00     0.039 A 
HETATM   26  C2  UNL     1      -5.317   1.036   0.263  1.00  0.00     0.068 A 
HETATM   27  C20 UNL     1      -4.121   1.566  -0.219  1.00  0.00     0.047 A 
BRANCH  23  28
HETATM   28  O2  UNL     1      -2.187  -1.414  -0.912  1.00  0.00    -0.355 OA
HETATM   29  C6  UNL     1      -2.145  -2.809  -0.897  1.00  0.00     0.210 C 
ENDBRANCH  23  28
BRANCH  26  30
HETATM   30  O1  UNL     1      -6.286   1.989   0.622  1.00  0.00    -0.356 OA
HETATM   31  C1  UNL     1      -7.554   1.666   1.128  1.00  0.00     0.210 C 
ENDBRANCH  26  30
ENDBRANCH  21  22
ENDBRANCH   1  21
TORSDOF 7
