REMARK  7 active torsions:
REMARK  status: ('A' for Active; 'I' for Inactive)
REMARK    1  A    between atoms: O1_2  and  C2_3 
REMARK    2  A    between atoms: C5_6  and  O2_7 
REMARK    3  A    between atoms: C7_9  and  C8_10 
REMARK    4  A    between atoms: C8_10  and  C9_11 
REMARK    5  A    between atoms: C12_14  and  N1_15 
REMARK    6  A    between atoms: N1_15  and  C13_16 
REMARK    7  A    between atoms: C19_24  and  N3_25 
ROOT
HETATM    1  C9  UNL     1       0.713   0.232   1.531  1.00  0.00     0.012 C 
HETATM    2  C10 UNL     1      -0.562  -0.149   1.269  1.00  0.00     0.040 C 
HETATM    3  C11 UNL     1      -1.320   1.001   0.751  1.00  0.00     0.038 C 
HETATM    4  C12 UNL     1      -2.375   1.093  -0.041  1.00  0.00     0.143 C 
HETATM    5  N2  UNL     1      -2.730   2.434  -0.338  1.00  0.00    -0.191 NA
HETATM    6  C19 UNL     1      -2.064   3.438   0.128  1.00  0.00     0.243 C 
HETATM    7  O3  UNL     1      -0.936   3.301   0.956  1.00  0.00    -0.290 OA
HETATM    8  C20 UNL     1      -0.549   2.078   1.460  1.00  0.00     0.269 C 
HETATM    9  N4  UNL     1       0.798   1.642   1.186  1.00  0.00    -0.362 N 
HETATM   10  H20 UNL     1       1.711   2.040   0.843  1.00  0.00     0.162 HD
ENDROOT
BRANCH   1  11
HETATM   11  C8  UNL     1       1.768  -0.670   2.066  1.00  0.00     0.098 C 
BRANCH  11  12
HETATM   12  C7  UNL     1       2.927  -0.782   1.146  1.00  0.00    -0.017 A 
HETATM   13  C5  UNL     1       2.864  -1.545  -0.002  1.00  0.00     0.075 A 
HETATM   14  C4  UNL     1       3.911  -1.702  -0.918  1.00  0.00     0.040 A 
HETATM   15  C3  UNL     1       5.076  -1.027  -0.611  1.00  0.00     0.039 A 
HETATM   16  C2  UNL     1       5.209  -0.246   0.518  1.00  0.00     0.068 A 
HETATM   17  C21 UNL     1       4.146  -0.131   1.380  1.00  0.00     0.047 A 
BRANCH  13  18
HETATM   18  O2  UNL     1       1.652  -2.184  -0.221  1.00  0.00    -0.355 OA
HETATM   19  C6  UNL     1       1.493  -2.986  -1.368  1.00  0.00     0.210 C 
ENDBRANCH  13  18
BRANCH  16  20
HETATM   20  O1  UNL     1       6.354   0.446   0.863  1.00  0.00    -0.356 OA
HETATM   21  C1  UNL     1       7.482   0.364   0.013  1.00  0.00     0.210 C 
ENDBRANCH  16  20
ENDBRANCH  11  12
ENDBRANCH   1  11
BRANCH   4  22
HETATM   22  N1  UNL     1      -2.969  -0.087  -0.535  1.00  0.00    -0.340 N 
HETATM   23  H12 UNL     1      -2.286  -0.783  -0.901  1.00  0.00     0.167 HD
BRANCH  22  24
HETATM   24  C13 UNL     1      -4.368  -0.341  -0.552  1.00  0.00     0.035 A 
HETATM   25  C14 UNL     1      -5.246   0.602  -0.060  1.00  0.00     0.029 A 
HETATM   26  C15 UNL     1      -6.578   0.327  -0.090  1.00  0.00     0.004 A 
HETATM   27  C16 UNL     1      -7.014  -0.887  -0.612  1.00  0.00     0.019 A 
HETATM   28  C17 UNL     1      -6.156  -1.862  -1.118  1.00  0.00     0.013 A 
HETATM   29 BR1  UNL     1      -6.781  -3.501  -1.819  1.00  0.00    -0.051 Br
HETATM   30  C18 UNL     1      -4.817  -1.538  -1.066  1.00  0.00     0.048 A 
ENDBRANCH  22  24
ENDBRANCH   4  22
BRANCH   6  31
HETATM   31  N3  UNL     1      -2.683   4.632  -0.354  1.00  0.00    -0.364 N 
HETATM   32  H17 UNL     1      -3.305   5.397   0.016  1.00  0.00     0.159 HD
HETATM   33  H18 UNL     1      -2.546   4.919  -1.336  1.00  0.00     0.159 HD
ENDBRANCH   6  31
TORSDOF 7
