REMARK  4 active torsions:
REMARK  status: ('A' for Active; 'I' for Inactive)
REMARK    1  A    between atoms: N1_1  and  C1_2 
REMARK    2  A    between atoms: C3_4  and  N2_5 
REMARK    3  A    between atoms: N2_5  and  C4_6 
REMARK    4  A    between atoms: C15_19  and  O1_20 
ROOT
HETATM    1  C1  UNL     1       1.364   2.936   0.764  1.00  0.00     0.141 A 
HETATM    2  C2  UNL     1       0.687   1.816   0.733  1.00  0.00     0.103 A 
HETATM    3  C3  UNL     1       0.226   0.501   0.942  1.00  0.00     0.148 A 
HETATM    4  N3  UNL     1      -0.862  -0.054   0.387  1.00  0.00    -0.210 NA
HETATM    5  C10 UNL     1      -1.656   0.616  -0.460  1.00  0.00     0.164 A 
HETATM    6  C11 UNL     1      -2.848   0.079  -1.080  1.00  0.00     0.015 A 
HETATM    7  C12 UNL     1      -3.609   0.858  -1.920  1.00  0.00     0.015 A 
HETATM    8  C13 UNL     1      -4.763   0.297  -2.487  1.00  0.00     0.004 A 
HETATM    9  C14 UNL     1      -5.083  -1.020  -2.174  1.00  0.00     0.036 A 
HETATM   10  C15 UNL     1      -4.330  -1.825  -1.330  1.00  0.00     0.066 A 
HETATM   11  C16 UNL     1      -3.197  -1.221  -0.795  1.00  0.00     0.051 A 
HETATM   12  N4  UNL     1      -1.285   1.882  -0.714  1.00  0.00    -0.208 NA
HETATM   13  C17 UNL     1      -0.198   2.443  -0.162  1.00  0.00     0.171 A 
HETATM   14  N5  UNL     1       0.462   3.577  -0.150  1.00  0.00    -0.210 NA
ENDROOT
BRANCH   3  15
HETATM   15  N2  UNL     1       1.084  -0.214   1.862  1.00  0.00    -0.340 N 
HETATM   16  H3  UNL     1       0.795  -0.366   2.855  1.00  0.00     0.167 HD
BRANCH  15  17
HETATM   17  C4  UNL     1       2.339  -0.717   1.397  1.00  0.00     0.035 A 
HETATM   18  C5  UNL     1       3.151  -1.540   2.142  1.00  0.00     0.029 A 
HETATM   19  C6  UNL     1       4.342  -1.962   1.636  1.00  0.00     0.004 A 
HETATM   20  C7  UNL     1       4.782  -1.585   0.362  1.00  0.00     0.024 A 
HETATM   21  C8  UNL     1       3.999  -0.752  -0.438  1.00  0.00     0.036 A 
HETATM   22 CL1  UNL     1       4.460  -0.223  -2.037  1.00  0.00    -0.084 Cl
HETATM   23  C9  UNL     1       2.792  -0.359   0.146  1.00  0.00     0.053 A 
ENDBRANCH  15  17
ENDBRANCH   3  15
BRANCH   1  24
HETATM   24  N1  UNL     1       2.554   3.268   1.497  1.00  0.00    -0.383 N 
HETATM   25  H1  UNL     1       2.669   3.612   2.485  1.00  0.00     0.157 HD
HETATM   26  H2  UNL     1       3.459   3.152   0.971  1.00  0.00     0.157 HD
ENDBRANCH   1  24
BRANCH  10  27
HETATM   27  O1  UNL     1      -4.653  -3.137  -1.020  1.00  0.00    -0.361 OA
HETATM   28  H11 UNL     1      -5.153  -3.271  -0.125  1.00  0.00     0.217 HD
ENDBRANCH  10  27
TORSDOF 4
