REMARK  3 active torsions:
REMARK  status: ('A' for Active; 'I' for Inactive)
REMARK    1  A    between atoms: C7_7  and  C8_8 
REMARK    2  A    between atoms: C8_8  and  C9_9 
REMARK    3  A    between atoms: C10_10  and  N1_11 
ROOT
HETATM    1  N1  UNL     1      -1.023  -0.951  -0.718  1.00  0.00    -0.056 N 
HETATM    2  C11 UNL     1      -1.614   0.318  -0.222  1.00  0.00     0.761 A 
HETATM    3  N2  UNL     1      -1.642   1.519  -0.560  1.00  0.00    -0.102 NA
HETATM    4  C12 UNL     1      -2.245   2.700  -0.019  1.00  0.00     0.172 C 
HETATM    5  C13 UNL     1      -3.226   2.488   1.091  1.00  0.00     0.049 C 
HETATM    6  C14 UNL     1      -4.388   1.626   0.739  1.00  0.00    -0.029 C 
HETATM    7  C15 UNL     1      -4.682   0.443   1.309  1.00  0.00    -0.024 C 
HETATM    8  C16 UNL     1      -3.937  -0.173   2.334  1.00  0.00     0.096 C 
HETATM    9  C17 UNL     1      -3.246  -1.424   2.351  1.00  0.00     0.105 A 
HETATM   10 BR1  UNL     1      -2.324  -3.065   2.358  1.00  0.00     0.036 Br
HETATM   11  N3  UNL     1      -2.330  -1.571   1.473  1.00  0.00    -0.185 N 
HETATM   12  N4  UNL     1      -1.852  -0.762   0.487  1.00  0.00     0.017 N 
ENDROOT
BRANCH   1  13
HETATM   13  C10 UNL     1      -0.237  -1.735  -1.670  1.00  0.00     0.134 C 
HETATM   14  C9  UNL     1       1.001  -2.094  -1.389  1.00  0.00    -0.002 C 
BRANCH  14  15
HETATM   15  C8  UNL     1       1.870  -1.862  -0.211  1.00  0.00     0.067 C 
BRANCH  15  16
HETATM   16  C7  UNL     1       3.120  -1.142  -0.514  1.00  0.00    -0.049 A 
HETATM   17  C2  UNL     1       3.153   0.217  -0.743  1.00  0.00    -0.055 A 
HETATM   18  C1  UNL     1       1.933   1.027  -0.694  1.00  0.00     0.049 C 
HETATM   19  C3  UNL     1       4.421   0.731  -1.016  1.00  0.00     0.007 A 
HETATM   20  C4  UNL     1       5.571   0.002  -1.067  1.00  0.00     0.001 A 
HETATM   21  C5  UNL     1       5.517  -1.373  -0.833  1.00  0.00     0.001 A 
HETATM   22  C6  UNL     1       4.277  -1.913  -0.559  1.00  0.00     0.008 A 
ENDBRANCH  15  16
ENDBRANCH  14  15
ENDBRANCH   1  13
TORSDOF 3
