REMARK  5 active torsions:
REMARK  status: ('A' for Active; 'I' for Inactive)
REMARK    1  A    between atoms: O1_2  and  C2_3 
REMARK    2  A    between atoms: C5_6  and  O2_7 
REMARK    3  A    between atoms: C7_9  and  C8_10 
REMARK    4  A    between atoms: C11_13  and  N1_14 
REMARK    5  A    between atoms: N1_14  and  C12_15 
ROOT
HETATM    1  C8  UNL     1      -0.758  -0.030  -0.070  1.00  0.00     0.014 C 
HETATM    2  C9  UNL     1       0.105  -0.934   0.288  1.00  0.00     0.033 C 
HETATM    3  C10 UNL     1       1.476  -1.056  -0.230  1.00  0.00     0.079 C 
HETATM    4  C11 UNL     1       2.436  -1.920   0.077  1.00  0.00     0.130 C 
HETATM    5  N2  UNL     1       2.909  -3.004   0.846  1.00  0.00    -0.235 NA
HETATM    6  C18 UNL     1       2.536  -4.218   0.855  1.00  0.00     0.188 C 
HETATM    7  S1  UNL     1       1.286  -5.209  -0.026  1.00  0.00     0.019 SA
HETATM    8  N3  UNL     1      -0.085  -4.060  -0.192  1.00  0.00    -0.206 NA
HETATM    9  C19 UNL     1      -0.097  -3.055   0.606  1.00  0.00     0.216 C 
HETATM   10  N4  UNL     1      -0.497  -1.852   1.250  1.00  0.00    -0.350 N 
HETATM   11  H19 UNL     1      -1.035  -1.695   2.104  1.00  0.00     0.166 HD
ENDROOT
BRANCH   1  12
HETATM   12  C7  UNL     1      -2.147   0.207   0.366  1.00  0.00     0.073 A 
HETATM   13  C5  UNL     1      -3.163   0.093  -0.702  1.00  0.00     0.054 A 
HETATM   14  C4  UNL     1      -4.073   0.980  -1.157  1.00  0.00     0.035 A 
HETATM   15  C3  UNL     1      -4.107   2.316  -0.515  1.00  0.00     0.035 A 
HETATM   16  C2  UNL     1      -3.218   2.473   0.443  1.00  0.00     0.046 A 
HETATM   17  C20 UNL     1      -2.188   1.588   1.011  1.00  0.00     0.079 A 
BRANCH  13  18
HETATM   18  O2  UNL     1      -3.445  -0.985  -1.527  1.00  0.00    -0.360 OA
HETATM   19  C6  UNL     1      -3.321  -2.286  -0.995  1.00  0.00     0.209 C 
ENDBRANCH  13  18
BRANCH  16  20
HETATM   20  O1  UNL     1      -3.152   3.699   1.130  1.00  0.00    -0.360 OA
HETATM   21  C1  UNL     1      -4.341   4.270   1.643  1.00  0.00     0.209 C 
ENDBRANCH  16  20
ENDBRANCH   1  12
BRANCH   4  22
HETATM   22  N1  UNL     1       3.664  -1.734  -0.648  1.00  0.00    -0.341 N 
HETATM   23  H12 UNL     1       4.355  -2.288  -1.187  1.00  0.00     0.167 HD
BRANCH  22  24
HETATM   24  C12 UNL     1       4.114  -0.388  -0.680  1.00  0.00     0.034 A 
HETATM   25  C13 UNL     1       4.148   0.225  -1.937  1.00  0.00     0.029 A 
HETATM   26  C14 UNL     1       4.557   1.532  -2.097  1.00  0.00     0.004 A 
HETATM   27  C15 UNL     1       4.950   2.293  -1.010  1.00  0.00     0.019 A 
HETATM   28  C16 UNL     1       4.923   1.699   0.249  1.00  0.00     0.013 A 
HETATM   29 BR1  UNL     1       5.431   2.632   1.833  1.00  0.00    -0.051 Br
HETATM   30  C17 UNL     1       4.513   0.399   0.374  1.00  0.00     0.048 A 
ENDBRANCH  22  24
ENDBRANCH   4  22
TORSDOF 5
