REMARK  7 active torsions:
REMARK  status: ('A' for Active; 'I' for Inactive)
REMARK    1  A    between atoms: N1_1  and  C1_2 
REMARK    2  A    between atoms: C3_6  and  C4_7 
REMARK    3  A    between atoms: C4_7  and  C5_8 
REMARK    4  A    between atoms: C10_15  and  C11_16 
REMARK    5  A    between atoms: C12_17  and  C13_18 
REMARK    6  A    between atoms: C13_18  and  C14_19 
REMARK    7  A    between atoms: C14_19  and  C15_20 
ROOT
HETATM    1  C1  UNL     1       0.641  -0.521   2.899  1.00  0.00     0.114 A 
HETATM    2  N2  UNL     1       1.183  -0.717   4.101  1.00  0.00    -0.229 NA
HETATM    3  C2  UNL     1       2.448  -0.303   4.305  1.00  0.00     0.235 A 
HETATM    4  N3  UNL     1       3.109   0.284   3.302  1.00  0.00    -0.245 NA
HETATM    5  C3  UNL     1       2.546   0.471   2.104  1.00  0.00     0.053 A 
HETATM    6  C10 UNL     1       1.261   0.073   1.829  1.00  0.00     0.029 A 
ENDROOT
BRANCH   6   7
HETATM    7  C11 UNL     1       0.693   0.316   0.523  1.00  0.00     0.013 C 
HETATM    8  C12 UNL     1      -0.442   0.155  -0.105  1.00  0.00    -0.025 C 
BRANCH   8   9
HETATM    9  C13 UNL     1      -1.842  -0.261  -0.216  1.00  0.00     0.031 C 
BRANCH   9  10
HETATM   10  C14 UNL     1      -2.710   0.946  -0.569  1.00  0.00     0.038 C 
BRANCH  10  11
HETATM   11  C15 UNL     1      -4.135   0.558  -0.688  1.00  0.00    -0.076 A 
HETATM   12  C16 UNL     1      -5.176   1.000   0.003  1.00  0.00     0.003 A 
HETATM   13  C17 UNL     1      -6.418   0.337  -0.448  1.00  0.00    -0.003 A 
HETATM   14  C18 UNL     1      -6.053  -0.494  -1.417  1.00  0.00    -0.022 A 
HETATM   15  C19 UNL     1      -4.587  -0.457  -1.683  1.00  0.00     0.061 A 
ENDBRANCH  10  11
ENDBRANCH   9  10
ENDBRANCH   8   9
ENDBRANCH   6   7
BRANCH   1  16
HETATM   16  N1  UNL     1      -0.678  -0.999   2.810  1.00  0.00    -0.286 NA
HETATM   17  H1  UNL     1      -0.772  -1.881   2.239  1.00  0.00     0.125 HD
HETATM   18  H2  UNL     1      -0.776  -1.885   2.238  1.00  0.00     0.125 HD
ENDBRANCH   1  16
BRANCH   5  19
HETATM   19  C4  UNL     1       3.351   1.128   1.045  1.00  0.00     0.098 C 
BRANCH  19  20
HETATM   20  C5  UNL     1       3.904   0.172   0.051  1.00  0.00    -0.025 C 
HETATM   21  C6  UNL     1       5.221   0.169  -0.048  1.00  0.00     0.089 C 
HETATM   22  N4  UNL     1       5.702   0.768  -1.065  1.00  0.00    -0.259 NA
HETATM   23  C7  UNL     1       5.155   0.448  -2.332  1.00  0.00     0.115 C 
HETATM   24  C8  UNL     1       4.132  -0.396  -2.352  1.00  0.00     0.013 C 
HETATM   25  C9  UNL     1       3.738  -0.864  -0.975  1.00  0.00     0.113 C 
HETATM   26 BR1  UNL     1       4.618  -2.535  -0.524  1.00  0.00    -0.082 Br
ENDBRANCH  19  20
ENDBRANCH   5  19
TORSDOF 7
