REMARK  1 active torsions:
REMARK  status: ('A' for Active; 'I' for Inactive)
REMARK    1  A    between atoms: O1_2  and  C2_3 
ROOT
HETATM    1  C2  UNL     1      -3.079   0.027  -0.252  1.00  0.00     0.069 A 
HETATM    2  C3  UNL     1      -2.995   1.341   0.155  1.00  0.00     0.039 A 
HETATM    3  C4  UNL     1      -1.801   1.880   0.589  1.00  0.00     0.040 A 
HETATM    4  C5  UNL     1      -0.629   1.163   0.647  1.00  0.00     0.082 A 
HETATM    5  C6  UNL     1      -0.627  -0.170   0.254  1.00  0.00     0.006 A 
HETATM    6  C7  UNL     1      -1.877  -0.657  -0.177  1.00  0.00     0.051 A 
HETATM    7  C8  UNL     1       0.289  -1.294   0.116  1.00  0.00    -0.052 C 
HETATM    8  C9  UNL     1      -0.130  -2.651   0.670  1.00  0.00     0.049 C 
HETATM    9  C10 UNL     1       1.499  -1.496  -0.377  1.00  0.00    -0.005 C 
HETATM   10  C11 UNL     1       2.225  -0.399  -0.961  1.00  0.00     0.098 A 
HETATM   11  C12 UNL     1       3.290  -0.566  -1.941  1.00  0.00     0.166 A 
HETATM   12  N1  UNL     1       4.501   0.169  -1.639  1.00  0.00    -0.282 NA
HETATM   13  C13 UNL     1       4.745   0.865  -0.588  1.00  0.00     0.228 A 
HETATM   14  N2  UNL     1       3.780   1.028   0.497  1.00  0.00    -0.229 NA
HETATM   15  C14 UNL     1       2.675   0.417   0.249  1.00  0.00     0.112 A 
HETATM   16  N3  UNL     1       1.974   0.602   1.458  1.00  0.00    -0.356 N 
HETATM   17  C15 UNL     1       1.307   1.714   2.090  1.00  0.00     0.299 C 
HETATM   18  O2  UNL     1       0.324   2.084   1.134  1.00  0.00    -0.331 OA
HETATM   19  H15 UNL     1       1.988  -0.320   1.946  1.00  0.00     0.163 HD
ENDROOT
BRANCH   1  20
HETATM   20  O1  UNL     1      -4.277  -0.518  -0.689  1.00  0.00    -0.356 OA
HETATM   21  C1  UNL     1      -5.472   0.191  -0.755  1.00  0.00     0.210 C 
ENDBRANCH   1  20
TORSDOF 1
