REMARK  9 active torsions:
REMARK  status: ('A' for Active; 'I' for Inactive)
REMARK    1  A    between atoms: C2_2  and  C3_3 
REMARK    2  A    between atoms: C3_3  and  C4_4 
REMARK    3  A    between atoms: C4_4  and  C6_6 
REMARK    4  A    between atoms: C6_6  and  C7_7 
REMARK    5  A    between atoms: C7_7  and  N1_8 
REMARK    6  A    between atoms: N1_8  and  C8_9 
REMARK    7  A    between atoms: C10_11  and  C11_12 
REMARK    8  A    between atoms: C13_14  and  O1_15 
REMARK    9  A    between atoms: C17_19  and  O2_20 
ROOT
HETATM    1  C8  UNL     1       0.618   0.117  -0.687  1.00  0.00     0.138 C 
HETATM    2  C9  UNL     1      -0.509  -0.253  -0.203  1.00  0.00     0.053 C 
HETATM    3  C10 UNL     1      -1.479   0.470   0.215  1.00  0.00     0.061 C 
HETATM    4  N2  UNL     1      -1.522   1.747   0.889  1.00  0.00    -0.349 N 
HETATM    5  C19 UNL     1      -0.685   2.924   0.816  1.00  0.00     0.208 C 
HETATM    6  N3  UNL     1       0.329   3.343   0.094  1.00  0.00    -0.237 NA
HETATM    7  C20 UNL     1       0.953   2.600  -0.979  1.00  0.00     0.236 C 
HETATM    8  N4  UNL     1       1.079   1.335  -1.305  1.00  0.00    -0.224 NA
HETATM    9  H20 UNL     1      -2.305   1.836   1.552  1.00  0.00     0.166 HD
ENDROOT
BRANCH   3  10
HETATM   10  C11 UNL     1      -2.849  -0.022   0.015  1.00  0.00     0.028 A 
HETATM   11  C12 UNL     1      -3.897   0.848  -0.215  1.00  0.00     0.053 A 
HETATM   12  C13 UNL     1      -5.216   0.506  -0.414  1.00  0.00     0.069 A 
HETATM   13  C15 UNL     1      -5.497  -0.834  -0.376  1.00  0.00     0.039 A 
HETATM   14  C16 UNL     1      -4.497  -1.757  -0.151  1.00  0.00     0.040 A 
HETATM   15  C17 UNL     1      -3.182  -1.369   0.045  1.00  0.00     0.080 A 
BRANCH  12  16
HETATM   16  O1  UNL     1      -6.230   1.413  -0.642  1.00  0.00    -0.356 OA
HETATM   17  C14 UNL     1      -5.914   2.790  -0.677  1.00  0.00     0.210 C 
ENDBRANCH  12  16
BRANCH  15  18
HETATM   18  O2  UNL     1      -2.191  -2.305   0.270  1.00  0.00    -0.355 OA
HETATM   19  C18 UNL     1      -2.528  -3.666   0.300  1.00  0.00     0.210 C 
ENDBRANCH  15  18
ENDBRANCH   3  10
BRANCH   1  20
HETATM   20  N1  UNL     1       1.474  -1.033  -0.489  1.00  0.00    -0.370 N 
HETATM   21  H10 UNL     1       1.306  -1.901  -1.049  1.00  0.00     0.161 HD
BRANCH  20  22
HETATM   22  C7  UNL     1       2.551  -0.928   0.502  1.00  0.00     0.149 C 
BRANCH  22  23
HETATM   23  C6  UNL     1       3.583   0.027   0.032  1.00  0.00    -0.000 C 
BRANCH  23  24
HETATM   24  C4  UNL     1       4.852  -0.256  -0.174  1.00  0.00    -0.057 C 
HETATM   25  C5  UNL     1       5.793   0.788  -0.648  1.00  0.00     0.048 C 
BRANCH  24  26
HETATM   26  C3  UNL     1       5.586  -1.467  -0.025  1.00  0.00     0.057 C 
BRANCH  26  27
HETATM   27  C2  UNL     1       6.332  -1.674   1.048  1.00  0.00    -0.154 C 
HETATM   28  C1  UNL     1       7.073  -1.583   2.145  1.00  0.00     0.096 C 
ENDBRANCH  26  27
ENDBRANCH  24  26
ENDBRANCH  23  24
ENDBRANCH  22  23
ENDBRANCH  20  22
ENDBRANCH   1  20
TORSDOF 9
