REMARK  7 active torsions:
REMARK  status: ('A' for Active; 'I' for Inactive)
REMARK    1  A    between atoms: O1_2  and  C2_3 
REMARK    2  A    between atoms: C7_9  and  C8_10 
REMARK    3  A    between atoms: C8_10  and  C9_11 
REMARK    4  A    between atoms: C9_11  and  N1_12 
REMARK    5  A    between atoms: C9_11  and  C10_13 
REMARK    6  A    between atoms: C13_18  and  N4_19 
REMARK    7  A    between atoms: N4_19  and  C14_20 
ROOT
HETATM    1  C2  UNL     1      -3.845   1.852  -0.299  1.00  0.00     0.068 A 
HETATM    2  C3  UNL     1      -3.530   2.221  -1.586  1.00  0.00     0.039 A 
HETATM    3  C4  UNL     1      -2.509   1.501  -2.177  1.00  0.00     0.040 A 
HETATM    4  C5  UNL     1      -1.803   0.460  -1.569  1.00  0.00     0.074 A 
HETATM    5  O2  UNL     1      -0.904  -0.089  -2.248  1.00  0.00    -0.355 OA
HETATM    6  C6  UNL     1       0.013  -0.620  -2.999  1.00  0.00     0.210 C 
HETATM    7  C7  UNL     1      -2.153   0.118  -0.264  1.00  0.00    -0.020 A 
HETATM    8  C20 UNL     1      -3.184   0.819   0.378  1.00  0.00     0.046 A 
ENDROOT
BRANCH   7   9
HETATM    9  C8  UNL     1      -1.458  -0.945   0.471  1.00  0.00     0.082 C 
BRANCH   9  10
HETATM   10  C9  UNL     1      -0.128  -0.493   1.033  1.00  0.00     0.260 C 
BRANCH  10  11
HETATM   11  N1  UNL     1      -0.327   0.612   1.954  1.00  0.00     0.087 N 
HETATM   12  H12 UNL     1      -0.932   0.336   2.763  1.00  0.00     0.313 HD
HETATM   13  H13 UNL     1       0.607   0.960   2.266  1.00  0.00     0.313 HD
ENDBRANCH  10  11
BRANCH  10  14
HETATM   14  C10 UNL     1       0.634  -1.591   1.669  1.00  0.00     0.038 A 
HETATM   15  C11 UNL     1       0.329  -1.945   2.993  1.00  0.00     0.131 A 
HETATM   16  N2  UNL     1       0.958  -2.927   3.657  1.00  0.00    -0.253 NA
HETATM   17  C12 UNL     1       1.936  -3.628   3.057  1.00  0.00     0.234 A 
HETATM   18  N3  UNL     1       2.265  -3.327   1.793  1.00  0.00    -0.224 NA
HETATM   19  C13 UNL     1       1.643  -2.344   1.110  1.00  0.00     0.139 A 
BRANCH  19  20
HETATM   20  N4  UNL     1       2.011  -2.046  -0.212  1.00  0.00    -0.340 N 
HETATM   21  H16 UNL     1       1.695  -2.443  -1.124  1.00  0.00     0.167 HD
BRANCH  20  22
HETATM   22  C14 UNL     1       2.995  -1.009  -0.278  1.00  0.00     0.035 A 
HETATM   23  C15 UNL     1       3.430  -0.312   0.838  1.00  0.00     0.029 A 
HETATM   24  C16 UNL     1       4.390   0.691   0.735  1.00  0.00     0.004 A 
HETATM   25  C17 UNL     1       4.945   1.034  -0.465  1.00  0.00     0.019 A 
HETATM   26  C18 UNL     1       4.536   0.362  -1.587  1.00  0.00     0.013 A 
HETATM   27 BR1  UNL     1       5.305   0.827  -3.284  1.00  0.00    -0.051 Br
HETATM   28  C19 UNL     1       3.584  -0.626  -1.453  1.00  0.00     0.048 A 
ENDBRANCH  20  22
ENDBRANCH  19  20
ENDBRANCH  10  14
ENDBRANCH   9  10
ENDBRANCH   7   9
BRANCH   1  29
HETATM   29  O1  UNL     1      -4.835   2.457   0.447  1.00  0.00    -0.356 OA
HETATM   30  C1  UNL     1      -5.600   3.532  -0.110  1.00  0.00     0.210 C 
ENDBRANCH   1  29
TORSDOF 7
