REMARK  5 active torsions:
REMARK  status: ('A' for Active; 'I' for Inactive)
REMARK    1  A    between atoms: C7_7  and  C8_8 
REMARK    2  A    between atoms: C14_16  and  C15_17 
REMARK    3  A    between atoms: C15_17  and  O1_18 
REMARK    4  A    between atoms: O1_18  and  C16_19 
REMARK    5  A    between atoms: C19_22  and  O2_23 
ROOT
HETATM    1  C8  UNL     1      -2.885  -0.316  -0.281  1.00  0.00     0.062 A 
HETATM    2  N1  UNL     1      -3.277  -1.088  -1.336  1.00  0.00    -0.244 NA
HETATM    3  C9  UNL     1      -2.633  -0.949  -2.508  1.00  0.00     0.235 A 
HETATM    4  N2  UNL     1      -1.600  -0.090  -2.750  1.00  0.00    -0.224 NA
HETATM    5  C10 UNL     1      -1.207   0.675  -1.715  1.00  0.00     0.137 A 
HETATM    6  C11 UNL     1      -1.846   0.555  -0.506  1.00  0.00     0.035 A 
HETATM    7  C12 UNL     1      -1.481   1.348   0.659  1.00  0.00     0.015 A 
HETATM    8  C13 UNL     1      -0.496   2.227   0.575  1.00  0.00     0.001 A 
HETATM    9  C14 UNL     1       0.277   2.452  -0.684  1.00  0.00     0.130 A 
HETATM   10  N3  UNL     1      -0.151   1.626  -1.772  1.00  0.00    -0.364 N 
HETATM   11  H21 UNL     1       0.362   1.750  -2.657  1.00  0.00     0.162 HD
ENDROOT
BRANCH   9  12
HETATM   12  C15 UNL     1       1.758   2.248  -0.454  1.00  0.00     0.204 C 
BRANCH  12  13
HETATM   13  O1  UNL     1       2.037   0.920  -0.146  1.00  0.00    -0.349 OA
BRANCH  13  14
HETATM   14  C16 UNL     1       3.300   0.417   0.117  1.00  0.00     0.069 A 
HETATM   15  C17 UNL     1       4.328   1.309   0.064  1.00  0.00     0.039 A 
HETATM   16  C18 UNL     1       5.616   0.835   0.324  1.00  0.00     0.039 A 
HETATM   17  C19 UNL     1       5.805  -0.518   0.626  1.00  0.00     0.068 A 
HETATM   18  C21 UNL     1       4.713  -1.362   0.662  1.00  0.00     0.039 A 
HETATM   19  C22 UNL     1       3.432  -0.925   0.410  1.00  0.00     0.039 A 
BRANCH  17  20
HETATM   20  O2  UNL     1       7.121  -0.816   0.854  1.00  0.00    -0.356 OA
HETATM   21  C20 UNL     1       7.517  -2.120   1.172  1.00  0.00     0.210 C 
ENDBRANCH  17  20
ENDBRANCH  13  14
ENDBRANCH  12  13
ENDBRANCH   9  12
BRANCH   1  22
HETATM   22  C7  UNL     1      -3.678  -0.578   0.938  1.00  0.00     0.093 A 
HETATM   23  C2  UNL     1      -5.055   0.008   0.755  1.00  0.00    -0.054 A 
HETATM   24  C1  UNL     1      -5.134   1.323   0.617  1.00  0.00     0.020 C 
HETATM   25  C3  UNL     1      -6.308  -0.734   0.714  1.00  0.00     0.007 A 
HETATM   26  C4  UNL     1      -6.224  -2.046   0.852  1.00  0.00     0.000 A 
HETATM   27  C5  UNL     1      -4.944  -2.721   1.034  1.00  0.00    -0.003 A 
HETATM   28  C6  UNL     1      -3.801  -2.057   1.073  1.00  0.00    -0.011 A 
ENDBRANCH   1  22
TORSDOF 5
