REMARK  6 active torsions:
REMARK  status: ('A' for Active; 'I' for Inactive)
REMARK    1  A    between atoms: C2_3  and  C3_4 
REMARK    2  A    between atoms: C4_6  and  C5_7 
REMARK    3  A    between atoms: C6_8  and  C7_9 
REMARK    4  A    between atoms: C7_9  and  C8_10 
REMARK    5  A    between atoms: C10_14  and  N3_15 
REMARK    6  A    between atoms: N3_15  and  C11_16 
ROOT
HETATM    1  C8  UNL     1       0.273  -2.156  -0.375  1.00  0.00     0.149 A 
HETATM    2  N1  UNL     1      -0.532  -3.126   0.091  1.00  0.00    -0.225 NA
HETATM    3  C9  UNL     1      -1.846  -2.937   0.304  1.00  0.00     0.254 A 
HETATM    4  N2  UNL     1      -2.316  -1.720   0.025  1.00  0.00    -0.056 NA
HETATM    5  C10 UNL     1      -1.605  -0.685  -0.441  1.00  0.00     0.729 A 
HETATM    6  N4  UNL     1      -0.328  -0.983  -0.613  1.00  0.00    -0.047 NA
ENDROOT
BRANCH   1   7
HETATM    7  C7  UNL     1       1.743  -2.345  -0.620  1.00  0.00     0.108 C 
BRANCH   7   8
HETATM    8  C6  UNL     1       2.549  -2.024   0.554  1.00  0.00    -0.019 C 
HETATM    9  C5  UNL     1       3.510  -1.145   0.786  1.00  0.00    -0.002 C 
BRANCH   9  10
HETATM   10  C4  UNL     1       3.959  -0.242  -0.260  1.00  0.00     0.023 C 
HETATM   11  C3  UNL     1       4.929   0.664  -0.066  1.00  0.00     0.034 C 
HETATM   12 CL2  UNL     1       5.404   1.707  -1.381  1.00  0.00    -0.084 Cl
BRANCH  11  13
HETATM   13  C2  UNL     1       5.595   0.793   1.222  1.00  0.00     0.036 C 
HETATM   14  C1  UNL     1       6.550   1.693   1.393  1.00  0.00     0.086 C 
HETATM   15 CL1  UNL     1       7.107   2.790   0.150  1.00  0.00    -0.097 Cl
ENDBRANCH  11  13
ENDBRANCH   9  10
ENDBRANCH   7   8
ENDBRANCH   1   7
BRANCH   5  16
HETATM   16  N3  UNL     1      -2.094   0.608  -0.740  1.00  0.00    -0.188 N 
HETATM   17  H9  UNL     1      -1.375   1.303  -1.103  1.00  0.00     0.184 HD
BRANCH  16  18
HETATM   18  C11 UNL     1      -3.394   1.097  -0.622  1.00  0.00     0.050 A 
HETATM   19  C12 UNL     1      -3.711   2.415  -0.965  1.00  0.00     0.030 A 
HETATM   20  C13 UNL     1      -4.981   2.930  -0.861  1.00  0.00     0.004 A 
HETATM   21  C14 UNL     1      -6.032   2.162  -0.407  1.00  0.00     0.019 A 
HETATM   22  C15 UNL     1      -5.772   0.863  -0.059  1.00  0.00     0.013 A 
HETATM   23 BR1  UNL     1      -7.227  -0.181   0.564  1.00  0.00    -0.051 Br
HETATM   24  C16 UNL     1      -4.486   0.384  -0.177  1.00  0.00     0.049 A 
ENDBRANCH  16  18
ENDBRANCH   5  16
TORSDOF 6
