REMARK  8 active torsions:
REMARK  status: ('A' for Active; 'I' for Inactive)
REMARK    1  A    between atoms: C2_2  and  C3_3 
REMARK    2  A    between atoms: C4_4  and  C5_5 
REMARK    3  A    between atoms: C5_5  and  C6_6 
REMARK    4  A    between atoms: C6_6  and  C7_7 
REMARK    5  A    between atoms: C8_8  and  C9_9 
REMARK    6  A    between atoms: C12_14  and  N3_15 
REMARK    7  A    between atoms: N3_15  and  C13_16 
REMARK    8  A    between atoms: C19_23  and  O1_24 
ROOT
HETATM    1  C9  UNL     1      -1.420   1.528  -0.612  1.00  0.00     0.027 A 
HETATM    2  C10 UNL     1      -0.941   2.783  -0.893  1.00  0.00     0.133 A 
HETATM    3  N1  UNL     1      -1.796   3.823  -1.030  1.00  0.00    -0.253 NA
HETATM    4  C11 UNL     1      -3.135   3.602  -0.886  1.00  0.00     0.234 A 
HETATM    5  N2  UNL     1      -3.539   2.359  -0.613  1.00  0.00    -0.224 NA
HETATM    6  C12 UNL     1      -2.756   1.283  -0.463  1.00  0.00     0.141 A 
ENDROOT
BRANCH   1   7
HETATM    7  C8  UNL     1      -0.415   0.479  -0.484  1.00  0.00     0.013 C 
HETATM    8  C7  UNL     1       0.874   0.733  -0.631  1.00  0.00    -0.025 C 
BRANCH   8   9
HETATM    9  C6  UNL     1       2.026  -0.172  -0.542  1.00  0.00     0.031 C 
BRANCH   9  10
HETATM   10  C5  UNL     1       3.034   0.154   0.503  1.00  0.00     0.041 C 
BRANCH  10  11
HETATM   11  C4  UNL     1       4.146  -0.866   0.462  1.00  0.00    -0.042 A 
HETATM   12  C3  UNL     1       5.400  -1.294   0.325  1.00  0.00    -0.043 A 
HETATM   13  C19 UNL     1       4.369  -2.312   0.610  1.00  0.00     0.177 A 
BRANCH  12  14
HETATM   14  C2  UNL     1       6.765  -0.796   0.056  1.00  0.00     0.033 C 
HETATM   15  C1  UNL     1       6.784   0.710  -0.137  1.00  0.00     0.010 C 
ENDBRANCH  12  14
BRANCH  13  16
HETATM   16  O1  UNL     1       3.918  -3.101  -0.423  1.00  0.00    -0.387 OA
HETATM   17  H20 UNL     1       3.329  -2.638  -1.060  1.00  0.00     0.210 HD
ENDBRANCH  13  16
ENDBRANCH  10  11
ENDBRANCH   9  10
ENDBRANCH   8   9
ENDBRANCH   1   7
BRANCH   6  18
HETATM   18  N3  UNL     1      -3.239  -0.016  -0.173  1.00  0.00    -0.340 N 
HETATM   19  H14 UNL     1      -2.512  -0.771  -0.081  1.00  0.00     0.167 HD
BRANCH  18  20
HETATM   20  C13 UNL     1      -4.572  -0.450   0.012  1.00  0.00     0.035 A 
HETATM   21  C14 UNL     1      -5.699   0.337  -0.056  1.00  0.00     0.029 A 
HETATM   22  C15 UNL     1      -6.996  -0.089   0.125  1.00  0.00     0.004 A 
HETATM   23  C16 UNL     1      -7.196  -1.418   0.400  1.00  0.00     0.019 A 
HETATM   24  C17 UNL     1      -6.121  -2.254   0.482  1.00  0.00     0.013 A 
HETATM   25 BR1  UNL     1      -6.392  -4.097   0.863  1.00  0.00    -0.051 Br
HETATM   26  C18 UNL     1      -4.851  -1.766   0.291  1.00  0.00     0.048 A 
ENDBRANCH  18  20
ENDBRANCH   6  18
TORSDOF 8
