REMARK  6 active torsions:
REMARK  status: ('A' for Active; 'I' for Inactive)
REMARK    1  A    between atoms: C3_4  and  C4_5 
REMARK    2  A    between atoms: C5_6  and  C6_7 
REMARK    3  A    between atoms: C6_7  and  C7_8 
REMARK    4  A    between atoms: C8_10  and  N2_11 
REMARK    5  A    between atoms: N2_11  and  C9_12 
REMARK    6  A    between atoms: C9_12  and  C10_13 
ROOT
HETATM    1  C7  UNL     1       1.113  -0.516  -1.446  1.00  0.00     0.107 A 
HETATM    2  N1  UNL     1       0.150   0.142  -0.901  1.00  0.00    -0.230 NA
HETATM    3  C8  UNL     1      -1.185  -0.324  -0.689  1.00  0.00     0.337 A 
HETATM    4  N3  UNL     1      -1.428  -1.672  -1.148  1.00  0.00    -0.238 NA
HETATM    5  C15 UNL     1      -0.452  -2.314  -1.690  1.00  0.00     0.206 A 
HETATM    6  N4  UNL     1       0.873  -1.842  -1.897  1.00  0.00    -0.339 N 
HETATM    7  H18 UNL     1       1.525  -2.503  -2.350  1.00  0.00     0.168 HD
ENDROOT
BRANCH   3   8
HETATM    8  N2  UNL     1      -1.557  -0.278   0.729  1.00  0.00    -0.360 N 
HETATM    9  H10 UNL     1      -1.312  -0.057   1.739  1.00  0.00     0.162 HD
BRANCH   8  10
HETATM   10  C9  UNL     1      -2.894  -0.755   0.862  1.00  0.00     0.081 C 
BRANCH  10  11
HETATM   11  C10 UNL     1      -3.912   0.066   0.936  1.00  0.00    -0.083 A 
HETATM   12  B1  UNL     1      -3.686   1.605   0.880  1.00  0.00     0.220 B 
HETATM   13  C11 UNL     1      -4.980   2.490   0.978  1.00  0.00    -0.077 A 
HETATM   14  H12 UNL     1      -2.629   2.092   1.116  1.00  0.00    -0.016 HD
HETATM   15  C12 UNL     1      -6.126   1.826   1.098  1.00  0.00    -0.015 A 
HETATM   16  C13 UNL     1      -6.301   0.390   1.147  1.00  0.00    -0.002 A 
HETATM   17  C14 UNL     1      -5.259  -0.441   1.071  1.00  0.00    -0.004 A 
ENDBRANCH  10  11
ENDBRANCH   8  10
ENDBRANCH   3   8
BRANCH   1  18
HETATM   18  C6  UNL     1       2.513  -0.003  -1.658  1.00  0.00     0.105 C 
BRANCH  18  19
HETATM   19  C5  UNL     1       3.495  -0.855  -0.944  1.00  0.00    -0.019 C 
HETATM   20  C4  UNL     1       4.337  -0.499   0.001  1.00  0.00    -0.002 C 
BRANCH  20  21
HETATM   21  C3  UNL     1       4.426   0.859   0.507  1.00  0.00     0.019 C 
HETATM   22  C2  UNL     1       5.299   1.152   1.465  1.00  0.00     0.008 C 
HETATM   23  C1  UNL     1       6.166   0.062   1.992  1.00  0.00     0.062 C 
HETATM   24 CL1  UNL     1       5.441   2.775   2.104  1.00  0.00    -0.089 Cl
ENDBRANCH  20  21
ENDBRANCH  18  19
ENDBRANCH   1  18
TORSDOF 6
