REMARK  6 active torsions:
REMARK  status: ('A' for Active; 'I' for Inactive)
REMARK    1  A    between atoms: N1_6  and  C5_7 
REMARK    2  A    between atoms: C8_12  and  C9_13 
REMARK    3  A    between atoms: C10_14  and  C11_15 
REMARK    4  A    between atoms: C11_15  and  C12_16 
REMARK    5  A    between atoms: C12_16  and  O1_17 
REMARK    6  A    between atoms: O1_17  and  C13_18 
ROOT
HETATM    1  C5  UNL     1      -3.671  -1.184   0.504  1.00  0.00     0.143 A 
HETATM    2  N2  UNL     1      -4.351  -2.260   0.929  1.00  0.00    -0.223 NA
HETATM    3  C6  UNL     1      -3.849  -3.505   0.887  1.00  0.00     0.234 A 
HETATM    4  N3  UNL     1      -2.609  -3.680   0.397  1.00  0.00    -0.253 NA
HETATM    5  C7  UNL     1      -1.940  -2.595  -0.025  1.00  0.00     0.133 A 
HETATM    6  C8  UNL     1      -2.397  -1.300  -0.010  1.00  0.00     0.027 A 
ENDROOT
BRANCH   6   7
HETATM    7  C9  UNL     1      -1.654  -0.162  -0.510  1.00  0.00     0.013 C 
HETATM    8  C10 UNL     1      -0.442   0.005  -0.996  1.00  0.00    -0.024 C 
BRANCH   8   9
HETATM    9  C11 UNL     1       0.841  -0.616  -1.353  1.00  0.00     0.054 C 
BRANCH   9  10
HETATM   10  C12 UNL     1       2.016   0.005  -0.618  1.00  0.00     0.180 C 
BRANCH  10  11
HETATM   11  O1  UNL     1       3.230  -0.622  -0.988  1.00  0.00    -0.344 OA
BRANCH  11  12
HETATM   12  C13 UNL     1       4.406  -0.177  -0.406  1.00  0.00     0.109 C 
HETATM   13  C14 UNL     1       5.435  -0.883  -0.784  1.00  0.00     0.044 C 
HETATM   14  C15 UNL     1       6.825  -0.777  -0.436  1.00  0.00     0.003 C 
HETATM   15  C16 UNL     1       7.489   0.113   0.245  1.00  0.00     0.001 C 
HETATM   16  C17 UNL     1       7.085   1.323   0.905  1.00  0.00     0.007 C 
HETATM   17  C18 UNL     1       5.896   1.820   1.123  1.00  0.00     0.052 C 
HETATM   18  S1  UNL     1       4.293   1.216   0.699  1.00  0.00    -0.077 SA
ENDBRANCH  11  12
ENDBRANCH  10  11
ENDBRANCH   9  10
ENDBRANCH   8   9
ENDBRANCH   6   7
BRANCH   1  19
HETATM   19  N1  UNL     1      -4.238   0.111   0.606  1.00  0.00    -0.336 N 
HETATM   20  C4  UNL     1      -5.274   0.265  -0.386  1.00  0.00     0.093 A 
HETATM   21  C3  UNL     1      -5.939   1.416  -0.524  1.00  0.00     0.018 A 
HETATM   22  C2  UNL     1      -5.657   2.569   0.317  1.00  0.00     0.018 A 
HETATM   23  C1  UNL     1      -4.711   2.357   1.196  1.00  0.00     0.007 A 
HETATM   24 BR1  UNL     1      -4.234   3.789   2.367  1.00  0.00    -0.054 Br
HETATM   25  C19 UNL     1      -3.898   1.166   1.505  1.00  0.00     0.176 A 
ENDBRANCH   1  19
TORSDOF 6
