REMARK  6 active torsions:
REMARK  status: ('A' for Active; 'I' for Inactive)
REMARK    1  A    between atoms: C7_7  and  N1_8 
REMARK    2  A    between atoms: N1_8  and  C8_9 
REMARK    3  A    between atoms: C10_13  and  N4_14 
REMARK    4  A    between atoms: C11_15  and  C12_16 
REMARK    5  A    between atoms: C13_17  and  C14_18 
REMARK    6  A    between atoms: C14_18  and  C15_19 
ROOT
HETATM    1  C1  UNL     1       7.558   0.918   1.730  1.00  0.00     0.018 C 
HETATM    2  C2  UNL     1       6.619   0.203   1.468  1.00  0.00    -0.078 C 
HETATM    3  C3  UNL     1       5.517  -0.657   1.150  1.00  0.00     0.019 A 
HETATM    4  C4  UNL     1       5.692  -2.019   1.262  1.00  0.00     0.021 A 
HETATM    5  C5  UNL     1       4.648  -2.864   0.963  1.00  0.00     0.004 A 
HETATM    6  C6  UNL     1       3.454  -2.320   0.558  1.00  0.00     0.029 A 
HETATM    7  C7  UNL     1       3.194  -0.978   0.419  1.00  0.00     0.035 A 
HETATM    8  C21 UNL     1       4.286  -0.201   0.737  1.00  0.00     0.050 A 
ENDROOT
BRANCH   7   9
HETATM    9  N1  UNL     1       1.940  -0.475  -0.001  1.00  0.00    -0.340 N 
HETATM   10  H5  UNL     1       1.254  -1.234  -0.171  1.00  0.00     0.167 HD
BRANCH   9  11
HETATM   11  C8  UNL     1       1.533   0.864  -0.208  1.00  0.00     0.143 A 
HETATM   12  N2  UNL     1       2.337   1.918  -0.028  1.00  0.00    -0.223 NA
HETATM   13  C9  UNL     1       2.024   3.188  -0.201  1.00  0.00     0.237 A 
HETATM   14  N3  UNL     1       0.767   3.490  -0.603  1.00  0.00    -0.224 NA
HETATM   15  C10 UNL     1      -0.112   2.464  -0.808  1.00  0.00     0.136 A 
HETATM   16  C11 UNL     1       0.275   1.159  -0.609  1.00  0.00     0.055 A 
BRANCH  15  17
HETATM   17  N4  UNL     1      -1.348   2.981  -1.217  1.00  0.00    -0.383 N 
HETATM   18  H7  UNL     1      -1.683   3.186  -2.186  1.00  0.00     0.157 HD
HETATM   19  H8  UNL     1      -2.099   3.221  -0.507  1.00  0.00     0.157 HD
ENDBRANCH  15  17
BRANCH  16  20
HETATM   20  C12 UNL     1      -0.747   0.178  -0.859  1.00  0.00     0.015 C 
HETATM   21  C13 UNL     1      -2.014   0.193  -1.247  1.00  0.00    -0.021 C 
BRANCH  21  22
HETATM   22  C14 UNL     1      -3.008  -0.862  -1.483  1.00  0.00     0.067 C 
BRANCH  22  23
HETATM   23  C15 UNL     1      -4.185  -0.725  -0.615  1.00  0.00    -0.033 A 
HETATM   24  C16 UNL     1      -5.404  -0.241  -1.042  1.00  0.00     0.011 A 
HETATM   25  C17 UNL     1      -6.529  -0.105  -0.232  1.00  0.00     0.024 A 
HETATM   26  C18 UNL     1      -6.431  -0.476   1.089  1.00  0.00     0.035 A 
HETATM   27 CL1  UNL     1      -7.821  -0.316   2.120  1.00  0.00    -0.084 Cl
HETATM   28  C19 UNL     1      -5.224  -0.966   1.550  1.00  0.00     0.048 A 
HETATM   29  C20 UNL     1      -4.135  -1.088   0.733  1.00  0.00     0.042 A 
HETATM   30 CL2  UNL     1      -2.630  -1.722   1.399  1.00  0.00    -0.084 Cl
ENDBRANCH  22  23
ENDBRANCH  21  22
ENDBRANCH  16  20
ENDBRANCH   9  11
ENDBRANCH   7   9
TORSDOF 6
