REMARK  3 active torsions:
REMARK  status: ('A' for Active; 'I' for Inactive)
REMARK    1  A    between atoms: C2_3  and  C3_4 
REMARK    2  A    between atoms: C2_3  and  C18_25 
REMARK    3  A    between atoms: C4_5  and  N1_6 
ROOT
HETATM    1  N1  UNL     1       1.317  -0.582   0.196  1.00  0.00    -0.324 N 
HETATM    2  C5  UNL     1       2.447  -1.437   0.308  1.00  0.00     0.212 C 
HETATM    3  N2  UNL     1       2.869  -2.623  -0.099  1.00  0.00    -0.237 NA
HETATM    4  C6  UNL     1       1.977  -3.408  -0.946  1.00  0.00     0.234 C 
HETATM    5  N3  UNL     1       0.881  -3.047  -1.585  1.00  0.00    -0.242 NA
HETATM    6  C7  UNL     1       0.386  -1.725  -1.526  1.00  0.00     0.089 C 
HETATM    7  C8  UNL     1       0.207  -0.972  -2.623  1.00  0.00     0.001 C 
HETATM    8  C9  UNL     1      -0.623   0.010  -2.391  1.00  0.00    -0.008 C 
HETATM    9  C10 UNL     1      -1.881  -0.705  -2.323  1.00  0.00     0.068 C 
HETATM   10  C11 UNL     1      -2.727  -0.706  -1.154  1.00  0.00    -0.031 A 
HETATM   11  C12 UNL     1      -2.169  -1.124   0.010  1.00  0.00     0.040 A 
HETATM   12  C13 UNL     1      -1.724  -1.521   1.266  1.00  0.00     0.052 A 
HETATM   13  C14 UNL     1      -3.011  -1.181   1.671  1.00  0.00     0.062 A 
HETATM   14 CL1  UNL     1      -2.630  -1.633   3.305  1.00  0.00    -0.082 Cl
HETATM   15  C15 UNL     1      -4.041  -0.684   0.891  1.00  0.00     0.050 A 
HETATM   16  C16 UNL     1      -3.894  -0.458  -0.467  1.00  0.00     0.042 A 
HETATM   17 CL2  UNL     1      -5.124   0.189  -1.514  1.00  0.00    -0.084 Cl
HETATM   18  N4  UNL     1      -0.395  -1.876   0.868  1.00  0.00    -0.362 N 
HETATM   19  C17 UNL     1       0.043  -1.086  -0.298  1.00  0.00     0.243 C 
HETATM   20  H11 UNL     1      -0.652  -2.455   1.683  1.00  0.00     0.162 HD
ENDROOT
BRANCH   1  21
HETATM   21  C4  UNL     1       1.623   0.746   0.621  1.00  0.00     0.095 C 
HETATM   22  C3  UNL     1       1.553   2.013   0.277  1.00  0.00     0.025 C 
BRANCH  22  23
HETATM   23  C2  UNL     1       1.991   3.202   0.994  1.00  0.00    -0.015 C 
HETATM   24  C1  UNL     1       1.712   4.283   0.267  1.00  0.00     0.451 C 
HETATM   25  F1  UNL     1       2.139   5.385   0.976  1.00  0.00    -0.451 F 
BRANCH  23  26
HETATM   26  C18 UNL     1       2.621   2.899   2.313  1.00  0.00     0.259 C 
HETATM   27  F2  UNL     1       2.978   4.128   2.866  1.00  0.00    -0.251 F 
ENDBRANCH  23  26
ENDBRANCH  22  23
ENDBRANCH   1  21
TORSDOF 3
