REMARK  1 active torsions:
REMARK  status: ('A' for Active; 'I' for Inactive)
REMARK    1  A    between atoms: C6_6  and  N1_7 
ROOT
HETATM    1  N1  UNL     1       0.506  -1.146   0.043  1.00  0.00    -0.262 N 
HETATM    2  C7  UNL     1       0.469  -1.695   1.370  1.00  0.00     0.229 C 
HETATM    3  N2  UNL     1      -0.378  -1.854   2.328  1.00  0.00    -0.236 NA
HETATM    4  C8  UNL     1      -1.749  -1.528   2.496  1.00  0.00     0.229 C 
HETATM    5  N3  UNL     1      -2.724  -1.250   1.709  1.00  0.00    -0.264 NA
HETATM    6  C9  UNL     1      -2.967  -1.118   0.302  1.00  0.00     0.191 C 
HETATM    7  C10 UNL     1      -4.291  -0.408   0.183  1.00  0.00     0.024 C 
HETATM    8  C11 UNL     1      -4.771   0.469  -0.652  1.00  0.00    -0.007 C 
HETATM    9  C12 UNL     1      -4.071   0.804  -1.673  1.00  0.00     0.031 C 
HETATM   10 CL1  UNL     1      -4.973   2.085  -2.460  1.00  0.00    -0.087 Cl
HETATM   11  C13 UNL     1      -2.775   0.211  -2.073  1.00  0.00     0.124 C 
HETATM   12  S1  UNL     1      -1.820  -0.195  -0.575  1.00  0.00    -0.152 SA
HETATM   13  C14 UNL     1      -1.259   1.326   0.292  1.00  0.00     0.088 C 
HETATM   14  N4  UNL     1      -0.499  -1.279  -0.910  1.00  0.00    -0.188 NA
HETATM   15  H16 UNL     1      -0.219  -1.271  -1.884  1.00  0.00     0.159 HD
ENDROOT
BRANCH   1  16
HETATM   16  C6  UNL     1       1.682  -0.414  -0.262  1.00  0.00     0.053 A 
HETATM   17  C5  UNL     1       2.001   0.059  -1.513  1.00  0.00     0.031 A 
HETATM   18  C4  UNL     1       3.136   0.779  -1.820  1.00  0.00     0.003 A 
HETATM   19  C3  UNL     1       4.035   1.061  -0.819  1.00  0.00     0.007 A 
HETATM   20  C2  UNL     1       3.743   0.598   0.455  1.00  0.00    -0.060 A 
HETATM   21  C1  UNL     1       4.744   0.930   1.491  1.00  0.00     0.048 C 
HETATM   22  C15 UNL     1       2.597  -0.118   0.718  1.00  0.00     0.038 A 
ENDBRANCH   1  16
TORSDOF 1
