REMARK  5 active torsions:
REMARK  status: ('A' for Active; 'I' for Inactive)
REMARK    1  A    between atoms: N1_2  and  C2_3 
REMARK    2  A    between atoms: C7_8  and  C8_9 
REMARK    3  A    between atoms: C8_9  and  C9_10 
REMARK    4  A    between atoms: C16_18  and  N2_19 
REMARK    5  A    between atoms: N2_19  and  S1_20 
ROOT
HETATM    1  C9  UNL     1      -1.208   0.280   0.400  1.00  0.00     0.003 C 
HETATM    2  C10 UNL     1       0.093   0.159   0.120  1.00  0.00     0.001 C 
HETATM    3  C11 UNL     1       0.667  -1.239  -0.067  1.00  0.00     0.061 C 
HETATM    4  C12 UNL     1       1.678  -1.509   0.957  1.00  0.00     0.052 C 
HETATM    5  C13 UNL     1       2.555  -2.650   0.989  1.00  0.00    -0.014 C 
HETATM    6 BR1  UNL     1       2.607  -4.509   1.342  1.00  0.00    -0.056 Br
HETATM    7  C14 UNL     1       3.764  -2.111   0.621  1.00  0.00    -0.001 C 
HETATM    8  C15 UNL     1       4.588  -0.932   0.185  1.00  0.00     0.068 C 
HETATM    9  C16 UNL     1       4.301   0.368  -0.146  1.00  0.00     0.003 C 
HETATM   10  C17 UNL     1       3.006   0.967  -0.511  1.00  0.00     0.073 C 
HETATM   11  C18 UNL     1       2.180   1.690   0.465  1.00  0.00     0.125 C 
HETATM   12  N3  UNL     1       0.735   1.476   0.051  1.00  0.00    -0.393 N 
HETATM   13  H22 UNL     1       0.162   2.267  -0.303  1.00  0.00     0.159 HD
ENDROOT
BRANCH   1  14
HETATM   14  C8  UNL     1      -2.370  -0.605   0.604  1.00  0.00     0.069 C 
BRANCH  14  15
HETATM   15  C7  UNL     1      -3.411  -0.250  -0.415  1.00  0.00    -0.034 A 
HETATM   16  C2  UNL     1      -4.185   0.901  -0.225  1.00  0.00     0.007 A 
HETATM   17  C3  UNL     1      -5.155   1.274  -1.131  1.00  0.00     0.023 A 
HETATM   18  C4  UNL     1      -5.400   0.528  -2.261  1.00  0.00     0.002 A 
HETATM   19  C5  UNL     1      -4.632  -0.621  -2.455  1.00  0.00     0.001 A 
HETATM   20  C6  UNL     1      -3.648  -1.006  -1.543  1.00  0.00     0.009 A 
BRANCH  16  21
HETATM   21  N1  UNL     1      -3.986   1.726   0.925  1.00  0.00    -0.309 NA
HETATM   22  C1  UNL     1      -4.609   1.363   2.001  1.00  0.00     0.260 C 
ENDBRANCH  16  21
ENDBRANCH  14  15
ENDBRANCH   1  14
BRANCH   9  23
HETATM   23  N2  UNL     1       5.500   1.047  -0.447  1.00  0.00    -0.339 N 
HETATM   24  H16 UNL     1       5.573   1.990   0.018  1.00  0.00     0.173 HD
BRANCH  23  25
HETATM   25  S1  UNL     1       7.039   0.973  -1.340  1.00  0.00    -0.069 SA
HETATM   26  H17 UNL     1       8.133   1.005  -0.472  1.00  0.00     0.126 HD
ENDBRANCH  23  25
ENDBRANCH   9  23
TORSDOF 5
