REMARK  6 active torsions:
REMARK  status: ('A' for Active; 'I' for Inactive)
REMARK    1  A    between atoms: C2_2  and  C3_3 
REMARK    2  A    between atoms: N1_7  and  C7_8 
REMARK    3  A    between atoms: C7_8  and  N2_9 
REMARK    4  A    between atoms: N2_9  and  C9_11 
REMARK    5  A    between atoms: C11_13  and  C12_14 
REMARK    6  A    between atoms: C12_14  and  C13_15 
ROOT
HETATM    1  C12 UNL     1       0.140   0.860   1.008  1.00  0.00     0.109 C 
ENDROOT
BRANCH   1   2
HETATM    2  C11 UNL     1      -0.862  -0.142   0.526  1.00  0.00     0.127 C 
HETATM    3  N1  UNL     1      -2.082   0.428   0.000  1.00  0.00    -0.342 N 
HETATM    4  C6  UNL     1      -2.900   0.024  -1.093  1.00  0.00     0.126 C 
HETATM    5  C5  UNL     1      -3.202  -1.458  -1.111  1.00  0.00     0.022 C 
HETATM    6  C4  UNL     1      -3.219  -2.118   0.218  1.00  0.00     0.028 C 
HETATM    7  C3  UNL     1      -2.173  -3.202   0.372  1.00  0.00     0.101 C 
HETATM    8  N5  UNL     1      -0.833  -2.649   0.418  1.00  0.00    -0.308 N 
HETATM    9  N4  UNL     1      -0.372  -1.354   0.690  1.00  0.00    -0.165 NA
HETATM   10  H33 UNL     1      -0.105  -3.351   0.211  1.00  0.00     0.182 HD
BRANCH   3  11
HETATM   11  C7  UNL     1      -2.381   1.580   0.823  1.00  0.00     0.398 C 
BRANCH  11  12
HETATM   12  N2  UNL     1      -2.221   2.859   0.226  1.00  0.00     0.101 NA
HETATM   13  C8  UNL     1      -2.543   3.827   1.298  1.00  0.00     0.312 C 
BRANCH  12  14
HETATM   14  C9  UNL     1      -3.103   3.199  -0.843  1.00  0.00     0.269 C 
HETATM   15  C10 UNL     1      -2.731   4.634  -1.269  1.00  0.00     0.037 C 
ENDBRANCH  12  14
ENDBRANCH  11  12
ENDBRANCH   3  11
BRANCH   7  16
HETATM   16  C2  UNL     1      -2.307  -4.286  -0.666  1.00  0.00     0.022 C 
HETATM   17  C1  UNL     1      -3.658  -4.964  -0.584  1.00  0.00     0.007 C 
ENDBRANCH   7  16
ENDBRANCH   1   2
BRANCH   1  18
HETATM   18  C13 UNL     1       1.303   0.202   1.627  1.00  0.00     0.013 C 
HETATM   19  C14 UNL     1       2.587   0.198   1.398  1.00  0.00     0.068 C 
HETATM   20  N3  UNL     1       3.107   0.970   0.329  1.00  0.00    -0.352 N 
HETATM   21  C23 UNL     1       3.272  -0.679   2.373  1.00  0.00     0.141 C 
HETATM   22  C15 UNL     1       4.261   0.850  -0.490  1.00  0.00     0.068 A 
HETATM   23  H26 UNL     1       2.472   1.777   0.157  1.00  0.00     0.166 HD
HETATM   24  C16 UNL     1       3.990   1.747  -1.502  1.00  0.00     0.032 A 
HETATM   25  C20 UNL     1       5.410   0.094  -0.416  1.00  0.00     0.117 A 
HETATM   26  C17 UNL     1       4.930   1.893  -2.501  1.00  0.00     0.004 A 
HETATM   27  C18 UNL     1       6.115   1.159  -2.490  1.00  0.00     0.027 A 
HETATM   28  C19 UNL     1       6.299   0.295  -1.449  1.00  0.00     0.069 A 
HETATM   29 CL1  UNL     1       7.790  -0.649  -1.407  1.00  0.00    -0.081 Cl
HETATM   30  O1  UNL     1       5.882  -0.832   0.465  1.00  0.00    -0.343 OA
HETATM   31  C21 UNL     1       5.428  -1.840   1.317  1.00  0.00     0.206 C 
HETATM   32  C22 UNL     1       4.376  -1.440   2.263  1.00  0.00     0.044 C 
HETATM   33  F1  UNL     1       2.658  -0.716   3.603  1.00  0.00    -0.204 F 
ENDBRANCH   1  18
TORSDOF 6
