REMARK  5 active torsions:
REMARK  status: ('A' for Active; 'I' for Inactive)
REMARK    1  A    between atoms: C1_2  and  C2_3 
REMARK    2  A    between atoms: C2_3  and  C3_4 
REMARK    3  A    between atoms: C3_4  and  C4_5 
REMARK    4  A    between atoms: C7_8  and  N1_9 
REMARK    5  A    between atoms: N1_9  and  C8_10 
ROOT
HETATM    1  N1  UNL     1       0.462  -1.581  -0.153  1.00  0.00    -0.320 N 
HETATM    2  H6  UNL     1       0.416  -2.638  -0.177  1.00  0.00     0.169 HD
ENDROOT
BRANCH   1   3
HETATM    3  C7  UNL     1      -0.788  -0.917  -0.214  1.00  0.00     0.035 A 
HETATM    4  C6  UNL     1      -1.972  -1.636  -0.299  1.00  0.00     0.030 A 
HETATM    5  C5  UNL     1      -3.207  -1.032  -0.360  1.00  0.00     0.009 A 
HETATM    6  C4  UNL     1      -3.338   0.337  -0.341  1.00  0.00    -0.054 A 
HETATM    7  C16 UNL     1      -2.189   1.082  -0.258  1.00  0.00     0.009 A 
HETATM    8  C15 UNL     1      -0.968   0.447  -0.198  1.00  0.00     0.030 A 
BRANCH   6   9
HETATM    9  C3  UNL     1      -4.670   0.962  -0.407  1.00  0.00     0.070 C 
BRANCH   9  10
HETATM   10  C2  UNL     1      -5.263   1.175   0.937  1.00  0.00     0.037 C 
BRANCH  10  11
HETATM   11  C1  UNL     1      -6.288   0.470   1.369  1.00  0.00     0.217 C 
HETATM   12  O1  UNL     1      -7.411  -0.052   1.570  1.00  0.00    -0.284 OA
ENDBRANCH  10  11
ENDBRANCH   9  10
ENDBRANCH   6   9
ENDBRANCH   1   3
BRANCH   1  13
HETATM   13  C8  UNL     1       1.734  -0.958  -0.066  1.00  0.00     0.252 A 
HETATM   14  N2  UNL     1       2.071   0.338  -0.020  1.00  0.00    -0.206 NA
HETATM   15  C9  UNL     1       3.392   0.465   0.061  1.00  0.00     0.096 A 
HETATM   16  C10 UNL     1       4.307   1.498   0.136  1.00  0.00     0.035 A 
HETATM   17  C14 UNL     1       3.873  -0.825   0.064  1.00  0.00     0.129 A 
HETATM   18  C11 UNL     1       5.655   1.225   0.210  1.00  0.00     0.004 A 
HETATM   19  C12 UNL     1       6.121  -0.072   0.212  1.00  0.00     0.027 A 
HETATM   20  C13 UNL     1       5.224  -1.121   0.138  1.00  0.00     0.070 A 
HETATM   21 CL1  UNL     1       5.816  -2.768   0.141  1.00  0.00    -0.081 Cl
HETATM   22  O2  UNL     1       2.864  -1.621  -0.012  1.00  0.00    -0.274 OA
ENDBRANCH   1  13
TORSDOF 5
