REMARK  5 active torsions:
REMARK  status: ('A' for Active; 'I' for Inactive)
REMARK    1  A    between atoms: C2_2  and  C3_3 
REMARK    2  A    between atoms: C4_4  and  C5_5 
REMARK    3  A    between atoms: N2_7  and  C6_8 
REMARK    4  A    between atoms: C9_11  and  N3_12 
REMARK    5  A    between atoms: C19_25  and  N7_26 
ROOT
HETATM    1  C5  UNL     1       4.270   0.102   0.451  1.00  0.00     0.095 A 
HETATM    2  N1  UNL     1       3.033   0.631   0.462  1.00  0.00    -0.170 NA
HETATM    3  N2  UNL     1       2.132  -0.286   0.160  1.00  0.00    -0.246 N 
HETATM    4  C17 UNL     1       2.768  -1.463  -0.062  1.00  0.00     0.164 A 
HETATM    5  N5  UNL     1       2.427  -2.737  -0.397  1.00  0.00    -0.222 NA
HETATM    6  C18 UNL     1       3.372  -3.694  -0.537  1.00  0.00     0.237 A 
HETATM    7  N6  UNL     1       4.685  -3.447  -0.356  1.00  0.00    -0.224 NA
HETATM    8  C19 UNL     1       5.104  -2.191  -0.018  1.00  0.00     0.139 A 
HETATM    9  C20 UNL     1       4.121  -1.220   0.122  1.00  0.00     0.087 A 
ENDROOT
BRANCH   3  10
HETATM   10  C6  UNL     1       0.686  -0.261   0.031  1.00  0.00     0.112 C 
HETATM   11  C7  UNL     1       0.066  -1.108   1.114  1.00  0.00     0.029 C 
HETATM   12  C8  UNL     1      -1.351  -1.549   0.718  1.00  0.00     0.027 C 
HETATM   13  C9  UNL     1      -1.975  -0.454  -0.093  1.00  0.00     0.079 C 
HETATM   14  C15 UNL     1      -1.257  -0.383  -1.424  1.00  0.00     0.027 C 
HETATM   15  C16 UNL     1       0.209  -0.803  -1.272  1.00  0.00     0.029 C 
BRANCH  13  16
HETATM   16  N3  UNL     1      -3.354  -0.616  -0.340  1.00  0.00    -0.405 N 
HETATM   17  C10 UNL     1      -4.214  -0.763   0.780  1.00  0.00     0.147 C 
HETATM   18  C11 UNL     1      -5.561  -0.143   0.693  1.00  0.00     0.291 C 
HETATM   19  N4  UNL     1      -5.677   1.011  -0.136  1.00  0.00     0.087 N 
HETATM   20  C12 UNL     1      -6.031   2.226   0.536  1.00  0.00     0.310 C 
HETATM   21  C13 UNL     1      -4.638   1.227  -1.079  1.00  0.00     0.291 C 
HETATM   22  C14 UNL     1      -3.906  -0.030  -1.482  1.00  0.00     0.147 C 
ENDBRANCH  13  16
ENDBRANCH   3  10
BRANCH   1  23
HETATM   23  C4  UNL     1       5.473   0.872   0.747  1.00  0.00     0.034 C 
HETATM   24  C3  UNL     1       5.324   2.153   1.039  1.00  0.00    -0.002 C 
BRANCH  24  25
HETATM   25  C2  UNL     1       4.021   2.807   1.074  1.00  0.00    -0.026 C 
HETATM   26  C1  UNL     1       3.770   4.096   1.359  1.00  0.00     0.031 C 
ENDBRANCH  24  25
ENDBRANCH   1  23
BRANCH   8  27
HETATM   27  N7  UNL     1       6.473  -1.868   0.187  1.00  0.00    -0.383 N 
HETATM   28  H28 UNL     1       6.806  -1.478  -0.735  1.00  0.00     0.157 HD
HETATM   29  H29 UNL     1       6.958  -2.024   1.101  1.00  0.00     0.157 HD
ENDBRANCH   8  27
TORSDOF 5
