REMARK  2 active torsions:
REMARK  status: ('A' for Active; 'I' for Inactive)
REMARK    1  A    between atoms: N2_6  and  C5_7 
REMARK    2  A    between atoms: C7_10  and  C8_11 
ROOT
HETATM    1  N1  UNL     1       7.819   0.665  -0.072  1.00  0.00    -0.191 NA
HETATM    2  C1  UNL     1       6.666   0.565  -0.059  1.00  0.00     0.099 C 
HETATM    3  C2  UNL     1       5.238   0.446  -0.068  1.00  0.00     0.043 A 
HETATM    4  C3  UNL     1       4.573  -0.313  -0.925  1.00  0.00     0.016 A 
HETATM    5  C4  UNL     1       3.112  -0.540  -1.061  1.00  0.00     0.158 A 
HETATM    6  N2  UNL     1       2.451   0.251  -0.040  1.00  0.00    -0.337 N 
HETATM    7  C15 UNL     1       3.064   1.098   0.927  1.00  0.00     0.094 A 
HETATM    8  C16 UNL     1       4.386   1.160   0.878  1.00  0.00     0.039 A 
ENDROOT
BRANCH   6   9
HETATM    9  C5  UNL     1       1.021   0.160  -0.015  1.00  0.00     0.147 A 
HETATM   10  C6  UNL     1       0.359  -0.640  -0.922  1.00  0.00     0.168 A 
HETATM   11  N3  UNL     1      -0.981  -0.755  -0.934  1.00  0.00    -0.255 NA
HETATM   12  C7  UNL     1      -1.740  -0.071  -0.033  1.00  0.00     0.087 A 
HETATM   13  C14 UNL     1      -1.068   0.727   0.870  1.00  0.00     0.151 A 
HETATM   14  N4  UNL     1       0.274   0.820   0.855  1.00  0.00    -0.239 NA
BRANCH  12  15
HETATM   15  C8  UNL     1      -3.196  -0.171  -0.017  1.00  0.00     0.033 A 
HETATM   16  C9  UNL     1      -4.040   0.467   0.836  1.00  0.00     0.017 A 
HETATM   17  C10 UNL     1      -5.412   0.320   0.788  1.00  0.00     0.001 A 
HETATM   18  C11 UNL     1      -5.931  -0.521  -0.182  1.00  0.00     0.003 A 
HETATM   19  C12 UNL     1      -5.134  -1.207  -1.087  1.00  0.00     0.043 A 
HETATM   20  C13 UNL     1      -3.789  -1.002  -0.967  1.00  0.00     0.129 A 
HETATM   21  F1  UNL     1      -3.006  -1.679  -1.861  1.00  0.00    -0.205 F 
ENDBRANCH  12  15
ENDBRANCH   6   9
TORSDOF 2
