REMARK  4 active torsions:
REMARK  status: ('A' for Active; 'I' for Inactive)
REMARK    1  A    between atoms: C20_25  and  O2_26 
REMARK    2  A    between atoms: O2_26  and  C21_27 
REMARK    3  A    between atoms: C21_27  and  C22_28 
REMARK    4  A    between atoms: C22_28  and  O3_29 
ROOT
HETATM    1  C1  UNL     1      -1.459   0.617   3.457  1.00  0.00     0.031 C 
HETATM    2  C2  UNL     1      -1.219   0.955   1.906  1.00  0.00     0.118 C 
HETATM    3  C3  UNL     1      -0.266  -0.051   1.557  1.00  0.00    -0.090 C 
HETATM    4  C4  UNL     1       0.446  -0.791   1.313  1.00  0.00    -0.066 C 
HETATM    5  C5  UNL     1       1.384  -1.754   1.015  1.00  0.00     0.019 A 
HETATM    6  C6  UNL     1       0.337  -2.301   0.189  1.00  0.00     0.021 A 
HETATM    7  C7  UNL     1       0.655  -3.571  -0.582  1.00  0.00     0.004 A 
HETATM    8  C8  UNL     1       1.947  -4.154  -0.459  1.00  0.00     0.029 A 
HETATM    9  C9  UNL     1       2.899  -3.551   0.362  1.00  0.00     0.034 A 
HETATM   10  C10 UNL     1       2.214  -2.567   0.780  1.00  0.00     0.050 A 
HETATM   11  N1  UNL     1       4.181  -4.084   0.426  1.00  0.00    -0.351 N 
HETATM   12  C11 UNL     1       4.839  -2.928  -0.051  1.00  0.00     0.208 C 
HETATM   13  N2  UNL     1       5.555  -1.880  -0.387  1.00  0.00    -0.238 NA
HETATM   14  C12 UNL     1       4.943  -1.131  -1.484  1.00  0.00     0.228 C 
HETATM   15  N3  UNL     1       4.985   0.129  -1.763  1.00  0.00    -0.279 NA
HETATM   16  C13 UNL     1       4.265   0.667  -2.931  1.00  0.00     0.177 C 
HETATM   17  C14 UNL     1       3.349   1.705  -2.281  1.00  0.00    -0.007 C 
HETATM   18  C15 UNL     1       2.043   1.843  -2.158  1.00  0.00    -0.003 C 
HETATM   19  C16 UNL     1       0.550   1.865  -2.101  1.00  0.00     0.194 C 
HETATM   20  O1  UNL     1       0.082   2.985  -2.728  1.00  0.00    -0.387 OA
HETATM   21  C17 UNL     1      -1.244   3.283  -2.552  1.00  0.00     0.178 C 
HETATM   22  C18 UNL     1      -1.625   3.792  -1.210  1.00  0.00     0.105 C 
HETATM   23  S1  UNL     1      -1.505   2.806   0.227  1.00  0.00    -0.137 SA
HETATM   24  C19 UNL     1      -2.769   1.602   0.424  1.00  0.00     0.078 C 
HETATM   25  C20 UNL     1      -2.580   0.611   1.343  1.00  0.00     0.068 C 
HETATM   26  H9  UNL     1       4.324  -5.018   0.738  1.00  0.00     0.166 HD
ENDROOT
BRANCH  25  27
HETATM   27  O2  UNL     1      -3.582  -0.400   1.554  1.00  0.00    -0.351 OA
BRANCH  27  28
HETATM   28  C21 UNL     1      -4.941   0.057   1.425  1.00  0.00     0.201 C 
BRANCH  28  29
HETATM   29  C22 UNL     1      -5.703  -0.302   2.669  1.00  0.00     0.190 C 
BRANCH  29  30
HETATM   30  O3  UNL     1      -5.166   0.256   3.818  1.00  0.00    -0.399 OA
HETATM   31  H27 UNL     1      -5.933   0.634   4.340  1.00  0.00     0.209 HD
ENDBRANCH  29  30
ENDBRANCH  28  29
ENDBRANCH  27  28
ENDBRANCH  25  27
TORSDOF 4
