REMARK  3 active torsions:
REMARK  status: ('A' for Active; 'I' for Inactive)
REMARK    1  A    between atoms: C5_9  and  N3_10 
REMARK    2  A    between atoms: N3_10  and  C6_11 
REMARK    3  A    between atoms: C6_11  and  C7_12 
ROOT
HETATM    1 BR1  UNL     1       4.690  -0.697   3.277  1.00  0.00    -0.052 Br
HETATM    2  C1  UNL     1       4.749  -0.564   1.377  1.00  0.00     0.026 C 
HETATM    3  C2  UNL     1       3.612  -0.253   0.777  1.00  0.00     0.100 C 
HETATM    4  O1  UNL     1       2.598  -0.086   1.680  1.00  0.00    -0.288 OA
HETATM    5  C3  UNL     1       1.278   0.300   1.376  1.00  0.00     0.202 A 
HETATM    6  N1  UNL     1       0.632   0.609   2.521  1.00  0.00    -0.215 NA
HETATM    7  C4  UNL     1      -0.665   1.003   2.374  1.00  0.00     0.238 A 
HETATM    8  N2  UNL     1      -1.270   1.083   1.178  1.00  0.00    -0.222 NA
HETATM    9  C5  UNL     1      -0.670   0.788   0.025  1.00  0.00     0.156 A 
HETATM   10  C13 UNL     1       0.646   0.383   0.129  1.00  0.00     0.128 A 
HETATM   11  N4  UNL     1       1.198   0.078  -1.149  1.00  0.00    -0.379 N 
HETATM   12  C14 UNL     1       2.554   0.309  -1.619  1.00  0.00     0.162 C 
HETATM   13  C15 UNL     1       3.584  -0.134  -0.674  1.00  0.00     0.005 C 
HETATM   14  C16 UNL     1       4.700  -0.493  -1.273  1.00  0.00    -0.018 C 
HETATM   15  C17 UNL     1       5.831  -0.065  -0.738  1.00  0.00    -0.009 C 
HETATM   16  C18 UNL     1       5.988  -0.790   0.562  1.00  0.00     0.077 C 
HETATM   17  H10 UNL     1       0.426  -0.370  -1.729  1.00  0.00     0.160 HD
ENDROOT
BRANCH   9  18
HETATM   18  N3  UNL     1      -1.364   0.917  -1.204  1.00  0.00    -0.369 N 
HETATM   19  H2  UNL     1      -1.026   0.758  -2.165  1.00  0.00     0.161 HD
BRANCH  18  20
HETATM   20  C6  UNL     1      -2.746   1.332  -1.300  1.00  0.00     0.160 C 
BRANCH  20  21
HETATM   21  C7  UNL     1      -3.704   0.401  -0.658  1.00  0.00    -0.041 A 
HETATM   22  C8  UNL     1      -4.282   0.392   0.594  1.00  0.00     0.009 A 
HETATM   23  C9  UNL     1      -5.136  -0.598   0.971  1.00  0.00     0.001 A 
HETATM   24  C10 UNL     1      -5.484  -1.649   0.147  1.00  0.00     0.000 A 
HETATM   25  C11 UNL     1      -4.922  -1.660  -1.102  1.00  0.00     0.001 A 
HETATM   26  C12 UNL     1      -4.055  -0.653  -1.481  1.00  0.00     0.009 A 
ENDBRANCH  20  21
ENDBRANCH  18  20
ENDBRANCH   9  18
TORSDOF 3
