REMARK  2 active torsions:
REMARK  status: ('A' for Active; 'I' for Inactive)
REMARK    1  A    between atoms: C2_2  and  C3_4 
REMARK    2  A    between atoms: C8_10  and  C10_12 
ROOT
HETATM    1  C3  UNL     1       3.250   0.578   0.953  1.00  0.00     0.040 C 
HETATM    2  C4  UNL     1       3.848   1.759   0.703  1.00  0.00     0.007 C 
HETATM    3  C5  UNL     1       2.696   2.575   0.243  1.00  0.00     0.025 C 
HETATM    4  C6  UNL     1       2.524   3.818  -0.178  1.00  0.00     0.025 C 
HETATM    5  C7  UNL     1       1.071   3.885  -0.448  1.00  0.00     0.175 C 
HETATM    6  O1  UNL     1       0.384   2.698  -0.175  1.00  0.00    -0.374 OA
HETATM    7  C8  UNL     1      -0.966   2.818  -0.506  1.00  0.00     0.100 C 
HETATM    8  C9  UNL     1      -1.211   3.057  -1.961  1.00  0.00     0.052 C 
HETATM    9  C12 UNL     1      -1.701   1.598  -0.024  1.00  0.00     0.315 C 
HETATM   10  N1  UNL     1      -1.115   0.418  -0.589  1.00  0.00     0.120 N 
HETATM   11  C13 UNL     1      -1.801  -0.798  -0.332  1.00  0.00     0.400 C 
HETATM   12  O2  UNL     1      -2.060  -0.876   1.092  1.00  0.00    -0.286 OA
HETATM   13  C14 UNL     1      -2.942  -1.853   1.604  1.00  0.00     0.227 C 
HETATM   14  F2  UNL     1      -3.393  -0.769   2.249  1.00  0.00    -0.178 F 
HETATM   15  C15 UNL     1      -3.541  -3.047   1.823  1.00  0.00     0.069 C 
HETATM   16  C16 UNL     1      -3.297  -4.380   1.300  1.00  0.00     0.006 C 
HETATM   17  C17 UNL     1      -2.589  -5.209   0.524  1.00  0.00     0.011 C 
HETATM   18  C18 UNL     1      -1.571  -4.381  -0.080  1.00  0.00    -0.035 A 
HETATM   19  C19 UNL     1      -0.299  -4.788  -0.490  1.00  0.00     0.014 A 
HETATM   20  C20 UNL     1       0.608  -3.843  -0.918  1.00  0.00     0.033 A 
HETATM   21  C21 UNL     1       0.347  -2.504  -0.970  1.00  0.00     0.068 A 
HETATM   22  C22 UNL     1      -0.840  -1.923  -0.611  1.00  0.00     0.030 A 
HETATM   23  C23 UNL     1      -1.513  -3.034  -0.253  1.00  0.00     0.025 A 
HETATM   24  N2  UNL     1       1.048  -1.339  -1.312  1.00  0.00    -0.243 NA
HETATM   25  C24 UNL     1       1.526  -0.595  -0.337  1.00  0.00     0.208 C 
HETATM   26  N3  UNL     1       1.953   0.058   0.828  1.00  0.00    -0.352 N 
HETATM   27  H18 UNL     1      -0.898   0.524  -1.590  1.00  0.00     0.319 HD
HETATM   28  H27 UNL     1       1.063  -0.051   1.322  1.00  0.00     0.166 HD
ENDROOT
BRANCH   1  29
HETATM   29  C2  UNL     1       3.804  -0.702   1.448  1.00  0.00     0.215 C 
HETATM   30  C1  UNL     1       3.620  -1.876   0.553  1.00  0.00     0.051 C 
HETATM   31  F1  UNL     1       3.363  -1.016   2.726  1.00  0.00    -0.243 F 
ENDBRANCH   1  29
BRANCH   7  32
HETATM   32  C10 UNL     1      -1.581   3.967   0.268  1.00  0.00     0.002 C 
HETATM   33  C11 UNL     1      -1.663   4.953   1.153  1.00  0.00     0.010 C 
ENDBRANCH   7  32
TORSDOF 2
