REMARK  3 active torsions:
REMARK  status: ('A' for Active; 'I' for Inactive)
REMARK    1  A    between atoms: O1_1  and  C1_2 
REMARK    2  A    between atoms: C10_13  and  O2_14 
REMARK    3  A    between atoms: O2_14  and  C11_15 
ROOT
HETATM    1  C1  UNL     1      -0.973  -1.900  -0.371  1.00  0.00     0.176 C 
HETATM    2  C2  UNL     1      -1.624  -2.497   0.826  1.00  0.00     0.024 C 
HETATM    3  C3  UNL     1      -2.461  -1.900   1.691  1.00  0.00     0.087 C 
HETATM    4  N1  UNL     1      -2.894  -0.533   1.619  1.00  0.00    -0.366 N 
HETATM    5  C4  UNL     1      -2.386   0.485   0.739  1.00  0.00     0.041 A 
HETATM    6  C5  UNL     1      -3.260   1.570   0.721  1.00  0.00     0.032 A 
HETATM    7  C6  UNL     1      -2.967   2.669  -0.064  1.00  0.00     0.026 A 
HETATM    8  C7  UNL     1      -1.801   2.666  -0.821  1.00  0.00     0.034 A 
HETATM    9 CL1  UNL     1      -1.387   4.052  -1.840  1.00  0.00    -0.084 Cl
HETATM   10  C8  UNL     1      -0.930   1.597  -0.810  1.00  0.00     0.036 A 
HETATM   11  C9  UNL     1      -1.228   0.499  -0.023  1.00  0.00     0.002 A 
HETATM   12  C10 UNL     1      -0.234  -0.628  -0.061  1.00  0.00     0.196 C 
HETATM   13  H5  UNL     1      -3.654  -0.261   2.277  1.00  0.00     0.165 HD
ENDROOT
BRANCH  12  14
HETATM   14  O2  UNL     1       0.837  -0.356  -0.896  1.00  0.00    -0.338 OA
BRANCH  14  15
HETATM   15  C11 UNL     1       2.153  -0.207  -0.554  1.00  0.00     0.069 A 
HETATM   16  C12 UNL     1       2.981   0.063  -1.643  1.00  0.00     0.037 A 
HETATM   17  C13 UNL     1       4.344   0.241  -1.462  1.00  0.00     0.003 A 
HETATM   18  C14 UNL     1       4.911   0.154  -0.197  1.00  0.00     0.000 A 
HETATM   19  C15 UNL     1       4.096  -0.111   0.871  1.00  0.00     0.003 A 
HETATM   20  C16 UNL     1       2.754  -0.285   0.684  1.00  0.00     0.037 A 
ENDBRANCH  14  15
ENDBRANCH  12  14
BRANCH   1  21
HETATM   21  O1  UNL     1      -1.851  -1.794  -1.440  1.00  0.00    -0.389 OA
HETATM   22  H1  UNL     1      -2.476  -1.053  -1.382  1.00  0.00     0.210 HD
ENDBRANCH   1  21
TORSDOF 3
