REMARK  3 active torsions:
REMARK  status: ('A' for Active; 'I' for Inactive)
REMARK    1  A    between atoms: C3_3  and  C4_4 
REMARK    2  A    between atoms: C4_4  and  C5_5 
REMARK    3  A    between atoms: C5_5  and  C6_6 
ROOT
HETATM    1  C6  UNL     1       4.580  -0.622  -0.503  1.00  0.00    -0.015 C 
HETATM    2  C7  UNL     1       5.587  -0.705  -1.354  1.00  0.00     0.213 C 
HETATM    3 CL1  UNL     1       6.878  -0.900  -2.499  1.00  0.00    -0.230 Cl
ENDROOT
BRANCH   1   4
HETATM    4  C5  UNL     1       4.224   0.470   0.445  1.00  0.00     0.032 C 
BRANCH   4   5
HETATM    5  C4  UNL     1       2.884   1.061   0.203  1.00  0.00     0.039 C 
BRANCH   5   6
HETATM    6  C3  UNL     1       1.688   0.255   0.293  1.00  0.00    -0.065 A 
HETATM    7  C2  UNL     1       1.512  -1.003   0.655  1.00  0.00    -0.057 A 
HETATM    8  C1  UNL     1       2.492  -2.001   1.091  1.00  0.00     0.048 C 
HETATM    9  C17 UNL     1       0.104  -1.467   0.599  1.00  0.00     0.036 A 
HETATM   10  C16 UNL     1      -0.968  -0.789   0.241  1.00  0.00     0.036 A 
HETATM   11  C10 UNL     1      -0.727   0.585  -0.157  1.00  0.00    -0.022 A 
HETATM   12  N3  UNL     1      -2.240  -1.425   0.258  1.00  0.00    -0.365 N 
HETATM   13  C8  UNL     1       0.608   1.192  -0.132  1.00  0.00     0.046 A 
HETATM   14  C11 UNL     1      -1.524   1.534  -0.598  1.00  0.00     0.029 C 
HETATM   15  C9  UNL     1       0.584   2.411   0.802  1.00  0.00     0.020 C 
HETATM   16  C12 UNL     1      -2.926   1.738  -0.897  1.00  0.00     0.111 C 
HETATM   17  N1  UNL     1      -3.487   0.674  -0.640  1.00  0.00    -0.300 NA
HETATM   18  C13 UNL     1      -4.839   0.235  -0.719  1.00  0.00     0.178 C 
HETATM   19  C14 UNL     1      -4.861  -1.225  -0.260  1.00  0.00     0.293 C 
HETATM   20  N2  UNL     1      -4.486  -1.371   1.124  1.00  0.00     0.102 N 
HETATM   21  C15 UNL     1      -3.109  -0.953   1.312  1.00  0.00     0.392 C 
HETATM   22  H20 UNL     1      -5.072  -0.818   1.763  1.00  0.00     0.318 HD
HETATM   23  H23 UNL     1      -2.118  -2.067  -0.549  1.00  0.00     0.161 HD
ENDBRANCH   5   6
ENDBRANCH   4   5
ENDBRANCH   1   4
TORSDOF 3
