REMARK  1 active torsions:
REMARK  status: ('A' for Active; 'I' for Inactive)
REMARK       I    between atoms: C2_2  and  N1_4 
REMARK    1  A    between atoms: C10_15  and  C11_16 
ROOT
HETATM    1  C1  UNL     1      -2.603  -4.251   0.889  1.00  0.00     0.118 C 
HETATM    2  C2  UNL     1      -1.515  -3.342   0.476  1.00  0.00     0.223 C 
HETATM    3  O1  UNL     1      -0.486  -4.016   0.174  1.00  0.00    -0.273 OA
HETATM    4  N1  UNL     1      -1.611  -1.924   0.427  1.00  0.00    -0.303 N 
HETATM    5  C3  UNL     1      -2.791  -1.215   0.777  1.00  0.00     0.100 A 
HETATM    6  C4  UNL     1      -2.841   0.107   0.718  1.00  0.00     0.031 A 
HETATM    7  C5  UNL     1      -1.663   0.833   0.285  1.00  0.00    -0.005 A 
HETATM    8  C6  UNL     1      -1.885   2.157   0.283  1.00  0.00     0.102 C 
HETATM    9  N2  UNL     1      -0.914   3.150  -0.097  1.00  0.00    -0.344 N 
HETATM   10  C7  UNL     1      -0.894   4.470   0.552  1.00  0.00     0.274 A 
HETATM   11  N3  UNL     1       0.244   5.067  -0.032  1.00  0.00    -0.282 NA
HETATM   12  C8  UNL     1       0.809   4.319  -0.921  1.00  0.00     0.133 A 
HETATM   13  C9  UNL     1       0.119   3.017  -1.106  1.00  0.00     0.250 A 
HETATM   14  N4  UNL     1       0.994   1.910  -0.933  1.00  0.00    -0.257 NA
HETATM   15  C10 UNL     1       0.773   0.710  -0.516  1.00  0.00     0.078 C 
HETATM   16  C17 UNL     1      -0.457   0.064  -0.071  1.00  0.00     0.021 A 
HETATM   17  C18 UNL     1      -0.433  -1.256  -0.003  1.00  0.00     0.114 A 
ENDROOT
BRANCH  15  18
HETATM   18  C11 UNL     1       1.935  -0.196  -0.462  1.00  0.00     0.015 A 
HETATM   19  C12 UNL     1       2.376  -0.745  -1.649  1.00  0.00     0.015 A 
HETATM   20  C13 UNL     1       3.471  -1.608  -1.653  1.00  0.00     0.001 A 
HETATM   21  C14 UNL     1       4.113  -1.916  -0.480  1.00  0.00     0.002 A 
HETATM   22  C15 UNL     1       3.656  -1.356   0.701  1.00  0.00     0.025 A 
HETATM   23  C16 UNL     1       2.576  -0.499   0.732  1.00  0.00     0.046 A 
HETATM   24 CL1  UNL     1       1.993   0.216   2.240  1.00  0.00    -0.083 Cl
ENDBRANCH  15  18
TORSDOF 1
