REMARK  2 active torsions:
REMARK  status: ('A' for Active; 'I' for Inactive)
REMARK    1  A    between atoms: C11_11  and  N1_12 
REMARK    2  A    between atoms: C14_17  and  N4_18 
ROOT
HETATM    1  C1  UNL     1       2.425   1.720   0.512  1.00  0.00     0.019 C 
HETATM    2  C2  UNL     1       2.414   0.518  -0.382  1.00  0.00     0.040 C 
HETATM    3  C3  UNL     1       3.031  -0.337   0.792  1.00  0.00    -0.017 C 
HETATM    4  C4  UNL     1       2.504  -1.440   1.367  1.00  0.00     0.009 C 
HETATM    5  C5  UNL     1       1.366  -1.558   0.594  1.00  0.00    -0.025 C 
HETATM    6  C6  UNL     1       1.447  -0.516  -0.396  1.00  0.00    -0.014 C 
HETATM    7  C7  UNL     1       0.492  -0.339  -1.602  1.00  0.00     0.041 C 
HETATM    8  C8  UNL     1       0.009  -1.058  -2.664  1.00  0.00     0.032 C 
HETATM    9  C9  UNL     1      -1.300  -1.770  -2.250  1.00  0.00     0.036 C 
HETATM   10  C10 UNL     1      -1.517  -1.518  -0.932  1.00  0.00     0.086 C 
HETATM   11  C11 UNL     1      -1.254  -1.987   0.505  1.00  0.00     0.055 C 
HETATM   12  C12 UNL     1       0.058  -2.383   0.921  1.00  0.00     0.043 C 
HETATM   13  N2  UNL     1      -2.107  -0.277  -0.342  1.00  0.00    -0.213 N 
HETATM   14  N3  UNL     1      -3.098  -0.150   0.418  1.00  0.00    -0.175 NA
HETATM   15  C13 UNL     1      -3.008   1.217   0.729  1.00  0.00     0.172 A 
HETATM   16  C14 UNL     1      -1.946   2.000   0.168  1.00  0.00     0.091 A 
HETATM   17  C15 UNL     1      -1.384   1.010  -0.508  1.00  0.00     0.158 A 
HETATM   18  N5  UNL     1       0.071   0.998  -1.046  1.00  0.00    -0.339 N 
HETATM   19  H15 UNL     1       0.835   1.572  -1.012  1.00  0.00     0.167 HD
ENDROOT
BRANCH  11  20
HETATM   20  N1  UNL     1      -2.381  -1.801   1.327  1.00  0.00    -0.397 N 
HETATM   21  H9  UNL     1      -3.195  -2.370   0.902  1.00  0.00     0.156 HD
HETATM   22  H10 UNL     1      -2.085  -1.157   2.143  1.00  0.00     0.156 HD
ENDBRANCH  11  20
BRANCH  16  23
HETATM   23  N4  UNL     1      -1.261   3.182   0.012  1.00  0.00    -0.395 N 
HETATM   24  H13 UNL     1      -0.474   3.368   0.703  1.00  0.00     0.156 HD
HETATM   25  H14 UNL     1      -1.633   3.746  -0.800  1.00  0.00     0.156 HD
ENDBRANCH  16  23
TORSDOF 2
