REMARK  2 active torsions:
REMARK  status: ('A' for Active; 'I' for Inactive)
REMARK       I    between atoms: C8_10  and  N2_11 
REMARK    1  A    between atoms: N2_11  and  C9_12 
REMARK    2  A    between atoms: C9_12  and  C10_13 
ROOT
HETATM    1 BR1  UNL     1       5.506   0.921  -2.673  1.00  0.00    -0.051 Br
HETATM    2  C1  UNL     1       4.450   0.352  -1.200  1.00  0.00     0.011 A 
HETATM    3  C2  UNL     1       4.694  -0.928  -0.712  1.00  0.00     0.022 A 
HETATM    4  C3  UNL     1       3.912  -1.313   0.357  1.00  0.00     0.039 A 
HETATM    5  C4  UNL     1       2.938  -0.565   0.968  1.00  0.00     0.085 A 
HETATM    6  C5  UNL     1       2.692   0.694   0.495  1.00  0.00     0.005 A 
HETATM    7  C6  UNL     1       3.467   1.119  -0.589  1.00  0.00     0.030 A 
HETATM    8  C7  UNL     1       1.752   1.771   0.887  1.00  0.00     0.316 C 
HETATM    9  N1  UNL     1       0.781   1.965  -0.162  1.00  0.00     0.142 N 
HETATM   10  C8  UNL     1      -0.144   0.839  -0.301  1.00  0.00     0.577 C 
HETATM   11  N2  UNL     1      -0.931   1.086  -1.467  1.00  0.00     0.142 N 
HETATM   12  N3  UNL     1       0.524  -0.431  -0.396  1.00  0.00    -0.220 NA
HETATM   13  C16 UNL     1       0.578  -1.256   0.610  1.00  0.00     0.233 C 
HETATM   14  N4  UNL     1       1.025  -2.497   1.102  1.00  0.00    -0.230 NA
HETATM   15  C17 UNL     1       2.023  -2.509   1.953  1.00  0.00     0.260 C 
HETATM   16  O1  UNL     1       2.262  -1.141   2.034  1.00  0.00    -0.303 OA
HETATM   17  H6  UNL     1       1.190   2.242  -1.056  1.00  0.00     0.321 HD
HETATM   18  H8  UNL     1      -1.227   2.063  -1.527  1.00  0.00     0.321 HD
ENDROOT
BRANCH  11  19
HETATM   19  C9  UNL     1      -1.943   0.140  -1.776  1.00  0.00     0.313 C 
BRANCH  19  20
HETATM   20  C10 UNL     1      -3.015  -0.009  -0.794  1.00  0.00    -0.030 A 
HETATM   21  C11 UNL     1      -4.117   0.821  -0.901  1.00  0.00     0.009 A 
HETATM   22  C12 UNL     1      -5.193   0.772  -0.038  1.00  0.00     0.001 A 
HETATM   23  C13 UNL     1      -5.208  -0.136   0.997  1.00  0.00     0.000 A 
HETATM   24  C14 UNL     1      -4.119  -0.988   1.140  1.00  0.00     0.001 A 
HETATM   25  C15 UNL     1      -3.092  -0.877   0.242  1.00  0.00     0.009 A 
ENDBRANCH  19  20
ENDBRANCH  11  19
TORSDOF 2
