REMARK  8 active torsions:
REMARK  status: ('A' for Active; 'I' for Inactive)
REMARK       I    between atoms: C2_2  and  N1_4 
REMARK    1  A    between atoms: N1_4  and  C3_5 
REMARK    2  A    between atoms: C3_5  and  C4_6 
REMARK    3  A    between atoms: C4_6  and  C5_7 
REMARK    4  A    between atoms: C5_7  and  C6_8 
REMARK    5  A    between atoms: C6_8  and  C7_9 
REMARK    6  A    between atoms: C7_9  and  C8_10 
REMARK    7  A    between atoms: N2_17  and  C14_18 
REMARK    8  A    between atoms: C14_18  and  C15_19 
ROOT
HETATM    1  C6  UNL     1      -0.687  -0.468   0.345  1.00  0.00     0.033 C 
HETATM    2  N2  UNL     1      -1.563  -1.307   0.662  1.00  0.00    -0.291 NA
ENDROOT
BRANCH   1   3
HETATM    3  C5  UNL     1       0.728  -0.677   0.472  1.00  0.00     0.024 C 
BRANCH   3   4
HETATM    4  C4  UNL     1       1.883  -1.214   0.718  1.00  0.00    -0.005 C 
BRANCH   4   5
HETATM    5  C3  UNL     1       3.387  -1.096   0.724  1.00  0.00     0.149 C 
BRANCH   5   6
HETATM    6  N1  UNL     1       3.736   0.236   0.271  1.00  0.00    -0.358 N 
HETATM    7  C2  UNL     1       5.150   0.532   0.210  1.00  0.00     0.213 C 
HETATM    8  C1  UNL     1       5.673   1.877  -0.227  1.00  0.00     0.117 C 
HETATM    9  O1  UNL     1       5.945  -0.367   0.536  1.00  0.00    -0.274 OA
HETATM   10  H4  UNL     1       3.170   1.088  -0.031  1.00  0.00     0.162 HD
ENDBRANCH   5   6
ENDBRANCH   4   5
ENDBRANCH   3   4
ENDBRANCH   1   3
BRANCH   1  11
HETATM   11  C7  UNL     1      -1.019   0.833  -0.229  1.00  0.00     0.099 C 
BRANCH  11  12
HETATM   12  C8  UNL     1      -2.402   1.215  -0.303  1.00  0.00    -0.031 A 
HETATM   13  C9  UNL     1      -3.531   0.736   0.318  1.00  0.00     0.009 A 
HETATM   14  C10 UNL     1      -4.810   1.213   0.167  1.00  0.00     0.001 A 
HETATM   15  C11 UNL     1      -4.921   2.275  -0.703  1.00  0.00     0.002 A 
HETATM   16  C12 UNL     1      -3.870   2.847  -1.385  1.00  0.00     0.024 A 
HETATM   17  C13 UNL     1      -2.626   2.299  -1.168  1.00  0.00     0.040 A 
HETATM   18 CL1  UNL     1      -1.325   3.083  -2.081  1.00  0.00    -0.084 Cl
ENDBRANCH  11  12
ENDBRANCH   1  11
BRANCH   2  19
HETATM   19  C14 UNL     1      -1.444  -2.605   1.193  1.00  0.00     0.180 C 
BRANCH  19  20
HETATM   20  C15 UNL     1      -1.605  -3.705   0.157  1.00  0.00     0.244 C 
HETATM   21  F1  UNL     1      -1.470  -4.904   0.824  1.00  0.00    -0.254 F 
ENDBRANCH  19  20
ENDBRANCH   2  19
TORSDOF 8
