REMARK  2 active torsions:
REMARK  status: ('A' for Active; 'I' for Inactive)
REMARK    1  A    between atoms: N1_1  and  C1_2 
REMARK    2  A    between atoms: C13_16  and  C14_17 
ROOT
HETATM    1  C1  UNL     1      -2.494  -1.036   0.516  1.00  0.00     0.038 A 
HETATM    2  C2  UNL     1      -2.006  -2.313   0.705  1.00  0.00     0.032 A 
HETATM    3  C3  UNL     1      -0.678  -2.624   0.535  1.00  0.00     0.033 A 
HETATM    4  C4  UNL     1       0.190  -1.594   0.159  1.00  0.00     0.045 A 
HETATM    5  C5  UNL     1      -0.243  -0.268  -0.050  1.00  0.00     0.034 A 
HETATM    6  C6  UNL     1      -1.623  -0.054   0.150  1.00  0.00     0.027 A 
HETATM    7  C7  UNL     1      -2.560   1.099   0.080  1.00  0.00     0.047 C 
HETATM    8 CL1  UNL     1      -4.004   1.042   1.018  1.00  0.00    -0.083 Cl
HETATM    9  C8  UNL     1      -2.461   2.245  -0.621  1.00  0.00     0.026 C 
HETATM   10  C9  UNL     1      -1.489   2.855  -1.556  1.00  0.00     0.014 C 
HETATM   11  C10 UNL     1      -0.231   2.791  -1.714  1.00  0.00    -0.024 C 
HETATM   12  C11 UNL     1       0.665   2.144  -1.063  1.00  0.00     0.044 C 
HETATM   13  C12 UNL     1       0.739   0.785  -0.465  1.00  0.00     0.072 C 
HETATM   14  N2  UNL     1       2.026   0.813  -0.428  1.00  0.00    -0.243 NA
HETATM   15  C13 UNL     1       2.921  -0.187   0.036  1.00  0.00     0.121 C 
HETATM   16  C15 UNL     1       2.746  -1.475   0.260  1.00  0.00     0.124 C 
HETATM   17  N5  UNL     1       1.506  -2.192   0.064  1.00  0.00    -0.363 N 
HETATM   18  H10 UNL     1       1.624  -3.204  -0.156  1.00  0.00     0.165 HD
ENDROOT
BRANCH  15  19
HETATM   19  C14 UNL     1       4.274   0.285   0.316  1.00  0.00     0.194 A 
HETATM   20  N3  UNL     1       5.483  -0.033   0.724  1.00  0.00    -0.151 NA
HETATM   21  N4  UNL     1       5.301   1.293   0.391  1.00  0.00    -0.256 N 
HETATM   22  H8  UNL     1       5.423   2.324   0.206  1.00  0.00     0.191 HD
ENDBRANCH  15  19
BRANCH   1  23
HETATM   23  N1  UNL     1      -3.908  -0.994   0.746  1.00  0.00    -0.398 N 
HETATM   24  H1  UNL     1      -4.118  -0.864  -0.311  1.00  0.00     0.156 HD
HETATM   25  H2  UNL     1      -4.083  -1.120   1.811  1.00  0.00     0.156 HD
ENDBRANCH   1  23
TORSDOF 2
