REMARK  8 active torsions:
REMARK  status: ('A' for Active; 'I' for Inactive)
REMARK    1  A    between atoms: C2_2  and  C3_3 
REMARK    2  A    between atoms: C4_4  and  C5_5 
REMARK    3  A    between atoms: C4_4  and  N1_11 
REMARK    4  A    between atoms: C6_6  and  C7_7 
REMARK       I    between atoms: N1_11  and  C8_12 
REMARK       I    between atoms: C8_12  and  N2_14 
REMARK    5  A    between atoms: N2_14  and  C9_15 
REMARK    6  A    between atoms: C10_16  and  C11_17 
REMARK    7  A    between atoms: C12_18  and  O2_19 
REMARK    8  A    between atoms: O2_19  and  C13_20 
ROOT
HETATM    1  N1  UNL     1       3.662   1.113  -0.102  1.00  0.00    -0.309 N 
HETATM    2  C8  UNL     1       2.645   0.303  -0.667  1.00  0.00     0.324 C 
HETATM    3  O1  UNL     1       2.597  -0.946  -0.921  1.00  0.00    -0.247 OA
HETATM    4  N2  UNL     1       1.411   0.889  -1.057  1.00  0.00    -0.319 N 
HETATM    5  H7  UNL     1       3.457   2.119   0.007  1.00  0.00     0.170 HD
HETATM    6  H8  UNL     1       1.192   1.922  -0.954  1.00  0.00     0.170 HD
ENDROOT
BRANCH   4   7
HETATM    7  C9  UNL     1       0.343   0.146  -1.627  1.00  0.00     0.093 C 
HETATM    8  C10 UNL     1      -0.885   0.010  -1.167  1.00  0.00     0.019 C 
BRANCH   8   9
HETATM    9  C11 UNL     1      -1.262   0.670   0.065  1.00  0.00     0.026 C 
HETATM   10  C12 UNL     1      -2.443   0.616   0.627  1.00  0.00     0.144 C 
BRANCH  10  11
HETATM   11  O2  UNL     1      -3.760   0.268   0.806  1.00  0.00    -0.302 OA
BRANCH  11  12
HETATM   12  C13 UNL     1      -4.561  -0.167  -0.215  1.00  0.00     0.200 A 
HETATM   13  N3  UNL     1      -4.290  -0.339  -1.501  1.00  0.00    -0.215 NA
HETATM   14  C14 UNL     1      -5.183  -0.778  -2.403  1.00  0.00     0.236 A 
HETATM   15  N4  UNL     1      -6.451  -1.080  -2.041  1.00  0.00    -0.240 NA
HETATM   16  C15 UNL     1      -6.797  -0.926  -0.729  1.00  0.00     0.090 A 
HETATM   17  C16 UNL     1      -8.010  -1.163  -0.117  1.00  0.00     0.051 A 
HETATM   18  C19 UNL     1      -5.858  -0.468   0.199  1.00  0.00     0.117 A 
HETATM   19  C17 UNL     1      -7.752  -0.830   1.196  1.00  0.00     0.093 A 
HETATM   20  N5  UNL     1      -6.485  -0.420   1.390  1.00  0.00    -0.356 N 
HETATM   21  C18 UNL     1      -5.907  -0.002   2.660  1.00  0.00     0.156 C 
ENDBRANCH  11  12
ENDBRANCH  10  11
ENDBRANCH   8   9
ENDBRANCH   4   7
BRANCH   1  22
HETATM   22  C4  UNL     1       4.930   0.627   0.318  1.00  0.00     0.036 C 
HETATM   23  C3  UNL     1       5.266   0.772   1.589  1.00  0.00     0.025 C 
BRANCH  23  24
HETATM   24  C2  UNL     1       6.534   0.320   2.146  1.00  0.00    -0.024 C 
HETATM   25  C1  UNL     1       6.984   0.406   3.387  1.00  0.00     0.031 C 
ENDBRANCH  23  24
BRANCH  22  26
HETATM   26  C5  UNL     1       5.845  -0.013  -0.610  1.00  0.00     0.034 C 
HETATM   27  C6  UNL     1       5.550  -0.182  -1.905  1.00  0.00     0.091 C 
BRANCH  27  28
HETATM   28  C7  UNL     1       6.449  -0.825  -2.876  1.00  0.00     0.408 C 
HETATM   29  F1  UNL     1       5.993  -2.105  -3.172  1.00  0.00    -0.167 F 
HETATM   30  F2  UNL     1       7.732  -0.932  -2.365  1.00  0.00    -0.167 F 
HETATM   31  F3  UNL     1       6.559  -0.072  -4.035  1.00  0.00    -0.167 F 
ENDBRANCH  27  28
ENDBRANCH  22  26
ENDBRANCH   1  22
TORSDOF 8
