REMARK  9 active torsions:
REMARK  status: ('A' for Active; 'I' for Inactive)
REMARK    1  A    between atoms: C2_2  and  C3_3 
REMARK    2  A    between atoms: C3_3  and  C6_6 
REMARK    3  A    between atoms: C8_8  and  C9_9 
REMARK       I    between atoms: C9_9  and  N1_11 
REMARK    4  A    between atoms: N1_11  and  C10_12 
REMARK    5  A    between atoms: C10_12  and  C11_13 
REMARK    6  A    between atoms: C10_12  and  C23_28 
REMARK    7  A    between atoms: C12_14  and  C13_15 
REMARK    8  A    between atoms: C13_15  and  C14_16 
REMARK    9  A    between atoms: C23_28  and  N3_29 
ROOT
HETATM    1  C10 UNL     1      -0.320   2.351  -1.140  1.00  0.00     0.135 C 
ENDROOT
BRANCH   1   2
HETATM    2  N1  UNL     1       0.909   1.782  -0.684  1.00  0.00    -0.346 N 
HETATM    3  C9  UNL     1       1.734   0.717  -1.112  1.00  0.00     0.273 C 
HETATM    4  O1  UNL     1       1.461   0.021  -2.097  1.00  0.00    -0.266 OA
HETATM    5  H11 UNL     1       1.119   2.385   0.147  1.00  0.00     0.163 HD
BRANCH   3   6
HETATM    6  C8  UNL     1       2.922   0.479  -0.335  1.00  0.00     0.154 A 
HETATM    7  C7  UNL     1       3.824  -0.520  -0.627  1.00  0.00     0.075 A 
HETATM    8  C6  UNL     1       4.821  -0.470   0.295  1.00  0.00     0.093 A 
HETATM    9  O3  UNL     1       4.512   0.522   1.098  1.00  0.00    -0.216 OA
HETATM   10  N4  UNL     1       3.408   1.088   0.748  1.00  0.00    -0.123 NA
BRANCH   8  11
HETATM   11  C3  UNL     1       6.059  -1.276   0.504  1.00  0.00     0.021 C 
HETATM   12  C4  UNL     1       5.905  -2.570  -0.252  1.00  0.00     0.026 C 
HETATM   13  C5  UNL     1       7.258  -0.502   0.006  1.00  0.00     0.026 C 
BRANCH  11  14
HETATM   14  C2  UNL     1       6.196  -1.627   1.963  1.00  0.00    -0.021 C 
HETATM   15  C1  UNL     1       6.672  -2.817   2.289  1.00  0.00     0.008 C 
ENDBRANCH  11  14
ENDBRANCH   8  11
ENDBRANCH   3   6
ENDBRANCH   1   2
BRANCH   1  16
HETATM   16  C11 UNL     1      -1.417   2.303  -0.164  1.00  0.00    -0.004 C 
HETATM   17  C12 UNL     1      -2.685   1.969  -0.093  1.00  0.00    -0.024 C 
BRANCH  17  18
HETATM   18  C13 UNL     1      -3.520   2.065   1.157  1.00  0.00     0.064 C 
BRANCH  18  19
HETATM   19  C14 UNL     1      -4.068   0.758   1.579  1.00  0.00    -0.041 C 
HETATM   20  C15 UNL     1      -4.128  -0.163   2.537  1.00  0.00     0.092 C 
HETATM   21  N2  UNL     1      -4.903  -1.324   2.252  1.00  0.00    -0.367 N 
HETATM   22  C16 UNL     1      -5.349  -1.082   0.932  1.00  0.00     0.039 C 
HETATM   23  H18 UNL     1      -5.038  -2.096   2.926  1.00  0.00     0.165 HD
HETATM   24  C17 UNL     1      -5.904  -1.737  -0.052  1.00  0.00     0.008 A 
HETATM   25  C22 UNL     1      -5.211   0.373   0.779  1.00  0.00     0.133 C 
HETATM   26  C18 UNL     1      -6.377  -3.096  -0.286  1.00  0.00     0.039 A 
HETATM   27  C21 UNL     1      -5.995  -0.999  -1.337  1.00  0.00     0.036 A 
HETATM   28  C19 UNL     1      -6.797  -3.495  -1.472  1.00  0.00     0.142 A 
HETATM   29  O2  UNL     1      -6.834  -2.691  -2.601  1.00  0.00    -0.333 OA
HETATM   30  C20 UNL     1      -6.409  -1.395  -2.496  1.00  0.00     0.160 A 
HETATM   31  S1  UNL     1      -5.194   0.612  -0.990  1.00  0.00    -0.111 SA
ENDBRANCH  18  19
ENDBRANCH  17  18
ENDBRANCH   1  16
BRANCH   1  32
HETATM   32  C23 UNL     1      -0.166   3.768  -1.649  1.00  0.00     0.295 C 
BRANCH  32  33
HETATM   33  N3  UNL     1       0.339   4.668  -0.634  1.00  0.00     0.080 N 
HETATM   34  H25 UNL     1      -0.220   5.547  -0.611  1.00  0.00     0.312 HD
HETATM   35  H26 UNL     1       1.321   4.996  -0.865  1.00  0.00     0.312 HD
ENDBRANCH  32  33
ENDBRANCH   1  32
TORSDOF 9
