REMARK  5 active torsions:
REMARK  status: ('A' for Active; 'I' for Inactive)
REMARK    1  A    between atoms: N1_2  and  C2_3 
REMARK    2  A    between atoms: C2_3  and  N2_4 
REMARK    3  A    between atoms: N2_4  and  C3_5 
REMARK    4  A    between atoms: C3_5  and  C4_6 
REMARK    5  A    between atoms: C13_17  and  C14_18 
ROOT
HETATM    1  C2  UNL     1      -1.261  -0.105  -0.496  1.00  0.00     0.169 C 
HETATM    2  C10 UNL     1      -0.021  -0.474  -0.147  1.00  0.00     0.171 C 
HETATM    3  N3  UNL     1       0.308  -1.857  -0.095  1.00  0.00    -0.215 NA
HETATM    4  C11 UNL     1       1.319  -2.445   0.444  1.00  0.00     0.261 C 
HETATM    5  O1  UNL     1       2.319  -1.728   1.110  1.00  0.00    -0.307 OA
HETATM    6  C12 UNL     1       2.980  -0.542   0.812  1.00  0.00     0.073 C 
HETATM    7  C13 UNL     1       4.289  -0.472   0.996  1.00  0.00     0.053 C 
HETATM    8  C17 UNL     1       2.344   0.676   0.299  1.00  0.00     0.186 C 
HETATM    9  N4  UNL     1       0.909   0.559   0.155  1.00  0.00    -0.365 N 
HETATM   10  H19 UNL     1       0.366   1.468   0.305  1.00  0.00     0.161 HD
ENDROOT
BRANCH   1  11
HETATM   11  N1  UNL     1      -2.209  -1.117  -0.804  1.00  0.00    -0.251 NA
HETATM   12  C1  UNL     1      -1.840  -2.338  -0.957  1.00  0.00     0.151 C 
ENDBRANCH   1  11
BRANCH   1  13
HETATM   13  N2  UNL     1      -1.549   1.272  -0.537  1.00  0.00    -0.367 N 
HETATM   14  H3  UNL     1      -0.949   1.834  -1.210  1.00  0.00     0.161 HD
BRANCH  13  15
HETATM   15  C3  UNL     1      -2.594   1.893   0.283  1.00  0.00     0.160 C 
BRANCH  15  16
HETATM   16  C4  UNL     1      -3.902   1.245  -0.085  1.00  0.00    -0.041 A 
HETATM   17  C5  UNL     1      -4.682   1.771  -1.103  1.00  0.00     0.009 A 
HETATM   18  C6  UNL     1      -5.882   1.287  -1.536  1.00  0.00     0.001 A 
HETATM   19  C7  UNL     1      -6.340   0.169  -0.886  1.00  0.00     0.000 A 
HETATM   20  C8  UNL     1      -5.622  -0.415   0.138  1.00  0.00     0.001 A 
HETATM   21  C9  UNL     1      -4.408   0.116   0.541  1.00  0.00     0.009 A 
ENDBRANCH  15  16
ENDBRANCH  13  15
ENDBRANCH   1  13
BRANCH   7  22
HETATM   22  C14 UNL     1       5.249   0.604   0.783  1.00  0.00     0.009 C 
HETATM   23 BR1  UNL     1       4.844   2.365   0.109  1.00  0.00    -0.051 Br
HETATM   24  C15 UNL     1       6.534   0.431   1.050  1.00  0.00    -0.012 C 
HETATM   25  C16 UNL     1       7.002  -0.881   1.576  1.00  0.00     0.037 C 
ENDBRANCH   7  22
TORSDOF 5
