REMARK  3 active torsions:
REMARK  status: ('A' for Active; 'I' for Inactive)
REMARK    1  A    between atoms: C8_11  and  N2_12 
REMARK    2  A    between atoms: N2_12  and  C9_13 
REMARK    3  A    between atoms: C13_17  and  C14_18 
ROOT
HETATM    1  C1  UNL     1      -5.341  -0.312   1.357  1.00  0.00     0.051 C 
HETATM    2  C2  UNL     1      -4.786   0.062   0.055  1.00  0.00    -0.026 A 
HETATM    3  C3  UNL     1      -3.485   0.239  -0.064  1.00  0.00     0.104 A 
HETATM    4  O1  UNL     1      -2.463   0.133   0.872  1.00  0.00    -0.333 OA
HETATM    5  C4  UNL     1      -1.248  -0.498   1.079  1.00  0.00     0.210 C 
HETATM    6  C5  UNL     1      -1.333  -1.990   1.107  1.00  0.00     0.051 C 
HETATM    7  C6  UNL     1      -0.343  -2.782   1.540  1.00  0.00     0.110 C 
HETATM    8  F1  UNL     1      -0.656  -4.118   1.470  1.00  0.00    -0.209 F 
HETATM    9  C7  UNL     1       1.017  -2.407   2.075  1.00  0.00     0.191 C 
HETATM   10  N1  UNL     1       1.691  -1.460   1.194  1.00  0.00    -0.368 N 
HETATM   11  C8  UNL     1       1.060  -0.620   0.233  1.00  0.00     0.130 C 
HETATM   12  C15 UNL     1      -0.179  -0.167   0.115  1.00  0.00     0.112 C 
HETATM   13  N3  UNL     1      -0.013   0.602  -1.095  1.00  0.00    -0.240 NA
HETATM   14  C16 UNL     1      -0.839   1.016  -2.026  1.00  0.00     0.234 C 
HETATM   15  N4  UNL     1      -2.233   0.915  -2.285  1.00  0.00    -0.239 NA
HETATM   16  C17 UNL     1      -3.211   0.606  -1.471  1.00  0.00     0.092 A 
HETATM   17  C18 UNL     1      -4.501   0.623  -2.158  1.00  0.00     0.035 A 
HETATM   18  C19 UNL     1      -5.400   0.301  -1.241  1.00  0.00     0.012 A 
HETATM   19  H8  UNL     1       2.719  -1.431   1.312  1.00  0.00     0.161 HD
ENDROOT
BRANCH  11  20
HETATM   20  N2  UNL     1       1.947  -0.184  -0.804  1.00  0.00    -0.344 N 
HETATM   21  H9  UNL     1       1.941  -0.726  -1.709  1.00  0.00     0.167 HD
BRANCH  20  22
HETATM   22  C9  UNL     1       2.810   0.933  -0.646  1.00  0.00     0.027 A 
HETATM   23  C10 UNL     1       2.660   2.094  -1.266  1.00  0.00     0.026 A 
HETATM   24  C11 UNL     1       3.712   3.021  -0.884  1.00  0.00    -0.001 A 
HETATM   25  C12 UNL     1       4.479   2.366  -0.022  1.00  0.00    -0.007 A 
HETATM   26  C13 UNL     1       3.998   0.960   0.233  1.00  0.00     0.166 A 
BRANCH  26  27
HETATM   27  C14 UNL     1       5.132   0.078  -0.300  1.00  0.00     0.399 C 
HETATM   28  F2  UNL     1       6.224   0.127   0.544  1.00  0.00    -0.170 F 
HETATM   29  F3  UNL     1       4.752  -1.231  -0.454  1.00  0.00    -0.170 F 
HETATM   30  F4  UNL     1       5.567   0.545  -1.524  1.00  0.00    -0.170 F 
ENDBRANCH  26  27
ENDBRANCH  20  22
ENDBRANCH  11  20
TORSDOF 3
