REMARK  4 active torsions:
REMARK  status: ('A' for Active; 'I' for Inactive)
REMARK       I    between atoms: C2_2  and  N1_4 
REMARK    1  A    between atoms: N1_4  and  C3_5 
REMARK    2  A    between atoms: C10_16  and  C11_17 
REMARK    3  A    between atoms: C11_17  and  C12_18 
REMARK    4  A    between atoms: C13_19  and  C14_20 
ROOT
HETATM    1  C3  UNL     1      -2.594   0.258   0.952  1.00  0.00     0.130 C 
HETATM    2  C4  UNL     1      -1.593  -0.097   1.893  1.00  0.00     0.050 C 
HETATM    3  C5  UNL     1      -0.178  -0.689   1.726  1.00  0.00    -0.005 C 
HETATM    4  C6  UNL     1       0.246  -1.244   0.536  1.00  0.00    -0.112 C 
HETATM    5  B1  UNL     1      -0.829  -1.932  -0.478  1.00  0.00     0.253 B 
HETATM    6  C7  UNL     1      -1.407  -0.455  -1.050  1.00  0.00     0.024 A 
HETATM    7  C8  UNL     1      -0.910   0.152  -2.211  1.00  0.00     0.084 A 
HETATM    8  C9  UNL     1      -1.694   1.358  -2.329  1.00  0.00     0.171 A 
HETATM    9  N2  UNL     1      -2.599   1.455  -1.244  1.00  0.00    -0.177 NA
HETATM   10  N3  UNL     1      -2.358   0.363  -0.530  1.00  0.00    -0.231 N 
HETATM   11  N4  UNL     1       0.411  -0.393  -2.706  1.00  0.00    -0.273 NA
HETATM   12  C10 UNL     1       1.367  -0.605  -1.639  1.00  0.00     0.088 C 
HETATM   13  C16 UNL     1       1.544  -1.006  -0.152  1.00  0.00     0.058 C 
HETATM   14  H7  UNL     1      -1.348  -2.949  -0.568  1.00  0.00    -0.014 HD
ENDROOT
BRANCH  12  15
HETATM   15  C11 UNL     1       2.817  -0.373  -2.035  1.00  0.00     0.063 C 
BRANCH  15  16
HETATM   16  C12 UNL     1       3.406   0.701  -1.159  1.00  0.00    -0.024 C 
HETATM   17  C13 UNL     1       4.453   0.469  -0.383  1.00  0.00    -0.003 C 
BRANCH  17  18
HETATM   18  C14 UNL     1       5.065   1.469   0.485  1.00  0.00     0.011 C 
HETATM   19  C15 UNL     1       6.111   1.177   1.237  1.00  0.00     0.084 C 
HETATM   20 CL1  UNL     1       6.819   2.397   2.265  1.00  0.00    -0.097 Cl
ENDBRANCH  17  18
ENDBRANCH  15  16
ENDBRANCH  12  15
BRANCH   1  21
HETATM   21  N1  UNL     1      -3.815   0.608   1.366  1.00  0.00    -0.312 N 
HETATM   22  C2  UNL     1      -4.914  -0.189   0.919  1.00  0.00     0.219 C 
HETATM   23  C1  UNL     1      -6.299   0.131   1.335  1.00  0.00     0.117 C 
HETATM   24  O1  UNL     1      -4.697  -1.189   0.153  1.00  0.00    -0.274 OA
HETATM   25  H4  UNL     1      -4.060   1.415   1.992  1.00  0.00     0.170 HD
ENDBRANCH   1  21
TORSDOF 4
