REMARK  2 active torsions:
REMARK  status: ('A' for Active; 'I' for Inactive)
REMARK    1  A    between atoms: C2_2  and  N1_3 
REMARK    2  A    between atoms: N1_3  and  C3_4 
ROOT
HETATM    1  C3  UNL     1       2.966   0.342   0.259  1.00  0.00     0.367 C 
HETATM    2  C4  UNL     1       2.302  -0.959  -0.014  1.00  0.00     0.049 C 
HETATM    3  C5  UNL     1       1.193  -1.284   0.691  1.00  0.00     0.042 C 
HETATM    4  C6  UNL     1       0.967  -0.735   2.031  1.00  0.00     0.257 C 
HETATM    5  O1  UNL     1       0.862  -0.475   3.222  1.00  0.00    -0.267 OA
HETATM    6  N2  UNL     1       0.400   0.627   1.862  1.00  0.00    -0.311 N 
HETATM    7  C7  UNL     1       0.920   1.652   0.952  1.00  0.00     0.106 C 
HETATM    8  N3  UNL     1       2.089   1.493   0.348  1.00  0.00    -0.237 NA
HETATM    9  C8  UNL     1       0.187   2.945   0.592  1.00  0.00     0.113 C 
HETATM   10  C9  UNL     1      -0.921   2.619  -0.396  1.00  0.00     0.223 C 
HETATM   11  C10 UNL     1      -1.600   3.945  -0.701  1.00  0.00     0.043 C 
HETATM   12  N4  UNL     1      -1.915   1.759   0.133  1.00  0.00     0.089 N 
HETATM   13  C11 UNL     1      -2.706   1.017  -0.863  1.00  0.00     0.286 C 
HETATM   14  C12 UNL     1      -3.592   0.085  -0.094  1.00  0.00     0.150 C 
HETATM   15  N5  UNL     1      -4.125  -1.050  -0.789  1.00  0.00    -0.193 NA
HETATM   16  C13 UNL     1      -5.079  -1.678   0.156  1.00  0.00     0.144 C 
HETATM   17  O2  UNL     1      -3.244  -1.974  -1.224  1.00  0.00    -0.262 OA
HETATM   18  C14 UNL     1      -1.934  -2.241  -1.006  1.00  0.00     0.096 A 
HETATM   19  C15 UNL     1      -1.412  -3.309  -1.746  1.00  0.00     0.081 A 
HETATM   20  C16 UNL     1      -0.095  -3.726  -1.663  1.00  0.00     0.119 A 
HETATM   21  F1  UNL     1       0.400  -4.781  -2.398  1.00  0.00    -0.206 F 
HETATM   22  C17 UNL     1       0.875  -3.152  -0.850  1.00  0.00     0.054 A 
HETATM   23  C18 UNL     1       0.350  -2.119  -0.142  1.00  0.00    -0.015 A 
HETATM   24  C19 UNL     1      -0.950  -1.697  -0.210  1.00  0.00     0.051 A 
HETATM   25  H9  UNL     1      -0.437   1.156   2.290  1.00  0.00     0.170 HD
HETATM   26  H16 UNL     1      -2.508   2.135   0.873  1.00  0.00     0.316 HD
ENDROOT
BRANCH   1  27
HETATM   27  N1  UNL     1       4.067   0.590  -0.584  1.00  0.00     0.111 N 
HETATM   28  H6  UNL     1       4.472   1.518  -0.373  1.00  0.00     0.319 HD
BRANCH  27  29
HETATM   29  C2  UNL     1       5.071  -0.440  -0.266  1.00  0.00     0.268 C 
HETATM   30  C1  UNL     1       5.557  -0.138   1.137  1.00  0.00     0.037 C 
ENDBRANCH  27  29
ENDBRANCH   1  27
TORSDOF 2
