REMARK  7 active torsions:
REMARK  status: ('A' for Active; 'I' for Inactive)
REMARK    1  A    between atoms: C2_2  and  N1_3 
REMARK    2  A    between atoms: N1_3  and  C4_5 
REMARK    3  A    between atoms: C4_5  and  C5_6 
REMARK    4  A    between atoms: C5_6  and  N2_7 
REMARK    5  A    between atoms: N2_7  and  C6_8 
REMARK    6  A    between atoms: C6_8  and  C8_10 
REMARK    7  A    between atoms: C11_14  and  C12_15 
ROOT
HETATM    1  C8  UNL     1      -0.381  -1.161   0.700  1.00  0.00    -0.016 A 
HETATM    2  C9  UNL     1      -0.067  -2.479   0.415  1.00  0.00    -0.012 A 
HETATM    3  C10 UNL     1      -0.852  -3.740   0.265  1.00  0.00     0.057 C 
HETATM    4  S1  UNL     1       1.754  -2.481   0.220  1.00  0.00    -0.094 SA
HETATM    5  C11 UNL     1       1.922  -0.703   0.542  1.00  0.00     0.013 A 
HETATM    6  C21 UNL     1       0.606  -0.232   0.772  1.00  0.00    -0.035 A 
HETATM    7  C22 UNL     1       0.419   1.208   1.067  1.00  0.00     0.050 C 
ENDROOT
BRANCH   5   8
HETATM    8  C12 UNL     1       3.193  -0.015   0.533  1.00  0.00     0.037 C 
HETATM    9  C13 UNL     1       4.170  -0.159  -0.303  1.00  0.00     0.046 A 
HETATM   10  C14 UNL     1       4.287  -1.017  -1.447  1.00  0.00     0.257 A 
HETATM   11  C20 UNL     1       5.400   0.606  -0.185  1.00  0.00     0.009 A 
HETATM   12  O1  UNL     1       3.476  -1.843  -1.925  1.00  0.00    -0.267 OA
HETATM   13  N3  UNL     1       5.565  -0.772  -2.006  1.00  0.00    -0.322 N 
HETATM   14  C15 UNL     1       6.247   0.228  -1.228  1.00  0.00     0.046 A 
HETATM   15  H22 UNL     1       5.981  -1.228  -2.853  1.00  0.00     0.169 HD
HETATM   16  C16 UNL     1       7.485   0.800  -1.351  1.00  0.00     0.033 A 
HETATM   17  C17 UNL     1       7.941   1.762  -0.462  1.00  0.00     0.044 A 
HETATM   18  C18 UNL     1       7.088   2.117   0.555  1.00  0.00     0.117 A 
HETATM   19  F1  UNL     1       7.606   3.075   1.391  1.00  0.00    -0.206 F 
HETATM   20  C19 UNL     1       5.825   1.571   0.729  1.00  0.00     0.057 A 
ENDBRANCH   5   8
BRANCH   1  21
HETATM   21  C6  UNL     1      -1.839  -0.847   0.916  1.00  0.00     0.107 C 
HETATM   22  C7  UNL     1      -2.164  -0.998   2.381  1.00  0.00     0.037 C 
BRANCH  21  23
HETATM   23  N2  UNL     1      -2.634  -1.652   0.065  1.00  0.00    -0.412 N 
HETATM   24  H13 UNL     1      -2.246  -1.915  -0.845  1.00  0.00     0.153 HD
BRANCH  23  25
HETATM   25  C5  UNL     1      -4.023  -1.472   0.028  1.00  0.00     0.144 C 
BRANCH  25  26
HETATM   26  C4  UNL     1      -4.557  -0.222  -0.576  1.00  0.00     0.291 C 
BRANCH  26  27
HETATM   27  N1  UNL     1      -4.171   1.009   0.023  1.00  0.00     0.085 N 
HETATM   28  C3  UNL     1      -4.729   1.180   1.363  1.00  0.00     0.309 C 
BRANCH  27  29
HETATM   29  C2  UNL     1      -4.798   2.086  -0.763  1.00  0.00     0.267 C 
HETATM   30  C1  UNL     1      -4.357   2.074  -2.192  1.00  0.00     0.037 C 
ENDBRANCH  27  29
ENDBRANCH  26  27
ENDBRANCH  25  26
ENDBRANCH  23  25
ENDBRANCH  21  23
ENDBRANCH   1  21
TORSDOF 7
