REMARK  5 active torsions:
REMARK  status: ('A' for Active; 'I' for Inactive)
REMARK    1  A    between atoms: C2_2  and  P1_3 
REMARK    2  A    between atoms: P1_3  and  C3_4 
REMARK    3  A    between atoms: C3_4  and  C4_5 
REMARK    4  A    between atoms: N2_12  and  C9_13 
REMARK    5  A    between atoms: N3_22  and  C15_23 
ROOT
HETATM    1  C4  UNL     1       2.238  -0.488   1.011  1.00  0.00     0.105 C 
HETATM    2  C5  UNL     1       1.594  -0.587   2.162  1.00  0.00     0.058 C 
HETATM    3  C6  UNL     1       1.554  -0.860   3.580  1.00  0.00    -0.001 C 
HETATM    4  C7  UNL     1       0.343  -0.734   4.169  1.00  0.00     0.089 C 
HETATM    5  N1  UNL     1      -0.517  -0.362   3.150  1.00  0.00    -0.319 N 
HETATM    6  C8  UNL     1      -1.369   0.007   2.140  1.00  0.00     0.332 C 
HETATM    7  O1  UNL     1      -1.845   1.069   2.085  1.00  0.00    -0.246 OA
HETATM    8  N2  UNL     1      -2.012  -0.374   0.955  1.00  0.00    -0.248 N 
HETATM    9  C14 UNL     1      -2.152   0.603  -0.077  1.00  0.00     0.110 C 
HETATM   10  N3  UNL     1      -2.692   1.421  -0.957  1.00  0.00    -0.376 N 
HETATM   11  C17 UNL     1      -0.847   1.024  -0.415  1.00  0.00     0.048 C 
HETATM   12  C18 UNL     1       0.334   0.533   0.189  1.00  0.00     0.200 C 
HETATM   13  O2  UNL     1       1.487  -0.093  -0.171  1.00  0.00    -0.372 OA
HETATM   14  H10 UNL     1      -0.519  -1.324   2.775  1.00  0.00     0.170 HD
HETATM   15  H13 UNL     1      -3.562   1.498  -0.342  1.00  0.00     0.161 HD
ENDROOT
BRANCH   8  16
HETATM   16  C9  UNL     1      -2.418  -1.427   0.158  1.00  0.00     0.069 A 
HETATM   17  C10 UNL     1      -2.992  -1.934  -0.841  1.00  0.00     0.114 A 
HETATM   18 CL1  UNL     1      -3.760  -0.914  -1.948  1.00  0.00    -0.080 Cl
HETATM   19  C11 UNL     1      -2.930  -3.400  -0.925  1.00  0.00     0.302 A 
HETATM   20  F1  UNL     1      -2.230  -3.782  -2.069  1.00  0.00    -0.195 F 
HETATM   21  F2  UNL     1      -4.205  -3.903  -0.927  1.00  0.00    -0.195 F 
HETATM   22  C12 UNL     1      -2.160  -3.770   0.310  1.00  0.00     0.059 A 
HETATM   23  C13 UNL     1      -1.904  -2.621   0.867  1.00  0.00     0.034 A 
ENDBRANCH   8  16
BRANCH  10  24
HETATM   24  C15 UNL     1      -2.538   2.130  -2.204  1.00  0.00     0.116 C 
HETATM   25  C16 UNL     1      -3.827   2.914  -2.406  1.00  0.00     0.026 C 
ENDBRANCH  10  24
BRANCH   1  26
HETATM   26  C3  UNL     1       3.508  -0.600   0.288  1.00  0.00     0.085 C 
BRANCH  26  27
HETATM   27  P1  UNL     1       4.078   0.940  -0.538  1.00  0.00    -0.063 P 
BRANCH  27  28
HETATM   28  C2  UNL     1       5.693   1.115  -0.886  1.00  0.00    -0.019 C 
HETATM   29  C1  UNL     1       6.118   2.394  -1.566  1.00  0.00     0.037 C 
ENDBRANCH  27  28
ENDBRANCH  26  27
ENDBRANCH   1  26
TORSDOF 5
