REMARK  6 active torsions:
REMARK  status: ('A' for Active; 'I' for Inactive)
REMARK    1  A    between atoms: C2_2  and  N1_3 
REMARK    2  A    between atoms: N1_3  and  C3_4 
REMARK    3  A    between atoms: N1_3  and  C5_6 
REMARK    4  A    between atoms: C5_6  and  C6_7 
REMARK    5  A    between atoms: C6_7  and  N2_8 
REMARK       I    between atoms: N2_8  and  C7_9 
REMARK    6  A    between atoms: C7_9  and  C8_11 
ROOT
HETATM    1  C8  UNL     1       0.740  -0.066  -0.793  1.00  0.00     0.047 C 
HETATM    2  C9  UNL     1       0.628   1.214  -1.059  1.00  0.00     0.074 C 
HETATM    3  N3  UNL     1      -0.170   2.380  -1.041  1.00  0.00    -0.292 NA
HETATM    4  C10 UNL     1       0.638   2.558   0.201  1.00  0.00     0.194 C 
HETATM    5  C11 UNL     1       2.010   2.669  -0.356  1.00  0.00     0.235 C 
HETATM    6  O2  UNL     1       2.904   2.823  -1.213  1.00  0.00    -0.272 OA
HETATM    7  N4  UNL     1       3.142   2.512   0.317  1.00  0.00    -0.326 N 
HETATM    8  C12 UNL     1       4.477   2.416   0.656  1.00  0.00     0.031 C 
HETATM    9  C13 UNL     1       4.656   1.520  -0.400  1.00  0.00     0.008 C 
HETATM   10  C14 UNL     1       5.127   0.120  -0.018  1.00  0.00     0.017 C 
HETATM   11  C15 UNL     1       6.600   0.277   0.080  1.00  0.00     0.036 C 
HETATM   12  C16 UNL     1       6.825   1.704   0.583  1.00  0.00    -0.024 C 
HETATM   13  C17 UNL     1       5.810   2.421   1.122  1.00  0.00     0.025 C 
HETATM   14  C18 UNL     1       4.586  -0.913  -0.968  1.00  0.00     0.036 C 
HETATM   15  C19 UNL     1       3.106  -0.890  -0.843  1.00  0.00    -0.018 C 
HETATM   16  C20 UNL     1       1.817  -1.012  -0.703  1.00  0.00    -0.049 C 
HETATM   17  C21 UNL     1       1.563  -2.423  -0.502  1.00  0.00     0.049 C 
HETATM   18  H17 UNL     1      -0.617   2.075  -1.925  1.00  0.00     0.127 HD
HETATM   19  H20 UNL     1       3.060   2.339   1.372  1.00  0.00     0.169 HD
ENDROOT
BRANCH   1  20
HETATM   20  C7  UNL     1      -0.563  -0.267  -0.295  1.00  0.00     0.253 C 
HETATM   21  N2  UNL     1      -1.289  -1.327   0.231  1.00  0.00    -0.355 N 
HETATM   22  H15 UNL     1      -0.865  -2.296   0.364  1.00  0.00     0.162 HD
HETATM   23  O1  UNL     1      -1.526   0.536  -0.175  1.00  0.00    -0.268 OA
BRANCH  21  24
HETATM   24  C6  UNL     1      -2.657  -1.222   0.653  1.00  0.00     0.142 C 
BRANCH  24  25
HETATM   25  C5  UNL     1      -3.661  -0.880  -0.404  1.00  0.00     0.136 C 
BRANCH  25  26
HETATM   26  N1  UNL     1      -4.985  -0.790   0.118  1.00  0.00    -0.412 N 
BRANCH  26  27
HETATM   27  C2  UNL     1      -5.297   0.254   0.991  1.00  0.00     0.112 C 
HETATM   28  C1  UNL     1      -6.319   1.192   0.369  1.00  0.00     0.026 C 
ENDBRANCH  26  27
BRANCH  26  29
HETATM   29  C3  UNL     1      -5.918  -1.772  -0.207  1.00  0.00     0.112 C 
HETATM   30  C4  UNL     1      -6.296  -2.711   0.913  1.00  0.00     0.026 C 
ENDBRANCH  26  29
ENDBRANCH  25  26
ENDBRANCH  24  25
ENDBRANCH  21  24
ENDBRANCH   1  20
TORSDOF 6
