REMARK  2 active torsions:
REMARK  status: ('A' for Active; 'I' for Inactive)
REMARK    1  A    between atoms: C12_14  and  C13_15 
REMARK    2  A    between atoms: C21_28  and  N4_29 
ROOT
HETATM    1  C1  UNL     1       1.992  -1.978   0.623  1.00  0.00     0.022 C 
HETATM    2  C2  UNL     1       1.406  -0.581   0.952  1.00  0.00     0.074 C 
HETATM    3  C3  UNL     1       0.441  -0.204  -0.105  1.00  0.00     0.081 C 
HETATM    4  C4  UNL     1       0.385   0.388  -1.335  1.00  0.00     0.060 C 
HETATM    5  C5  UNL     1       1.763   0.635  -1.427  1.00  0.00     0.043 C 
HETATM    6  C6  UNL     1       1.935   1.929  -0.999  1.00  0.00     0.283 A 
HETATM    7  N1  UNL     1       3.428   2.102  -1.095  1.00  0.00     0.112 N 
HETATM    8  C7  UNL     1       3.820   1.823   0.320  1.00  0.00     0.233 A 
HETATM    9  O1  UNL     1       2.852   1.905  -0.398  1.00  0.00     0.000 OA
HETATM   10  C8  UNL     1       4.242   1.525   1.829  1.00  0.00    -0.026 A 
HETATM   11  C9  UNL     1       4.984   0.718   0.930  1.00  0.00     0.087 A 
HETATM   12  C10 UNL     1       3.720   0.025   0.740  1.00  0.00    -0.006 A 
HETATM   13  C11 UNL     1       2.467   0.304   1.350  1.00  0.00    -0.036 A 
HETATM   14  C12 UNL     1       2.313   1.361   2.273  1.00  0.00     0.054 A 
HETATM   15  C14 UNL     1       3.377   2.210   2.659  1.00  0.00     0.023 A 
HETATM   16  N2  UNL     1      -0.419   0.787  -2.408  1.00  0.00    -0.364 N 
HETATM   17  C15 UNL     1      -1.776   0.480  -2.660  1.00  0.00     0.085 C 
HETATM   18  C16 UNL     1      -2.735  -0.175  -2.033  1.00  0.00     0.010 C 
HETATM   19  C17 UNL     1      -2.895  -0.918  -0.767  1.00  0.00     0.064 A 
HETATM   20  C18 UNL     1      -2.611  -2.389  -0.938  1.00  0.00     0.052 A 
HETATM   21  C19 UNL     1      -3.834  -3.233  -0.729  1.00  0.00    -0.006 A 
HETATM   22  C20 UNL     1      -5.116  -2.983  -0.425  1.00  0.00     0.114 A 
HETATM   23  N3  UNL     1      -5.376  -1.572  -0.264  1.00  0.00    -0.247 NA
HETATM   24  C21 UNL     1      -4.364  -0.784  -0.431  1.00  0.00     0.112 A 
HETATM   25  C22 UNL     1      -2.159  -0.327   0.387  1.00  0.00     0.197 C 
HETATM   26  O2  UNL     1      -0.785  -0.652   0.453  1.00  0.00    -0.351 OA
HETATM   27  H7  UNL     1       4.294   2.334  -1.713  1.00  0.00     0.318 HD
HETATM   28  H11 UNL     1       0.191   1.372  -3.013  1.00  0.00     0.165 HD
ENDROOT
BRANCH  24  29
HETATM   29  N4  UNL     1      -4.732   0.579  -0.248  1.00  0.00    -0.386 N 
HETATM   30  H18 UNL     1      -5.187   1.070  -1.058  1.00  0.00     0.157 HD
HETATM   31  H19 UNL     1      -4.938   1.558   0.044  1.00  0.00     0.157 HD
ENDBRANCH  24  29
BRANCH  14  32
HETATM   32  C13 UNL     1       0.992   1.621   2.893  1.00  0.00     0.418 C 
HETATM   33  F1  UNL     1       0.112   1.884   1.845  1.00  0.00    -0.166 F 
HETATM   34  F2  UNL     1       1.053   2.709   3.752  1.00  0.00    -0.166 F 
HETATM   35  F3  UNL     1       0.532   0.575   3.666  1.00  0.00    -0.166 F 
ENDBRANCH  14  32
TORSDOF 2
