REMARK  1 active torsions:
REMARK  status: ('A' for Active; 'I' for Inactive)
REMARK    1  A    between atoms: C1_2  and  C2_5 
ROOT
HETATM    1  C2  UNL     1      -3.997  -0.203   1.090  1.00  0.00     0.070 C 
HETATM    2  C3  UNL     1      -3.328  -0.369  -0.039  1.00  0.00     0.024 C 
HETATM    3  C4  UNL     1      -2.440   0.680  -0.637  1.00  0.00     0.180 C 
HETATM    4  N1  UNL     1      -1.883   0.322  -1.883  1.00  0.00    -0.322 N 
HETATM    5  N2  UNL     1      -1.175  -0.853  -1.969  1.00  0.00    -0.315 N 
HETATM    6  C5  UNL     1       0.149  -1.242  -1.525  1.00  0.00     0.114 C 
HETATM    7  C6  UNL     1       1.064  -0.692  -0.693  1.00  0.00    -0.026 C 
HETATM    8  C7  UNL     1       2.109  -1.698  -0.789  1.00  0.00     0.067 C 
HETATM    9  C8  UNL     1       3.501  -1.273  -0.500  1.00  0.00     0.179 C 
HETATM   10  O1  UNL     1       4.026  -0.273  -1.308  1.00  0.00    -0.363 OA
HETATM   11  C9  UNL     1       5.299   0.218  -1.333  1.00  0.00     0.137 C 
HETATM   12  C10 UNL     1       5.526   1.328  -0.689  1.00  0.00     0.055 C 
HETATM   13  C11 UNL     1       4.347   1.873  -0.033  1.00  0.00     0.183 C 
HETATM   14  N3  UNL     1       3.195   1.689   0.155  1.00  0.00    -0.430 NA
HETATM   15  C12 UNL     1       1.921   1.420   0.321  1.00  0.00     0.193 C 
HETATM   16  C13 UNL     1       0.969   0.554   0.057  1.00  0.00     0.003 C 
HETATM   17  C14 UNL     1      -0.196   1.189   0.721  1.00  0.00     0.049 C 
HETATM   18  C15 UNL     1      -1.506   1.192   0.385  1.00  0.00     0.081 C 
HETATM   19  O2  UNL     1      -1.904   1.981   1.487  1.00  0.00    -0.323 OA
HETATM   20  C16 UNL     1      -3.131   1.852   2.166  1.00  0.00     0.166 C 
HETATM   21  C17 UNL     1      -4.096   0.923   2.044  1.00  0.00     0.071 C 
HETATM   22 CL1  UNL     1      -5.524   1.039   3.046  1.00  0.00    -0.081 Cl
HETATM   23  H3  UNL     1      -1.686   1.056  -2.554  1.00  0.00     0.181 HD
HETATM   24  H4  UNL     1      -1.704  -1.620  -2.457  1.00  0.00     0.185 HD
ENDROOT
BRANCH   1  25
HETATM   25  C1  UNL     1      -4.833  -1.377   1.518  1.00  0.00     0.418 C 
HETATM   26  F1  UNL     1      -6.160  -0.940   1.585  1.00  0.00    -0.166 F 
HETATM   27  F2  UNL     1      -4.818  -2.358   0.547  1.00  0.00    -0.166 F 
HETATM   28  F3  UNL     1      -4.505  -1.831   2.762  1.00  0.00    -0.166 F 
ENDBRANCH   1  25
TORSDOF 1
