REMARK  8 active torsions:
REMARK  status: ('A' for Active; 'I' for Inactive)
REMARK    1  A    between atoms: C2_2  and  N1_3 
REMARK    2  A    between atoms: C2_2  and  C19_25 
REMARK    3  A    between atoms: N1_3  and  C3_4 
REMARK    4  A    between atoms: C3_4  and  C4_5 
REMARK    5  A    between atoms: C3_4  and  C17_23 
REMARK    6  A    between atoms: C4_5  and  C5_6 
REMARK    7  A    between atoms: C14_17  and  N4_18 
REMARK    8  A    between atoms: C23_29  and  C24_30 
ROOT
HETATM    1  C5  UNL     1      -0.529   2.048  -0.165  1.00  0.00    -0.018 C 
HETATM    2  C6  UNL     1      -0.611   3.326   0.512  1.00  0.00     0.125 C 
HETATM    3  N2  UNL     1      -1.264   4.265   1.096  1.00  0.00    -0.273 NA
HETATM    4  C7  UNL     1      -2.641   4.163   1.243  1.00  0.00     0.116 C 
HETATM    5  C8  UNL     1      -3.963   3.898   1.378  1.00  0.00     0.022 C 
HETATM    6  C9  UNL     1      -3.928   2.463   1.318  1.00  0.00     0.040 C 
HETATM    7  C10 UNL     1      -3.786   1.169   1.252  1.00  0.00     0.098 C 
HETATM    8  C11 UNL     1      -4.822   0.173   1.332  1.00  0.00     0.110 A 
HETATM    9  C12 UNL     1      -6.137   0.451   1.512  1.00  0.00     0.055 A 
HETATM   10  C13 UNL     1      -6.923  -0.673   1.545  1.00  0.00     0.139 A 
HETATM   11  N3  UNL     1      -6.468  -1.947   1.415  1.00  0.00    -0.075 NA
HETATM   12  C14 UNL     1      -5.142  -2.143   1.238  1.00  0.00     0.722 A 
HETATM   13  N5  UNL     1      -4.307  -1.072   1.196  1.00  0.00    -0.060 NA
HETATM   14  O1  UNL     1      -2.502   1.615   1.129  1.00  0.00    -0.344 OA
HETATM   15  C16 UNL     1      -1.925   1.703  -0.169  1.00  0.00     0.215 C 
ENDROOT
BRANCH   1  16
HETATM   16  C4  UNL     1       0.691   1.907  -0.389  1.00  0.00     0.009 C 
BRANCH  16  17
HETATM   17  C3  UNL     1       2.104   1.913  -0.559  1.00  0.00     0.104 C 
BRANCH  17  18
HETATM   18  N1  UNL     1       2.771   0.770   0.086  1.00  0.00    -0.385 N 
HETATM   19  H3  UNL     1       3.496   0.885   0.858  1.00  0.00     0.160 HD
BRANCH  18  20
HETATM   20  C2  UNL     1       2.713  -0.643  -0.034  1.00  0.00     0.016 C 
HETATM   21  C1  UNL     1       1.457  -1.008   0.174  1.00  0.00     0.063 C 
BRANCH  20  22
HETATM   22  C19 UNL     1       3.886  -1.444  -0.356  1.00  0.00    -0.013 A 
HETATM   23  C20 UNL     1       3.841  -2.812  -0.503  1.00  0.00     0.013 A 
HETATM   24  C21 UNL     1       5.018  -3.452  -0.819  1.00  0.00     0.002 A 
HETATM   25  C22 UNL     1       6.213  -2.811  -0.992  1.00  0.00     0.016 A 
HETATM   26  C23 UNL     1       6.205  -1.445  -0.833  1.00  0.00     0.048 A 
HETATM   27  C25 UNL     1       5.065  -0.776  -0.522  1.00  0.00     0.029 A 
BRANCH  26  28
HETATM   28  C24 UNL     1       7.492  -0.750  -1.012  1.00  0.00     0.417 C 
HETATM   29  F1  UNL     1       7.457   0.391  -0.235  1.00  0.00    -0.166 F 
HETATM   30  F2  UNL     1       8.532  -1.534  -0.579  1.00  0.00    -0.166 F 
HETATM   31  F3  UNL     1       7.603  -0.407  -2.338  1.00  0.00    -0.166 F 
ENDBRANCH  26  28
ENDBRANCH  20  22
ENDBRANCH  18  20
ENDBRANCH  17  18
BRANCH  17  32
HETATM   32  C17 UNL     1       2.579   1.926  -2.000  1.00  0.00     0.024 C 
HETATM   33  C18 UNL     1       2.254   0.690  -2.772  1.00  0.00     0.007 C 
ENDBRANCH  17  32
ENDBRANCH  16  17
ENDBRANCH   1  16
BRANCH  12  34
HETATM   34  N4  UNL     1      -4.661  -3.473   1.097  1.00  0.00    -0.227 N 
HETATM   35  C15 UNL     1      -5.600  -4.574   1.151  1.00  0.00     0.165 C 
HETATM   36  H12 UNL     1      -3.620  -3.651   0.956  1.00  0.00     0.177 HD
ENDBRANCH  12  34
TORSDOF 8
