REMARK  3 active torsions:
REMARK  status: ('A' for Active; 'I' for Inactive)
REMARK    1  A    between atoms: C8_11  and  C9_12 
REMARK    2  A    between atoms: C17_22  and  C18_24 
REMARK    3  A    between atoms: C18_24  and  C19_25 
ROOT
HETATM    1  C9  UNL     1       0.757   0.187   0.387  1.00  0.00     0.155 C 
HETATM    2  N3  UNL     1       1.281  -1.107   0.587  1.00  0.00    -0.392 N 
HETATM    3  C10 UNL     1       1.291  -2.266  -0.056  1.00  0.00     0.168 C 
HETATM    4  C11 UNL     1       1.708  -3.407   0.921  1.00  0.00     0.055 C 
HETATM    5  N4  UNL     1       2.450  -2.297  -0.991  1.00  0.00    -0.392 N 
HETATM    6  C12 UNL     1       2.324  -1.132  -1.795  1.00  0.00     0.127 C 
HETATM    7  C13 UNL     1       2.694   0.103  -2.107  1.00  0.00     0.001 C 
HETATM    8  C14 UNL     1       3.406   1.417  -2.095  1.00  0.00     0.010 C 
HETATM    9  C15 UNL     1       3.759   1.731  -0.873  1.00  0.00    -0.028 C 
HETATM   10  C16 UNL     1       3.101   1.105   0.068  1.00  0.00     0.013 C 
HETATM   11  C17 UNL     1       1.664   1.282  -0.123  1.00  0.00     0.082 C 
HETATM   12 CL1  UNL     1       1.090   2.268  -1.455  1.00  0.00    -0.112 Cl
HETATM   13  H13 UNL     1       2.158  -1.105   1.231  1.00  0.00     0.155 HD
HETATM   14  H18 UNL     1       3.186  -3.070  -1.019  1.00  0.00     0.156 HD
ENDROOT
BRANCH   1  15
HETATM   15  C8  UNL     1      -0.637   0.402   0.170  1.00  0.00     0.256 C 
HETATM   16  N2  UNL     1      -1.554  -0.065  -0.771  1.00  0.00    -0.326 N 
HETATM   17  C6  UNL     1      -2.812   0.691  -0.842  1.00  0.00     0.241 C 
HETATM   18  C7  UNL     1      -1.911  -0.864  -1.863  1.00  0.00     0.155 C 
HETATM   19  C5  UNL     1      -4.285   0.299  -1.005  1.00  0.00     0.251 C 
HETATM   20  O1  UNL     1      -2.503   1.919  -0.731  1.00  0.00    -0.271 OA
HETATM   21  N1  UNL     1      -4.882   1.609  -0.480  1.00  0.00    -0.292 NA
HETATM   22  C4  UNL     1      -4.205   1.969   0.659  1.00  0.00     0.113 C 
HETATM   23  C3  UNL     1      -3.143   1.008   1.073  1.00  0.00     0.050 C 
HETATM   24  C2  UNL     1      -2.682  -0.241   1.017  1.00  0.00     0.046 C 
HETATM   25  C1  UNL     1      -2.396  -1.642   0.829  1.00  0.00     0.076 C 
HETATM   26  O2  UNL     1      -1.284  -0.243   1.503  1.00  0.00    -0.328 OA
ENDBRANCH   1  15
BRANCH  11  27
HETATM   27  C18 UNL     1       1.572   2.454   0.869  1.00  0.00     0.063 C 
BRANCH  27  28
HETATM   28  C19 UNL     1       2.014   2.178   2.253  1.00  0.00     0.224 C 
HETATM   29  F1  UNL     1       1.899   3.414   2.960  1.00  0.00    -0.255 F 
ENDBRANCH  27  28
ENDBRANCH  11  27
TORSDOF 3
