REMARK  4 active torsions:
REMARK  status: ('A' for Active; 'I' for Inactive)
REMARK    1  A    between atoms: N1_1  and  C1_2 
REMARK    2  A    between atoms: C1_2  and  N2_3 
REMARK    3  A    between atoms: N2_3  and  C2_4 
REMARK    4  A    between atoms: C10_14  and  C11_15 
ROOT
HETATM    1  C2  UNL     1       2.382  -0.307   0.532  1.00  0.00     0.724 A 
HETATM    2  N3  UNL     1       2.461  -1.654   0.646  1.00  0.00    -0.075 NA
HETATM    3  C3  UNL     1       1.361  -2.419   0.385  1.00  0.00     0.139 A 
HETATM    4  C4  UNL     1       0.249  -1.723   0.022  1.00  0.00     0.053 A 
HETATM    5  C5  UNL     1       0.086  -0.378  -0.113  1.00  0.00     0.089 A 
HETATM    6  C6  UNL     1      -1.021   0.427  -0.562  1.00  0.00     0.023 A 
HETATM    7  C7  UNL     1      -0.675   1.564  -1.308  1.00  0.00     0.017 A 
HETATM    8  C8  UNL     1      -1.538   2.485  -1.864  1.00  0.00     0.020 A 
HETATM    9  C9  UNL     1      -2.872   2.235  -1.647  1.00  0.00     0.117 A 
HETATM   10  N4  UNL     1      -3.236   1.160  -0.936  1.00  0.00    -0.259 NA
HETATM   11  C10 UNL     1      -2.369   0.277  -0.401  1.00  0.00     0.079 A 
HETATM   12  N5  UNL     1       1.246   0.286   0.170  1.00  0.00    -0.062 NA
ENDROOT
BRANCH  11  13
HETATM   13  C11 UNL     1      -2.881  -0.748   0.492  1.00  0.00    -0.006 C 
HETATM   14  C12 UNL     1      -4.192  -1.063   0.480  1.00  0.00     0.014 C 
HETATM   15  C13 UNL     1      -4.546  -2.125   1.447  1.00  0.00     0.013 C 
HETATM   16  C14 UNL     1      -3.313  -2.599   1.624  1.00  0.00    -0.025 C 
HETATM   17  C15 UNL     1      -2.429  -1.609   1.596  1.00  0.00     0.026 C 
ENDBRANCH  11  13
BRANCH   1  18
HETATM   18  N2  UNL     1       3.558   0.467   0.812  1.00  0.00    -0.196 N 
HETATM   19  H5  UNL     1       3.956   0.913   1.679  1.00  0.00     0.179 HD
BRANCH  18  20
HETATM   20  C1  UNL     1       4.352   0.655  -0.400  1.00  0.00     0.405 C 
BRANCH  20  21
HETATM   21  N1  UNL     1       5.540   1.419  -0.191  1.00  0.00     0.096 N 
HETATM   22  H1  UNL     1       5.807   1.610   0.779  1.00  0.00     0.314 HD
HETATM   23  H2  UNL     1       5.598   2.281  -0.778  1.00  0.00     0.314 HD
ENDBRANCH  20  21
ENDBRANCH  18  20
ENDBRANCH   1  18
TORSDOF 4
