REMARK  4 active torsions:
REMARK  status: ('A' for Active; 'I' for Inactive)
REMARK    1  A    between atoms: C7_7  and  O1_8 
REMARK    2  A    between atoms: O1_8  and  C8_9 
REMARK    3  A    between atoms: C12_14  and  C13_15 
REMARK    4  A    between atoms: C16_19  and  N3_20 
ROOT
HETATM    1  C1  UNL     1      -5.681   4.439   0.275  1.00  0.00     0.097 C 
HETATM    2  C2  UNL     1      -5.165   3.263   0.050  1.00  0.00    -0.144 C 
HETATM    3  C3  UNL     1      -4.615   2.058   0.034  1.00  0.00     0.022 C 
HETATM    4  C4  UNL     1      -3.237   2.076   0.420  1.00  0.00     0.046 C 
HETATM    5  C5  UNL     1      -2.373   1.086   0.158  1.00  0.00     0.044 A 
HETATM    6  C6  UNL     1      -0.946   1.118   0.565  1.00  0.00     0.147 A 
HETATM    7  C7  UNL     1      -0.465  -0.202   0.033  1.00  0.00     0.173 A 
HETATM    8  N5  UNL     1      -1.400  -0.862  -0.556  1.00  0.00    -0.146 NA
HETATM    9  N6  UNL     1      -2.596  -0.148  -0.525  1.00  0.00    -0.247 N 
HETATM   10  C18 UNL     1      -3.778  -0.665  -1.111  1.00  0.00     0.117 C 
HETATM   11  C19 UNL     1      -4.963  -0.090  -0.996  1.00  0.00     0.034 C 
HETATM   12  C20 UNL     1      -5.611   1.090  -0.377  1.00  0.00     0.235 C 
HETATM   13  F1  UNL     1      -6.217   0.608   0.792  1.00  0.00    -0.239 F 
ENDROOT
BRANCH   7  14
HETATM   14  O1  UNL     1       0.818  -0.724   0.122  1.00  0.00    -0.274 OA
BRANCH  14  15
HETATM   15  C8  UNL     1       1.017  -2.088   0.291  1.00  0.00     0.183 A 
HETATM   16  N1  UNL     1      -0.034  -2.933   0.371  1.00  0.00    -0.236 NA
HETATM   17  C9  UNL     1       0.050  -4.248   0.532  1.00  0.00     0.119 A 
HETATM   18  C10 UNL     1       1.327  -4.757   0.619  1.00  0.00     0.020 A 
HETATM   19  C11 UNL     1       2.440  -3.950   0.544  1.00  0.00     0.020 A 
HETATM   20  C12 UNL     1       2.322  -2.585   0.377  1.00  0.00     0.047 A 
BRANCH  20  21
HETATM   21  C13 UNL     1       3.407  -1.614   0.282  1.00  0.00     0.091 A 
HETATM   22  C14 UNL     1       4.727  -2.009   0.357  1.00  0.00     0.053 A 
HETATM   23  C15 UNL     1       5.809  -1.130   0.273  1.00  0.00     0.139 A 
HETATM   24  N2  UNL     1       5.509   0.191   0.107  1.00  0.00    -0.075 NA
HETATM   25  C16 UNL     1       4.226   0.551   0.037  1.00  0.00     0.722 A 
HETATM   26  N4  UNL     1       3.187  -0.296   0.119  1.00  0.00    -0.062 NA
BRANCH  25  27
HETATM   27  N3  UNL     1       3.931   1.933  -0.135  1.00  0.00    -0.227 N 
HETATM   28  C17 UNL     1       5.032   2.862  -0.225  1.00  0.00     0.165 C 
HETATM   29  H11 UNL     1       2.954   2.304  -0.200  1.00  0.00     0.177 HD
ENDBRANCH  25  27
ENDBRANCH  20  21
ENDBRANCH  14  15
ENDBRANCH   7  14
TORSDOF 4
