REMARK  2 active torsions:
REMARK  status: ('A' for Active; 'I' for Inactive)
REMARK    1  A    between atoms: N1_2  and  C2_3 
REMARK    2  A    between atoms: C11_16  and  C12_17 
ROOT
HETATM    1  C2  UNL     1      -3.234  -0.902   0.545  1.00  0.00     0.722 A 
HETATM    2  N2  UNL     1      -2.331  -1.843   0.220  1.00  0.00    -0.075 NA
HETATM    3  C3  UNL     1      -1.200  -1.530  -0.439  1.00  0.00     0.148 A 
HETATM    4  C4  UNL     1      -0.874  -0.254  -0.831  1.00  0.00     0.025 A 
HETATM    5  C5  UNL     1      -1.853   0.679  -0.464  1.00  0.00     0.101 A 
HETATM    6  N3  UNL     1      -3.006   0.380   0.205  1.00  0.00    -0.062 NA
HETATM    7  C6  UNL     1      -1.713   2.096  -0.781  1.00  0.00     0.047 A 
HETATM    8  C7  UNL     1      -2.656   3.042  -0.435  1.00  0.00     0.020 A 
HETATM    9  C8  UNL     1      -2.375   4.343  -0.808  1.00  0.00     0.020 A 
HETATM   10  C9  UNL     1      -1.230   4.720  -1.487  1.00  0.00     0.119 A 
HETATM   11  N4  UNL     1      -0.359   3.742  -1.789  1.00  0.00    -0.236 NA
HETATM   12  C10 UNL     1      -0.571   2.464  -1.457  1.00  0.00     0.177 A 
HETATM   13  O1  UNL     1       0.366   1.539  -1.804  1.00  0.00    -0.317 OA
HETATM   14  C11 UNL     1       0.330   0.151  -1.543  1.00  0.00     0.216 A 
ENDROOT
BRANCH  14  15
HETATM   15  C12 UNL     1       1.614  -0.235  -0.864  1.00  0.00     0.036 C 
HETATM   16  C13 UNL     1       2.295   0.845  -0.432  1.00  0.00     0.005 C 
HETATM   17  C14 UNL     1       3.582   1.145   0.288  1.00  0.00     0.056 C 
HETATM   18  C15 UNL     1       3.972   0.055   1.215  1.00  0.00    -0.027 C 
HETATM   19  C16 UNL     1       4.108  -1.264   1.238  1.00  0.00    -0.029 C 
HETATM   20  C17 UNL     1       3.899  -2.338   0.211  1.00  0.00     0.046 C 
HETATM   21  C18 UNL     1       2.388  -2.562   0.151  1.00  0.00     0.123 C 
HETATM   22  N5  UNL     1       1.862  -1.635  -0.803  1.00  0.00    -0.391 N 
HETATM   23  H19 UNL     1       1.552  -2.022  -1.749  1.00  0.00     0.159 HD
ENDBRANCH  14  15
BRANCH   1  24
HETATM   24  N1  UNL     1      -4.395  -1.329   1.240  1.00  0.00    -0.227 N 
HETATM   25  C1  UNL     1      -4.558  -2.714   1.562  1.00  0.00     0.165 C 
HETATM   26  H4  UNL     1      -5.104  -0.590   1.495  1.00  0.00     0.177 HD
ENDBRANCH   1  24
TORSDOF 2
