REMARK  1 active torsions:
REMARK  status: ('A' for Active; 'I' for Inactive)
REMARK    1  A    between atoms: N1_4  and  C4_5 
ROOT
HETATM    1  C4  UNL     1       0.675  -0.755   0.799  1.00  0.00     0.137 C 
HETATM    2  C5  UNL     1      -0.356   0.147   1.423  1.00  0.00     0.088 C 
HETATM    3  C6  UNL     1      -1.490   0.565   0.578  1.00  0.00     0.044 A 
HETATM    4  N2  UNL     1      -1.585   1.855   0.336  1.00  0.00    -0.259 NA
HETATM    5  C7  UNL     1      -2.678   2.203  -0.465  1.00  0.00     0.039 A 
HETATM    6  C8  UNL     1      -3.291   1.124  -0.738  1.00  0.00    -0.025 A 
HETATM    7  C9  UNL     1      -4.318   1.796  -1.534  1.00  0.00     0.045 A 
HETATM    8  C10 UNL     1      -3.587   3.052  -1.207  1.00  0.00     0.064 A 
HETATM    9  C11 UNL     1      -2.628  -0.088  -0.121  1.00  0.00     0.188 A 
HETATM   10  N3  UNL     1      -3.458  -0.958   0.493  1.00  0.00    -0.269 NA
HETATM   11  C12 UNL     1      -3.815  -2.060   0.882  1.00  0.00     0.202 C 
HETATM   12  N4  UNL     1      -3.260  -3.416   0.806  1.00  0.00    -0.344 N 
HETATM   13  C13 UNL     1      -1.971  -3.248   0.202  1.00  0.00     0.095 A 
HETATM   14  C14 UNL     1      -1.157  -2.176   0.858  1.00  0.00     0.068 A 
HETATM   15  C15 UNL     1       0.007  -1.968   0.194  1.00  0.00     0.068 A 
HETATM   16  N5  UNL     1       0.369  -2.671  -0.915  1.00  0.00    -0.212 NA
HETATM   17  S1  UNL     1      -1.087  -3.819  -1.150  1.00  0.00     0.029 SA
HETATM   18  H16 UNL     1      -3.410  -4.380   0.994  1.00  0.00     0.167 HD
ENDROOT
BRANCH   1  19
HETATM   19  N1  UNL     1       1.436  -0.194  -0.264  1.00  0.00    -0.398 N 
HETATM   20  C3  UNL     1       2.424  -1.087  -0.823  1.00  0.00     0.149 C 
HETATM   21  C2  UNL     1       3.811  -0.470  -0.856  1.00  0.00     0.135 C 
HETATM   22  C1  UNL     1       3.979   0.346  -2.106  1.00  0.00     0.041 C 
HETATM   23  O1  UNL     1       4.085   0.192   0.317  1.00  0.00    -0.378 OA
HETATM   24  C17 UNL     1       3.233   1.217   0.627  1.00  0.00     0.135 C 
HETATM   25  C16 UNL     1       1.916   1.136  -0.108  1.00  0.00     0.149 C 
HETATM   26  C18 UNL     1       3.093   1.325   2.121  1.00  0.00     0.041 C 
ENDBRANCH   1  19
TORSDOF 1
