REMARK  5 active torsions:
REMARK  status: ('A' for Active; 'I' for Inactive)
REMARK    1  A    between atoms: N1_3  and  N2_4 
REMARK    2  A    between atoms: N2_4  and  C3_5 
REMARK    3  A    between atoms: C3_5  and  C4_6 
REMARK    4  A    between atoms: C7_10  and  C8_11 
REMARK    5  A    between atoms: C11_14  and  N4_15 
ROOT
HETATM    1  C4  UNL     1       4.306   0.928   0.185  1.00  0.00     0.054 A 
HETATM    2  C5  UNL     1       3.911   0.950  -1.130  1.00  0.00     0.146 A 
HETATM    3  N3  UNL     1       2.572   0.820  -1.144  1.00  0.00    -0.238 NA
HETATM    4  C6  UNL     1       2.097   0.716   0.109  1.00  0.00     0.165 A 
HETATM    5  C7  UNL     1       0.848   0.568   0.678  1.00  0.00     0.131 A 
HETATM    6  N6  UNL     1       0.692   0.491   2.011  1.00  0.00    -0.253 NA
HETATM    7  C18 UNL     1       1.746   0.556   2.844  1.00  0.00     0.135 A 
HETATM    8  C19 UNL     1       2.986   0.704   2.256  1.00  0.00     0.118 A 
HETATM    9  N7  UNL     1       3.180   0.784   0.929  1.00  0.00    -0.304 N 
ENDROOT
BRANCH   5  10
HETATM   10  C8  UNL     1      -0.337   0.492  -0.187  1.00  0.00     0.088 A 
HETATM   11  C9  UNL     1      -0.363   0.549  -1.503  1.00  0.00     0.015 A 
HETATM   12  C10 UNL     1      -1.759   0.436  -2.007  1.00  0.00     0.108 A 
HETATM   13  C11 UNL     1      -2.508   0.305  -0.733  1.00  0.00     0.106 A 
HETATM   14  N5  UNL     1      -1.678   0.342   0.240  1.00  0.00    -0.233 NA
BRANCH  13  15
HETATM   15  N4  UNL     1      -3.926   0.167  -0.726  1.00  0.00    -0.364 N 
HETATM   16  C12 UNL     1      -4.797   1.002   0.095  1.00  0.00     0.155 C 
HETATM   17  C13 UNL     1      -6.217   0.525  -0.233  1.00  0.00     0.136 C 
HETATM   18  C14 UNL     1      -7.122   1.250   0.770  1.00  0.00     0.041 C 
HETATM   19  O1  UNL     1      -6.271  -0.820   0.128  1.00  0.00    -0.378 OA
HETATM   20  C15 UNL     1      -5.506  -1.625  -0.677  1.00  0.00     0.136 C 
HETATM   21  C16 UNL     1      -4.674  -2.511   0.221  1.00  0.00     0.041 C 
HETATM   22  C17 UNL     1      -4.569  -0.845  -1.563  1.00  0.00     0.155 C 
ENDBRANCH  13  15
ENDBRANCH   5  10
BRANCH   1  23
HETATM   23  C3  UNL     1       5.655   1.034   0.786  1.00  0.00     0.200 C 
BRANCH  23  24
HETATM   24  N2  UNL     1       6.330  -0.206   0.974  1.00  0.00    -0.309 N 
HETATM   25  H5  UNL     1       6.632  -0.540   1.929  1.00  0.00     0.182 HD
BRANCH  24  26
HETATM   26  N1  UNL     1       6.973  -1.445   0.931  1.00  0.00    -0.196 NA
HETATM   27  C2  UNL     1       7.776  -1.639  -0.088  1.00  0.00     0.107 C 
HETATM   28  C1  UNL     1       8.288  -0.955  -1.314  1.00  0.00     0.059 C 
ENDBRANCH  24  26
ENDBRANCH  23  24
ENDBRANCH   1  23
TORSDOF 5
