REMARK  5 active torsions:
REMARK  status: ('A' for Active; 'I' for Inactive)
REMARK    1  A    between atoms: N1_2  and  C2_3 
REMARK    2  A    between atoms: C5_7  and  C6_8 
REMARK    3  A    between atoms: C10_13  and  O1_14 
REMARK    4  A    between atoms: O1_14  and  C11_15 
REMARK    5  A    between atoms: C14_18  and  N4_19 
ROOT
HETATM    1  C11 UNL     1      -0.425  -0.432   0.271  1.00  0.00     0.078 A 
HETATM    2  C12 UNL     1      -0.034   0.911   0.282  1.00  0.00     0.039 A 
HETATM    3  C13 UNL     1       1.310   1.297   0.343  1.00  0.00     0.033 A 
HETATM    4  C14 UNL     1       2.315   0.355   0.396  1.00  0.00     0.046 A 
HETATM    5  C23 UNL     1       1.904  -0.958   0.384  1.00  0.00     0.033 A 
HETATM    6  C24 UNL     1       0.586  -1.353   0.324  1.00  0.00     0.039 A 
ENDROOT
BRANCH   1   7
HETATM    7  O1  UNL     1      -1.784  -0.511   0.208  1.00  0.00    -0.291 OA
BRANCH   7   8
HETATM    8  C10 UNL     1      -2.499  -1.655   0.181  1.00  0.00     0.182 A 
HETATM    9  C6  UNL     1      -3.861  -1.474   0.115  1.00  0.00     0.047 A 
HETATM   10  C7  UNL     1      -4.634  -2.644   0.086  1.00  0.00     0.020 A 
HETATM   11  C8  UNL     1      -4.055  -3.895   0.120  1.00  0.00     0.020 A 
HETATM   12  C9  UNL     1      -2.688  -4.032   0.185  1.00  0.00     0.119 A 
HETATM   13  N3  UNL     1      -1.990  -2.892   0.212  1.00  0.00    -0.236 NA
BRANCH   9  14
HETATM   14  C5  UNL     1      -4.641  -0.252   0.071  1.00  0.00     0.091 A 
HETATM   15  C4  UNL     1      -4.189   1.045   0.085  1.00  0.00     0.053 A 
HETATM   16  C3  UNL     1      -4.975   2.172   0.042  1.00  0.00     0.139 A 
HETATM   17  N2  UNL     1      -6.314   2.020  -0.020  1.00  0.00    -0.075 NA
HETATM   18  C2  UNL     1      -6.790   0.766  -0.036  1.00  0.00     0.722 A 
HETATM   19  N6  UNL     1      -5.983  -0.307   0.008  1.00  0.00    -0.062 NA
BRANCH  18  20
HETATM   20  N1  UNL     1      -8.197   0.543  -0.101  1.00  0.00    -0.227 N 
HETATM   21  C1  UNL     1      -9.084   1.687  -0.149  1.00  0.00     0.165 C 
HETATM   22  H4  UNL     1      -8.607  -0.404  -0.115  1.00  0.00     0.177 HD
ENDBRANCH  18  20
ENDBRANCH   9  14
ENDBRANCH   7   8
ENDBRANCH   1   7
BRANCH   4  23
HETATM   23  N4  UNL     1       3.701   0.653   0.461  1.00  0.00    -0.308 N 
HETATM   24  C15 UNL     1       4.675  -0.440   0.487  1.00  0.00     0.182 C 
HETATM   25  C16 UNL     1       6.051   0.007   0.272  1.00  0.00    -0.031 A 
HETATM   26  C17 UNL     1       7.032  -0.935   0.587  1.00  0.00     0.009 A 
HETATM   27  C21 UNL     1       6.456   1.249  -0.203  1.00  0.00    -0.036 A 
HETATM   28  C18 UNL     1       8.365  -0.619   0.422  1.00  0.00     0.001 A 
HETATM   29  C19 UNL     1       8.739   0.617  -0.050  1.00  0.00     0.001 A 
HETATM   30  C20 UNL     1       7.786   1.571  -0.370  1.00  0.00     0.009 A 
HETATM   31  C22 UNL     1       5.286   2.133  -0.490  1.00  0.00     0.149 C 
HETATM   32  N5  UNL     1       4.251   1.913   0.504  1.00  0.00    -0.233 NA
HETATM   33  H20 UNL     1       3.610   2.707   0.537  1.00  0.00     0.147 HD
ENDBRANCH   4  23
TORSDOF 5
