REMARK  3 active torsions:
REMARK  status: ('A' for Active; 'I' for Inactive)
REMARK    1  A    between atoms: N1_4  and  C4_5 
REMARK    2  A    between atoms: C4_5  and  C6_7 
REMARK    3  A    between atoms: C8_9  and  N2_10 
ROOT
HETATM    1  C6  UNL     1       0.629   0.747   0.181  1.00  0.00     0.068 A 
HETATM    2  C7  UNL     1       1.821   0.373  -0.338  1.00  0.00     0.068 A 
HETATM    3  C8  UNL     1       2.801   0.126   0.584  1.00  0.00     0.097 A 
HETATM    4  S1  UNL     1       2.180   0.379   2.150  1.00  0.00     0.029 SA
HETATM    5  N4  UNL     1       0.462   0.864   1.673  1.00  0.00    -0.212 NA
ENDROOT
BRANCH   1   6
HETATM    6  C4  UNL     1      -0.654   1.097  -0.547  1.00  0.00     0.128 C 
HETATM    7  C5  UNL     1      -0.451   0.482  -1.936  1.00  0.00     0.039 C 
BRANCH   6   8
HETATM    8  N1  UNL     1      -1.807   0.506  -0.004  1.00  0.00    -0.398 N 
HETATM    9  C3  UNL     1      -2.372   0.978   1.195  1.00  0.00     0.149 C 
HETATM   10  C2  UNL     1      -3.093  -0.251   1.781  1.00  0.00     0.135 C 
HETATM   11  C1  UNL     1      -2.167  -1.431   1.632  1.00  0.00     0.041 C 
HETATM   12  O1  UNL     1      -4.192  -0.466   1.024  1.00  0.00    -0.378 OA
HETATM   13  C14 UNL     1      -4.134  -0.241  -0.318  1.00  0.00     0.135 C 
HETATM   14  C13 UNL     1      -2.820   0.136  -0.915  1.00  0.00     0.149 C 
HETATM   15  C15 UNL     1      -5.218   0.771  -0.639  1.00  0.00     0.041 C 
ENDBRANCH   6   8
ENDBRANCH   1   6
BRANCH   3  16
HETATM   16  N2  UNL     1       4.145  -0.286   0.250  1.00  0.00    -0.344 N 
HETATM   17  C9  UNL     1       4.511  -0.455  -1.092  1.00  0.00     0.111 A 
HETATM   18  C10 UNL     1       5.723  -0.829  -1.472  1.00  0.00     0.133 A 
HETATM   19  N3  UNL     1       6.733  -1.081  -0.476  1.00  0.00    -0.274 NA
HETATM   20  C11 UNL     1       6.387  -0.923   0.757  1.00  0.00     0.109 A 
HETATM   21  C12 UNL     1       5.083  -0.513   1.334  1.00  0.00     0.175 A 
ENDBRANCH   3  16
TORSDOF 3
