REMARK  5 active torsions:
REMARK  status: ('A' for Active; 'I' for Inactive)
REMARK    1  A    between atoms: C2_2  and  C3_4 
REMARK    2  A    between atoms: C4_5  and  C5_6 
REMARK    3  A    between atoms: C5_6  and  O1_7 
REMARK    4  A    between atoms: O1_7  and  C6_8 
REMARK    5  A    between atoms: C10_13  and  C11_14 
ROOT
HETATM    1  C6  UNL     1      -0.019  -0.958  -0.825  1.00  0.00     0.177 A 
HETATM    2  N1  UNL     1      -1.020  -1.743  -1.261  1.00  0.00    -0.236 NA
HETATM    3  C7  UNL     1      -1.031  -3.083  -1.184  1.00  0.00     0.119 A 
HETATM    4  C8  UNL     1       0.026  -3.774  -0.629  1.00  0.00     0.020 A 
HETATM    5  C9  UNL     1       1.065  -2.990  -0.174  1.00  0.00     0.020 A 
HETATM    6  C10 UNL     1       1.080  -1.612  -0.253  1.00  0.00     0.046 A 
ENDROOT
BRANCH   1   7
HETATM    7  O1  UNL     1      -0.014   0.427  -0.909  1.00  0.00    -0.330 OA
BRANCH   7   8
HETATM    8  C5  UNL     1      -1.142   1.046  -1.492  1.00  0.00     0.205 C 
BRANCH   8   9
HETATM    9  C4  UNL     1      -2.388   0.741  -0.744  1.00  0.00     0.001 C 
HETATM   10  C3  UNL     1      -3.241   1.582  -0.136  1.00  0.00     0.016 C 
BRANCH  10  11
HETATM   11  C2  UNL     1      -4.480   1.273   0.608  1.00  0.00     0.001 C 
HETATM   12  C1  UNL     1      -5.133   2.298   1.108  1.00  0.00     0.032 C 
HETATM   13 BR1  UNL     1      -4.818  -0.623   0.645  1.00  0.00    -0.052 Br
ENDBRANCH  10  11
ENDBRANCH   8   9
ENDBRANCH   7   8
ENDBRANCH   1   7
BRANCH   6  14
HETATM   14  C11 UNL     1       2.170  -0.769   0.223  1.00  0.00     0.074 A 
HETATM   15  C12 UNL     1       3.309  -1.282   0.807  1.00  0.00     0.052 A 
HETATM   16  C13 UNL     1       4.362  -0.515   1.270  1.00  0.00     0.121 A 
HETATM   17  N2  UNL     1       4.262   0.839   1.137  1.00  0.00    -0.246 NA
HETATM   18  C14 UNL     1       3.156   1.342   0.569  1.00  0.00     0.122 A 
HETATM   19  C15 UNL     1       2.922   2.795   0.366  1.00  0.00     0.093 C 
HETATM   20  N3  UNL     1       2.142   0.577   0.126  1.00  0.00    -0.233 NA
ENDBRANCH   6  14
TORSDOF 5
