REMARK  5 active torsions:
REMARK  status: ('A' for Active; 'I' for Inactive)
REMARK    1  A    between atoms: C2_2  and  C3_3 
REMARK    2  A    between atoms: C3_3  and  C4_4 
REMARK    3  A    between atoms: C4_4  and  N1_6 
REMARK    4  A    between atoms: N1_6  and  C5_7 
REMARK    5  A    between atoms: C15_22  and  C16_23 
ROOT
HETATM    1  C5  UNL     1       1.748  -0.220  -0.306  1.00  0.00     0.179 C 
HETATM    2  C6  UNL     1       0.966  -1.236   0.490  1.00  0.00     0.122 C 
HETATM    3  N2  UNL     1       0.779  -2.432   0.885  1.00  0.00    -0.242 NA
HETATM    4  C7  UNL     1      -0.300  -2.815   1.763  1.00  0.00     0.324 C 
HETATM    5  N3  UNL     1      -1.398  -2.938   1.366  1.00  0.00    -0.323 NA
HETATM    6  N4  UNL     1      -2.655  -3.114   1.080  1.00  0.00    -0.253 N 
HETATM    7  C8  UNL     1      -3.763  -2.772   0.249  1.00  0.00     0.275 C 
HETATM    8  N5  UNL     1      -4.227  -1.409   0.312  1.00  0.00    -0.372 N 
HETATM    9  C9  UNL     1      -3.480  -0.240   0.036  1.00  0.00     0.032 A 
HETATM   10  C10 UNL     1      -4.030   0.998   0.270  1.00  0.00     0.029 A 
HETATM   11  C11 UNL     1      -3.350   2.165   0.059  1.00  0.00     0.005 A 
HETATM   12  C12 UNL     1      -2.053   2.185  -0.406  1.00  0.00     0.037 A 
HETATM   13  C13 UNL     1      -1.440   0.981  -0.662  1.00  0.00     0.071 A 
HETATM   14  C14 UNL     1      -2.210  -0.167  -0.421  1.00  0.00     0.065 A 
HETATM   15  O1  UNL     1      -0.308   0.563  -1.075  1.00  0.00    -0.343 OA
HETATM   16  C15 UNL     1       0.856   0.182  -1.509  1.00  0.00     0.158 C 
HETATM   17  H7  UNL     1      -2.684  -3.810   1.883  1.00  0.00     0.197 HD
HETATM   18  H10 UNL     1      -5.241  -1.250   0.596  1.00  0.00     0.161 HD
ENDROOT
BRANCH   1  19
HETATM   19  N1  UNL     1       1.954   0.959   0.527  1.00  0.00    -0.264 NA
BRANCH  19  20
HETATM   20  C4  UNL     1       3.103   1.583   0.504  1.00  0.00     0.128 C 
HETATM   21 CL1  UNL     1       4.387   0.974  -0.554  1.00  0.00    -0.062 Cl
BRANCH  20  22
HETATM   22  C3  UNL     1       3.864   2.671   1.019  1.00  0.00     0.094 C 
BRANCH  22  23
HETATM   23  C2  UNL     1       4.543   2.570   2.151  1.00  0.00    -0.152 C 
HETATM   24  C1  UNL     1       5.065   2.234   3.320  1.00  0.00     0.096 C 
ENDBRANCH  22  23
ENDBRANCH  20  22
ENDBRANCH  19  20
ENDBRANCH   1  19
BRANCH  16  25
HETATM   25  C16 UNL     1       0.806  -0.991  -2.484  1.00  0.00     0.030 C 
HETATM   26  C17 UNL     1       2.208  -1.268  -2.931  1.00  0.00     0.007 C 
ENDBRANCH  16  25
TORSDOF 5
