REMARK  9 active torsions:
REMARK  status: ('A' for Active; 'I' for Inactive)
REMARK    1  A    between atoms: C3_3  and  C4_4 
REMARK    2  A    between atoms: C4_4  and  N1_5 
REMARK    3  A    between atoms: N2_8  and  N3_9 
REMARK    4  A    between atoms: N3_9  and  C7_10 
REMARK    5  A    between atoms: C7_10  and  C8_11 
REMARK    6  A    between atoms: C8_11  and  C9_12 
REMARK    7  A    between atoms: C9_12  and  C10_13 
REMARK    8  A    between atoms: C10_13  and  N4_14 
REMARK    9  A    between atoms: C13_17  and  C14_18 
ROOT
HETATM    1  N3  UNL     1      -0.395   0.699   0.012  1.00  0.00    -0.243 NA
HETATM    2  H12 UNL     1      -0.505   1.737   0.009  1.00  0.00     0.146 HD
ENDROOT
BRANCH   1   3
HETATM    3  N2  UNL     1      -1.528   0.191   0.684  1.00  0.00    -0.345 N 
HETATM    4  C6  UNL     1      -2.618   1.079   0.580  1.00  0.00     0.167 C 
HETATM    5  C5  UNL     1      -3.936   0.414   0.788  1.00  0.00     0.293 C 
HETATM    6  N1  UNL     1      -4.015  -0.637  -0.206  1.00  0.00     0.095 N 
HETATM    7  C17 UNL     1      -3.113  -1.654   0.209  1.00  0.00     0.293 C 
HETATM    8  C16 UNL     1      -1.725  -1.187   0.493  1.00  0.00     0.167 C 
BRANCH   6   9
HETATM    9  C4  UNL     1      -5.344  -1.154  -0.344  1.00  0.00     0.299 C 
BRANCH   9  10
HETATM   10  C3  UNL     1      -6.265  -0.167  -0.947  1.00  0.00    -0.002 C 
HETATM   11  C2  UNL     1      -7.386   0.449  -0.610  1.00  0.00    -0.033 C 
HETATM   12  C1  UNL     1      -8.158   0.317   0.635  1.00  0.00     0.036 C 
ENDBRANCH   9  10
ENDBRANCH   6   9
ENDBRANCH   1   3
BRANCH   1  13
HETATM   13  C7  UNL     1       0.770   0.389   0.811  1.00  0.00     0.110 C 
BRANCH  13  14
HETATM   14  C8  UNL     1       2.044   0.903   0.174  1.00  0.00     0.018 C 
BRANCH  14  15
HETATM   15  C9  UNL     1       2.323   0.342  -1.178  1.00  0.00     0.023 C 
BRANCH  15  16
HETATM   16  C10 UNL     1       3.612   0.912  -1.730  1.00  0.00     0.145 C 
BRANCH  16  17
HETATM   17  N4  UNL     1       4.743   0.609  -0.895  1.00  0.00    -0.302 N 
HETATM   18  C11 UNL     1       5.027  -0.810  -0.932  1.00  0.00     0.172 A 
HETATM   19  C12 UNL     1       6.214  -1.053  -0.074  1.00  0.00     0.005 A 
HETATM   20  C13 UNL     1       6.917  -0.184   0.632  1.00  0.00    -0.013 A 
HETATM   21  C15 UNL     1       6.452   1.214   0.540  1.00  0.00     0.147 A 
HETATM   22  N5  UNL     1       5.427   1.591  -0.178  1.00  0.00    -0.189 NA
BRANCH  20  23
HETATM   23  C14 UNL     1       8.102  -0.349   1.505  1.00  0.00     0.262 C 
HETATM   24  F1  UNL     1       8.501  -1.683   1.548  1.00  0.00    -0.251 F 
ENDBRANCH  20  23
ENDBRANCH  16  17
ENDBRANCH  15  16
ENDBRANCH  14  15
ENDBRANCH  13  14
ENDBRANCH   1  13
TORSDOF 9
