REMARK  9 active torsions:
REMARK  status: ('A' for Active; 'I' for Inactive)
REMARK    1  A    between atoms: O1_1  and  C1_2 
REMARK    2  A    between atoms: C1_2  and  C2_3 
REMARK    3  A    between atoms: N1_6  and  C5_7 
REMARK    4  A    between atoms: C5_7  and  C6_8 
REMARK    5  A    between atoms: C6_8  and  C7_9 
REMARK    6  A    between atoms: C7_9  and  O2_10 
REMARK    7  A    between atoms: O2_10  and  C8_11 
REMARK    8  A    between atoms: C9_12  and  C10_13 
REMARK    9  A    between atoms: C14_19  and  C15_20 
ROOT
HETATM    1  C7  UNL     1       0.872  -1.108  -1.623  1.00  0.00     0.171 C 
ENDROOT
BRANCH   1   2
HETATM    2  C6  UNL     1       0.231  -0.406  -0.427  1.00  0.00     0.056 C 
BRANCH   2   3
HETATM    3  C5  UNL     1      -1.140  -0.968  -0.233  1.00  0.00     0.274 C 
BRANCH   3   4
HETATM    4  N1  UNL     1      -1.863  -0.412   0.850  1.00  0.00     0.088 N 
HETATM    5  C4  UNL     1      -2.285   0.935   0.746  1.00  0.00     0.273 C 
HETATM    6  C3  UNL     1      -3.602   1.097   1.479  1.00  0.00     0.037 C 
HETATM    7  C2  UNL     1      -4.703   0.232   0.967  1.00  0.00     0.012 C 
HETATM    8  C17 UNL     1      -4.139  -1.102   0.545  1.00  0.00     0.037 C 
HETATM    9  C16 UNL     1      -2.868  -1.344   1.298  1.00  0.00     0.273 C 
BRANCH   7  10
HETATM   10  C1  UNL     1      -5.514   0.871  -0.146  1.00  0.00     0.168 C 
BRANCH  10  11
HETATM   11  O1  UNL     1      -4.681   1.153  -1.201  1.00  0.00    -0.400 OA
HETATM   12  H1  UNL     1      -4.632   0.356  -1.774  1.00  0.00     0.209 HD
ENDBRANCH  10  11
ENDBRANCH   7  10
ENDBRANCH   3   4
ENDBRANCH   2   3
ENDBRANCH   1   2
BRANCH   1  13
HETATM   13  O2  UNL     1       2.199  -0.539  -1.747  1.00  0.00    -0.371 OA
BRANCH  13  14
HETATM   14  C8  UNL     1       2.976  -0.709  -0.657  1.00  0.00     0.131 A 
HETATM   15  C9  UNL     1       3.920  -0.591  -0.079  1.00  0.00    -0.025 A 
HETATM   16  C15 UNL     1       4.207   0.049  -1.301  1.00  0.00     0.097 A 
BRANCH  15  17
HETATM   17  C10 UNL     1       4.799  -0.472   0.438  1.00  0.00    -0.023 A 
HETATM   18  C11 UNL     1       5.775  -0.330   0.988  1.00  0.00     0.071 A 
HETATM   19  C12 UNL     1       7.022   0.105   1.102  1.00  0.00     0.110 A 
HETATM   20  C14 UNL     1       5.552   0.228  -0.504  1.00  0.00     0.108 A 
HETATM   21  N2  UNL     1       7.980   0.772   0.419  1.00  0.00    -0.257 NA
HETATM   22  C13 UNL     1       7.705   1.200  -0.820  1.00  0.00     0.227 A 
HETATM   23  N3  UNL     1       6.505   0.963  -1.350  1.00  0.00    -0.265 NA
ENDBRANCH  15  17
ENDBRANCH  13  14
ENDBRANCH   1  13
TORSDOF 9
