REMARK  2 active torsions:
REMARK  status: ('A' for Active; 'I' for Inactive)
REMARK    1  A    between atoms: C7_9  and  N3_10 
REMARK    2  A    between atoms: S1_24  and  N4_25 
ROOT
HETATM    1  C1  UNL     1       5.828  -0.790  -0.569  1.00  0.00     0.073 C 
HETATM    2  C2  UNL     1       4.418  -0.841  -1.081  1.00  0.00     0.062 A 
HETATM    3  C3  UNL     1       3.618  -1.779  -0.620  1.00  0.00     0.088 A 
HETATM    4  N1  UNL     1       3.225  -2.932   0.178  1.00  0.00    -0.346 N 
HETATM    5  C4  UNL     1       1.779  -2.681   0.386  1.00  0.00     0.335 C 
HETATM    6  N2  UNL     1       1.006  -3.846   0.640  1.00  0.00    -0.254 NA
HETATM    7  C5  UNL     1      -0.241  -3.800   0.396  1.00  0.00     0.123 C 
HETATM    8  C6  UNL     1      -1.497  -3.247  -0.018  1.00  0.00    -0.026 C 
HETATM    9  C7  UNL     1      -2.405  -4.247   0.096  1.00  0.00     0.088 C 
HETATM   10  C8  UNL     1      -2.131  -2.019  -0.505  1.00  0.00     0.041 C 
HETATM   11  C9  UNL     1      -2.148  -0.862   0.482  1.00  0.00     0.007 C 
HETATM   12  C10 UNL     1      -3.006   0.273  -0.064  1.00  0.00     0.027 C 
HETATM   13  C11 UNL     1      -3.102   1.458   0.861  1.00  0.00     0.168 C 
HETATM   14  O1  UNL     1      -1.947   2.148   1.053  1.00  0.00    -0.385 OA
HETATM   15  C12 UNL     1      -2.052   3.202   1.928  1.00  0.00     0.127 C 
HETATM   16  C13 UNL     1      -1.027   3.285   3.001  1.00  0.00     0.040 C 
HETATM   17  C14 UNL     1      -2.041   4.571   1.163  1.00  0.00     0.114 C 
HETATM   18  C15 UNL     1      -0.955   4.547   0.298  1.00  0.00    -0.134 C 
HETATM   19  C16 UNL     1      -0.048   4.505  -0.428  1.00  0.00     0.281 A 
HETATM   20  C17 UNL     1       1.119   4.431  -1.346  1.00  0.00     0.272 A 
HETATM   21  C18 UNL     1       1.205   3.070  -2.009  1.00  0.00     0.453 A 
HETATM   22  C19 UNL     1       0.969   1.487  -2.577  1.00  0.00     0.161 A 
HETATM   23  S1  UNL     1       1.754   2.674  -2.516  1.00  0.00    -0.035 SA
HETATM   24  N4  UNL     1       0.198   3.393  -1.250  1.00  0.00     0.025 N 
HETATM   25  N5  UNL     1       2.013   0.649  -3.166  1.00  0.00    -0.349 N 
HETATM   26  C20 UNL     1       2.578  -0.289  -2.209  1.00  0.00     0.156 A 
HETATM   27  N6  UNL     1       3.800   0.037  -2.015  1.00  0.00    -0.232 NA
HETATM   28  C21 UNL     1       2.365  -1.458  -1.345  1.00  0.00     0.129 A 
HETATM   29  N7  UNL     1       1.400  -2.263  -1.011  1.00  0.00    -0.237 NA
HETATM   30  H4  UNL     1       3.992  -3.628   0.396  1.00  0.00     0.163 HD
HETATM   31  H25 UNL     1       2.327   0.698  -4.162  1.00  0.00     0.163 HD
ENDROOT
BRANCH   9  32
HETATM   32  N3  UNL     1      -2.300  -5.598   0.515  1.00  0.00    -0.407 N 
HETATM   33  H8  UNL     1      -1.925  -6.377  -0.050  1.00  0.00     0.155 HD
HETATM   34  H9  UNL     1      -2.574  -5.974   1.431  1.00  0.00     0.155 HD
ENDBRANCH   9  32
TORSDOF 2
