REMARK  5 active torsions:
REMARK  status: ('A' for Active; 'I' for Inactive)
REMARK    1  A    between atoms: C2_2  and  C3_3 
REMARK    2  A    between atoms: C3_3  and  C4_4 
REMARK    3  A    between atoms: C3_3  and  N6_23 
REMARK    4  A    between atoms: C4_4  and  C5_5 
REMARK    5  A    between atoms: C14_16  and  N2_17 
ROOT
HETATM    1  C5  UNL     1      -0.624   0.598   1.068  1.00  0.00     0.054 C 
HETATM    2  C6  UNL     1      -1.062   0.337   2.481  1.00  0.00     0.034 C 
HETATM    3  C7  UNL     1      -2.309   1.190   2.177  1.00  0.00     0.030 C 
HETATM    4  C8  UNL     1      -2.021   0.883   0.698  1.00  0.00     0.101 C 
HETATM    5  C9  UNL     1      -2.939  -0.151   0.239  1.00  0.00     0.109 C 
HETATM    6  F1  UNL     1      -2.163  -0.052  -0.912  1.00  0.00    -0.210 F 
HETATM    7  C10 UNL     1      -3.838  -1.091   0.000  1.00  0.00     0.018 C 
HETATM    8  C11 UNL     1      -3.865  -1.594  -1.428  1.00  0.00     0.088 C 
HETATM    9  C12 UNL     1      -5.023  -0.881  -2.092  1.00  0.00     0.032 C 
HETATM   10  N1  UNL     1      -5.953  -1.563  -2.644  1.00  0.00    -0.304 NA
HETATM   11  C13 UNL     1      -4.877   0.558  -1.980  1.00  0.00     0.070 C 
HETATM   12  C14 UNL     1      -4.132   1.546  -1.533  1.00  0.00     0.104 C 
HETATM   13  N3  UNL     1      -3.145   2.272  -0.961  1.00  0.00    -0.220 NA
HETATM   14  C15 UNL     1      -2.246   2.155  -0.086  1.00  0.00     0.147 C 
HETATM   15  N4  UNL     1      -1.465   3.315   0.098  1.00  0.00    -0.228 NA
HETATM   16  C16 UNL     1      -0.284   3.202   0.661  1.00  0.00     0.205 C 
HETATM   17  N5  UNL     1       0.102   1.888   1.041  1.00  0.00    -0.374 N 
HETATM   18  H16 UNL     1      -5.848  -2.597  -2.597  1.00  0.00     0.186 HD
HETATM   19  H21 UNL     1       1.074   1.679   1.387  1.00  0.00     0.161 HD
ENDROOT
BRANCH   1  20
HETATM   20  C4  UNL     1      -0.011  -0.453   0.255  1.00  0.00     0.068 C 
BRANCH  20  21
HETATM   21  C3  UNL     1       1.315  -1.080   0.694  1.00  0.00     0.225 C 
BRANCH  21  22
HETATM   22  C2  UNL     1       1.213  -1.738   2.004  1.00  0.00     0.031 C 
HETATM   23  C1  UNL     1       2.404  -2.488   2.544  1.00  0.00     0.007 C 
ENDBRANCH  21  22
BRANCH  21  24
HETATM   24  N6  UNL     1       2.355  -0.112   0.471  1.00  0.00     0.096 N 
HETATM   25  C17 UNL     1       3.679  -0.506   0.676  1.00  0.00     0.303 C 
HETATM   26  C18 UNL     1       4.190  -1.428  -0.446  1.00  0.00     0.302 C 
HETATM   27  N7  UNL     1       4.505  -0.594  -1.599  1.00  0.00     0.087 N 
HETATM   28  C19 UNL     1       5.884  -0.211  -1.537  1.00  0.00     0.310 C 
HETATM   29  C20 UNL     1       3.611   0.542  -1.573  1.00  0.00     0.302 C 
HETATM   30  C21 UNL     1       2.261   0.244  -0.970  1.00  0.00     0.303 C 
ENDBRANCH  21  24
ENDBRANCH  20  21
ENDBRANCH   1  20
BRANCH  12  31
HETATM   31  N2  UNL     1      -4.594   2.896  -1.771  1.00  0.00    -0.287 NA
HETATM   32  H18 UNL     1      -4.839   3.766  -2.317  1.00  0.00     0.125 HD
HETATM   33  H19 UNL     1      -4.825   3.745  -2.362  1.00  0.00     0.125 HD
ENDBRANCH  12  31
TORSDOF 5
