REMARK  4 active torsions:
REMARK  status: ('A' for Active; 'I' for Inactive)
REMARK    1  A    between atoms: O1_1  and  C1_2 
REMARK    2  A    between atoms: C1_2  and  C2_3 
REMARK    3  A    between atoms: C2_3  and  N1_4 
REMARK    4  A    between atoms: C12_19  and  C13_20 
ROOT
HETATM    1  N1  UNL     1      -2.692   0.250   0.942  1.00  0.00    -0.354 N 
HETATM    2  C3  UNL     1      -2.869   0.127   2.877  1.00  0.00     0.214 C 
HETATM    3  C4  UNL     1      -1.789  -0.196   2.397  1.00  0.00    -0.096 C 
HETATM    4  S1  UNL     1      -0.884  -0.490   1.982  1.00  0.00    -0.047 SA
HETATM    5  C5  UNL     1      -0.007  -0.793   1.566  1.00  0.00     0.362 A 
HETATM    6  N2  UNL     1       1.342  -0.145   1.455  1.00  0.00     0.113 N 
HETATM    7  C6  UNL     1       1.829  -0.146   0.104  1.00  0.00     0.255 C 
HETATM    8  C7  UNL     1       1.778   1.240  -0.339  1.00  0.00     0.059 C 
HETATM    9  C8  UNL     1       1.685   1.012  -1.612  1.00  0.00     0.124 C 
HETATM   10  N3  UNL     1       0.616   1.656  -2.156  1.00  0.00    -0.214 NA
HETATM   11  C9  UNL     1      -0.637   1.695  -1.714  1.00  0.00     0.298 C 
HETATM   12  N4  UNL     1      -0.725   1.026  -0.654  1.00  0.00    -0.395 NA
HETATM   13  C10 UNL     1      -0.982   0.404   0.359  1.00  0.00     0.260 A 
HETATM   14  N5  UNL     1       2.701   0.103  -2.100  1.00  0.00    -0.374 N 
HETATM   15  C11 UNL     1       3.808  -0.401  -1.305  1.00  0.00     0.129 C 
HETATM   16  C12 UNL     1       3.278  -0.651   0.129  1.00  0.00     0.054 C 
HETATM   17  H9  UNL     1       1.823  -1.151   1.785  1.00  0.00     0.318 HD
HETATM   18  H13 UNL     1       2.557  -0.113  -3.140  1.00  0.00     0.161 HD
ENDROOT
BRANCH   1  19
HETATM   19  C2  UNL     1      -3.369   0.386  -0.401  1.00  0.00     0.148 C 
BRANCH  19  20
HETATM   20  C1  UNL     1      -4.315  -0.771  -0.315  1.00  0.00     0.183 C 
BRANCH  20  21
HETATM   21  O1  UNL     1      -4.977  -1.280  -1.375  1.00  0.00    -0.399 OA
HETATM   22  H1  UNL     1      -4.988  -2.369  -1.352  1.00  0.00     0.209 HD
ENDBRANCH  20  21
ENDBRANCH  19  20
ENDBRANCH   1  19
BRANCH  16  23
HETATM   23  C13 UNL     1       3.987   0.060   1.244  1.00  0.00     0.123 C 
HETATM   24 CL1  UNL     1       4.086   1.789   0.920  1.00  0.00    -0.130 Cl
ENDBRANCH  16  23
TORSDOF 4
