REMARK  3 active torsions:
REMARK  status: ('A' for Active; 'I' for Inactive)
REMARK    1  A    between atoms: O1_2  and  C2_3 
REMARK    2  A    between atoms: C2_3  and  C3_5 
REMARK    3  A    between atoms: N2_15  and  C11_16 
ROOT
HETATM    1  C11 UNL     1      -0.582  -0.676  -1.280  1.00  0.00     0.057 C 
HETATM    2  C12 UNL     1      -0.863  -1.787  -1.940  1.00  0.00     0.033 C 
HETATM    3  C13 UNL     1      -1.676  -2.928  -2.295  1.00  0.00     0.020 C 
HETATM    4  C14 UNL     1      -2.826  -3.517  -1.994  1.00  0.00     0.093 C 
HETATM    5  N3  UNL     1      -3.406  -2.725  -0.967  1.00  0.00    -0.331 N 
HETATM    6  C15 UNL     1      -3.519  -3.574   0.161  1.00  0.00     0.158 C 
HETATM    7  C16 UNL     1      -3.845  -1.381  -0.876  1.00  0.00     0.251 C 
HETATM    8  O4  UNL     1      -3.527  -1.612  -2.053  1.00  0.00    -0.271 OA
HETATM    9  C17 UNL     1      -4.262  -0.968   0.522  1.00  0.00     0.376 C 
HETATM   10  N4  UNL     1      -4.548   0.444   0.549  1.00  0.00     0.108 N 
HETATM   11  C18 UNL     1      -5.634   0.622   1.511  1.00  0.00     0.304 C 
HETATM   12  C19 UNL     1      -5.764   2.076   1.904  1.00  0.00     0.302 C 
HETATM   13  N5  UNL     1      -5.101   2.949   0.959  1.00  0.00     0.088 N 
HETATM   14  C20 UNL     1      -5.740   2.779  -0.323  1.00  0.00     0.310 C 
HETATM   15  C21 UNL     1      -3.703   2.679   0.965  1.00  0.00     0.311 C 
HETATM   16  C22 UNL     1      -3.386   1.194   1.050  1.00  0.00     0.274 C 
HETATM   17  C23 UNL     1      -2.121   0.914   0.397  1.00  0.00     0.013 C 
HETATM   18  C24 UNL     1      -1.142   0.343  -0.359  1.00  0.00     0.029 C 
ENDROOT
BRANCH   1  19
HETATM   19  N2  UNL     1       0.715  -0.208  -1.705  1.00  0.00    -0.248 NA
HETATM   20  C10 UNL     1       1.769  -0.255  -1.004  1.00  0.00     0.107 A 
HETATM   21  C9  UNL     1       1.973  -0.761   0.349  1.00  0.00     0.271 A 
HETATM   22  C25 UNL     1       2.897   0.321  -1.803  1.00  0.00     0.106 A 
HETATM   23  N1  UNL     1       3.276  -0.726   0.953  1.00  0.00    -0.321 N 
HETATM   24  O3  UNL     1       0.952  -1.202   0.895  1.00  0.00    -0.266 OA
HETATM   25  C7  UNL     1       4.391  -0.189   0.221  1.00  0.00     0.042 A 
HETATM   26  H7  UNL     1       3.381  -1.099   1.924  1.00  0.00     0.169 HD
HETATM   27  C6  UNL     1       4.176   0.285  -1.056  1.00  0.00    -0.025 A 
HETATM   28  C8  UNL     1       5.649  -0.153   0.785  1.00  0.00     0.047 A 
HETATM   29  C5  UNL     1       5.257   0.803  -1.771  1.00  0.00     0.011 A 
HETATM   30  C4  UNL     1       6.511   0.852  -1.241  1.00  0.00     0.018 A 
HETATM   31  C3  UNL     1       6.680   0.367   0.040  1.00  0.00     0.041 A 
BRANCH  31  32
HETATM   32  C2  UNL     1       8.023   0.405   0.640  1.00  0.00     0.293 C 
HETATM   33  O2  UNL     1       8.426   0.031   1.772  1.00  0.00    -0.259 OA
BRANCH  32  34
HETATM   34  O1  UNL     1       9.115   0.911  -0.048  1.00  0.00    -0.323 OA
HETATM   35  C1  UNL     1      10.419   0.964   0.492  1.00  0.00     0.213 C 
ENDBRANCH  32  34
ENDBRANCH  31  32
ENDBRANCH   1  19
TORSDOF 3
