REMARK  3 active torsions:
REMARK  status: ('A' for Active; 'I' for Inactive)
REMARK    1  A    between atoms: C4_4  and  C5_5 
REMARK    2  A    between atoms: C11_15  and  C12_16 
REMARK    3  A    between atoms: C17_21  and  O1_22 
ROOT
HETATM    1  C1  UNL     1       3.913  -2.280   0.519  1.00  0.00     0.037 C 
HETATM    2  C2  UNL     1       3.424  -0.928   0.314  1.00  0.00    -0.017 C 
HETATM    3  C3  UNL     1       2.390  -0.119   0.284  1.00  0.00    -0.001 C 
HETATM    4  C4  UNL     1       2.653   1.281  -0.023  1.00  0.00    -0.020 C 
HETATM    5  C6  UNL     1       1.690   2.172  -0.243  1.00  0.00     0.003 C 
HETATM    6  C7  UNL     1       0.246   2.224  -0.286  1.00  0.00     0.148 C 
HETATM    7  N1  UNL     1      -0.445   0.976  -0.470  1.00  0.00    -0.383 N 
HETATM    8  C8  UNL     1      -0.155  -0.270   0.222  1.00  0.00     0.088 A 
HETATM    9  C9  UNL     1       1.086  -0.738   0.568  1.00  0.00     0.097 A 
HETATM   10  N2  UNL     1       1.198  -1.860   1.264  1.00  0.00    -0.239 NA
HETATM   11  C10 UNL     1       0.148  -2.561   1.657  1.00  0.00     0.234 A 
HETATM   12  N3  UNL     1      -1.056  -2.084   1.314  1.00  0.00    -0.239 NA
HETATM   13  C11 UNL     1      -1.297  -0.966   0.606  1.00  0.00     0.100 A 
HETATM   14  H10 UNL     1      -1.284   0.820  -1.127  1.00  0.00     0.160 HD
ENDROOT
BRANCH  13  15
HETATM   15  C12 UNL     1      -2.564  -0.360   0.335  1.00  0.00     0.028 A 
HETATM   16  C13 UNL     1      -3.170  -1.259  -0.556  1.00  0.00     0.017 A 
HETATM   17  C14 UNL     1      -4.542  -1.147  -0.901  1.00  0.00     0.001 A 
HETATM   18  C15 UNL     1      -5.311  -0.120  -0.352  1.00  0.00     0.003 A 
HETATM   19  C16 UNL     1      -4.753   0.801   0.527  1.00  0.00     0.037 A 
HETATM   20  C17 UNL     1      -3.437   0.586   0.781  1.00  0.00     0.078 A 
BRANCH  20  21
HETATM   21  O1  UNL     1      -2.649   1.387   1.629  1.00  0.00    -0.360 OA
HETATM   22  H16 UNL     1      -2.613   2.397   1.438  1.00  0.00     0.217 HD
ENDBRANCH  20  21
ENDBRANCH  13  15
BRANCH   4  23
HETATM   23  C5  UNL     1       4.053   1.757  -0.075  1.00  0.00     0.261 C 
HETATM   24  F1  UNL     1       4.618   1.524   1.149  1.00  0.00    -0.251 F 
ENDBRANCH   4  23
TORSDOF 3
