REMARK  3 active torsions:
REMARK  status: ('A' for Active; 'I' for Inactive)
REMARK    1  A    between atoms: O1_2  and  C2_3 
REMARK    2  A    between atoms: C2_3  and  C3_5 
REMARK    3  A    between atoms: C15_19  and  N2_20 
ROOT
HETATM    1  C3  UNL     1       2.145  -0.251   0.148  1.00  0.00     0.046 C 
HETATM    2  C4  UNL     1       2.257   1.099   0.130  1.00  0.00     0.018 C 
HETATM    3  C5  UNL     1       1.251   2.167  -0.116  1.00  0.00     0.006 C 
HETATM    4  C6  UNL     1       0.041   2.065  -0.671  1.00  0.00    -0.048 C 
HETATM    5  C7  UNL     1      -0.731   3.326  -0.776  1.00  0.00     0.157 C 
HETATM    6  N1  UNL     1      -1.942   2.919  -1.460  1.00  0.00    -0.356 N 
HETATM    7  C8  UNL     1      -1.792   1.586  -1.988  1.00  0.00     0.227 C 
HETATM    8  O3  UNL     1      -2.352   0.923  -2.918  1.00  0.00    -0.273 OA
HETATM    9  C9  UNL     1      -0.731   0.891  -1.232  1.00  0.00     0.120 C 
HETATM   10  C10 UNL     1      -1.214   0.052  -0.097  1.00  0.00     0.025 C 
HETATM   11  C11 UNL     1      -1.307   0.895   1.193  1.00  0.00     0.042 C 
HETATM   12  C12 UNL     1      -1.745   0.024   2.316  1.00  0.00    -0.014 C 
HETATM   13  C13 UNL     1      -2.964  -0.299   2.043  1.00  0.00    -0.032 C 
HETATM   14  C14 UNL     1      -3.187  -0.904   0.911  1.00  0.00     0.021 C 
HETATM   15  C15 UNL     1      -2.664  -0.287  -0.347  1.00  0.00     0.252 C 
HETATM   16  C16 UNL     1      -0.447  -1.152   0.200  1.00  0.00     0.072 A 
HETATM   17  C17 UNL     1      -0.845  -2.448  -0.356  1.00  0.00    -0.002 A 
HETATM   18 BR1  UNL     1      -2.471  -3.439  -0.543  1.00  0.00    -0.055 Br
HETATM   19  C18 UNL     1       0.206  -3.122  -0.872  1.00  0.00     0.016 A 
HETATM   20  C19 UNL     1       1.417  -2.285  -0.690  1.00  0.00     0.010 A 
HETATM   21  C20 UNL     1       1.007  -1.148  -0.071  1.00  0.00    -0.032 A 
HETATM   22  H8  UNL     1      -2.835   3.406  -1.617  1.00  0.00     0.162 HD
ENDROOT
BRANCH  15  23
HETATM   23  N2  UNL     1      -3.493   0.918  -0.521  1.00  0.00     0.087 N 
HETATM   24  H15 UNL     1      -3.835   1.278   0.400  1.00  0.00     0.313 HD
HETATM   25  H16 UNL     1      -4.352   0.622  -1.069  1.00  0.00     0.313 HD
ENDBRANCH  15  23
BRANCH   1  26
HETATM   26  C2  UNL     1       3.429  -0.837   0.435  1.00  0.00     0.293 C 
HETATM   27  O2  UNL     1       4.390  -0.048   0.608  1.00  0.00    -0.259 OA
BRANCH  26  28
HETATM   28  O1  UNL     1       4.033  -2.059   0.602  1.00  0.00    -0.323 OA
HETATM   29  C1  UNL     1       5.407  -2.220   0.893  1.00  0.00     0.213 C 
ENDBRANCH  26  28
ENDBRANCH   1  26
TORSDOF 3
