REMARK  0 active torsions:
REMARK  status: ('A' for Active; 'I' for Inactive)
ROOT
HETATM    1  C1  UNL     1       6.736  -0.824   2.310  1.00  0.00     0.093 C 
HETATM    2  C2  UNL     1       5.677  -0.291   1.407  1.00  0.00     0.124 A 
HETATM    3  N1  UNL     1       5.016  -1.107   0.553  1.00  0.00    -0.238 NA
HETATM    4  C3  UNL     1       4.050  -0.688  -0.288  1.00  0.00     0.042 A 
HETATM    5  C4  UNL     1       3.821   0.646  -0.176  1.00  0.00     0.077 A 
HETATM    6  C5  UNL     1       4.436   1.547   0.658  1.00  0.00     0.133 A 
HETATM    7  N2  UNL     1       5.385   1.047   1.461  1.00  0.00    -0.216 NA
HETATM    8  N3  UNL     1       4.098   2.917   0.736  1.00  0.00    -0.320 N 
HETATM    9  C6  UNL     1       2.750   2.995   0.305  1.00  0.00     0.172 A 
HETATM   10  N4  UNL     1       2.100   3.629  -0.440  1.00  0.00    -0.235 NA
HETATM   11  C7  UNL     1       0.807   3.393  -0.641  1.00  0.00     0.138 A 
HETATM   12  C8  UNL     1       0.193   2.389   0.028  1.00  0.00     0.056 A 
HETATM   13  S1  UNL     1       1.595   1.680   1.076  1.00  0.00    -0.051 SA
HETATM   14  C9  UNL     1      -0.964   1.578   0.353  1.00  0.00     0.364 C 
HETATM   15  N5  UNL     1      -2.158   2.418   0.097  1.00  0.00    -0.365 N 
HETATM   16  C10 UNL     1      -3.415   1.838   0.396  1.00  0.00     0.094 C 
HETATM   17  C11 UNL     1      -4.106   0.779   0.078  1.00  0.00    -0.021 C 
HETATM   18  C12 UNL     1      -5.415   0.768   0.776  1.00  0.00     0.045 C 
HETATM   19  C13 UNL     1      -6.131  -0.535   0.754  1.00  0.00     0.032 C 
HETATM   20  C14 UNL     1      -5.346  -1.698   1.261  1.00  0.00    -0.026 C 
HETATM   21  C15 UNL     1      -4.229  -2.177   0.641  1.00  0.00     0.005 C 
HETATM   22  C16 UNL     1      -3.268  -1.482  -0.284  1.00  0.00    -0.036 C 
HETATM   23  C17 UNL     1      -3.758  -0.344  -0.828  1.00  0.00     0.048 C 
HETATM   24 CL1  UNL     1      -3.930  -0.326  -2.587  1.00  0.00    -0.083 Cl
HETATM   25  C18 UNL     1      -2.126  -2.404  -0.205  1.00  0.00     0.044 C 
HETATM   26  C19 UNL     1      -0.865  -1.932  -0.849  1.00  0.00     0.073 C 
HETATM   27  C20 UNL     1      -0.251  -0.695  -0.246  1.00  0.00     0.456 C 
HETATM   28  N6  UNL     1      -1.163   0.380  -0.388  1.00  0.00     0.145 N 
HETATM   29  N7  UNL     1       1.045  -0.482  -0.875  1.00  0.00     0.118 N 
HETATM   30  C21 UNL     1       0.903  -0.004  -2.237  1.00  0.00     0.312 C 
HETATM   31  C22 UNL     1       1.866  -1.668  -0.828  1.00  0.00     0.280 C 
HETATM   32  C23 UNL     1       3.291  -1.547  -1.220  1.00  0.00     0.089 C 
HETATM   33  H5  UNL     1       4.696   3.686   1.040  1.00  0.00     0.169 HD
HETATM   34  H8  UNL     1      -2.089   3.397  -0.288  1.00  0.00     0.161 HD
HETATM   35  H21 UNL     1      -1.254   0.705  -1.400  1.00  0.00     0.321 HD
ENDROOT
TORSDOF 0
