REMARK  1 active torsions:
REMARK  status: ('A' for Active; 'I' for Inactive)
REMARK       I    between atoms: N1_4  and  C4_5 
REMARK    1  A    between atoms: C4_5  and  C5_7 
ROOT
HETATM    1  C5  UNL     1       1.054   0.623   0.265  1.00  0.00     0.076 C 
HETATM    2  C6  UNL     1       0.559   1.880   0.447  1.00  0.00     0.135 C 
HETATM    3  N2  UNL     1      -0.753   2.332   0.657  1.00  0.00    -0.255 NA
HETATM    4  C7  UNL     1      -1.453   2.469   1.702  1.00  0.00     0.208 C 
HETATM    5  N3  UNL     1      -2.806   2.939   1.877  1.00  0.00    -0.335 N 
HETATM    6  C8  UNL     1      -3.705   2.217   1.087  1.00  0.00     0.134 A 
HETATM    7  C9  UNL     1      -3.422   0.964   0.611  1.00  0.00     0.100 A 
HETATM    8  C10 UNL     1      -3.754  -0.148  -0.119  1.00  0.00     0.131 A 
HETATM    9  N4  UNL     1      -4.950   0.228  -0.556  1.00  0.00    -0.216 NA
HETATM   10  C11 UNL     1      -5.493   1.415  -0.248  1.00  0.00     0.126 A 
HETATM   11  C12 UNL     1      -6.866   1.677  -0.835  1.00  0.00     0.093 C 
HETATM   12  N5  UNL     1      -4.917   2.349   0.518  1.00  0.00    -0.216 NA
HETATM   13  N6  UNL     1      -2.740  -1.177  -0.149  1.00  0.00    -0.362 N 
HETATM   14  C13 UNL     1      -2.485  -2.008   1.009  1.00  0.00     0.143 C 
HETATM   15  C14 UNL     1      -1.552  -1.432   2.007  1.00  0.00     0.136 C 
HETATM   16  N7  UNL     1      -0.392  -0.769   1.601  1.00  0.00    -0.391 N 
HETATM   17  C15 UNL     1      -0.094  -0.395   0.307  1.00  0.00     0.258 C 
HETATM   18  O2  UNL     1       0.260  -1.382  -0.584  1.00  0.00    -0.356 OA
HETATM   19  C16 UNL     1      -0.698  -1.901  -1.400  1.00  0.00     0.138 C 
HETATM   20  C17 UNL     1      -0.754  -3.412  -1.391  1.00  0.00     0.041 C 
HETATM   21  C18 UNL     1      -2.041  -1.232  -1.412  1.00  0.00     0.156 C 
HETATM   22  H7  UNL     1      -3.147   3.701   2.485  1.00  0.00     0.168 HD
HETATM   23  H16 UNL     1      -0.132  -0.024   2.288  1.00  0.00     0.156 HD
ENDROOT
BRANCH   1  24
HETATM   24  C4  UNL     1       2.379   0.131   0.050  1.00  0.00     0.264 C 
HETATM   25  N1  UNL     1       3.729   0.420  -0.097  1.00  0.00    -0.279 N 
HETATM   26  C3  UNL     1       4.676  -0.593  -0.326  1.00  0.00     0.104 A 
HETATM   27  C19 UNL     1       4.256   1.723  -0.029  1.00  0.00     0.109 A 
HETATM   28  C2  UNL     1       5.954  -0.360  -0.469  1.00  0.00    -0.064 A 
HETATM   29  C1  UNL     1       6.923  -1.439  -0.709  1.00  0.00     0.045 C 
HETATM   30  C21 UNL     1       6.556   0.975  -0.408  1.00  0.00     0.065 A 
HETATM   31  C20 UNL     1       5.526   1.994  -0.167  1.00  0.00     0.020 A 
HETATM   32 CL1  UNL     1       3.345   3.154   0.241  1.00  0.00    -0.064 Cl
HETATM   33  O1  UNL     1       2.276  -1.140  -0.052  1.00  0.00    -0.267 OA
ENDBRANCH   1  24
TORSDOF 1
