REMARK  3 active torsions:
REMARK  status: ('A' for Active; 'I' for Inactive)
REMARK    1  A    between atoms: C2_2  and  C16_21 
REMARK    2  A    between atoms: C3_3  and  N1_4 
REMARK    3  A    between atoms: N1_4  and  C4_5 
ROOT
HETATM    1  C4  UNL     1       0.074  -0.836  -0.440  1.00  0.00     0.066 A 
HETATM    2  C5  UNL     1       0.182  -2.216  -0.430  1.00  0.00     0.089 A 
HETATM    3  C6  UNL     1       1.186  -3.029  -1.021  1.00  0.00     0.103 C 
HETATM    4  N2  UNL     1       2.006  -3.670  -1.508  1.00  0.00    -0.191 NA
HETATM    5  C7  UNL     1      -0.820  -2.869   0.245  1.00  0.00     0.142 A 
HETATM    6  N3  UNL     1      -1.777  -2.133   0.811  1.00  0.00    -0.263 NA
HETATM    7  C8  UNL     1      -1.923  -0.807   0.827  1.00  0.00     0.050 A 
HETATM    8  C9  UNL     1      -0.937  -0.057   0.156  1.00  0.00     0.018 A 
HETATM    9  C10 UNL     1      -0.520   1.328  -0.217  1.00  0.00     0.033 C 
HETATM   10  C11 UNL     1      -1.351   2.386  -0.010  1.00  0.00     0.092 C 
HETATM   11  N4  UNL     1      -2.170   1.376   0.489  1.00  0.00    -0.334 N 
HETATM   12  C12 UNL     1      -3.312   0.812  -0.135  1.00  0.00     0.244 C 
HETATM   13  O1  UNL     1      -2.882   1.730  -0.874  1.00  0.00    -0.268 OA
HETATM   14  C13 UNL     1      -4.393  -0.154  -0.152  1.00  0.00     0.071 C 
HETATM   15  C14 UNL     1      -4.397  -1.026   0.844  1.00  0.00    -0.015 C 
HETATM   16  C15 UNL     1      -3.159  -0.548   1.583  1.00  0.00     0.087 C 
HETATM   17  H9  UNL     1      -1.605   1.380   1.419  1.00  0.00     0.168 HD
ENDROOT
BRANCH   1  18
HETATM   18  N1  UNL     1       1.218  -0.345  -1.194  1.00  0.00    -0.364 N 
HETATM   19  H5  UNL     1       0.947  -0.249  -2.218  1.00  0.00     0.165 HD
BRANCH  18  20
HETATM   20  C3  UNL     1       2.481  -0.041  -0.661  1.00  0.00     0.093 C 
HETATM   21  C2  UNL     1       3.378   0.780  -0.201  1.00  0.00    -0.040 C 
HETATM   22  C1  UNL     1       3.413   2.241   0.009  1.00  0.00     0.047 C 
BRANCH  21  23
HETATM   23  C16 UNL     1       4.694   0.273   0.245  1.00  0.00     0.257 C 
HETATM   24  F1  UNL     1       4.767  -1.108   0.088  1.00  0.00    -0.251 F 
ENDBRANCH  21  23
ENDBRANCH  18  20
ENDBRANCH   1  18
TORSDOF 3
