REMARK  7 active torsions:
REMARK  status: ('A' for Active; 'I' for Inactive)
REMARK    1  A    between atoms: N1_2  and  C2_3 
REMARK    2  A    between atoms: C2_3  and  C3_4 
REMARK    3  A    between atoms: C4_5  and  C5_6 
REMARK       I    between atoms: C5_6  and  N2_8 
REMARK    4  A    between atoms: N2_8  and  C6_9 
REMARK    5  A    between atoms: C13_17  and  O2_18 
REMARK    6  A    between atoms: O2_18  and  C14_19 
REMARK    7  A    between atoms: C14_19  and  C15_20 
ROOT
HETATM    1  C6  UNL     1      -1.241  -0.503  -0.214  1.00  0.00     0.066 C 
HETATM    2  C7  UNL     1      -1.364  -1.775  -0.485  1.00  0.00     0.020 C 
HETATM    3  C8  UNL     1      -2.767  -2.070  -0.705  1.00  0.00     0.086 A 
HETATM    4  C9  UNL     1      -3.221  -3.465  -0.588  1.00  0.00     0.007 A 
HETATM    5  C10 UNL     1      -4.275  -3.443   0.246  1.00  0.00     0.114 A 
HETATM    6  N3  UNL     1      -4.533  -2.121   0.689  1.00  0.00    -0.265 NA
HETATM    7  C11 UNL     1      -3.668  -1.317   0.156  1.00  0.00     0.048 A 
HETATM    8  C12 UNL     1      -3.464   0.095   0.378  1.00  0.00     0.067 C 
HETATM    9  C13 UNL     1      -2.198   0.501   0.197  1.00  0.00     0.097 C 
ENDROOT
BRANCH   1  10
HETATM   10  N2  UNL     1       0.090   0.014   0.012  1.00  0.00    -0.321 N 
HETATM   11  C5  UNL     1       1.326  -0.670   0.031  1.00  0.00     0.245 C 
HETATM   12  O1  UNL     1       1.436  -1.903  -0.156  1.00  0.00    -0.268 OA
HETATM   13  H9  UNL     1       0.368   1.006   0.201  1.00  0.00     0.169 HD
BRANCH  11  14
HETATM   14  C4  UNL     1       2.664  -0.210   0.244  1.00  0.00     0.072 C 
HETATM   15  C3  UNL     1       3.560  -1.166   0.184  1.00  0.00    -0.002 C 
BRANCH  15  16
HETATM   16  C2  UNL     1       5.006  -0.967   0.366  1.00  0.00     0.141 C 
BRANCH  16  17
HETATM   17  N1  UNL     1       5.412   0.379   0.619  1.00  0.00    -0.422 N 
HETATM   18  C1  UNL     1       5.257   1.289  -0.476  1.00  0.00     0.140 C 
HETATM   19  H4  UNL     1       5.121   0.753   1.537  1.00  0.00     0.153 HD
ENDBRANCH  16  17
ENDBRANCH  15  16
ENDBRANCH  11  14
ENDBRANCH   1  10
BRANCH   9  20
HETATM   20  O2  UNL     1      -1.902   1.832   0.413  1.00  0.00    -0.346 OA
BRANCH  20  21
HETATM   21  C14 UNL     1      -2.943   2.749   0.671  1.00  0.00     0.207 C 
BRANCH  21  22
HETATM   22  C15 UNL     1      -2.422   4.154   0.866  1.00  0.00     0.248 C 
HETATM   23  F1  UNL     1      -1.554   4.195   1.924  1.00  0.00    -0.253 F 
ENDBRANCH  21  22
ENDBRANCH  20  21
ENDBRANCH   9  20
TORSDOF 7
