REMARK  5 active torsions:
REMARK  status: ('A' for Active; 'I' for Inactive)
REMARK    1  A    between atoms: N1_2  and  C2_3 
REMARK    2  A    between atoms: C2_3  and  C3_4 
REMARK    3  A    between atoms: C4_5  and  C5_6 
REMARK       I    between atoms: C5_6  and  N2_8 
REMARK    4  A    between atoms: N2_8  and  C6_9 
REMARK    5  A    between atoms: C12_17  and  N4_18 
ROOT
HETATM    1  C6  UNL     1       0.548  -0.956   1.269  1.00  0.00     0.027 A 
HETATM    2  C7  UNL     1      -0.727  -0.860   1.830  1.00  0.00     0.133 A 
HETATM    3  C8  UNL     1      -2.139  -0.057   1.567  1.00  0.00     0.015 A 
HETATM    4  C9  UNL     1      -1.929  -1.348   1.049  1.00  0.00     0.166 A 
HETATM    5  N3  UNL     1      -2.184  -1.808   2.346  1.00  0.00    -0.262 NA
HETATM    6  C10 UNL     1      -2.461  -0.900   3.301  1.00  0.00     0.140 A 
HETATM    7  C11 UNL     1      -2.552   0.505   3.249  1.00  0.00     0.078 A 
HETATM    8 CL1  UNL     1      -2.953   1.598   4.605  1.00  0.00    -0.080 Cl
HETATM    9  C12 UNL     1      -2.338   1.180   2.053  1.00  0.00     0.061 A 
HETATM   10  N4  UNL     1      -2.387   2.545   1.620  1.00  0.00    -0.375 N 
HETATM   11  C13 UNL     1      -3.795   3.067   1.584  1.00  0.00     0.150 C 
HETATM   12  C14 UNL     1      -4.103   3.143   0.088  1.00  0.00    -0.007 C 
HETATM   13  C15 UNL     1      -3.417   2.526  -0.965  1.00  0.00     0.007 C 
HETATM   14  C16 UNL     1      -1.976   2.235  -0.751  1.00  0.00    -0.023 C 
HETATM   15  C17 UNL     1      -1.628   0.960  -0.707  1.00  0.00     0.076 C 
HETATM   16  C18 UNL     1      -2.759   0.083  -0.875  1.00  0.00     0.054 C 
HETATM   17  C19 UNL     1      -2.874  -1.215  -0.755  1.00  0.00     0.088 C 
HETATM   18  N5  UNL     1      -1.660  -1.738  -0.359  1.00  0.00    -0.367 N 
HETATM   19  O2  UNL     1      -0.243   0.621  -0.512  1.00  0.00    -0.346 OA
HETATM   20  C20 UNL     1       0.044   0.281   0.802  1.00  0.00     0.219 A 
HETATM   21  C21 UNL     1      -0.939   3.220  -0.282  1.00  0.00     0.061 C 
HETATM   22  C22 UNL     1      -1.283   3.469   1.213  1.00  0.00     0.128 C 
HETATM   23  H18 UNL     1      -0.684  -2.234  -0.337  1.00  0.00     0.161 HD
ENDROOT
BRANCH   1  24
HETATM   24  N2  UNL     1       1.880  -1.276   0.949  1.00  0.00    -0.328 N 
HETATM   25  C5  UNL     1       2.251  -1.793  -0.293  1.00  0.00     0.245 C 
HETATM   26  O1  UNL     1       1.743  -2.124  -1.368  1.00  0.00    -0.268 OA
HETATM   27  H9  UNL     1       2.430  -1.050   1.792  1.00  0.00     0.168 HD
BRANCH  25  28
HETATM   28  C4  UNL     1       3.688  -1.991  -0.293  1.00  0.00     0.072 C 
HETATM   29  C3  UNL     1       4.216  -2.476  -1.402  1.00  0.00     0.008 C 
BRANCH  29  30
HETATM   30  C2  UNL     1       4.119  -2.978  -2.787  1.00  0.00     0.296 C 
BRANCH  30  31
HETATM   31  N1  UNL     1       4.889  -2.145  -3.724  1.00  0.00     0.082 N 
HETATM   32  C1  UNL     1       6.316  -2.256  -3.450  1.00  0.00     0.307 C 
HETATM   33  H4  UNL     1       4.742  -2.582  -4.675  1.00  0.00     0.315 HD
ENDBRANCH  30  31
ENDBRANCH  29  30
ENDBRANCH  25  28
ENDBRANCH   1  24
TORSDOF 5
