REMARK  5 active torsions:
REMARK  status: ('A' for Active; 'I' for Inactive)
REMARK    1  A    between atoms: C1_2  and  C2_3 
REMARK    2  A    between atoms: C2_3  and  C3_4 
REMARK    3  A    between atoms: C3_4  and  C4_5 
REMARK    4  A    between atoms: C8_9  and  N1_10 
REMARK    5  A    between atoms: N1_10  and  C9_11 
ROOT
HETATM    1  C4  UNL     1      -2.958  -0.791   0.136  1.00  0.00    -0.073 A 
HETATM    2  C5  UNL     1      -1.741  -1.015  -0.388  1.00  0.00     0.016 A 
HETATM    3  C6  UNL     1      -0.735  -0.494   0.531  1.00  0.00    -0.009 A 
HETATM    4  C7  UNL     1       0.632  -0.435   0.533  1.00  0.00     0.044 A 
HETATM    5  C8  UNL     1       1.415   0.117   1.525  1.00  0.00     0.051 A 
HETATM    6  C15 UNL     1       0.678   0.635   2.573  1.00  0.00     0.146 A 
HETATM    7  N2  UNL     1      -0.663   0.594   2.604  1.00  0.00    -0.262 NA
HETATM    8  C16 UNL     1      -1.396   0.045   1.615  1.00  0.00     0.048 A 
HETATM    9  C17 UNL     1      -2.865  -0.108   1.446  1.00  0.00     0.094 A 
ENDROOT
BRANCH   5  10
HETATM   10  N1  UNL     1       2.812   0.206   1.541  1.00  0.00    -0.355 N 
HETATM   11  H9  UNL     1       3.245   0.321   2.508  1.00  0.00     0.166 HD
BRANCH  10  12
HETATM   12  C9  UNL     1       3.787   0.173   0.526  1.00  0.00     0.034 A 
HETATM   13  C10 UNL     1       5.104  -0.151   0.772  1.00  0.00     0.032 A 
HETATM   14  C11 UNL     1       6.075  -0.174  -0.200  1.00  0.00     0.046 A 
HETATM   15  C12 UNL     1       5.777   0.133  -1.507  1.00  0.00     0.138 A 
HETATM   16  F2  UNL     1       6.797   0.084  -2.395  1.00  0.00    -0.204 F 
HETATM   17  C13 UNL     1       4.473   0.465  -1.810  1.00  0.00     0.074 A 
HETATM   18 CL1  UNL     1       4.091   0.857  -3.473  1.00  0.00    -0.081 Cl
HETATM   19  C14 UNL     1       3.546   0.470  -0.789  1.00  0.00     0.056 A 
ENDBRANCH  10  12
ENDBRANCH   5  10
BRANCH   1  20
HETATM   20  C3  UNL     1      -4.249  -1.152  -0.455  1.00  0.00     0.037 C 
BRANCH  20  21
HETATM   21  C2  UNL     1      -5.140   0.015  -0.725  1.00  0.00     0.035 C 
BRANCH  21  22
HETATM   22  C1  UNL     1      -4.518   0.987  -1.686  1.00  0.00     0.222 C 
HETATM   23  F1  UNL     1      -3.327   1.520  -1.251  1.00  0.00    -0.255 F 
ENDBRANCH  21  22
ENDBRANCH  20  21
ENDBRANCH   1  20
TORSDOF 5
