REMARK  1 active torsions:
REMARK  status: ('A' for Active; 'I' for Inactive)
REMARK    1  A    between atoms: C15_20  and  S1_21 
ROOT
HETATM    1  F1  UNL     1       4.998   1.612  -1.164  1.00  0.00    -0.206 F 
HETATM    2  C1  UNL     1       3.891   1.160  -0.513  1.00  0.00     0.119 A 
HETATM    3  C2  UNL     1       3.789  -0.213  -0.436  1.00  0.00     0.051 A 
HETATM    4  C3  UNL     1       2.669  -0.727   0.225  1.00  0.00    -0.035 A 
HETATM    5  C4  UNL     1       1.760   0.167   0.747  1.00  0.00     0.046 A 
HETATM    6  C5  UNL     1       1.825   1.538   0.691  1.00  0.00     0.079 A 
HETATM    7  C6  UNL     1       2.942   2.001   0.031  1.00  0.00     0.079 A 
HETATM    8  O1  UNL     1       0.855   2.334   1.246  1.00  0.00    -0.308 OA
HETATM    9  C7  UNL     1      -0.427   2.371   0.777  1.00  0.00     0.102 A 
HETATM   10  C8  UNL     1      -0.681   3.721   0.542  1.00  0.00     0.039 A 
HETATM   11  C9  UNL     1      -1.871   4.285   0.054  1.00  0.00     0.003 A 
HETATM   12  C10 UNL     1      -2.937   3.427  -0.238  1.00  0.00     0.002 A 
HETATM   13  C11 UNL     1      -2.644   2.078   0.010  1.00  0.00     0.032 A 
HETATM   14  C12 UNL     1      -1.464   1.520   0.492  1.00  0.00     0.064 A 
HETATM   15  N1  UNL     1      -1.669   0.111   0.554  1.00  0.00    -0.362 N 
HETATM   16  C13 UNL     1      -1.779  -1.007  -0.359  1.00  0.00     0.247 C 
HETATM   17  N2  UNL     1      -3.098  -1.597  -0.293  1.00  0.00    -0.256 NA
HETATM   18  C14 UNL     1      -3.078  -2.848  -0.498  1.00  0.00     0.200 C 
HETATM   19  N3  UNL     1      -1.742  -3.231  -0.725  1.00  0.00    -0.362 N 
HETATM   20  C15 UNL     1      -0.872  -2.156  -0.148  1.00  0.00     0.133 C 
HETATM   21  C16 UNL     1       0.325  -2.000  -1.019  1.00  0.00     0.160 C 
HETATM   22  N4  UNL     1       1.527  -2.640  -0.701  1.00  0.00    -0.414 N 
HETATM   23  C17 UNL     1       2.296  -2.191   0.405  1.00  0.00     0.153 C 
HETATM   24  H8  UNL     1      -1.742   0.225   1.576  1.00  0.00     0.162 HD
HETATM   25  H11 UNL     1      -1.426  -4.119  -1.217  1.00  0.00     0.162 HD
HETATM   26  H15 UNL     1       1.479  -3.682  -0.727  1.00  0.00     0.153 HD
ENDROOT
BRANCH  20  27
HETATM   27  S1  UNL     1      -0.596  -2.668   1.534  1.00  0.00    -0.145 SA
HETATM   28  H12 UNL     1      -1.425  -1.947   2.421  1.00  0.00     0.104 HD
ENDBRANCH  20  27
TORSDOF 1
