REMARK  5 active torsions:
REMARK  status: ('A' for Active; 'I' for Inactive)
REMARK    1  A    between atoms: C6_8  and  O1_9 
REMARK    2  A    between atoms: O1_9  and  C7_10 
REMARK    3  A    between atoms: C7_10  and  C8_11 
REMARK    4  A    between atoms: C9_13  and  N3_14 
REMARK    5  A    between atoms: N3_14  and  C10_15 
ROOT
HETATM    1  N1  UNL     1       3.062  -2.753   1.146  1.00  0.00    -0.157 N 
HETATM    2  C1  UNL     1       3.297  -1.976   0.152  1.00  0.00     0.069 A 
HETATM    3  C2  UNL     1       3.552  -1.064  -1.042  1.00  0.00     0.037 A 
HETATM    4  C3  UNL     1       2.551  -1.200  -0.352  1.00  0.00     0.214 A 
HETATM    5  N2  UNL     1       1.406  -1.427   0.523  1.00  0.00    -0.281 NA
HETATM    6  C4  UNL     1       0.377  -0.588   0.147  1.00  0.00     0.043 C 
HETATM    7  C5  UNL     1      -0.670  -0.977   1.115  1.00  0.00     0.066 C 
HETATM    8  C6  UNL     1      -1.925  -0.692   0.656  1.00  0.00     0.097 C 
HETATM    9  C9  UNL     1      -2.089   0.048  -0.625  1.00  0.00     0.065 C 
HETATM   10  C11 UNL     1      -1.079   0.516  -1.372  1.00  0.00     0.020 C 
HETATM   11  C12 UNL     1       0.365   0.360  -0.971  1.00  0.00     0.084 C 
HETATM   12  C13 UNL     1       0.887   1.651  -0.403  1.00  0.00    -0.014 C 
HETATM   13  C14 UNL     1       2.132   1.864  -0.007  1.00  0.00    -0.011 C 
HETATM   14  C15 UNL     1       3.526   1.980   0.397  1.00  0.00     0.141 C 
HETATM   15  N4  UNL     1       4.329   0.742   0.255  1.00  0.00    -0.413 N 
HETATM   16  C16 UNL     1       4.863   0.099  -0.880  1.00  0.00     0.094 A 
HETATM   17  C17 UNL     1       4.731  -0.850  -1.800  1.00  0.00     0.029 A 
HETATM   18  H15 UNL     1       4.754  -0.046   0.857  1.00  0.00     0.153 HD
ENDROOT
BRANCH   8  19
HETATM   19  O1  UNL     1      -3.189  -0.859   1.105  1.00  0.00    -0.346 OA
BRANCH  19  20
HETATM   20  C7  UNL     1      -3.893   0.030   1.898  1.00  0.00     0.207 C 
BRANCH  20  21
HETATM   21  C8  UNL     1      -5.397  -0.169   1.713  1.00  0.00     0.248 C 
HETATM   22  F1  UNL     1      -5.728   0.113   0.438  1.00  0.00    -0.253 F 
ENDBRANCH  20  21
ENDBRANCH  19  20
ENDBRANCH   8  19
BRANCH   9  23
HETATM   23  N3  UNL     1      -3.258   0.326  -1.384  1.00  0.00    -0.332 N 
HETATM   24  H7  UNL     1      -3.809   1.118  -1.757  1.00  0.00     0.168 HD
BRANCH  23  25
HETATM   25  C10 UNL     1      -3.705  -1.036  -1.680  1.00  0.00     0.353 C 
HETATM   26  O2  UNL     1      -3.055  -2.028  -1.251  1.00  0.00    -0.283 OA
ENDBRANCH  23  25
ENDBRANCH   9  23
TORSDOF 5
