REMARK  6 active torsions:
REMARK  status: ('A' for Active; 'I' for Inactive)
REMARK    1  A    between atoms: O1_2  and  C2_3 
REMARK    2  A    between atoms: C3_4  and  C4_5 
REMARK    3  A    between atoms: C7_9  and  N2_10 
REMARK    4  A    between atoms: C8_11  and  N3_12 
REMARK    5  A    between atoms: N3_12  and  C9_13 
REMARK    6  A    between atoms: C16_22  and  N4_23 
ROOT
HETATM    1  C4  UNL     1      -1.934   0.299  -0.025  1.00  0.00     0.112 C 
HETATM    2  C5  UNL     1      -1.312   1.037   1.125  1.00  0.00     0.106 C 
HETATM    3  N1  UNL     1      -0.369   0.838   2.016  1.00  0.00    -0.274 NA
HETATM    4  C6  UNL     1       0.500  -0.301   2.219  1.00  0.00     0.142 C 
HETATM    5  C7  UNL     1       1.107  -1.161   1.380  1.00  0.00     0.047 C 
HETATM    6  C8  UNL     1       1.061  -1.204  -0.128  1.00  0.00     0.163 C 
HETATM    7  C15 UNL     1      -0.341  -1.570  -0.524  1.00  0.00    -0.035 C 
HETATM    8  C16 UNL     1      -0.422  -2.412  -1.545  1.00  0.00     0.085 C 
HETATM    9  C17 UNL     1      -1.666  -1.165   0.014  1.00  0.00     0.060 C 
ENDROOT
BRANCH   6  10
HETATM   10  N3  UNL     1       1.429   0.081  -0.663  1.00  0.00    -0.376 N 
HETATM   11  H10 UNL     1       0.692   0.591  -1.236  1.00  0.00     0.160 HD
BRANCH  10  12
HETATM   12  C9  UNL     1       2.669   0.738  -0.506  1.00  0.00     0.030 A 
HETATM   13  C10 UNL     1       2.901   1.996  -1.067  1.00  0.00     0.032 A 
HETATM   14  C11 UNL     1       4.100   2.657  -0.934  1.00  0.00     0.046 A 
HETATM   15  C12 UNL     1       5.121   2.082  -0.228  1.00  0.00     0.138 A 
HETATM   16  F1  UNL     1       6.303   2.731  -0.096  1.00  0.00    -0.204 F 
HETATM   17  C13 UNL     1       4.953   0.835   0.353  1.00  0.00     0.074 A 
HETATM   18 CL1  UNL     1       6.260   0.086   1.262  1.00  0.00    -0.081 Cl
HETATM   19  C14 UNL     1       3.736   0.236   0.180  1.00  0.00     0.056 A 
ENDBRANCH  10  12
ENDBRANCH   6  10
BRANCH   5  20
HETATM   20  N2  UNL     1       1.816  -2.043   2.256  1.00  0.00    -0.399 N 
HETATM   21  H7  UNL     1       1.279  -2.952   2.197  1.00  0.00     0.156 HD
HETATM   22  H8  UNL     1       2.646  -1.566   2.702  1.00  0.00     0.156 HD
ENDBRANCH   5  20
BRANCH   8  23
HETATM   23  N4  UNL     1      -1.400  -3.085  -2.329  1.00  0.00    -0.408 N 
HETATM   24  H15 UNL     1      -1.735  -4.064  -2.205  1.00  0.00     0.155 HD
HETATM   25  H16 UNL     1      -1.746  -2.420  -3.081  1.00  0.00     0.155 HD
ENDBRANCH   8  23
BRANCH   1  26
HETATM   26  C3  UNL     1      -3.403   0.447   0.129  1.00  0.00    -0.066 C 
HETATM   27  C2  UNL     1      -4.612   0.556   0.238  1.00  0.00     0.054 C 
BRANCH  27  28
HETATM   28  O1  UNL     1      -5.965   0.663   0.343  1.00  0.00    -0.309 OA
HETATM   29  C1  UNL     1      -6.611   1.873   0.706  1.00  0.00     0.223 C 
ENDBRANCH  27  28
ENDBRANCH   1  26
TORSDOF 6
