REMARK  7 active torsions:
REMARK  status: ('A' for Active; 'I' for Inactive)
REMARK    1  A    between atoms: C2_2  and  C3_3 
REMARK    2  A    between atoms: C4_4  and  C5_5 
REMARK       I    between atoms: C5_5  and  N1_7 
REMARK    3  A    between atoms: C13_17  and  N4_18 
REMARK    4  A    between atoms: C20_27  and  O2_28 
REMARK    5  A    between atoms: O2_28  and  C21_29 
REMARK    6  A    between atoms: C21_29  and  C22_30 
REMARK    7  A    between atoms: C22_30  and  N5_31 
ROOT
HETATM    1  C5  UNL     1       2.250  -1.908  -0.843  1.00  0.00     0.249 C 
HETATM    2  O1  UNL     1       3.421  -1.499  -0.861  1.00  0.00    -0.268 OA
HETATM    3  N1  UNL     1       1.277  -1.056  -0.338  1.00  0.00    -0.291 N 
HETATM    4  C6  UNL     1      -0.070  -1.563  -0.305  1.00  0.00     0.098 A 
HETATM    5  C7  UNL     1      -1.130  -0.886   0.129  1.00  0.00     0.033 A 
HETATM    6  C8  UNL     1      -0.985   0.475   0.621  1.00  0.00     0.022 A 
HETATM    7  C9  UNL     1       0.306   0.948   0.585  1.00  0.00     0.095 A 
HETATM    8  N2  UNL     1       0.592   2.213   1.011  1.00  0.00    -0.258 NA
HETATM    9  C10 UNL     1      -0.389   3.007   1.471  1.00  0.00     0.142 A 
HETATM   10  C11 UNL     1      -1.713   2.574   1.528  1.00  0.00     0.089 A 
HETATM   11  C12 UNL     1      -2.776   3.402   2.013  1.00  0.00     0.103 C 
HETATM   12  N3  UNL     1      -3.649   4.077   2.421  1.00  0.00    -0.191 NA
HETATM   13  C13 UNL     1      -1.983   1.292   1.093  1.00  0.00     0.066 A 
HETATM   14  C20 UNL     1       1.558   0.263   0.129  1.00  0.00     0.284 A 
ENDROOT
BRANCH  13  15
HETATM   15  N4  UNL     1      -3.317   0.741   1.120  1.00  0.00    -0.369 N 
HETATM   16  C14 UNL     1      -3.761   0.040   2.308  1.00  0.00     0.151 C 
HETATM   17  C15 UNL     1      -5.048   0.586   2.870  1.00  0.00     0.162 C 
HETATM   18 CL1  UNL     1      -6.064  -0.743   3.465  1.00  0.00    -0.116 Cl
HETATM   19  C16 UNL     1      -5.751   1.455   1.887  1.00  0.00     0.112 C 
HETATM   20  F1  UNL     1      -6.780   2.194   2.432  1.00  0.00    -0.209 F 
HETATM   21  C17 UNL     1      -5.523   1.610   0.583  1.00  0.00     0.037 C 
HETATM   22  C18 UNL     1      -4.383   0.749   0.143  1.00  0.00     0.106 C 
HETATM   23  C19 UNL     1      -4.943  -0.590  -0.194  1.00  0.00     0.037 C 
ENDBRANCH  13  15
BRANCH  14  24
HETATM   24  O2  UNL     1       2.217   1.044  -0.805  1.00  0.00    -0.359 OA
BRANCH  24  25
HETATM   25  C21 UNL     1       3.399   1.609  -0.354  1.00  0.00     0.200 C 
BRANCH  25  26
HETATM   26  C22 UNL     1       3.997   2.414  -1.492  1.00  0.00     0.292 C 
BRANCH  26  27
HETATM   27  N5  UNL     1       5.233   3.001  -1.005  1.00  0.00     0.080 N 
HETATM   28  H24 UNL     1       5.770   3.450  -1.801  1.00  0.00     0.312 HD
HETATM   29  H25 UNL     1       5.057   3.742  -0.303  1.00  0.00     0.312 HD
ENDBRANCH  26  27
ENDBRANCH  25  26
ENDBRANCH  24  25
ENDBRANCH  14  24
BRANCH   1  30
HETATM   30  C4  UNL     1       2.190  -3.244  -1.381  1.00  0.00     0.070 C 
HETATM   31  C3  UNL     1       3.156  -4.008  -1.833  1.00  0.00    -0.022 C 
BRANCH  31  32
HETATM   32  C2  UNL     1       4.519  -4.406  -2.191  1.00  0.00     0.023 C 
HETATM   33  C1  UNL     1       5.560  -3.324  -1.896  1.00  0.00     0.009 C 
ENDBRANCH  31  32
ENDBRANCH   1  30
TORSDOF 7
