REMARK  6 active torsions:
REMARK  status: ('A' for Active; 'I' for Inactive)
REMARK    1  A    between atoms: N1_2  and  C2_3 
REMARK    2  A    between atoms: C2_3  and  C3_4 
REMARK    3  A    between atoms: C3_4  and  C4_5 
REMARK    4  A    between atoms: C5_6  and  C6_8 
REMARK    5  A    between atoms: C11_14  and  N3_15 
REMARK    6  A    between atoms: C13_17  and  C14_18 
ROOT
HETATM    1  C6  UNL     1       1.106   0.681   0.202  1.00  0.00    -0.002 C 
HETATM    2  C7  UNL     1      -0.200   0.501   0.326  1.00  0.00     0.026 C 
HETATM    3  C8  UNL     1      -1.231   1.421   0.792  1.00  0.00     0.003 A 
HETATM    4  C9  UNL     1      -1.283   2.738   1.199  1.00  0.00     0.047 A 
HETATM    5  N2  UNL     1      -2.399   3.374   1.597  1.00  0.00    -0.262 NA
HETATM    6  C10 UNL     1      -3.570   2.672   1.599  1.00  0.00     0.147 A 
HETATM    7  C11 UNL     1      -3.596   1.331   1.198  1.00  0.00     0.057 A 
HETATM    8  C13 UNL     1      -2.423   0.721   0.798  1.00  0.00     0.014 A 
HETATM    9  C20 UNL     1      -0.258   3.787   1.328  1.00  0.00     0.086 C 
HETATM   10  C21 UNL     1       0.843   3.474   0.314  1.00  0.00     0.174 C 
HETATM   11  O2  UNL     1       1.898   2.827   0.912  1.00  0.00    -0.386 OA
HETATM   12  C22 UNL     1       2.233   1.603   0.366  1.00  0.00     0.209 C 
ENDROOT
BRANCH   1  13
HETATM   13  C5  UNL     1       1.556  -0.606  -0.308  1.00  0.00     0.085 A 
HETATM   14  C4  UNL     1       3.000  -0.810  -0.591  1.00  0.00     0.192 A 
HETATM   15  O1  UNL     1       1.864  -1.723  -0.739  1.00  0.00    -0.340 OA
BRANCH  14  16
HETATM   16  C3  UNL     1       3.610  -1.874  -1.046  1.00  0.00     0.058 C 
BRANCH  16  17
HETATM   17  C2  UNL     1       5.082  -2.037  -1.318  1.00  0.00     0.277 C 
BRANCH  17  18
HETATM   18  N1  UNL     1       5.247  -2.334  -2.702  1.00  0.00     0.079 N 
HETATM   19  C1  UNL     1       6.584  -2.529  -3.158  1.00  0.00     0.306 C 
HETATM   20  H4  UNL     1       4.691  -1.678  -3.295  1.00  0.00     0.315 HD
ENDBRANCH  17  18
ENDBRANCH  16  17
ENDBRANCH  14  16
ENDBRANCH   1  13
BRANCH   8  21
HETATM   21  C14 UNL     1      -2.485  -0.652   0.384  1.00  0.00    -0.021 A 
HETATM   22  C15 UNL     1      -2.759  -0.880  -0.973  1.00  0.00     0.015 A 
HETATM   23  C16 UNL     1      -2.862  -2.126  -1.559  1.00  0.00     0.045 A 
HETATM   24  C17 UNL     1      -2.679  -3.216  -0.733  1.00  0.00     0.138 A 
HETATM   25  F1  UNL     1      -2.769  -4.454  -1.258  1.00  0.00    -0.204 F 
HETATM   26  C18 UNL     1      -2.407  -3.058   0.609  1.00  0.00     0.073 A 
HETATM   27 CL1  UNL     1      -2.171  -4.408   1.677  1.00  0.00    -0.081 Cl
HETATM   28  C19 UNL     1      -2.305  -1.807   1.188  1.00  0.00     0.039 A 
ENDBRANCH   8  21
BRANCH   7  29
HETATM   29  N3  UNL     1      -4.821   0.617   1.205  1.00  0.00    -0.392 N 
HETATM   30  C12 UNL     1      -6.045   1.290   1.633  1.00  0.00     0.146 C 
HETATM   31  H11 UNL     1      -4.828  -0.375   0.906  1.00  0.00     0.159 HD
ENDBRANCH   7  29
TORSDOF 6
