REMARK  2 active torsions:
REMARK  status: ('A' for Active; 'I' for Inactive)
REMARK    1  A    between atoms: C10_14  and  N3_15 
REMARK    2  A    between atoms: N3_15  and  C11_16 
ROOT
HETATM    1  C1  UNL     1      -4.460   0.703  -0.919  1.00  0.00     0.056 C 
HETATM    2  C2  UNL     1      -3.226  -0.117  -0.507  1.00  0.00     0.129 A 
HETATM    3  O1  UNL     1      -2.843  -1.109  -1.502  1.00  0.00    -0.362 OA
HETATM    4  C3  UNL     1      -3.365  -1.442  -0.252  1.00  0.00     0.167 A 
HETATM    5  C4  UNL     1      -2.511  -2.210   0.724  1.00  0.00     0.071 C 
HETATM    6  P1  UNL     1      -0.734  -1.690   0.422  1.00  0.00    -0.087 P 
HETATM    7  C5  UNL     1      -0.889   0.153   0.320  1.00  0.00     0.022 A 
HETATM    8  C6  UNL     1      -2.084   0.689  -0.120  1.00  0.00     0.084 A 
HETATM    9  N1  UNL     1      -2.088   2.037  -0.156  1.00  0.00    -0.260 NA
HETATM   10  C7  UNL     1      -1.030   2.789   0.202  1.00  0.00     0.142 A 
HETATM   11  C8  UNL     1       0.159   2.239   0.640  1.00  0.00     0.089 A 
HETATM   12  C9  UNL     1       1.262   3.079   1.012  1.00  0.00     0.103 C 
HETATM   13  N2  UNL     1       2.160   3.753   1.297  1.00  0.00    -0.191 NA
HETATM   14  C10 UNL     1       0.233   0.863   0.702  1.00  0.00     0.068 A 
HETATM   15  H7  UNL     1       0.028  -2.060   1.623  1.00  0.00     0.062 HD
ENDROOT
BRANCH  14  16
HETATM   16  N3  UNL     1       1.418   0.220   1.141  1.00  0.00    -0.354 N 
HETATM   17  H9  UNL     1       1.411   0.070   2.175  1.00  0.00     0.166 HD
BRANCH  16  18
HETATM   18  C11 UNL     1       2.474  -0.173   0.312  1.00  0.00     0.034 A 
HETATM   19  C12 UNL     1       2.442   0.043  -1.031  1.00  0.00     0.032 A 
HETATM   20  C13 UNL     1       3.523  -0.367  -1.818  1.00  0.00     0.046 A 
HETATM   21  C14 UNL     1       4.588  -0.981  -1.191  1.00  0.00     0.138 A 
HETATM   22  F1  UNL     1       5.665  -1.396  -1.930  1.00  0.00    -0.204 F 
HETATM   23  C15 UNL     1       4.662  -1.219   0.168  1.00  0.00     0.074 A 
HETATM   24 CL1  UNL     1       6.040  -2.002   0.909  1.00  0.00    -0.081 Cl
HETATM   25  C16 UNL     1       3.563  -0.790   0.892  1.00  0.00     0.056 A 
ENDBRANCH  16  18
ENDBRANCH  14  16
TORSDOF 2
