REMARK  2 active torsions:
REMARK  status: ('A' for Active; 'I' for Inactive)
REMARK    1  A    between atoms: C2_2  and  O1_3 
REMARK    2  A    between atoms: O1_3  and  C3_4 
ROOT
HETATM    1  C3  UNL     1      -1.163  -0.353   1.892  1.00  0.00     0.065 C 
HETATM    2  C4  UNL     1      -0.546   0.042   0.777  1.00  0.00     0.009 C 
HETATM    3  C5  UNL     1      -0.811   1.380   0.212  1.00  0.00     0.118 C 
HETATM    4  N1  UNL     1      -0.168   1.661  -0.849  1.00  0.00    -0.272 NA
HETATM    5  C6  UNL     1      -0.254   2.854  -1.545  1.00  0.00     0.138 C 
HETATM    6  C7  UNL     1       0.452   2.431  -2.468  1.00  0.00     0.060 C 
HETATM    7  C8  UNL     1       0.396   3.700  -3.268  1.00  0.00     0.022 C 
HETATM    8  N2  UNL     1       0.362   4.707  -3.924  1.00  0.00    -0.096 N 
HETATM    9  C9  UNL     1       1.227   1.448  -3.167  1.00  0.00     0.013 A 
HETATM   10  C10 UNL     1       1.921   1.668  -4.298  1.00  0.00     0.059 A 
HETATM   11  C11 UNL     1       2.648   0.711  -4.935  1.00  0.00     0.139 A 
HETATM   12  F1  UNL     1       3.281   1.077  -6.055  1.00  0.00    -0.204 F 
HETATM   13  C12 UNL     1       2.679  -0.539  -4.404  1.00  0.00     0.074 A 
HETATM   14 CL1  UNL     1       3.662  -1.669  -5.339  1.00  0.00    -0.081 Cl
HETATM   15  C13 UNL     1       1.998  -0.840  -3.256  1.00  0.00     0.056 A 
HETATM   16  C14 UNL     1       1.262   0.179  -2.633  1.00  0.00     0.029 A 
HETATM   17  N3  UNL     1       0.733  -0.519  -1.511  1.00  0.00    -0.407 N 
HETATM   18  B1  UNL     1       0.555  -0.783  -0.029  1.00  0.00     0.498 B 
HETATM   19  O2  UNL     1       1.827  -1.147   0.697  1.00  0.00    -0.400 OA
HETATM   20  C15 UNL     1       1.880  -2.228   1.557  1.00  0.00     0.111 C 
HETATM   21  C16 UNL     1       1.746  -3.163   2.518  1.00  0.00     0.014 C 
HETATM   22  C17 UNL     1       0.735  -3.018   3.609  1.00  0.00     0.143 C 
HETATM   23  N4  UNL     1       0.090  -1.763   3.383  1.00  0.00    -0.412 N 
HETATM   24  C18 UNL     1      -0.702  -1.738   2.212  1.00  0.00     0.178 C 
HETATM   25  H10 UNL     1       0.093  -1.343  -1.596  1.00  0.00     0.141 HD
HETATM   26  H15 UNL     1      -0.313  -1.341   4.224  1.00  0.00     0.153 HD
ENDROOT
BRANCH   1  27
HETATM   27  O1  UNL     1      -1.987   0.674   2.306  1.00  0.00    -0.354 OA
BRANCH  27  28
HETATM   28  C2  UNL     1      -3.370   0.593   1.971  1.00  0.00     0.171 C 
HETATM   29  C1  UNL     1      -4.087   1.885   2.287  1.00  0.00     0.034 C 
ENDBRANCH  27  28
ENDBRANCH   1  27
TORSDOF 2
