REMARK  0 active torsions:
REMARK  status: ('A' for Active; 'I' for Inactive)
ROOT
HETATM    1  N1  UNL     1       1.810  -1.932   1.774  1.00  0.00    -0.101 N 
HETATM    2  C1  UNL     1       1.438  -0.871   1.350  1.00  0.00    -0.007 C 
HETATM    3  C2  UNL     1       0.942   0.470   0.826  1.00  0.00     0.087 C 
HETATM    4  C3  UNL     1       1.772   1.094   1.672  1.00  0.00     0.221 C 
HETATM    5  N2  UNL     1       2.497   0.133   2.404  1.00  0.00    -0.277 NA
HETATM    6  C4  UNL     1       3.714   0.023   1.897  1.00  0.00     0.092 C 
HETATM    7  C5  UNL     1       3.830   0.396   0.613  1.00  0.00     0.006 A 
HETATM    8  C6  UNL     1       4.039   0.896  -0.781  1.00  0.00     0.027 A 
HETATM    9  C7  UNL     1       3.188  -0.149  -0.360  1.00  0.00    -0.015 A 
HETATM   10  C8  UNL     1       2.204  -1.177  -0.843  1.00  0.00    -0.029 A 
HETATM   11  C9  UNL     1       1.778  -2.318  -1.413  1.00  0.00     0.005 A 
HETATM   12  C10 UNL     1       0.797  -1.385  -0.880  1.00  0.00     0.066 A 
HETATM   13  C11 UNL     1       0.185  -0.387  -0.180  1.00  0.00     0.025 C 
HETATM   14  N3  UNL     1      -1.138  -0.049  -0.182  1.00  0.00    -0.351 N 
HETATM   15  C12 UNL     1      -2.058  -1.082   0.252  1.00  0.00     0.152 C 
HETATM   16  C13 UNL     1      -3.451  -0.736  -0.181  1.00  0.00    -0.011 C 
HETATM   17  C14 UNL     1      -3.747   0.543  -0.271  1.00  0.00    -0.025 C 
HETATM   18  C15 UNL     1      -2.817   1.644   0.020  1.00  0.00     0.086 C 
HETATM   19  C16 UNL     1      -1.468   1.282  -0.612  1.00  0.00     0.275 C 
HETATM   20  F1  UNL     1      -1.633   1.311  -1.995  1.00  0.00    -0.227 F 
ENDROOT
TORSDOF 0
