REMARK  4 active torsions:
REMARK  status: ('A' for Active; 'I' for Inactive)
REMARK    1  A    between atoms: C2_2  and  O1_3 
REMARK    2  A    between atoms: O1_3  and  C3_4 
REMARK    3  A    between atoms: C7_9  and  N2_10 
REMARK    4  A    between atoms: N3_12  and  C9_13 
ROOT
HETATM    1  C3  UNL     1       2.383  -0.130   0.083  1.00  0.00     0.049 C 
HETATM    2  C4  UNL     1       2.803  -1.417   0.186  1.00  0.00     0.051 C 
HETATM    3  C5  UNL     1       1.846  -2.543   0.300  1.00  0.00     0.285 C 
HETATM    4  N1  UNL     1       1.103  -3.552   0.410  1.00  0.00    -0.395 NA
HETATM    5  C6  UNL     1      -0.301  -3.537   0.296  1.00  0.00     0.103 C 
HETATM    6  C7  UNL     1      -1.070  -2.571  -0.144  1.00  0.00     0.035 C 
HETATM    7  C8  UNL     1      -1.814  -1.447  -0.604  1.00  0.00     0.180 C 
HETATM    8  N3  UNL     1      -1.332  -0.111  -0.417  1.00  0.00    -0.375 N 
HETATM    9  C15 UNL     1       0.027   0.323  -0.925  1.00  0.00     0.130 C 
HETATM   10  C16 UNL     1       0.962  -0.157   0.156  1.00  0.00     0.084 C 
ENDROOT
BRANCH   8  11
HETATM   11  C9  UNL     1      -2.121   0.869   0.300  1.00  0.00     0.032 A 
HETATM   12  C10 UNL     1      -3.023   0.491   1.250  1.00  0.00     0.032 A 
HETATM   13  C11 UNL     1      -3.808   1.387   1.942  1.00  0.00     0.046 A 
HETATM   14  C12 UNL     1      -3.714   2.734   1.701  1.00  0.00     0.138 A 
HETATM   15  F1  UNL     1      -4.464   3.637   2.357  1.00  0.00    -0.204 F 
HETATM   16  C13 UNL     1      -2.819   3.151   0.755  1.00  0.00     0.074 A 
HETATM   17 CL1  UNL     1      -2.645   4.873   0.392  1.00  0.00    -0.081 Cl
HETATM   18  C14 UNL     1      -2.052   2.235   0.082  1.00  0.00     0.056 A 
ENDBRANCH   8  11
BRANCH   6  19
HETATM   19  N2  UNL     1      -2.030  -3.633   0.175  1.00  0.00    -0.400 N 
HETATM   20  H9  UNL     1      -2.719  -4.438   0.276  1.00  0.00     0.156 HD
HETATM   21  H10 UNL     1      -2.688  -4.470   0.099  1.00  0.00     0.156 HD
ENDBRANCH   6  19
BRANCH   1  22
HETATM   22  O1  UNL     1       3.432   0.748  -0.036  1.00  0.00    -0.356 OA
BRANCH  22  23
HETATM   23  C2  UNL     1       3.586   1.695  -1.060  1.00  0.00     0.170 C 
HETATM   24  C1  UNL     1       4.829   2.525  -0.868  1.00  0.00     0.034 C 
ENDBRANCH  22  23
ENDBRANCH   1  22
TORSDOF 4
