REMARK  6 active torsions:
REMARK  status: ('A' for Active; 'I' for Inactive)
REMARK    1  A    between atoms: C3_3  and  N1_4 
REMARK    2  A    between atoms: N1_4  and  C4_5 
REMARK    3  A    between atoms: C12_15  and  C13_16 
REMARK    4  A    between atoms: C13_16  and  N4_17 
REMARK    5  A    between atoms: C18_24  and  O2_25 
REMARK    6  A    between atoms: O2_25  and  C19_26 
ROOT
HETATM    1  C4  UNL     1      -0.077   1.785   0.516  1.00  0.00     0.063 A 
HETATM    2  C5  UNL     1       0.440   2.988   0.108  1.00  0.00     0.089 A 
HETATM    3  C6  UNL     1      -0.275   4.228   0.027  1.00  0.00     0.103 C 
HETATM    4  N2  UNL     1      -0.854   5.241  -0.043  1.00  0.00    -0.191 NA
HETATM    5  C7  UNL     1       1.755   3.110  -0.274  1.00  0.00     0.142 A 
HETATM    6  N3  UNL     1       2.411   1.936  -0.190  1.00  0.00    -0.259 NA
HETATM    7  C8  UNL     1       1.914   0.755   0.206  1.00  0.00     0.067 A 
HETATM    8  C9  UNL     1       0.606   0.594   0.596  1.00  0.00     0.003 A 
HETATM    9  C10 UNL     1      -0.254  -0.487   1.080  1.00  0.00     0.087 C 
HETATM   10  C11 UNL     1      -0.847  -1.313   0.049  1.00  0.00     0.012 C 
HETATM   11  C12 UNL     1      -1.941  -1.732  -0.501  1.00  0.00     0.016 C 
HETATM   12  C16 UNL     1       0.175  -2.106  -0.663  1.00  0.00     0.247 C 
HETATM   13  O1  UNL     1       0.102  -3.010  -1.535  1.00  0.00    -0.268 OA
HETATM   14  N5  UNL     1       1.582  -2.281  -0.758  1.00  0.00    -0.351 N 
HETATM   15  C17 UNL     1       2.981  -2.478  -0.871  1.00  0.00     0.187 C 
HETATM   16  C18 UNL     1       3.667  -1.296  -0.223  1.00  0.00     0.066 C 
HETATM   17  C21 UNL     1       2.974  -0.198   0.065  1.00  0.00     0.066 C 
HETATM   18  H19 UNL     1       1.497  -1.558  -0.033  1.00  0.00     0.163 HD
ENDROOT
BRANCH   1  19
HETATM   19  N1  UNL     1      -1.452   1.880   0.868  1.00  0.00    -0.364 N 
HETATM   20  H6  UNL     1      -2.194   1.246   1.219  1.00  0.00     0.165 HD
BRANCH  19  21
HETATM   21  C3  UNL     1      -2.373   2.934   0.873  1.00  0.00     0.084 C 
HETATM   22  C2  UNL     1      -2.854   3.598   1.947  1.00  0.00    -0.014 C 
HETATM   23  C1  UNL     1      -2.347   3.163   3.290  1.00  0.00     0.037 C 
ENDBRANCH  19  21
ENDBRANCH   1  19
BRANCH  16  24
HETATM   24  O2  UNL     1       4.959  -1.658  -0.070  1.00  0.00    -0.354 OA
BRANCH  24  25
HETATM   25  C19 UNL     1       5.981  -1.696  -1.026  1.00  0.00     0.171 C 
HETATM   26  C20 UNL     1       7.245  -2.152  -0.294  1.00  0.00     0.034 C 
ENDBRANCH  24  25
ENDBRANCH  16  24
BRANCH  11  27
HETATM   27  C13 UNL     1      -3.319  -1.369  -0.104  1.00  0.00     0.299 C 
BRANCH  27  28
HETATM   28  N4  UNL     1      -4.033  -0.725  -1.198  1.00  0.00     0.083 N 
HETATM   29  C14 UNL     1      -4.286  -1.691  -2.263  1.00  0.00     0.309 C 
HETATM   30  C15 UNL     1      -5.314  -0.217  -0.780  1.00  0.00     0.309 C 
ENDBRANCH  27  28
ENDBRANCH  11  27
TORSDOF 6
