REMARK  3 active torsions:
REMARK  status: ('A' for Active; 'I' for Inactive)
REMARK    1  A    between atoms: N3_9  and  C6_10 
REMARK    2  A    between atoms: C9_14  and  N4_15 
REMARK    3  A    between atoms: N4_15  and  C10_16 
ROOT
HETATM    1  N1  UNL     1       2.448  -4.327   0.445  1.00  0.00    -0.184 NA
HETATM    2  C1  UNL     1       1.511  -3.673   0.264  1.00  0.00     0.134 C 
HETATM    3  S1  UNL     1       0.088  -2.649   0.005  1.00  0.00    -0.022 SA
HETATM    4  C2  UNL     1      -1.254  -3.177  -0.763  1.00  0.00     0.172 A 
HETATM    5  N2  UNL     1      -2.259  -2.211  -0.861  1.00  0.00    -0.258 NA
HETATM    6  C3  UNL     1      -2.237  -1.026  -0.434  1.00  0.00     0.047 A 
HETATM    7  C4  UNL     1      -3.468  -0.208  -0.681  1.00  0.00     0.080 C 
HETATM    8  C5  UNL     1      -3.724   0.525   0.636  1.00  0.00     0.131 C 
HETATM    9  N3  UNL     1      -2.678   1.535   0.723  1.00  0.00    -0.355 N 
HETATM   10  C7  UNL     1      -1.292   1.090   0.721  1.00  0.00     0.168 C 
HETATM   11  C8  UNL     1      -1.178  -0.325   0.273  1.00  0.00     0.018 A 
HETATM   12  C9  UNL     1      -0.033  -0.928   0.559  1.00  0.00     0.089 A 
ENDROOT
BRANCH  12  13
HETATM   13  N4  UNL     1       1.089  -0.363   1.245  1.00  0.00    -0.350 N 
HETATM   14  H9  UNL     1       0.921  -0.331   2.275  1.00  0.00     0.166 HD
BRANCH  13  15
HETATM   15  C10 UNL     1       2.270   0.089   0.599  1.00  0.00     0.034 A 
HETATM   16  C11 UNL     1       2.321  -0.031  -0.773  1.00  0.00     0.032 A 
HETATM   17  C12 UNL     1       3.497   0.424  -1.371  1.00  0.00     0.046 A 
HETATM   18  C13 UNL     1       4.520   0.953  -0.596  1.00  0.00     0.138 A 
HETATM   19  F1  UNL     1       5.668   1.396  -1.198  1.00  0.00    -0.204 F 
HETATM   20  C14 UNL     1       4.412   1.050   0.792  1.00  0.00     0.074 A 
HETATM   21 CL1  UNL     1       5.692   1.715   1.788  1.00  0.00    -0.081 Cl
HETATM   22  C15 UNL     1       3.248   0.604   1.420  1.00  0.00     0.056 A 
ENDBRANCH  13  15
ENDBRANCH  12  13
BRANCH   9  23
HETATM   23  C6  UNL     1      -2.939   2.931   0.810  1.00  0.00     0.351 C 
HETATM   24  O1  UNL     1      -2.077   3.870   0.889  1.00  0.00    -0.284 OA
ENDBRANCH   9  23
TORSDOF 3
