REMARK  5 active torsions:
REMARK  status: ('A' for Active; 'I' for Inactive)
REMARK    1  A    between atoms: N1_2  and  C3_4 
REMARK    2  A    between atoms: C3_4  and  C4_5 
REMARK    3  A    between atoms: C5_6  and  C6_7 
REMARK       I    between atoms: C6_7  and  N2_9 
REMARK    4  A    between atoms: N2_9  and  C7_10 
REMARK    5  A    between atoms: C10_13  and  N3_14 
ROOT
HETATM    1  C7  UNL     1      -1.094  -0.085   0.466  1.00  0.00     0.018 C 
HETATM    2  C8  UNL     1      -2.104   0.762   0.066  1.00  0.00     0.049 C 
HETATM    3  C9  UNL     1      -3.099   1.700  -0.430  1.00  0.00     0.065 C 
HETATM    4  C10 UNL     1      -4.352   0.747  -0.479  1.00  0.00     0.011 C 
HETATM    5  C13 UNL     1      -3.264  -0.187  -0.672  1.00  0.00     0.049 C 
HETATM    6  C14 UNL     1      -2.449  -1.185  -0.690  1.00  0.00     0.026 C 
HETATM    7  C15 UNL     1      -2.314  -2.536  -0.152  1.00  0.00     0.174 C 
HETATM    8  O2  UNL     1      -1.091  -2.399   0.673  1.00  0.00    -0.385 OA
HETATM    9  C16 UNL     1      -1.363  -1.179   1.452  1.00  0.00     0.220 C 
ENDROOT
BRANCH   1  10
HETATM   10  N2  UNL     1       0.249  -0.266   0.068  1.00  0.00    -0.328 N 
HETATM   11  C6  UNL     1       1.598  -0.640  -0.378  1.00  0.00     0.245 C 
HETATM   12  O1  UNL     1       1.089  -1.736  -0.506  1.00  0.00    -0.268 OA
HETATM   13  H11 UNL     1       0.257   0.763   0.458  1.00  0.00     0.168 HD
BRANCH  11  14
HETATM   14  C5  UNL     1       2.528   0.510  -0.343  1.00  0.00     0.072 C 
HETATM   15  C4  UNL     1       3.763   0.145  -0.683  1.00  0.00     0.008 C 
BRANCH  15  16
HETATM   16  C3  UNL     1       4.983   1.028  -0.764  1.00  0.00     0.299 C 
BRANCH  16  17
HETATM   17  N1  UNL     1       5.918   0.498   0.225  1.00  0.00     0.083 N 
HETATM   18  C1  UNL     1       6.401  -0.791  -0.173  1.00  0.00     0.309 C 
HETATM   19  C2  UNL     1       5.232   0.465   1.488  1.00  0.00     0.309 C 
ENDBRANCH  16  17
ENDBRANCH  15  16
ENDBRANCH  11  14
ENDBRANCH   1  10
BRANCH   4  20
HETATM   20  N3  UNL     1      -5.500   1.327  -0.194  1.00  0.00    -0.283 N 
HETATM   21  C11 UNL     1      -6.647   0.514  -0.225  1.00  0.00     0.122 A 
HETATM   22  C12 UNL     1      -7.344   1.643  -0.012  1.00  0.00     0.110 A 
HETATM   23 CL1  UNL     1      -6.218   2.958   0.085  1.00  0.00    -0.073 Cl
ENDBRANCH   4  20
TORSDOF 5
