REMARK  5 active torsions:
REMARK  status: ('A' for Active; 'I' for Inactive)
REMARK    1  A    between atoms: N3_11  and  C9_12 
REMARK    2  A    between atoms: C16_21  and  C17_22 
REMARK    3  A    between atoms: C17_22  and  C18_24 
REMARK    4  A    between atoms: N5_28  and  C21_29 
REMARK    5  A    between atoms: C21_29  and  C22_30 
ROOT
HETATM    1  C1  UNL     1      -0.852  -0.275   1.654  1.00  0.00     0.044 C 
HETATM    2  C2  UNL     1      -0.876  -1.088   0.380  1.00  0.00    -0.069 C 
HETATM    3  C3  UNL     1      -1.144  -1.963  -0.566  1.00  0.00     0.022 C 
HETATM    4  C4  UNL     1      -1.278  -2.827  -1.718  1.00  0.00     0.116 C 
HETATM    5  N1  UNL     1      -2.423  -3.498  -1.607  1.00  0.00    -0.272 NA
HETATM    6  C5  UNL     1      -3.164  -3.135  -0.403  1.00  0.00     0.136 C 
HETATM    7  C6  UNL     1      -3.474  -1.820  -0.707  1.00  0.00     0.057 C 
HETATM    8  C7  UNL     1      -4.237  -1.296   0.436  1.00  0.00     0.098 C 
HETATM    9  N2  UNL     1      -4.848  -0.875   1.378  1.00  0.00    -0.192 NA
HETATM   10  C8  UNL     1      -3.461  -0.665  -1.669  1.00  0.00     0.174 C 
HETATM   11  N3  UNL     1      -2.653   0.428  -1.158  1.00  0.00    -0.375 N 
HETATM   12  C15 UNL     1      -1.217   0.733  -1.253  1.00  0.00     0.140 C 
HETATM   13  C16 UNL     1      -0.320  -0.317  -0.728  1.00  0.00     0.106 C 
ENDROOT
BRANCH  11  14
HETATM   14  C9  UNL     1      -3.389   1.453  -0.451  1.00  0.00     0.032 A 
HETATM   15  C10 UNL     1      -4.732   1.700  -0.626  1.00  0.00     0.032 A 
HETATM   16  C11 UNL     1      -5.480   2.652   0.023  1.00  0.00     0.046 A 
HETATM   17  C12 UNL     1      -4.859   3.453   0.944  1.00  0.00     0.138 A 
HETATM   18  F1  UNL     1      -5.571   4.398   1.599  1.00  0.00    -0.204 F 
HETATM   19  C13 UNL     1      -3.514   3.274   1.183  1.00  0.00     0.074 A 
HETATM   20 CL1  UNL     1      -2.755   4.316   2.367  1.00  0.00    -0.081 Cl
HETATM   21  C14 UNL     1      -2.848   2.299   0.487  1.00  0.00     0.056 A 
ENDBRANCH  11  14
BRANCH  13  22
HETATM   22  C17 UNL     1       1.046   0.208  -0.349  1.00  0.00     0.159 C 
HETATM   23  O1  UNL     1       1.146   1.460  -0.368  1.00  0.00    -0.292 OA
BRANCH  22  24
HETATM   24  C18 UNL     1       2.111  -0.717  -0.002  1.00  0.00     0.061 C 
HETATM   25  C19 UNL     1       3.306  -0.324   0.330  1.00  0.00    -0.016 C 
HETATM   26  C20 UNL     1       3.815   1.039   0.425  1.00  0.00     0.147 C 
HETATM   27  C23 UNL     1       4.455  -1.203   0.700  1.00  0.00     0.184 C 
HETATM   28  N4  UNL     1       5.101   1.023   0.540  1.00  0.00    -0.189 NA
HETATM   29  N5  UNL     1       5.571  -0.291   0.535  1.00  0.00    -0.299 N 
BRANCH  29  30
HETATM   30  C21 UNL     1       6.896  -0.893   0.403  1.00  0.00     0.176 C 
BRANCH  30  31
HETATM   31  C22 UNL     1       7.936   0.206   0.243  1.00  0.00     0.243 C 
HETATM   32  F2  UNL     1       7.917   1.039   1.360  1.00  0.00    -0.254 F 
ENDBRANCH  30  31
ENDBRANCH  29  30
ENDBRANCH  22  24
ENDBRANCH  13  22
TORSDOF 5
