REMARK  1 active torsions:
REMARK  status: ('A' for Active; 'I' for Inactive)
REMARK    1  A    between atoms: N4_15  and  C11_16 
ROOT
HETATM    1  F1  UNL     1       5.253  -2.146   1.590  1.00  0.00    -0.206 F 
HETATM    2  C1  UNL     1       4.487  -1.231   0.954  1.00  0.00     0.117 A 
HETATM    3  C2  UNL     1       4.815   0.071   0.645  1.00  0.00     0.045 A 
HETATM    4  C3  UNL     1       3.923   0.895  -0.012  1.00  0.00     0.041 A 
HETATM    5  C4  UNL     1       2.653   0.450  -0.394  1.00  0.00     0.086 A 
HETATM    6  C5  UNL     1       2.348  -0.866  -0.072  1.00  0.00    -0.004 A 
HETATM    7  C6  UNL     1       3.233  -1.700   0.587  1.00  0.00     0.054 A 
HETATM    8  C7  UNL     1       1.048  -1.548  -0.386  1.00  0.00     0.163 C 
HETATM    9  N1  UNL     1      -0.077  -0.702  -0.020  1.00  0.00    -0.367 N 
HETATM   10  C8  UNL     1      -0.370   0.619  -0.523  1.00  0.00     0.177 A 
HETATM   11  C9  UNL     1       0.503   1.534  -0.966  1.00  0.00     0.195 A 
HETATM   12  N2  UNL     1       0.006   2.783  -1.422  1.00  0.00    -0.327 N 
HETATM   13  C10 UNL     1      -1.404   3.019  -1.393  1.00  0.00     0.232 A 
HETATM   14  N3  UNL     1      -2.191   2.115  -0.962  1.00  0.00    -0.161 NA
HETATM   15  N4  UNL     1      -1.774   0.850  -0.492  1.00  0.00    -0.216 N 
HETATM   16  O1  UNL     1       1.902   1.424  -1.044  1.00  0.00    -0.290 OA
HETATM   17  H6  UNL     1      -0.824  -0.981   0.679  1.00  0.00     0.161 HD
HETATM   18  H7  UNL     1       0.683   3.502  -1.769  1.00  0.00     0.169 HD
ENDROOT
BRANCH  15  19
HETATM   19  C11 UNL     1      -2.716  -0.100  -0.029  1.00  0.00     0.042 A 
HETATM   20  C12 UNL     1      -3.030  -1.365  -0.352  1.00  0.00     0.027 A 
HETATM   21  C13 UNL     1      -4.122  -1.810   0.513  1.00  0.00    -0.002 A 
HETATM   22  C14 UNL     1      -4.435  -0.813   1.326  1.00  0.00    -0.021 A 
HETATM   23  C15 UNL     1      -3.584   0.382   1.078  1.00  0.00     0.086 A 
ENDBRANCH  15  19
TORSDOF 1
