REMARK  9 active torsions:
REMARK  status: ('A' for Active; 'I' for Inactive)
REMARK    1  A    between atoms: C2_2  and  C3_3 
REMARK    2  A    between atoms: C2_2  and  N4_12 
REMARK    3  A    between atoms: C3_3  and  C4_4 
REMARK    4  A    between atoms: N1_6  and  C6_7 
REMARK    5  A    between atoms: C6_7  and  C7_8 
REMARK    6  A    between atoms: N4_12  and  C8_13 
REMARK    7  A    between atoms: C8_13  and  C10_15 
REMARK    8  A    between atoms: C11_17  and  N5_18 
REMARK    9  A    between atoms: N5_18  and  C12_19 
ROOT
HETATM    1  C12 UNL     1       2.993  -1.369   1.459  1.00  0.00     0.098 C 
HETATM    2  C13 UNL     1       4.190  -0.973   1.871  1.00  0.00     0.110 C 
HETATM    3  C14 UNL     1       4.809   0.013   1.019  1.00  0.00     0.089 C 
HETATM    4  N6  UNL     1       5.331   0.811   0.333  1.00  0.00    -0.192 NA
ENDROOT
BRANCH   1   5
HETATM    5  N5  UNL     1       3.024  -0.505   0.306  1.00  0.00    -0.373 N 
HETATM    6  H14 UNL     1       2.656   0.472   0.320  1.00  0.00     0.164 HD
BRANCH   5   7
HETATM    7  C11 UNL     1       3.596  -1.087  -0.859  1.00  0.00     0.113 C 
HETATM    8  C10 UNL     1       3.187  -0.711  -2.050  1.00  0.00     0.082 C 
HETATM    9 CL1  UNL     1       3.834  -1.373  -3.519  1.00  0.00    -0.081 Cl
BRANCH   8  10
HETATM   10  C8  UNL     1       2.154   0.296  -2.263  1.00  0.00     0.138 C 
HETATM   11  C9  UNL     1       1.679   0.737  -3.440  1.00  0.00     0.442 C 
BRANCH  10  12
HETATM   12  N4  UNL     1       1.297   1.149  -1.512  1.00  0.00    -0.068 N 
HETATM   13  H10 UNL     1       1.471   2.140  -1.173  1.00  0.00     0.273 HD
BRANCH  12  14
HETATM   14  C2  UNL     1      -0.025   1.004  -0.972  1.00  0.00     0.097 C 
HETATM   15  C1  UNL     1      -1.054   1.106  -1.817  1.00  0.00     0.045 C 
BRANCH  14  16
HETATM   16  C3  UNL     1      -0.250   0.751   0.466  1.00  0.00     0.125 C 
BRANCH  16  17
HETATM   17  C4  UNL     1      -1.694   0.651   0.715  1.00  0.00     0.074 A 
HETATM   18  C5  UNL     1      -2.441  -0.520   0.662  1.00  0.00     0.137 A 
HETATM   19  N1  UNL     1      -3.701  -0.130   0.957  1.00  0.00    -0.281 N 
HETATM   20  N2  UNL     1      -3.731   1.173   1.174  1.00  0.00     0.004 NA
HETATM   21  N3  UNL     1      -2.503   1.680   1.031  1.00  0.00    -0.163 NA
BRANCH  19  22
HETATM   22  C6  UNL     1      -4.813  -1.066   1.009  1.00  0.00     0.177 C 
BRANCH  22  23
HETATM   23  C7  UNL     1      -4.901  -1.588   2.438  1.00  0.00     0.243 C 
HETATM   24  F1  UNL     1      -3.691  -2.211   2.710  1.00  0.00    -0.254 F 
ENDBRANCH  22  23
ENDBRANCH  19  22
ENDBRANCH  16  17
ENDBRANCH  14  16
ENDBRANCH  12  14
ENDBRANCH  10  12
ENDBRANCH   8  10
ENDBRANCH   5   7
ENDBRANCH   1   5
TORSDOF 9
