REMARK  7 active torsions:
REMARK  status: ('A' for Active; 'I' for Inactive)
REMARK    1  A    between atoms: C1_2  and  C2_3 
REMARK       I    between atoms: C1_2  and  N4_13 
REMARK    2  A    between atoms: C3_4  and  C4_5 
REMARK    3  A    between atoms: N1_7  and  C6_8 
REMARK    4  A    between atoms: C6_8  and  C7_9 
REMARK    5  A    between atoms: N4_13  and  C8_14 
REMARK    6  A    between atoms: C8_14  and  C9_15 
REMARK    7  A    between atoms: C13_20  and  C14_21 
ROOT
HETATM    1  O1  UNL     1       0.563  -1.774   2.705  1.00  0.00    -0.268 OA
HETATM    2  C1  UNL     1       0.539  -1.027   1.704  1.00  0.00     0.244 C 
HETATM    3  N4  UNL     1       1.828  -0.776   1.198  1.00  0.00    -0.336 N 
HETATM    4  H8  UNL     1       2.031  -0.181   0.371  1.00  0.00     0.168 HD
ENDROOT
BRANCH   2   5
HETATM    5  C2  UNL     1      -0.640  -0.451   1.084  1.00  0.00     0.077 C 
HETATM    6  C3  UNL     1      -1.845  -0.695   1.569  1.00  0.00     0.040 C 
BRANCH   6   7
HETATM    7  C4  UNL     1      -3.019  -0.118   0.947  1.00  0.00     0.098 A 
HETATM    8  C5  UNL     1      -3.035   0.707  -0.161  1.00  0.00     0.147 A 
HETATM    9  N1  UNL     1      -4.341   0.995  -0.377  1.00  0.00    -0.258 N 
HETATM   10  N2  UNL     1      -5.096   0.387   0.541  1.00  0.00    -0.066 NA
HETATM   11  N3  UNL     1      -4.296  -0.287   1.343  1.00  0.00    -0.131 NA
BRANCH   9  12
HETATM   12  C6  UNL     1      -4.935   1.832  -1.425  1.00  0.00     0.183 C 
BRANCH  12  13
HETATM   13  C7  UNL     1      -5.233   0.933  -2.615  1.00  0.00     0.244 C 
HETATM   14  F1  UNL     1      -6.114  -0.054  -2.225  1.00  0.00    -0.254 F 
ENDBRANCH  12  13
ENDBRANCH   9  12
ENDBRANCH   6   7
ENDBRANCH   2   5
BRANCH   3  15
HETATM   15  C8  UNL     1       2.906  -1.391   1.885  1.00  0.00     0.077 C 
BRANCH  15  16
HETATM   16  C9  UNL     1       4.147  -1.224   1.497  1.00  0.00     0.037 A 
HETATM   17  C10 UNL     1       4.259  -0.513   0.526  1.00  0.00     0.027 A 
HETATM   18  C11 UNL     1       4.375   0.097  -0.309  1.00  0.00    -0.036 A 
HETATM   19  C14 UNL     1       5.456  -0.842   0.813  1.00  0.00     0.106 A 
HETATM   20  C13 UNL     1       5.390   0.068  -0.403  1.00  0.00     0.084 A 
HETATM   21  C12 UNL     1       4.545   0.854  -1.349  1.00  0.00     0.174 A 
HETATM   22  F2  UNL     1       5.356   1.438  -2.241  1.00  0.00    -0.233 F 
HETATM   23 CL1  UNL     1       6.194  -2.399   0.260  1.00  0.00    -0.123 Cl
ENDBRANCH  15  16
ENDBRANCH   3  15
TORSDOF 7
