REMARK  4 active torsions:
REMARK  status: ('A' for Active; 'I' for Inactive)
REMARK    1  A    between atoms: C2_2  and  C3_3 
REMARK    2  A    between atoms: C9_11  and  N3_12 
REMARK    3  A    between atoms: N3_12  and  C10_13 
REMARK    4  A    between atoms: C17_22  and  C18_23 
ROOT
HETATM    1  C3  UNL     1      -2.811  -0.883   0.131  1.00  0.00    -0.017 A 
HETATM    2  C4  UNL     1      -2.761   0.380   0.815  1.00  0.00     0.012 A 
HETATM    3  C5  UNL     1      -1.454   0.838   0.355  1.00  0.00    -0.004 A 
HETATM    4  N1  UNL     1      -1.553  -0.280  -0.216  1.00  0.00     0.000 N 
HETATM    5  C6  UNL     1      -0.496  -0.579  -0.963  1.00  0.00     0.022 A 
HETATM    6  C7  UNL     1       0.779   0.031  -1.317  1.00  0.00     0.043 A 
HETATM    7  C8  UNL     1       1.855  -0.423  -2.156  1.00  0.00     0.094 C 
HETATM    8  N2  UNL     1       2.684  -0.793  -2.810  1.00  0.00    -0.192 NA
HETATM    9  C9  UNL     1       0.253   0.934  -0.525  1.00  0.00     0.105 A 
HETATM   10  C16 UNL     1      -0.773  -0.176  -0.585  1.00  0.00     0.021 A 
HETATM   11  C17 UNL     1      -0.741  -1.598  -1.400  1.00  0.00     0.025 A 
HETATM   12  C18 UNL     1      -1.776  -1.279  -0.657  1.00  0.00    -0.002 A 
ENDROOT
BRANCH   9  13
HETATM   13  N3  UNL     1       1.504   1.723  -0.747  1.00  0.00    -0.373 N 
HETATM   14  H7  UNL     1       1.579   2.431  -1.542  1.00  0.00     0.161 HD
BRANCH  13  15
HETATM   15  C10 UNL     1       2.573   1.499   0.156  1.00  0.00     0.030 A 
HETATM   16  C11 UNL     1       3.841   1.855  -0.211  1.00  0.00     0.032 A 
HETATM   17  C12 UNL     1       4.837   1.626   0.704  1.00  0.00     0.046 A 
HETATM   18  C13 UNL     1       4.584   1.067   1.934  1.00  0.00     0.138 A 
HETATM   19  F1  UNL     1       5.621   0.864   2.804  1.00  0.00    -0.204 F 
HETATM   20  C14 UNL     1       3.294   0.696   2.326  1.00  0.00     0.074 A 
HETATM   21 CL1  UNL     1       2.951  -0.018   3.885  1.00  0.00    -0.081 Cl
HETATM   22  C15 UNL     1       2.324   0.939   1.387  1.00  0.00     0.056 A 
ENDBRANCH  13  15
ENDBRANCH   9  13
BRANCH   1  23
HETATM   23  C2  UNL     1      -4.093  -1.734   0.238  1.00  0.00     0.007 C 
HETATM   24  C1  UNL     1      -4.971  -1.569  -0.945  1.00  0.00     0.006 C 
ENDBRANCH   1  23
TORSDOF 4
