REMARK  9 active torsions:
REMARK  status: ('A' for Active; 'I' for Inactive)
REMARK    1  A    between atoms: C2_2  and  C3_3 
REMARK    2  A    between atoms: C2_2  and  N2_9 
REMARK    3  A    between atoms: C3_3  and  N1_4 
REMARK    4  A    between atoms: N1_4  and  C5_6 
REMARK    5  A    between atoms: C5_6  and  C6_7 
REMARK    6  A    between atoms: N2_9  and  C7_10 
REMARK    7  A    between atoms: C10_13  and  N3_14 
REMARK    8  A    between atoms: N3_14  and  C11_15 
REMARK    9  A    between atoms: C17_23  and  N4_24 
ROOT
HETATM    1  C7  UNL     1      -0.148  -0.240  -0.451  1.00  0.00     0.030 A 
HETATM    2  C8  UNL     1       0.465  -0.518  -1.644  1.00  0.00     0.031 A 
HETATM    3  C9  UNL     1       1.804  -0.805  -1.809  1.00  0.00     0.034 A 
HETATM    4  C10 UNL     1       2.586  -0.811  -0.673  1.00  0.00     0.059 A 
HETATM    5  C17 UNL     1       2.006  -0.536   0.546  1.00  0.00     0.054 A 
HETATM    6  C18 UNL     1       0.666  -0.256   0.655  1.00  0.00     0.060 A 
ENDROOT
BRANCH   1   7
HETATM    7  N2  UNL     1      -1.524   0.041  -0.283  1.00  0.00    -0.384 N 
HETATM    8  H14 UNL     1      -1.857   0.263   0.702  1.00  0.00     0.160 HD
BRANCH   7   9
HETATM    9  C2  UNL     1      -2.622   0.083  -1.243  1.00  0.00     0.095 C 
HETATM   10  C1  UNL     1      -2.871  -1.281  -1.822  1.00  0.00     0.034 C 
BRANCH   9  11
HETATM   11  C3  UNL     1      -3.814   0.778  -0.703  1.00  0.00     0.140 C 
BRANCH  11  12
HETATM   12  N1  UNL     1      -4.428   0.105   0.366  1.00  0.00    -0.412 N 
HETATM   13  C4  UNL     1      -5.114  -1.108   0.159  1.00  0.00     0.143 C 
BRANCH  12  14
HETATM   14  C5  UNL     1      -5.058   0.983   1.334  1.00  0.00     0.147 C 
BRANCH  14  15
HETATM   15  C6  UNL     1      -6.280   1.688   0.792  1.00  0.00     0.241 C 
HETATM   16  F1  UNL     1      -6.797   2.497   1.790  1.00  0.00    -0.254 F 
ENDBRANCH  14  15
ENDBRANCH  12  14
ENDBRANCH  11  12
ENDBRANCH   9  11
ENDBRANCH   7   9
ENDBRANCH   1   7
BRANCH   5  17
HETATM   17  N4  UNL     1       2.791  -0.541   1.735  1.00  0.00    -0.397 N 
HETATM   18  H21 UNL     1       3.136   0.279   2.316  1.00  0.00     0.156 HD
HETATM   19  H22 UNL     1       3.283  -1.141   2.437  1.00  0.00     0.156 HD
ENDBRANCH   5  17
BRANCH   4  20
HETATM   20  N3  UNL     1       3.979  -1.089  -0.694  1.00  0.00    -0.354 N 
HETATM   21  H17 UNL     1       4.047  -2.055  -1.085  1.00  0.00     0.166 HD
BRANCH  20  22
HETATM   22  C11 UNL     1       5.129  -0.348  -0.315  1.00  0.00     0.034 A 
HETATM   23  C12 UNL     1       6.354  -0.948  -0.436  1.00  0.00     0.032 A 
HETATM   24  C13 UNL     1       7.465  -0.229  -0.068  1.00  0.00     0.046 A 
HETATM   25  C14 UNL     1       7.433   1.060   0.419  1.00  0.00     0.138 A 
HETATM   26  F2  UNL     1       8.583   1.702   0.761  1.00  0.00    -0.204 F 
HETATM   27  C15 UNL     1       6.181   1.624   0.524  1.00  0.00     0.074 A 
HETATM   28 CL1  UNL     1       6.094   3.266   1.140  1.00  0.00    -0.081 Cl
HETATM   29  C16 UNL     1       5.025   0.931   0.161  1.00  0.00     0.056 A 
ENDBRANCH  20  22
ENDBRANCH   4  20
TORSDOF 9
