REMARK  1 active torsions:
REMARK  status: ('A' for Active; 'I' for Inactive)
REMARK    1  A    between atoms: N4_12  and  C8_13 
ROOT
HETATM    1  F1  UNL     1       5.367   2.504  -1.046  1.00  0.00    -0.211 F 
HETATM    2  C1  UNL     1       4.537   1.672  -0.375  1.00  0.00     0.096 C 
HETATM    3  C2  UNL     1       3.235   1.845  -0.203  1.00  0.00     0.043 C 
HETATM    4  C3  UNL     1       2.351   0.886   0.554  1.00  0.00     0.164 C 
HETATM    5  N1  UNL     1       0.986   1.203   0.275  1.00  0.00    -0.383 N 
HETATM    6  C4  UNL     1      -0.175   0.416   0.213  1.00  0.00     0.120 C 
HETATM    7  C5  UNL     1      -0.283  -0.889   0.073  1.00  0.00     0.127 A 
HETATM    8  C6  UNL     1       0.770  -1.881  -0.059  1.00  0.00     0.201 A 
HETATM    9  N2  UNL     1       0.396  -3.097  -0.203  1.00  0.00    -0.214 NA
HETATM   10  C7  UNL     1      -1.008  -3.416  -0.228  1.00  0.00     0.258 A 
HETATM   11  N3  UNL     1      -1.971  -2.568  -0.114  1.00  0.00    -0.160 NA
HETATM   12  N4  UNL     1      -1.665  -1.213   0.049  1.00  0.00    -0.227 N 
HETATM   13  O1  UNL     1       2.119  -1.657  -0.046  1.00  0.00    -0.292 OA
HETATM   14  C14 UNL     1       2.783  -0.462   0.198  1.00  0.00     0.078 C 
HETATM   15  C15 UNL     1       4.083  -0.676   0.056  1.00  0.00     0.015 C 
HETATM   16  C16 UNL     1       5.065   0.424   0.255  1.00  0.00     0.099 C 
HETATM   17  H3  UNL     1       0.840   2.238   0.078  1.00  0.00     0.160 HD
ENDROOT
BRANCH  12  18
HETATM   18  C8  UNL     1      -2.788  -0.373   0.165  1.00  0.00     0.059 A 
HETATM   19  C9  UNL     1      -3.612  -0.458  -0.964  1.00  0.00     0.031 A 
HETATM   20  C10 UNL     1      -4.789   0.245  -1.098  1.00  0.00     0.002 A 
HETATM   21  C11 UNL     1      -5.214   1.087  -0.093  1.00  0.00     0.000 A 
HETATM   22  C12 UNL     1      -4.419   1.186   1.026  1.00  0.00     0.002 A 
HETATM   23  C13 UNL     1      -3.242   0.488   1.172  1.00  0.00     0.031 A 
ENDBRANCH  12  18
TORSDOF 1
