REMARK  8 active torsions:
REMARK  status: ('A' for Active; 'I' for Inactive)
REMARK    1  A    between atoms: C2_2  and  C3_3 
REMARK    2  A    between atoms: C3_3  and  O1_4 
REMARK    3  A    between atoms: O1_4  and  C4_5 
REMARK    4  A    between atoms: C10_13  and  N3_14 
REMARK    5  A    between atoms: N3_14  and  C11_15 
REMARK       I    between atoms: N4_25  and  C19_26 
REMARK    6  A    between atoms: C19_26  and  C20_28 
REMARK    7  A    between atoms: C20_28  and  C21_29 
REMARK    8  A    between atoms: C21_29  and  N5_30 
ROOT
HETATM    1  C4  UNL     1      -1.342  -1.325   0.114  1.00  0.00     0.149 A 
HETATM    2  C5  UNL     1      -0.631  -2.331   0.650  1.00  0.00     0.088 A 
HETATM    3  C6  UNL     1       0.718  -2.065   1.134  1.00  0.00     0.070 A 
HETATM    4  N1  UNL     1       1.509  -3.009   1.695  1.00  0.00    -0.259 NA
HETATM    5  C7  UNL     1       2.745  -2.702   2.129  1.00  0.00     0.142 A 
HETATM    6  C8  UNL     1       3.249  -1.409   2.016  1.00  0.00     0.089 A 
HETATM    7  C9  UNL     1       4.579  -1.172   2.505  1.00  0.00     0.103 C 
HETATM    8  N2  UNL     1       5.646  -0.996   2.884  1.00  0.00    -0.191 NA
HETATM    9  C10 UNL     1       2.445  -0.435   1.442  1.00  0.00     0.065 A 
HETATM   10  C17 UNL     1       1.184  -0.776   1.006  1.00  0.00     0.017 A 
HETATM   11  C18 UNL     1       0.454   0.379   0.407  1.00  0.00     0.177 A 
HETATM   12  N4  UNL     1      -0.875  -0.006  -0.017  1.00  0.00    -0.294 N 
HETATM   13  C19 UNL     1      -1.760   0.963  -0.585  1.00  0.00     0.227 C 
HETATM   14  O2  UNL     1      -0.703   1.543  -0.302  1.00  0.00    -0.273 OA
ENDROOT
BRANCH   9  15
HETATM   15  N3  UNL     1       3.080   0.837   1.388  1.00  0.00    -0.354 N 
HETATM   16  H8  UNL     1       2.973   1.505   2.203  1.00  0.00     0.166 HD
BRANCH  15  17
HETATM   17  C11 UNL     1       3.848   1.205   0.255  1.00  0.00     0.034 A 
HETATM   18  C12 UNL     1       3.946   0.301  -0.784  1.00  0.00     0.032 A 
HETATM   19  C13 UNL     1       4.699   0.650  -1.909  1.00  0.00     0.046 A 
HETATM   20  C14 UNL     1       5.346   1.888  -1.992  1.00  0.00     0.138 A 
HETATM   21  F1  UNL     1       6.066   2.177  -3.112  1.00  0.00    -0.204 F 
HETATM   22  C15 UNL     1       5.219   2.770  -0.918  1.00  0.00     0.074 A 
HETATM   23 CL1  UNL     1       6.056   4.298  -1.097  1.00  0.00    -0.081 Cl
HETATM   24  C16 UNL     1       4.473   2.433   0.202  1.00  0.00     0.056 A 
ENDBRANCH  15  17
ENDBRANCH   9  15
BRANCH   1  25
HETATM   25  O1  UNL     1      -2.578  -1.822  -0.269  1.00  0.00    -0.332 OA
BRANCH  25  26
HETATM   26  C3  UNL     1      -3.418  -2.555   0.601  1.00  0.00     0.204 C 
BRANCH  26  27
HETATM   27  C2  UNL     1      -4.601  -3.009  -0.201  1.00  0.00    -0.011 C 
HETATM   28  C1  UNL     1      -4.807  -4.315  -0.294  1.00  0.00     0.009 C 
ENDBRANCH  26  27
ENDBRANCH  25  26
ENDBRANCH   1  25
BRANCH  13  29
HETATM   29  C20 UNL     1      -3.107   0.632  -1.038  1.00  0.00     0.122 C 
BRANCH  29  30
HETATM   30  C21 UNL     1      -3.914   1.754  -1.590  1.00  0.00     0.122 C 
BRANCH  30  31
HETATM   31  N5  UNL     1      -4.172   2.826  -0.674  1.00  0.00    -0.425 N 
HETATM   32  C22 UNL     1      -3.035   3.609  -0.313  1.00  0.00     0.139 C 
HETATM   33  H18 UNL     1      -5.057   3.328  -0.800  1.00  0.00     0.152 HD
ENDBRANCH  30  31
ENDBRANCH  29  30
ENDBRANCH  13  29
TORSDOF 8
