REMARK  2 active torsions:
REMARK  status: ('A' for Active; 'I' for Inactive)
REMARK    1  A    between atoms: C6_8  and  N3_9 
REMARK    2  A    between atoms: N3_9  and  C7_10 
ROOT
HETATM    1  N1  UNL     1       3.971  -2.433   2.312  1.00  0.00    -0.191 NA
HETATM    2  C1  UNL     1       3.029  -2.461   1.654  1.00  0.00     0.103 C 
HETATM    3  C2  UNL     1       1.847  -2.493   0.848  1.00  0.00     0.089 A 
HETATM    4  C3  UNL     1       1.163  -3.637   0.512  1.00  0.00     0.142 A 
HETATM    5  N2  UNL     1       0.054  -3.622  -0.249  1.00  0.00    -0.259 NA
HETATM    6  C4  UNL     1      -0.494  -2.507  -0.753  1.00  0.00     0.072 A 
HETATM    7  C5  UNL     1       0.129  -1.317  -0.462  1.00  0.00     0.023 A 
HETATM    8  C6  UNL     1       1.254  -1.342   0.309  1.00  0.00     0.067 A 
HETATM    9  C13 UNL     1      -0.240   0.041  -0.832  1.00  0.00     0.044 C 
HETATM   10  P1  UNL     1      -0.967   1.477  -0.540  1.00  0.00     0.028 P 
HETATM   11  N4  UNL     1      -1.886   2.060   0.852  1.00  0.00    -0.288 NA
HETATM   12  C14 UNL     1      -2.816   3.115   0.523  1.00  0.00     0.119 C 
HETATM   13  C15 UNL     1      -3.997   2.575  -0.158  1.00  0.00    -0.007 C 
HETATM   14  C16 UNL     1      -4.572   1.480  -0.547  1.00  0.00     0.073 C 
HETATM   15  C17 UNL     1      -4.420   0.038  -0.560  1.00  0.00     0.264 C 
HETATM   16  O1  UNL     1      -4.889  -1.071  -0.908  1.00  0.00    -0.266 OA
HETATM   17  N5  UNL     1      -3.498  -0.935  -0.089  1.00  0.00    -0.224 N 
HETATM   18  O2  UNL     1      -3.562  -2.304  -0.223  1.00  0.00    -0.223 OA
HETATM   19  C18 UNL     1      -2.962  -2.844  -1.358  1.00  0.00     0.170 C 
HETATM   20 CL1  UNL     1      -4.023  -3.466  -2.599  1.00  0.00    -0.054 Cl
HETATM   21  C19 UNL     1      -1.657  -2.903  -1.527  1.00  0.00     0.084 C 
HETATM   22  H8  UNL     1      -1.189   2.341   1.569  1.00  0.00     0.127 HD
HETATM   23  H13 UNL     1      -2.601  -1.017   0.437  1.00  0.00     0.198 HD
ENDROOT
BRANCH   8  24
HETATM   24  N3  UNL     1       1.879  -0.086   0.549  1.00  0.00    -0.354 N 
HETATM   25  H2  UNL     1       1.384   0.185   1.450  1.00  0.00     0.166 HD
BRANCH  24  26
HETATM   26  C7  UNL     1       2.868   0.692  -0.113  1.00  0.00     0.032 A 
HETATM   27  C8  UNL     1       3.250   1.917   0.414  1.00  0.00     0.032 A 
HETATM   28  C9  UNL     1       4.216   2.557  -0.332  1.00  0.00     0.044 A 
HETATM   29  C10 UNL     1       4.793   2.103  -1.486  1.00  0.00     0.116 A 
HETATM   30  F1  UNL     1       5.740   2.817  -2.144  1.00  0.00    -0.206 F 
HETATM   31  C11 UNL     1       4.352   0.867  -1.941  1.00  0.00     0.044 A 
HETATM   32  C12 UNL     1       3.380   0.132  -1.267  1.00  0.00     0.032 A 
ENDBRANCH  24  26
ENDBRANCH   8  24
TORSDOF 2
