REMARK  8 active torsions:
REMARK  status: ('A' for Active; 'I' for Inactive)
REMARK    1  A    between atoms: C2_2  and  S1_3 
REMARK    2  A    between atoms: S1_3  and  N1_4 
REMARK    3  A    between atoms: N1_4  and  C4_6 
REMARK    4  A    between atoms: C4_6  and  B1_7 
REMARK    5  A    between atoms: B1_7  and  C5_8 
REMARK    6  A    between atoms: C5_8  and  C6_9 
REMARK       I    between atoms: C6_9  and  N2_11 
REMARK    7  A    between atoms: N2_11  and  C7_12 
REMARK    8  A    between atoms: N3_16  and  C10_17 
ROOT
HETATM    1  C7  UNL     1      -2.538  -0.825  -0.208  1.00  0.00     0.091 C 
HETATM    2  C8  UNL     1      -2.472  -2.200  -0.183  1.00  0.00     0.017 C 
HETATM    3  C9  UNL     1      -3.408  -3.205  -0.314  1.00  0.00    -0.010 C 
HETATM    4  B2  UNL     1      -4.786  -1.500  -1.203  1.00  0.00     0.294 B 
HETATM    5  N3  UNL     1      -3.776  -0.348  -0.400  1.00  0.00    -0.391 N 
ENDROOT
BRANCH   1   6
HETATM    6  N2  UNL     1      -1.262  -0.229  -0.020  1.00  0.00    -0.312 N 
HETATM    7  C6  UNL     1      -0.466   0.042  -1.136  1.00  0.00     0.232 C 
HETATM    8  O1  UNL     1      -0.544  -0.095  -2.400  1.00  0.00    -0.270 OA
HETATM    9  H12 UNL     1      -0.866   0.027   0.904  1.00  0.00     0.170 HD
BRANCH   7  10
HETATM   10  C5  UNL     1       0.861   0.640  -1.173  1.00  0.00    -0.013 C 
BRANCH  10  11
HETATM   11  B1  UNL     1       2.122  -0.563  -0.859  1.00  0.00     0.194 B 
BRANCH  11  12
HETATM   12  C4  UNL     1       2.919  -2.109  -0.506  1.00  0.00     0.046 C 
BRANCH  12  13
HETATM   13  N1  UNL     1       4.050  -1.823   0.339  1.00  0.00    -0.272 NA
HETATM   14  C3  UNL     1       4.727  -3.079   0.617  1.00  0.00     0.123 C 
BRANCH  13  15
HETATM   15  S1  UNL     1       5.191  -0.777  -0.491  1.00  0.00    -0.084 SA
BRANCH  15  16
HETATM   16  C2  UNL     1       5.723   0.625   0.539  1.00  0.00     0.087 C 
HETATM   17  C1  UNL     1       4.514   1.520   0.740  1.00  0.00     0.017 C 
ENDBRANCH  15  16
ENDBRANCH  13  15
ENDBRANCH  12  13
ENDBRANCH  11  12
ENDBRANCH  10  11
ENDBRANCH   7  10
ENDBRANCH   1   6
BRANCH   5  18
HETATM   18  C10 UNL     1      -4.146   0.942   0.024  1.00  0.00     0.022 A 
HETATM   19  C11 UNL     1      -4.349   1.851  -0.995  1.00  0.00     0.031 A 
HETATM   20  C12 UNL     1      -4.719   3.145  -0.711  1.00  0.00     0.046 A 
HETATM   21  C13 UNL     1      -4.912   3.621   0.577  1.00  0.00     0.138 A 
HETATM   22  F1  UNL     1      -5.274   4.872   0.905  1.00  0.00    -0.204 F 
HETATM   23  C14 UNL     1      -4.706   2.705   1.578  1.00  0.00     0.074 A 
HETATM   24 CL1  UNL     1      -4.917   3.173   3.273  1.00  0.00    -0.081 Cl
HETATM   25  C15 UNL     1      -4.332   1.395   1.314  1.00  0.00     0.055 A 
ENDBRANCH   5  18
TORSDOF 8
