REMARK  6 active torsions:
REMARK  status: ('A' for Active; 'I' for Inactive)
REMARK    1  A    between atoms: N1_2  and  C3_4 
REMARK    2  A    between atoms: C3_4  and  C4_5 
REMARK    3  A    between atoms: C5_6  and  C6_7 
REMARK       I    between atoms: C6_7  and  N2_9 
REMARK    4  A    between atoms: N2_9  and  C7_10 
REMARK    5  A    between atoms: C14_19  and  N5_20 
REMARK    6  A    between atoms: N5_20  and  C15_21 
ROOT
HETATM    1  C7  UNL     1      -0.397  -0.418   0.662  1.00  0.00     0.020 C 
HETATM    2  C8  UNL     1      -1.324  -0.665  -0.249  1.00  0.00     0.041 C 
HETATM    3  C9  UNL     1      -2.466  -1.550  -0.064  1.00  0.00     0.019 A 
HETATM    4  C10 UNL     1      -2.652  -2.591   0.822  1.00  0.00     0.053 A 
HETATM    5  N3  UNL     1      -3.778  -3.300   0.848  1.00  0.00    -0.263 NA
HETATM    6  C11 UNL     1      -4.791  -3.030   0.007  1.00  0.00     0.142 A 
HETATM    7  C12 UNL     1      -4.705  -2.006  -0.920  1.00  0.00     0.089 A 
HETATM    8  C13 UNL     1      -5.722  -1.647  -1.848  1.00  0.00     0.103 C 
HETATM    9  N4  UNL     1      -6.535  -1.375  -2.604  1.00  0.00    -0.191 NA
HETATM   10  C14 UNL     1      -3.529  -1.282  -0.932  1.00  0.00     0.067 A 
HETATM   11  C21 UNL     1      -1.716  -3.115   1.861  1.00  0.00     0.138 C 
HETATM   12  C22 UNL     1      -0.843  -2.068   2.437  1.00  0.00     0.138 C 
HETATM   13  O2  UNL     1      -0.593  -2.220   3.642  1.00  0.00    -0.297 OA
HETATM   14  C23 UNL     1      -0.135  -0.844   2.038  1.00  0.00     0.135 C 
ENDROOT
BRANCH  10  15
HETATM   15  N5  UNL     1      -3.353  -0.211  -1.851  1.00  0.00    -0.354 N 
HETATM   16  H14 UNL     1      -2.949  -0.338  -2.797  1.00  0.00     0.166 HD
BRANCH  15  17
HETATM   17  C15 UNL     1      -3.746   1.098  -1.465  1.00  0.00     0.034 A 
HETATM   18  C16 UNL     1      -4.294   1.369  -0.228  1.00  0.00     0.032 A 
HETATM   19  C17 UNL     1      -4.683   2.641   0.165  1.00  0.00     0.046 A 
HETATM   20  C18 UNL     1      -4.510   3.693  -0.739  1.00  0.00     0.138 A 
HETATM   21  F1  UNL     1      -4.865   4.958  -0.428  1.00  0.00    -0.204 F 
HETATM   22  C19 UNL     1      -3.971   3.472  -1.976  1.00  0.00     0.074 A 
HETATM   23 CL1  UNL     1      -3.728   4.747  -3.153  1.00  0.00    -0.081 Cl
HETATM   24  C20 UNL     1      -3.608   2.180  -2.295  1.00  0.00     0.056 A 
ENDBRANCH  15  17
ENDBRANCH  10  15
BRANCH   1  25
HETATM   25  N2  UNL     1       0.535   0.491   0.089  1.00  0.00    -0.327 N 
HETATM   26  C6  UNL     1       1.858  -0.041   0.039  1.00  0.00     0.245 C 
HETATM   27  O1  UNL     1       2.394  -1.125   0.383  1.00  0.00    -0.268 OA
HETATM   28  H11 UNL     1       0.458   1.443  -0.294  1.00  0.00     0.169 HD
BRANCH  26  29
HETATM   29  C5  UNL     1       2.984   0.713  -0.508  1.00  0.00     0.072 C 
HETATM   30  C4  UNL     1       4.160   0.109  -0.498  1.00  0.00     0.008 C 
BRANCH  30  31
HETATM   31  C3  UNL     1       5.413   0.714  -1.010  1.00  0.00     0.299 C 
BRANCH  31  32
HETATM   32  N1  UNL     1       6.444   0.836  -0.015  1.00  0.00     0.083 N 
HETATM   33  C1  UNL     1       7.643   1.425  -0.544  1.00  0.00     0.309 C 
HETATM   34  C2  UNL     1       6.749  -0.408   0.627  1.00  0.00     0.309 C 
ENDBRANCH  31  32
ENDBRANCH  30  31
ENDBRANCH  26  29
ENDBRANCH   1  25
TORSDOF 6
