REMARK  1 active torsions:
REMARK  status: ('A' for Active; 'I' for Inactive)
REMARK    1  A    between atoms: N4_13  and  C10_14 
ROOT
HETATM    1  C1  UNL     1      -5.435  -0.819   0.772  1.00  0.00     0.018 C 
HETATM    2  C2  UNL     1      -4.620   0.353   0.233  1.00  0.00     0.029 C 
HETATM    3  C3  UNL     1      -4.063   1.057   1.407  1.00  0.00    -0.020 C 
HETATM    4  C4  UNL     1      -2.790   1.419   1.338  1.00  0.00     0.001 C 
HETATM    5  C5  UNL     1      -1.812   1.220   0.233  1.00  0.00     0.161 C 
HETATM    6  N1  UNL     1      -0.516   0.901   0.848  1.00  0.00    -0.383 N 
HETATM    7  C6  UNL     1       0.652   0.436   0.211  1.00  0.00     0.120 C 
HETATM    8  C7  UNL     1       0.778  -0.257  -0.908  1.00  0.00     0.127 A 
HETATM    9  C8  UNL     1      -0.248  -0.750  -1.815  1.00  0.00     0.201 A 
HETATM   10  N2  UNL     1       0.134  -1.428  -2.845  1.00  0.00    -0.214 NA
HETATM   11  C9  UNL     1       1.508  -1.665  -3.054  1.00  0.00     0.258 A 
HETATM   12  N3  UNL     1       2.455  -1.238  -2.263  1.00  0.00    -0.160 NA
HETATM   13  N4  UNL     1       2.167  -0.481  -1.098  1.00  0.00    -0.227 N 
HETATM   14  O1  UNL     1      -1.613  -0.549  -1.662  1.00  0.00    -0.292 OA
HETATM   15  C16 UNL     1      -2.283   0.183  -0.690  1.00  0.00     0.079 C 
HETATM   16  C17 UNL     1      -3.576  -0.184  -0.657  1.00  0.00     0.017 C 
HETATM   17  H8  UNL     1      -0.449   1.036   1.902  1.00  0.00     0.160 HD
ENDROOT
BRANCH  13  18
HETATM   18  C10 UNL     1       3.277  -0.088  -0.340  1.00  0.00     0.059 A 
HETATM   19  C11 UNL     1       3.998  -1.221   0.063  1.00  0.00     0.031 A 
HETATM   20  C12 UNL     1       5.169  -1.134   0.816  1.00  0.00     0.002 A 
HETATM   21  C13 UNL     1       5.658   0.099   1.192  1.00  0.00     0.000 A 
HETATM   22  C14 UNL     1       4.959   1.217   0.802  1.00  0.00     0.002 A 
HETATM   23  C15 UNL     1       3.802   1.148   0.059  1.00  0.00     0.031 A 
ENDBRANCH  13  18
TORSDOF 1
