REMARK  9 active torsions:
REMARK  status: ('A' for Active; 'I' for Inactive)
REMARK    1  A    between atoms: N1_2  and  C2_3 
REMARK    2  A    between atoms: C2_3  and  C3_4 
REMARK    3  A    between atoms: C4_5  and  C5_6 
REMARK       I    between atoms: C5_6  and  N2_8 
REMARK    4  A    between atoms: N2_8  and  C6_9 
REMARK    5  A    between atoms: C11_15  and  N4_16 
REMARK    6  A    between atoms: N5_18  and  C13_19 
REMARK    7  A    between atoms: C20_28  and  O2_29 
REMARK    8  A    between atoms: O2_29  and  C21_30 
REMARK    9  A    between atoms: C21_30  and  C22_31 
ROOT
HETATM    1  C6  UNL     1       0.265  -0.547  -0.157  1.00  0.00     0.067 A 
HETATM    2  C7  UNL     1      -0.707  -0.083  -0.964  1.00  0.00     0.037 A 
HETATM    3  C8  UNL     1      -2.069  -0.638  -1.117  1.00  0.00     0.162 A 
HETATM    4  C9  UNL     1      -2.312  -1.800  -0.222  1.00  0.00     0.063 A 
HETATM    5  N3  UNL     1      -3.458  -2.389  -0.204  1.00  0.00    -0.261 NA
HETATM    6  C10 UNL     1      -4.665  -2.170  -0.906  1.00  0.00     0.143 C 
HETATM    7  C11 UNL     1      -4.974  -1.109  -1.610  1.00  0.00     0.038 C 
HETATM    8  C12 UNL     1      -4.292   0.178  -1.947  1.00  0.00     0.182 C 
HETATM    9  N5  UNL     1      -3.147   0.287  -1.017  1.00  0.00    -0.361 N 
HETATM   10  C19 UNL     1      -1.265  -2.313   0.655  1.00  0.00     0.068 A 
HETATM   11  C20 UNL     1      -0.077  -1.719   0.672  1.00  0.00     0.097 A 
ENDROOT
BRANCH   1  12
HETATM   12  N2  UNL     1       1.548   0.059  -0.083  1.00  0.00    -0.321 N 
HETATM   13  C5  UNL     1       2.745  -0.675  -0.409  1.00  0.00     0.245 C 
HETATM   14  O1  UNL     1       2.473  -1.857  -0.745  1.00  0.00    -0.268 OA
HETATM   15  H9  UNL     1       1.644   1.074   0.218  1.00  0.00     0.169 HD
BRANCH  13  16
HETATM   16  C4  UNL     1       4.079  -0.083  -0.342  1.00  0.00     0.072 C 
HETATM   17  C3  UNL     1       4.420   1.135  -0.001  1.00  0.00     0.008 C 
BRANCH  17  18
HETATM   18  C2  UNL     1       5.831   1.584   0.015  1.00  0.00     0.296 C 
BRANCH  18  19
HETATM   19  N1  UNL     1       6.069   2.705  -0.891  1.00  0.00     0.082 N 
HETATM   20  C1  UNL     1       7.477   3.039  -0.777  1.00  0.00     0.307 C 
HETATM   21  H4  UNL     1       5.893   2.340  -1.851  1.00  0.00     0.315 HD
ENDBRANCH  18  19
ENDBRANCH  17  18
ENDBRANCH  13  16
ENDBRANCH   1  12
BRANCH  11  22
HETATM   22  O2  UNL     1       0.897  -2.234   1.520  1.00  0.00    -0.346 OA
BRANCH  22  23
HETATM   23  C21 UNL     1       1.037  -3.642   1.561  1.00  0.00     0.207 C 
BRANCH  23  24
HETATM   24  C22 UNL     1       2.137  -4.076   2.527  1.00  0.00     0.248 C 
HETATM   25  F2  UNL     1       3.289  -3.498   2.063  1.00  0.00    -0.253 F 
ENDBRANCH  23  24
ENDBRANCH  22  23
ENDBRANCH  11  22
BRANCH   9  26
HETATM   26  C13 UNL     1      -3.145   1.314  -0.062  1.00  0.00     0.033 A 
HETATM   27  C14 UNL     1      -2.472   1.284   1.140  1.00  0.00     0.032 A 
HETATM   28  C15 UNL     1      -2.433   2.270   2.083  1.00  0.00     0.046 A 
HETATM   29  C16 UNL     1      -3.128   3.438   1.847  1.00  0.00     0.138 A 
HETATM   30  F1  UNL     1      -3.110   4.433   2.761  1.00  0.00    -0.204 F 
HETATM   31  C17 UNL     1      -3.835   3.565   0.669  1.00  0.00     0.074 A 
HETATM   32 CL1  UNL     1      -4.691   5.049   0.421  1.00  0.00    -0.081 Cl
HETATM   33  C18 UNL     1      -3.819   2.521  -0.225  1.00  0.00     0.056 A 
ENDBRANCH   9  26
BRANCH   7  34
HETATM   34  N4  UNL     1      -6.287  -1.209  -2.197  1.00  0.00    -0.400 N 
HETATM   35  H13 UNL     1      -6.855  -0.434  -1.775  1.00  0.00     0.156 HD
HETATM   36  H14 UNL     1      -6.813  -1.784  -2.874  1.00  0.00     0.156 HD
ENDBRANCH   7  34
TORSDOF 9
