REMARK  5 active torsions:
REMARK  status: ('A' for Active; 'I' for Inactive)
REMARK    1  A    between atoms: N1_1  and  C1_2 
REMARK    2  A    between atoms: C2_3  and  C3_4 
REMARK    3  A    between atoms: C8_10  and  N2_11 
REMARK    4  A    between atoms: N2_11  and  C9_12 
REMARK    5  A    between atoms: C14_19  and  N5_20 
ROOT
HETATM    1  N2  UNL     1       0.238   0.982   0.169  1.00  0.00    -0.339 N 
HETATM    2  H8  UNL     1       0.487   1.926  -0.179  1.00  0.00     0.167 HD
ENDROOT
BRANCH   1   3
HETATM    3  C8  UNL     1      -0.823   0.045   0.061  1.00  0.00     0.045 A 
HETATM    4  C3  UNL     1      -1.962   0.339  -0.653  1.00  0.00     0.009 A 
HETATM    5  C4  UNL     1      -2.963  -0.590  -0.729  1.00  0.00     0.023 A 
HETATM    6 BR1  UNL     1      -4.584  -0.330  -1.691  1.00  0.00    -0.050 Br
HETATM    7  C5  UNL     1      -2.864  -1.813  -0.108  1.00  0.00     0.020 A 
HETATM    8  C6  UNL     1      -1.707  -2.058   0.594  1.00  0.00     0.004 A 
HETATM    9  C7  UNL     1      -0.684  -1.163   0.696  1.00  0.00     0.030 A 
BRANCH   4  10
HETATM   10  C2  UNL     1      -2.104   1.622  -1.281  1.00  0.00     0.031 C 
HETATM   11  C1  UNL     1      -2.851   2.420  -1.938  1.00  0.00     0.081 C 
BRANCH  11  12
HETATM   12  N1  UNL     1      -4.166   2.453  -2.485  1.00  0.00    -0.408 N 
HETATM   13  H1  UNL     1      -4.994   2.706  -1.874  1.00  0.00     0.155 HD
HETATM   14  H2  UNL     1      -4.639   2.291  -3.400  1.00  0.00     0.155 HD
ENDBRANCH  11  12
ENDBRANCH   4  10
ENDBRANCH   1   3
BRANCH   1  15
HETATM   15  C9  UNL     1       1.355   0.635   0.973  1.00  0.00     0.142 A 
HETATM   16  N3  UNL     1       1.406   1.237   2.182  1.00  0.00    -0.224 NA
HETATM   17  C10 UNL     1       2.420   0.952   3.038  1.00  0.00     0.236 A 
HETATM   18  N4  UNL     1       3.407   0.065   2.715  1.00  0.00    -0.239 NA
HETATM   19  C11 UNL     1       3.385  -0.551   1.519  1.00  0.00     0.093 A 
HETATM   20  C12 UNL     1       2.358  -0.258   0.660  1.00  0.00     0.042 A 
HETATM   21  C14 UNL     1       3.775  -1.419   0.424  1.00  0.00     0.037 A 
HETATM   22  C13 UNL     1       2.765  -1.127  -0.416  1.00  0.00     0.043 A 
BRANCH  21  23
HETATM   23  N5  UNL     1       4.891  -2.282   0.333  1.00  0.00    -0.301 NA
HETATM   24  H11 UNL     1       5.864  -2.090  -0.049  1.00  0.00     0.124 HD
HETATM   25  H12 UNL     1       5.850  -2.572   0.126  1.00  0.00     0.124 HD
ENDBRANCH  21  23
ENDBRANCH   1  15
TORSDOF 5
