REMARK  5 active torsions:
REMARK  status: ('A' for Active; 'I' for Inactive)
REMARK    1  A    between atoms: C3_3  and  N1_4 
REMARK    2  A    between atoms: C3_3  and  C4_5 
REMARK    3  A    between atoms: C5_6  and  C6_7 
REMARK    4  A    between atoms: C9_12  and  N4_13 
REMARK    5  A    between atoms: N4_13  and  C10_14 
ROOT
HETATM    1  C6  UNL     1      -0.460   1.049   0.683  1.00  0.00     0.028 A 
HETATM    2  C7  UNL     1      -0.976   2.098   1.391  1.00  0.00     0.133 A 
HETATM    3  N2  UNL     1      -0.154   2.978   2.010  1.00  0.00    -0.253 NA
HETATM    4  C8  UNL     1       1.200   2.817   1.928  1.00  0.00     0.234 A 
HETATM    5  N3  UNL     1       1.644   1.774   1.222  1.00  0.00    -0.224 NA
HETATM    6  C9  UNL     1       0.901   0.862   0.583  1.00  0.00     0.141 A 
ENDROOT
BRANCH   6   7
HETATM    7  N4  UNL     1       1.498  -0.204  -0.135  1.00  0.00    -0.340 N 
HETATM    8  H11 UNL     1       0.827  -0.833  -0.580  1.00  0.00     0.167 HD
BRANCH   7   9
HETATM    9  C10 UNL     1       2.849  -0.502  -0.312  1.00  0.00     0.035 A 
HETATM   10  C11 UNL     1       3.915   0.180   0.177  1.00  0.00     0.029 A 
HETATM   11  C12 UNL     1       5.244  -0.132  -0.010  1.00  0.00     0.004 A 
HETATM   12  C13 UNL     1       5.522  -1.249  -0.769  1.00  0.00     0.019 A 
HETATM   13  C14 UNL     1       4.505  -2.000  -1.304  1.00  0.00     0.013 A 
HETATM   14 BR1  UNL     1       4.894  -3.542  -2.352  1.00  0.00    -0.051 Br
HETATM   15  C15 UNL     1       3.223  -1.611  -1.064  1.00  0.00     0.048 A 
ENDBRANCH   7   9
ENDBRANCH   6   7
BRANCH   1  16
HETATM   16  C5  UNL     1      -1.380   0.130   0.034  1.00  0.00     0.019 C 
HETATM   17  C4  UNL     1      -2.684   0.223   0.071  1.00  0.00     0.029 C 
BRANCH  17  18
HETATM   18  C3  UNL     1      -3.676  -0.649  -0.547  1.00  0.00     0.021 C 
HETATM   19  C2  UNL     1      -4.983  -0.521  -0.486  1.00  0.00    -0.002 C 
HETATM   20  C1  UNL     1      -5.431   0.640   0.300  1.00  0.00     0.038 C 
BRANCH  18  21
HETATM   21  N1  UNL     1      -3.082  -1.720  -1.268  1.00  0.00    -0.399 N 
HETATM   22  H5  UNL     1      -2.652  -2.493  -1.789  1.00  0.00     0.156 HD
HETATM   23  H6  UNL     1      -2.863  -2.721  -0.989  1.00  0.00     0.156 HD
ENDBRANCH  18  21
ENDBRANCH  17  18
ENDBRANCH   1  16
TORSDOF 5
