REMARK  0 active torsions:
REMARK  status: ('A' for Active; 'I' for Inactive)
ROOT
HETATM    1  N1  UNL     1       2.703   4.655   2.368  1.00  0.00    -0.191 NA
HETATM    2  C1  UNL     1       2.373   3.580   2.454  1.00  0.00     0.101 C 
HETATM    3  C2  UNL     1       1.960   2.255   2.574  1.00  0.00     0.065 A 
HETATM    4  C3  UNL     1       1.954   1.277   3.424  1.00  0.00     0.134 A 
HETATM    5  N2  UNL     1       1.620   0.006   3.715  1.00  0.00    -0.284 NA
HETATM    6  C4  UNL     1       1.007  -0.751   2.855  1.00  0.00     0.112 A 
HETATM    7  C5  UNL     1       0.973   0.302   1.831  1.00  0.00     0.075 A 
HETATM    8  C6  UNL     1       1.304   1.661   1.456  1.00  0.00    -0.046 A 
HETATM    9  C7  UNL     1       1.024   2.337   0.098  1.00  0.00     0.066 C 
HETATM   10  C8  UNL     1      -0.482   2.402  -0.041  1.00  0.00     0.017 C 
HETATM   11  C9  UNL     1      -1.385   1.647  -0.678  1.00  0.00     0.116 C 
HETATM   12  F1  UNL     1      -2.722   1.699  -0.807  1.00  0.00    -0.209 F 
HETATM   13  C10 UNL     1      -1.789   0.483  -1.485  1.00  0.00     0.121 A 
HETATM   14 CL1  UNL     1      -0.123   0.724  -2.139  1.00  0.00    -0.193 Cl
HETATM   15  C11 UNL     1      -1.756  -0.607  -2.184  1.00  0.00     0.127 A 
HETATM   16  C12 UNL     1      -1.068  -1.822  -2.862  1.00  0.00     0.290 C 
HETATM   17  N3  UNL     1      -1.440  -3.051  -2.207  1.00  0.00     0.085 N 
HETATM   18  C13 UNL     1      -0.502  -3.353  -1.051  1.00  0.00     0.280 C 
HETATM   19  C14 UNL     1      -0.711  -2.204  -0.195  1.00  0.00     0.111 C 
HETATM   20  C15 UNL     1      -0.096  -1.701   0.923  1.00  0.00    -0.166 C 
HETATM   21  C16 UNL     1       0.396  -1.285   1.795  1.00  0.00     0.073 A 
HETATM   22  H9  UNL     1      -1.514  -3.894  -2.758  1.00  0.00     0.315 HD
ENDROOT
TORSDOF 0
