REMARK  4 active torsions:
REMARK  status: ('A' for Active; 'I' for Inactive)
REMARK    1  A    between atoms: N1_1  and  C1_2 
REMARK    2  A    between atoms: C4_5  and  N2_6 
REMARK    3  A    between atoms: N2_6  and  C5_7 
REMARK    4  A    between atoms: C13_19  and  N6_20 
ROOT
HETATM    1  C1  UNL     1      -3.165   0.870  -0.453  1.00  0.00     0.072 A 
HETATM    2  C2  UNL     1      -1.806   0.670  -0.329  1.00  0.00     0.052 A 
HETATM    3  C3  UNL     1      -1.226  -0.456   0.208  1.00  0.00     0.060 A 
HETATM    4  C4  UNL     1       0.129  -0.650   0.329  1.00  0.00     0.143 A 
HETATM    5  N3  UNL     1       0.433  -1.827   0.882  1.00  0.00    -0.223 NA
HETATM    6  C11 UNL     1      -0.397  -2.769   1.301  1.00  0.00     0.237 A 
HETATM    7  N4  UNL     1      -1.716  -2.548   1.169  1.00  0.00    -0.221 NA
HETATM    8  C12 UNL     1      -2.142  -1.395   0.624  1.00  0.00     0.167 A 
HETATM    9  N5  UNL     1      -3.472  -1.231   0.517  1.00  0.00    -0.209 NA
HETATM   10  C13 UNL     1      -4.027  -0.120  -0.012  1.00  0.00     0.150 A 
ENDROOT
BRANCH   4  11
HETATM   11  N2  UNL     1       1.027   0.345  -0.110  1.00  0.00    -0.340 N 
HETATM   12  H4  UNL     1       0.686   1.232  -0.518  1.00  0.00     0.167 HD
BRANCH  11  13
HETATM   13  C5  UNL     1       2.425   0.349  -0.091  1.00  0.00     0.035 A 
HETATM   14  C6  UNL     1       3.238   1.390  -0.494  1.00  0.00     0.029 A 
HETATM   15  C7  UNL     1       4.609   1.382  -0.473  1.00  0.00     0.004 A 
HETATM   16  C8  UNL     1       5.279   0.267  -0.022  1.00  0.00     0.019 A 
HETATM   17  C9  UNL     1       4.510  -0.805   0.394  1.00  0.00     0.013 A 
HETATM   18 BR1  UNL     1       5.501  -2.315   1.007  1.00  0.00    -0.051 Br
HETATM   19  C10 UNL     1       3.134  -0.741   0.351  1.00  0.00     0.048 A 
ENDBRANCH  11  13
ENDBRANCH   4  11
BRANCH   1  20
HETATM   20  N1  UNL     1      -3.698   2.062  -1.019  1.00  0.00    -0.396 N 
HETATM   21  H1  UNL     1      -3.692   2.060  -2.083  1.00  0.00     0.156 HD
HETATM   22  H2  UNL     1      -4.112   2.982  -0.744  1.00  0.00     0.156 HD
ENDBRANCH   1  20
BRANCH  10  23
HETATM   23  N6  UNL     1      -5.432   0.040  -0.119  1.00  0.00    -0.382 N 
HETATM   24  H10 UNL     1      -6.031   0.078  -0.951  1.00  0.00     0.157 HD
HETATM   25  H11 UNL     1      -5.787   0.120   0.859  1.00  0.00     0.157 HD
ENDBRANCH  10  23
TORSDOF 4
