REMARK  0 active torsions:
REMARK  status: ('A' for Active; 'I' for Inactive)
ROOT
HETATM    1  C1  UNL     1      -2.090  -2.833   1.716  1.00  0.00     0.167 C 
HETATM    2  N1  UNL     1      -1.405  -1.775   1.022  1.00  0.00    -0.308 N 
HETATM    3  C2  UNL     1      -0.343  -1.957   0.209  1.00  0.00     0.021 C 
HETATM    4  C3  UNL     1       0.571  -2.093  -0.484  1.00  0.00    -0.013 C 
HETATM    5  C4  UNL     1       1.683  -2.233  -1.322  1.00  0.00     0.170 C 
HETATM    6  F1  UNL     1       2.419  -3.364  -1.381  1.00  0.00    -0.196 F 
HETATM    7  C5  UNL     1       1.937  -1.146  -2.055  1.00  0.00     0.038 C 
HETATM    8  C6  UNL     1       2.697  -0.353  -3.053  1.00  0.00    -0.048 C 
HETATM    9  B1  UNL     1       3.012   1.367  -2.683  1.00  0.00     0.355 B 
HETATM   10  O1  UNL     1       2.603   2.168  -1.461  1.00  0.00    -0.420 OA
HETATM   11  C7  UNL     1       2.762   2.329  -0.129  1.00  0.00     0.219 A 
HETATM   12  N2  UNL     1       1.824   1.463  -0.131  1.00  0.00    -0.226 NA
HETATM   13  C8  UNL     1       1.737   1.395   1.254  1.00  0.00     0.127 A 
HETATM   14  C9  UNL     1       2.671   2.259   1.329  1.00  0.00     0.089 A 
HETATM   15  N3  UNL     1       0.721   0.463   1.494  1.00  0.00    -0.339 N 
HETATM   16  C10 UNL     1      -0.630   0.637   1.102  1.00  0.00     0.061 A 
HETATM   17  C11 UNL     1      -1.052   1.946   0.908  1.00  0.00     0.032 A 
HETATM   18  C12 UNL     1      -2.359   2.261   0.516  1.00  0.00     0.002 A 
HETATM   19  C13 UNL     1      -3.280   1.242   0.310  1.00  0.00     0.002 A 
HETATM   20  C14 UNL     1      -2.827  -0.065   0.513  1.00  0.00     0.033 A 
HETATM   21  C15 UNL     1      -1.541  -0.362   0.897  1.00  0.00     0.068 A 
HETATM   22  H7  UNL     1       0.994  -0.431   2.003  1.00  0.00     0.167 HD
ENDROOT
TORSDOF 0
