REMARK  8 active torsions:
REMARK  status: ('A' for Active; 'I' for Inactive)
REMARK    1  A    between atoms: O1_2  and  C2_3 
REMARK    2  A    between atoms: C11_14  and  N3_15 
REMARK    3  A    between atoms: N3_15  and  C12_16 
REMARK    4  A    between atoms: C12_16  and  C13_17 
REMARK    5  A    between atoms: C12_16  and  C14_19 
REMARK    6  A    between atoms: C15_20  and  C16_21 
REMARK    7  A    between atoms: N4_23  and  C18_24 
REMARK    8  A    between atoms: C18_24  and  C19_25 
ROOT
HETATM    1  C2  UNL     1      -1.744   1.396  -0.798  1.00  0.00     0.096 A 
HETATM    2  C3  UNL     1      -2.970   1.760  -0.283  1.00  0.00     0.071 A 
HETATM    3  C4  UNL     1      -3.818   0.818   0.240  1.00  0.00     0.069 A 
HETATM    4  N1  UNL     1      -4.995   1.199   0.730  1.00  0.00    -0.259 NA
HETATM    5  C5  UNL     1      -5.892   0.340   1.263  1.00  0.00     0.140 A 
HETATM    6  C6  UNL     1      -5.483  -0.983   1.258  1.00  0.00     0.063 A 
HETATM    7  C7  UNL     1      -6.373  -1.967   1.806  1.00  0.00     0.101 C 
HETATM    8  N2  UNL     1      -7.084  -2.743   2.245  1.00  0.00    -0.191 NA
HETATM    9  C8  UNL     1      -4.287  -1.410   0.766  1.00  0.00     0.038 A 
HETATM   10  C9  UNL     1      -3.414  -0.496   0.236  1.00  0.00    -0.004 A 
HETATM   11  C10 UNL     1      -2.189  -0.821  -0.285  1.00  0.00     0.046 A 
HETATM   12  C11 UNL     1      -1.283   0.072  -0.827  1.00  0.00     0.063 A 
ENDROOT
BRANCH  12  13
HETATM   13  N3  UNL     1      -0.042  -0.333  -1.346  1.00  0.00    -0.373 N 
HETATM   14  H8  UNL     1       0.540   0.472  -1.731  1.00  0.00     0.161 HD
BRANCH  13  15
HETATM   15  C12 UNL     1       0.447  -1.672  -1.383  1.00  0.00     0.166 C 
BRANCH  15  16
HETATM   16  C13 UNL     1      -0.423  -2.602  -2.148  1.00  0.00     0.260 C 
HETATM   17  O2  UNL     1       0.012  -3.750  -2.170  1.00  0.00    -0.304 OA
ENDBRANCH  15  16
BRANCH  15  18
HETATM   18  C14 UNL     1       0.813  -2.243  -0.064  1.00  0.00     0.007 C 
HETATM   19  C15 UNL     1       1.901  -1.991   0.645  1.00  0.00     0.033 C 
BRANCH  19  20
HETATM   20  C16 UNL     1       2.978  -1.107   0.301  1.00  0.00     0.097 A 
HETATM   21  C17 UNL     1       4.150  -0.767   0.954  1.00  0.00     0.147 A 
HETATM   22  N4  UNL     1       4.855   0.112   0.234  1.00  0.00    -0.258 N 
HETATM   23  N5  UNL     1       4.139   0.329  -0.867  1.00  0.00    -0.066 NA
HETATM   24  N6  UNL     1       3.039  -0.383  -0.829  1.00  0.00    -0.131 NA
BRANCH  22  25
HETATM   25  C18 UNL     1       6.125   0.679   0.611  1.00  0.00     0.183 C 
BRANCH  25  26
HETATM   26  C19 UNL     1       5.908   1.956   1.396  1.00  0.00     0.244 C 
HETATM   27  F1  UNL     1       5.211   2.870   0.609  1.00  0.00    -0.254 F 
ENDBRANCH  25  26
ENDBRANCH  22  25
ENDBRANCH  19  20
ENDBRANCH  15  18
ENDBRANCH  13  15
ENDBRANCH  12  13
BRANCH   1  28
HETATM   28  O1  UNL     1      -0.873   2.358  -1.334  1.00  0.00    -0.354 OA
HETATM   29  C1  UNL     1      -1.281   3.710  -1.333  1.00  0.00     0.210 C 
ENDBRANCH   1  28
TORSDOF 8
