REMARK  6 active torsions:
REMARK  status: ('A' for Active; 'I' for Inactive)
REMARK    1  A    between atoms: C12_17  and  C13_18 
REMARK    2  A    between atoms: C13_18  and  O1_19 
REMARK    3  A    between atoms: C13_18  and  C14_20 
REMARK    4  A    between atoms: C15_21  and  C16_22 
REMARK    5  A    between atoms: N4_24  and  C18_25 
REMARK    6  A    between atoms: C18_25  and  C19_26 
ROOT
HETATM    1  N1  UNL     1      -2.725  -1.018   5.741  1.00  0.00    -0.191 NA
HETATM    2  C1  UNL     1      -2.370  -0.078   5.163  1.00  0.00     0.103 C 
HETATM    3  C2  UNL     1      -1.933   1.117   4.456  1.00  0.00     0.089 A 
HETATM    4  C3  UNL     1      -1.724   2.329   5.086  1.00  0.00     0.141 A 
HETATM    5  N2  UNL     1      -1.314   3.407   4.374  1.00  0.00    -0.271 NA
HETATM    6  C4  UNL     1      -1.091   3.362   3.037  1.00  0.00     0.130 A 
HETATM    7  C5  UNL     1      -1.289   2.169   2.375  1.00  0.00     0.010 A 
HETATM    8  C6  UNL     1      -1.707   1.053   3.075  1.00  0.00     0.067 A 
HETATM    9  N3  UNL     1      -1.994  -0.286   2.629  1.00  0.00    -0.354 N 
HETATM   10  C7  UNL     1      -2.445  -0.573   1.287  1.00  0.00     0.044 A 
HETATM   11  C8  UNL     1      -3.225  -1.611   0.991  1.00  0.00     0.046 A 
HETATM   12  C9  UNL     1      -3.473  -1.571  -0.468  1.00  0.00     0.241 A 
HETATM   13  F1  UNL     1      -3.009  -2.675  -1.131  1.00  0.00    -0.239 F 
HETATM   14  C10 UNL     1      -2.741  -0.383  -0.935  1.00  0.00     0.062 A 
HETATM   15 CL1  UNL     1      -2.744   0.116  -2.584  1.00  0.00    -0.085 Cl
HETATM   16  C11 UNL     1      -2.135   0.206   0.080  1.00  0.00     0.020 A 
HETATM   17  C12 UNL     1      -1.326   1.404  -0.101  1.00  0.00    -0.011 C 
HETATM   18  C20 UNL     1      -1.019   2.182   0.951  1.00  0.00     0.026 C 
HETATM   19  H3  UNL     1      -1.884  -1.082   3.283  1.00  0.00     0.166 HD
ENDROOT
BRANCH  17  20
HETATM   20  C13 UNL     1      -0.802   1.760  -1.435  1.00  0.00     0.175 C 
BRANCH  20  21
HETATM   21  O1  UNL     1       0.015   2.911  -1.192  1.00  0.00    -0.387 OA
HETATM   22  H7  UNL     1       0.619   3.043  -1.942  1.00  0.00     0.210 HD
ENDBRANCH  20  21
BRANCH  20  23
HETATM   23  C14 UNL     1       0.168   0.819  -1.995  1.00  0.00     0.012 C 
HETATM   24  C15 UNL     1       0.610   0.256  -3.097  1.00  0.00     0.033 C 
BRANCH  24  25
HETATM   25  C16 UNL     1       1.673  -0.701  -3.243  1.00  0.00     0.091 A 
HETATM   26  C17 UNL     1       2.498  -1.261  -2.295  1.00  0.00     0.141 A 
HETATM   27  N4  UNL     1       3.307  -2.091  -2.992  1.00  0.00    -0.281 N 
HETATM   28  N5  UNL     1       2.986  -2.033  -4.290  1.00  0.00     0.005 NA
HETATM   29  N6  UNL     1       1.985  -1.183  -4.453  1.00  0.00    -0.159 NA
BRANCH  27  30
HETATM   30  C18 UNL     1       4.324  -2.867  -2.305  1.00  0.00     0.177 C 
BRANCH  30  31
HETATM   31  C19 UNL     1       5.646  -2.131  -2.206  1.00  0.00     0.243 C 
HETATM   32  F2  UNL     1       6.569  -2.918  -1.545  1.00  0.00    -0.254 F 
ENDBRANCH  30  31
ENDBRANCH  27  30
ENDBRANCH  24  25
ENDBRANCH  20  23
ENDBRANCH  17  20
TORSDOF 6
