REMARK  8 active torsions:
REMARK  status: ('A' for Active; 'I' for Inactive)
REMARK    1  A    between atoms: C2_2  and  O1_3 
REMARK    2  A    between atoms: O1_3  and  C3_4 
REMARK    3  A    between atoms: C10_12  and  N2_13 
REMARK       I    between atoms: N2_13  and  C11_14 
REMARK    4  A    between atoms: C11_14  and  C12_16 
REMARK    5  A    between atoms: C13_17  and  C14_18 
REMARK    6  A    between atoms: C14_18  and  N3_19 
REMARK    7  A    between atoms: N3_19  and  C16_21 
REMARK    8  A    between atoms: C16_21  and  C17_22 
ROOT
HETATM    1  C3  UNL     1      -2.508  -0.173   0.203  1.00  0.00     0.118 C 
HETATM    2  C4  UNL     1      -3.651   0.421   0.517  1.00  0.00     0.045 C 
HETATM    3  C5  UNL     1      -3.644   1.131   1.933  1.00  0.00     0.098 C 
HETATM    4  C6  UNL     1      -3.082   2.272   1.010  1.00  0.00    -0.052 C 
HETATM    5  C7  UNL     1      -4.072   2.989   0.519  1.00  0.00     0.000 C 
HETATM    6  C8  UNL     1      -5.349   2.175   0.205  1.00  0.00     0.147 C 
HETATM    7  N1  UNL     1      -4.859   0.795  -0.138  1.00  0.00    -0.387 N 
HETATM    8  C9  UNL     1      -1.645   2.070   0.784  1.00  0.00     0.039 C 
HETATM    9  C10 UNL     1      -1.329   0.782   0.367  1.00  0.00     0.071 C 
HETATM   10  H11 UNL     1      -5.022  -0.094  -0.723  1.00  0.00     0.159 HD
ENDROOT
BRANCH   9  11
HETATM   11  N2  UNL     1      -0.092   0.281   0.086  1.00  0.00    -0.321 N 
HETATM   12  C11 UNL     1       0.385  -0.834   0.825  1.00  0.00     0.245 C 
HETATM   13  O2  UNL     1      -0.246  -1.410   1.730  1.00  0.00    -0.268 OA
HETATM   14  H13 UNL     1       0.446   0.759  -0.674  1.00  0.00     0.169 HD
BRANCH  12  15
HETATM   15  C12 UNL     1       1.715  -1.373   0.528  1.00  0.00     0.072 C 
HETATM   16  C13 UNL     1       2.628  -1.022  -0.334  1.00  0.00     0.008 C 
BRANCH  16  17
HETATM   17  C14 UNL     1       3.968  -1.484  -0.709  1.00  0.00     0.299 C 
BRANCH  17  18
HETATM   18  N3  UNL     1       5.018  -0.510  -0.545  1.00  0.00     0.089 N 
HETATM   19  C15 UNL     1       5.246  -0.234   0.846  1.00  0.00     0.310 C 
BRANCH  18  20
HETATM   20  C16 UNL     1       4.765   0.661  -1.345  1.00  0.00     0.303 C 
BRANCH  20  21
HETATM   21  C17 UNL     1       5.906   1.639  -1.140  1.00  0.00     0.252 C 
HETATM   22  F1  UNL     1       5.678   2.771  -1.901  1.00  0.00    -0.254 F 
ENDBRANCH  20  21
ENDBRANCH  18  20
ENDBRANCH  17  18
ENDBRANCH  16  17
ENDBRANCH  12  15
ENDBRANCH   9  11
BRANCH   1  23
HETATM   23  O1  UNL     1      -2.740  -1.397  -0.167  1.00  0.00    -0.347 OA
BRANCH  23  24
HETATM   24  C2  UNL     1      -3.495  -2.149  -0.971  1.00  0.00     0.171 C 
HETATM   25  C1  UNL     1      -2.991  -3.553  -1.256  1.00  0.00     0.034 C 
ENDBRANCH  23  24
ENDBRANCH   1  23
TORSDOF 8
