REMARK  1 active torsions:
REMARK  status: ('A' for Active; 'I' for Inactive)
REMARK    1  A    between atoms: C2_2  and  C3_3 
ROOT
HETATM    1  C3  UNL     1      -1.276   0.688  -0.102  1.00  0.00     0.231 A 
HETATM    2  C4  UNL     1       0.311   0.088   0.162  1.00  0.00     0.099 A 
HETATM    3  C5  UNL     1       1.351  -1.053   0.935  1.00  0.00     0.047 A 
HETATM    4  C6  UNL     1       1.630  -0.647  -0.356  1.00  0.00     0.224 A 
HETATM    5  C7  UNL     1       2.783   0.103  -0.663  1.00  0.00     0.118 C 
HETATM    6  N1  UNL     1       3.635   0.615   0.215  1.00  0.00    -0.282 NA
HETATM    7  C8  UNL     1       3.382   1.645   1.203  1.00  0.00     0.296 C 
HETATM    8  N2  UNL     1       2.347   2.576   0.642  1.00  0.00    -0.268 NA
HETATM    9  C9  UNL     1       1.751   2.151  -0.456  1.00  0.00     0.098 C 
HETATM   10  C10 UNL     1       0.797   1.302  -0.395  1.00  0.00     0.234 C 
HETATM   11  N3  UNL     1       0.318   0.182   0.115  1.00  0.00    -0.013 N 
HETATM   12  C11 UNL     1      -0.650  -0.917   0.577  1.00  0.00     0.193 A 
HETATM   13  C12 UNL     1      -0.651  -2.319   1.074  1.00  0.00     0.021 A 
HETATM   14  C13 UNL     1      -1.833  -2.888   1.180  1.00  0.00     0.043 A 
HETATM   15  C14 UNL     1      -3.041  -2.346   0.886  1.00  0.00     0.138 A 
HETATM   16  F1  UNL     1      -4.247  -2.953   1.001  1.00  0.00    -0.204 F 
HETATM   17  C15 UNL     1      -3.147  -1.073   0.421  1.00  0.00     0.080 A 
HETATM   18 CL1  UNL     1      -4.403   0.001  -0.063  1.00  0.00    -0.081 Cl
HETATM   19  C16 UNL     1      -1.966  -0.561   0.338  1.00  0.00     0.019 A 
ENDROOT
BRANCH   1  20
HETATM   20  C2  UNL     1      -1.525   1.024  -1.424  1.00  0.00    -0.001 C 
HETATM   21  C1  UNL     1      -1.134   2.170  -1.913  1.00  0.00     0.009 C 
ENDBRANCH   1  20
TORSDOF 1
