REMARK  2 active torsions:
REMARK  status: ('A' for Active; 'I' for Inactive)
REMARK    1  A    between atoms: C1_2  and  O1_3 
REMARK    2  A    between atoms: O1_3  and  C2_4 
ROOT
HETATM    1  C2  UNL     1       0.116  -1.317  -0.345  1.00  0.00     0.301 C 
HETATM    2  C3  UNL     1      -0.949  -2.297  -0.158  1.00  0.00     0.032 C 
HETATM    3  C4  UNL     1      -2.260  -2.130  -0.030  1.00  0.00     0.032 C 
HETATM    4  C5  UNL     1      -2.927  -0.811  -0.058  1.00  0.00     0.059 C 
HETATM    5  C6  UNL     1      -4.154  -1.062   0.368  1.00  0.00     0.031 C 
HETATM    6  C7  UNL     1      -5.272  -0.122   0.548  1.00  0.00     0.002 C 
HETATM    7  C8  UNL     1      -5.186   1.207   0.478  1.00  0.00     0.002 C 
HETATM    8  C9  UNL     1      -4.076   2.117   0.226  1.00  0.00     0.019 C 
HETATM    9  C10 UNL     1      -2.861   1.783  -0.178  1.00  0.00     0.120 C 
HETATM   10  N1  UNL     1      -2.364   0.457  -0.458  1.00  0.00    -0.227 N 
HETATM   11  N2  UNL     1      -1.194   0.586  -1.215  1.00  0.00    -0.064 NA
HETATM   12  N3  UNL     1      -0.184  -0.177  -1.136  1.00  0.00    -0.137 NA
ENDROOT
BRANCH   1  13
HETATM   13  O1  UNL     1       0.545  -0.899   0.944  1.00  0.00    -0.293 OA
BRANCH  13  14
HETATM   14  C1  UNL     1       1.534   0.018   1.160  1.00  0.00     0.233 C 
HETATM   15  F1  UNL     1       0.667   0.808   1.824  1.00  0.00    -0.178 F 
HETATM   16  C11 UNL     1       2.813   0.052   0.823  1.00  0.00    -0.004 C 
HETATM   17  C12 UNL     1       3.474  -1.008   0.071  1.00  0.00     0.006 C 
HETATM   18  C15 UNL     1       3.534   1.285   1.282  1.00  0.00    -0.010 C 
HETATM   19  C13 UNL     1       4.396  -0.674  -0.818  1.00  0.00    -0.036 C 
HETATM   20  C14 UNL     1       4.757   0.745  -1.052  1.00  0.00    -0.027 C 
HETATM   21  B1  UNL     1       4.856   1.430   0.386  1.00  0.00     0.164 B 
HETATM   22  H13 UNL     1       5.926   1.424   0.887  1.00  0.00    -0.026 HD
ENDBRANCH  13  14
ENDBRANCH   1  13
TORSDOF 2
