REMARK  11 active torsions:
REMARK  status: ('A' for Active; 'I' for Inactive)
REMARK    1  A    between atoms: C2_2  and  O1_3 
REMARK    2  A    between atoms: O1_3  and  C3_4 
REMARK    3  A    between atoms: C6_8  and  N2_9 
REMARK    4  A    between atoms: N3_11  and  C8_12 
REMARK    5  A    between atoms: C16_22  and  N4_23 
REMARK       I    between atoms: N4_23  and  C17_24 
REMARK    6  A    between atoms: C17_24  and  C18_26 
REMARK    7  A    between atoms: C18_26  and  C19_27 
REMARK    8  A    between atoms: C19_27  and  C20_28 
REMARK    9  A    between atoms: C20_28  and  N5_29 
REMARK   10  A    between atoms: N5_29  and  C22_31 
REMARK   11  A    between atoms: C22_31  and  C23_32 
ROOT
HETATM    1  C3  UNL     1      -1.093  -1.091   1.797  1.00  0.00     0.097 A 
HETATM    2  C4  UNL     1      -2.333  -1.387   2.143  1.00  0.00     0.068 A 
HETATM    3  C5  UNL     1      -3.362  -1.409   1.117  1.00  0.00     0.060 A 
HETATM    4  N1  UNL     1      -4.594  -1.705   1.342  1.00  0.00    -0.255 NA
HETATM    5  C6  UNL     1      -5.581  -1.716   0.295  1.00  0.00     0.357 C 
HETATM    6  C7  UNL     1      -5.398  -0.653  -0.752  1.00  0.00     0.183 C 
HETATM    7  N3  UNL     1      -4.017  -0.142  -0.759  1.00  0.00    -0.363 N 
HETATM    8  C14 UNL     1      -3.059  -1.090  -0.298  1.00  0.00     0.162 A 
HETATM    9  C15 UNL     1      -1.655  -0.786  -0.541  1.00  0.00     0.037 A 
HETATM   10  C16 UNL     1      -0.716  -0.780   0.422  1.00  0.00     0.067 A 
ENDROOT
BRANCH  10  11
HETATM   11  N4  UNL     1       0.595  -0.460  -0.018  1.00  0.00    -0.321 N 
HETATM   12  C17 UNL     1       1.402   0.625   0.408  1.00  0.00     0.245 C 
HETATM   13  O2  UNL     1       1.262   1.567   1.220  1.00  0.00    -0.268 OA
HETATM   14  H17 UNL     1       0.942  -1.134  -0.730  1.00  0.00     0.169 HD
BRANCH  12  15
HETATM   15  C18 UNL     1       2.714   0.723  -0.204  1.00  0.00     0.072 C 
BRANCH  15  16
HETATM   16  C19 UNL     1       3.572   0.216  -1.052  1.00  0.00    -0.002 C 
BRANCH  16  17
HETATM   17  C20 UNL     1       4.787  -0.001  -1.860  1.00  0.00     0.144 C 
BRANCH  17  18
HETATM   18  N5  UNL     1       5.767   0.985  -1.574  1.00  0.00    -0.411 N 
HETATM   19  C21 UNL     1       5.461   2.308  -1.976  1.00  0.00     0.143 C 
BRANCH  18  20
HETATM   20  C22 UNL     1       6.432   0.884  -0.331  1.00  0.00     0.148 C 
BRANCH  20  21
HETATM   21  C23 UNL     1       7.350  -0.327  -0.237  1.00  0.00     0.241 C 
HETATM   22  F2  UNL     1       7.938  -0.328   1.002  1.00  0.00    -0.254 F 
ENDBRANCH  20  21
ENDBRANCH  18  20
ENDBRANCH  17  18
ENDBRANCH  16  17
ENDBRANCH  15  16
ENDBRANCH  12  15
ENDBRANCH  10  11
BRANCH   1  23
HETATM   23  O1  UNL     1      -0.099  -1.067   2.755  1.00  0.00    -0.349 OA
BRANCH  23  24
HETATM   24  C2  UNL     1       0.446  -2.299   3.182  1.00  0.00     0.171 C 
HETATM   25  C1  UNL     1       1.506  -2.101   4.238  1.00  0.00     0.034 C 
ENDBRANCH  23  24
ENDBRANCH   1  23
BRANCH   7  26
HETATM   26  C8  UNL     1      -3.877   1.190  -1.231  1.00  0.00     0.033 A 
HETATM   27  C9  UNL     1      -4.923   1.754  -1.923  1.00  0.00     0.032 A 
HETATM   28  C10 UNL     1      -4.849   3.062  -2.403  1.00  0.00     0.046 A 
HETATM   29  C11 UNL     1      -3.729   3.847  -2.207  1.00  0.00     0.138 A 
HETATM   30  F1  UNL     1      -3.653   5.120  -2.669  1.00  0.00    -0.204 F 
HETATM   31  C12 UNL     1      -2.677   3.291  -1.515  1.00  0.00     0.074 A 
HETATM   32 CL1  UNL     1      -1.221   4.244  -1.233  1.00  0.00    -0.081 Cl
HETATM   33  C13 UNL     1      -2.786   2.009  -1.061  1.00  0.00     0.056 A 
ENDBRANCH   7  26
BRANCH   5  34
HETATM   34  N2  UNL     1      -5.535  -3.025  -0.343  1.00  0.00     0.104 N 
HETATM   35  H8  UNL     1      -5.105  -3.733   0.295  1.00  0.00     0.315 HD
HETATM   36  H9  UNL     1      -6.502  -3.326  -0.637  1.00  0.00     0.315 HD
ENDBRANCH   5  34
TORSDOF 11
