REMARK  4 active torsions:
REMARK  status: ('A' for Active; 'I' for Inactive)
REMARK    1  A    between atoms: C1_2  and  C2_3 
REMARK    2  A    between atoms: C6_8  and  N2_9 
REMARK    3  A    between atoms: N2_9  and  P1_10 
REMARK    4  A    between atoms: P1_10  and  C7_11 
ROOT
HETATM    1  C2  UNL     1      -4.814  -0.760  -0.630  1.00  0.00    -0.050 C 
HETATM    2  C3  UNL     1      -3.550  -1.070  -0.898  1.00  0.00     0.010 C 
HETATM    3  C4  UNL     1      -2.492  -0.040  -1.106  1.00  0.00     0.162 C 
HETATM    4  N1  UNL     1      -1.205  -0.581  -0.698  1.00  0.00    -0.369 N 
HETATM    5  C5  UNL     1      -0.182   0.258  -0.183  1.00  0.00     0.131 A 
HETATM    6  C6  UNL     1       1.133  -0.144  -0.120  1.00  0.00     0.181 A 
HETATM    7  N3  UNL     1       2.027   0.709   0.378  1.00  0.00    -0.220 NA
HETATM    8  C13 UNL     1       1.704   1.939   0.820  1.00  0.00     0.238 A 
HETATM    9  N4  UNL     1       0.408   2.353   0.765  1.00  0.00    -0.215 NA
HETATM   10  C14 UNL     1      -0.547   1.525   0.266  1.00  0.00     0.201 A 
HETATM   11  O1  UNL     1      -1.871   1.933   0.204  1.00  0.00    -0.292 OA
HETATM   12  C15 UNL     1      -2.879   1.139  -0.290  1.00  0.00     0.078 C 
HETATM   13  C16 UNL     1      -4.135   1.455  -0.021  1.00  0.00     0.013 C 
HETATM   14  C17 UNL     1      -5.293   0.653  -0.513  1.00  0.00     0.066 C 
HETATM   15  H5  UNL     1      -0.978  -1.596  -0.763  1.00  0.00     0.161 HD
ENDROOT
BRANCH   6  16
HETATM   16  N2  UNL     1       1.405  -1.454  -0.603  1.00  0.00    -0.228 NA
BRANCH  16  17
HETATM   17  P1  UNL     1       2.887  -2.117  -0.480  1.00  0.00     0.101 P 
BRANCH  17  18
HETATM   18  C7  UNL     1       4.298  -1.232   0.281  1.00  0.00    -0.003 A 
HETATM   19  C8  UNL     1       5.376  -1.095  -0.596  1.00  0.00     0.014 A 
HETATM   20  C9  UNL     1       6.537  -0.458  -0.217  1.00  0.00     0.001 A 
HETATM   21  C10 UNL     1       6.607   0.047   1.066  1.00  0.00     0.000 A 
HETATM   22  C11 UNL     1       5.537  -0.082   1.957  1.00  0.00     0.001 A 
HETATM   23  C12 UNL     1       4.397  -0.720   1.549  1.00  0.00     0.014 A 
ENDBRANCH  17  18
ENDBRANCH  16  17
ENDBRANCH   6  16
BRANCH   1  24
HETATM   24  C1  UNL     1      -5.884  -1.802  -0.419  1.00  0.00     0.256 C 
HETATM   25  F1  UNL     1      -5.287  -3.022  -0.558  1.00  0.00    -0.251 F 
ENDBRANCH   1  24
TORSDOF 4
