REMARK  7 active torsions:
REMARK  status: ('A' for Active; 'I' for Inactive)
REMARK    1  A    between atoms: C2_2  and  C3_4 
REMARK    2  A    between atoms: C3_4  and  C4_5 
REMARK    3  A    between atoms: C4_5  and  C5_6 
REMARK    4  A    between atoms: C7_9  and  C8_10 
REMARK    5  A    between atoms: C9_11  and  N1_12 
REMARK    6  A    between atoms: N1_12  and  C10_13 
REMARK    7  A    between atoms: C10_13  and  C11_14 
ROOT
HETATM    1  C5  UNL     1       4.672  -0.201  -1.801  1.00  0.00    -0.054 C 
HETATM    2  C6  UNL     1       5.445   0.244  -2.645  1.00  0.00     0.010 C 
HETATM    3 CL1  UNL     1       6.531   0.868  -3.840  1.00  0.00    -0.023 Cl
ENDROOT
BRANCH   1   4
HETATM    4  C4  UNL     1       3.747  -0.712  -0.826  1.00  0.00     0.003 C 
HETATM    5  C7  UNL     1       2.443  -0.558  -0.989  1.00  0.00     0.018 C 
BRANCH   4   6
HETATM    6  C3  UNL     1       4.397  -1.395   0.321  1.00  0.00     0.117 C 
BRANCH   6   7
HETATM    7  C2  UNL     1       5.307  -0.484   1.063  1.00  0.00     0.089 C 
HETATM    8  C1  UNL     1       5.544   0.792   0.777  1.00  0.00     0.052 C 
HETATM    9  F1  UNL     1       5.871  -1.163   2.099  1.00  0.00    -0.211 F 
ENDBRANCH   6   7
ENDBRANCH   4   6
BRANCH   5  10
HETATM   10  C8  UNL     1       1.455  -1.051  -0.041  1.00  0.00     0.018 C 
HETATM   11  C9  UNL     1       0.159  -0.863  -0.265  1.00  0.00     0.083 C 
BRANCH  11  12
HETATM   12  N1  UNL     1      -0.384  -0.202  -1.381  1.00  0.00    -0.395 N 
HETATM   13  H8  UNL     1      -0.154  -0.828  -2.192  1.00  0.00     0.159 HD
BRANCH  12  14
HETATM   14  C10 UNL     1      -1.057   1.059  -1.114  1.00  0.00     0.157 C 
BRANCH  14  15
HETATM   15  C11 UNL     1      -2.186   0.829  -0.186  1.00  0.00    -0.040 A 
HETATM   16  C12 UNL     1      -2.046   0.901   1.195  1.00  0.00     0.011 A 
HETATM   17  C13 UNL     1      -3.166   0.668   1.948  1.00  0.00     0.033 A 
HETATM   18  C14 UNL     1      -4.416   0.371   1.444  1.00  0.00     0.070 A 
HETATM   19  N2  UNL     1      -5.501   0.147   2.198  1.00  0.00    -0.241 NA
HETATM   20  C17 UNL     1      -4.489   0.315   0.054  1.00  0.00     0.011 A 
HETATM   21  C15 UNL     1      -6.697  -0.140   1.619  1.00  0.00     0.233 A 
HETATM   22  N3  UNL     1      -6.795  -0.201   0.271  1.00  0.00    -0.253 NA
HETATM   23  C16 UNL     1      -5.717   0.021  -0.508  1.00  0.00     0.131 A 
HETATM   24  C18 UNL     1      -3.415   0.534  -0.782  1.00  0.00     0.024 A 
ENDBRANCH  14  15
ENDBRANCH  12  14
ENDBRANCH  11  12
ENDBRANCH   5  10
ENDBRANCH   1   4
TORSDOF 7
