REMARK  7 active torsions:
REMARK  status: ('A' for Active; 'I' for Inactive)
REMARK    1  A    between atoms: C4_4  and  C5_5 
REMARK    2  A    between atoms: C5_5  and  C6_6 
REMARK    3  A    between atoms: C6_6  and  C7_7 
REMARK    4  A    between atoms: C11_11  and  C12_12 
REMARK    5  A    between atoms: C13_13  and  C14_14 
REMARK       I    between atoms: C14_14  and  N1_16 
REMARK    6  A    between atoms: N1_16  and  C15_17 
REMARK    7  A    between atoms: C20_22  and  N2_23 
ROOT
HETATM    1  C7  UNL     1      -1.959   0.820   1.892  1.00  0.00     0.064 A 
HETATM    2  C8  UNL     1      -2.392   1.872   0.936  1.00  0.00    -0.013 A 
HETATM    3  C9  UNL     1      -1.436   2.341   0.153  1.00  0.00    -0.002 A 
HETATM    4  C10 UNL     1      -0.258   1.592   0.566  1.00  0.00     0.008 A 
HETATM    5  C11 UNL     1      -0.495   0.728   1.537  1.00  0.00    -0.047 A 
ENDROOT
BRANCH   5   6
HETATM    6  C12 UNL     1       0.459  -0.166   2.178  1.00  0.00     0.013 C 
HETATM    7  C13 UNL     1       1.742  -0.412   2.043  1.00  0.00     0.075 C 
BRANCH   7   8
HETATM    8  C14 UNL     1       2.819   0.085   1.197  1.00  0.00     0.245 C 
HETATM    9  O1  UNL     1       3.108   0.903   0.256  1.00  0.00    -0.268 OA
HETATM   10  N1  UNL     1       4.161  -0.435   1.330  1.00  0.00    -0.322 N 
HETATM   11  H12 UNL     1       4.361  -1.193   2.061  1.00  0.00     0.169 HD
BRANCH  10  12
HETATM   12  C15 UNL     1       5.085   0.180   0.407  1.00  0.00     0.061 A 
HETATM   13  C16 UNL     1       5.806   1.313   0.701  1.00  0.00     0.032 A 
HETATM   14  C17 UNL     1       6.680   1.873  -0.208  1.00  0.00     0.002 A 
HETATM   15  C18 UNL     1       6.855   1.299  -1.455  1.00  0.00     0.002 A 
HETATM   16  C19 UNL     1       6.143   0.161  -1.776  1.00  0.00     0.031 A 
HETATM   17  C20 UNL     1       5.287  -0.363  -0.848  1.00  0.00     0.052 A 
BRANCH  17  18
HETATM   18  N2  UNL     1       4.579  -1.544  -1.244  1.00  0.00    -0.397 N 
HETATM   19  H17 UNL     1       3.796  -1.523  -1.935  1.00  0.00     0.156 HD
HETATM   20  H18 UNL     1       4.758  -2.520  -0.901  1.00  0.00     0.156 HD
ENDBRANCH  17  18
ENDBRANCH  10  12
ENDBRANCH   7   8
ENDBRANCH   5   6
BRANCH   1  21
HETATM   21  C6  UNL     1      -2.567  -0.499   1.637  1.00  0.00    -0.011 C 
BRANCH  21  22
HETATM   22  C5  UNL     1      -3.330  -1.439   1.150  1.00  0.00     0.028 C 
BRANCH  22  23
HETATM   23  C4  UNL     1      -4.410  -1.461   0.152  1.00  0.00     0.060 A 
HETATM   24  C3  UNL     1      -4.903  -0.451  -0.545  1.00  0.00     0.060 A 
HETATM   25  C2  UNL     1      -5.962  -0.445  -1.531  1.00  0.00     0.025 A 
HETATM   26  C1  UNL     1      -6.336   0.654  -2.138  1.00  0.00     0.043 C 
HETATM   27  N4  UNL     1      -6.551  -1.714  -1.778  1.00  0.00    -0.351 N 
HETATM   28  C21 UNL     1      -6.016  -2.786  -1.027  1.00  0.00     0.208 A 
HETATM   29  H20 UNL     1      -7.322  -1.814  -2.470  1.00  0.00     0.166 HD
HETATM   30  N3  UNL     1      -5.065  -2.669  -0.171  1.00  0.00    -0.244 NA
ENDBRANCH  22  23
ENDBRANCH  21  22
ENDBRANCH   1  21
TORSDOF 7
