REMARK  0 active torsions:
REMARK  status: ('A' for Active; 'I' for Inactive)
ROOT
HETATM    1  F1  UNL     1       1.937   0.294  -2.718  1.00  0.00    -0.199 F 
HETATM    2  C1  UNL     1       2.050  -0.400  -1.515  1.00  0.00     0.271 A 
HETATM    3  C2  UNL     1       0.709  -0.892  -1.125  1.00  0.00     0.049 C 
HETATM    4  C3  UNL     1      -0.411  -1.501  -0.836  1.00  0.00    -0.020 C 
HETATM    5  C4  UNL     1      -1.729  -2.053  -0.465  1.00  0.00     0.063 C 
HETATM    6  C5  UNL     1      -2.659  -1.055   0.064  1.00  0.00    -0.050 A 
HETATM    7  C6  UNL     1      -2.271  -0.007   0.765  1.00  0.00     0.043 A 
HETATM    8  C7  UNL     1      -3.408   0.827   1.112  1.00  0.00     0.086 A 
HETATM    9  C8  UNL     1      -3.152   1.934   1.824  1.00  0.00     0.154 C 
HETATM   10  N1  UNL     1      -1.723   1.776   1.927  1.00  0.00    -0.251 NA
HETATM   11  C9  UNL     1      -1.039   2.801   1.503  1.00  0.00     0.233 C 
HETATM   12  N2  UNL     1       0.305   2.360   1.722  1.00  0.00    -0.237 NA
HETATM   13  C10 UNL     1       1.029   2.120   0.678  1.00  0.00     0.208 C 
HETATM   14  N3  UNL     1       2.259   1.714   0.099  1.00  0.00    -0.349 N 
HETATM   15  C11 UNL     1       2.645   0.474  -0.471  1.00  0.00     0.082 A 
HETATM   16  C12 UNL     1       3.801   0.106   0.110  1.00  0.00     0.033 A 
HETATM   17  C13 UNL     1       4.518  -1.135  -0.243  1.00  0.00     0.026 A 
HETATM   18  C14 UNL     1       3.995  -1.914  -1.178  1.00  0.00     0.139 A 
HETATM   19  O1  UNL     1       2.825  -1.536  -1.768  1.00  0.00    -0.313 OA
HETATM   20  O2  UNL     1      -4.528   0.214   0.574  1.00  0.00    -0.345 OA
HETATM   21  C15 UNL     1      -4.132  -0.989  -0.047  1.00  0.00     0.210 A 
HETATM   22  H9  UNL     1       2.964   2.514   0.130  1.00  0.00     0.166 HD
ENDROOT
TORSDOF 0
