REMARK  6 active torsions:
REMARK  status: ('A' for Active; 'I' for Inactive)
REMARK    1  A    between atoms: C2_2  and  C3_3 
REMARK    2  A    between atoms: C13_16  and  O2_17 
REMARK    3  A    between atoms: C15_19  and  C16_20 
REMARK    4  A    between atoms: C16_20  and  C17_21 
REMARK    5  A    between atoms: C17_21  and  C18_22 
REMARK    6  A    between atoms: C18_22  and  O4_24 
ROOT
HETATM    1  C3  UNL     1       2.123  -1.189  -0.335  1.00  0.00     0.015 C 
HETATM    2  N1  UNL     1       1.515  -2.253  -0.801  1.00  0.00    -0.293 NA
HETATM    3  C4  UNL     1       0.305  -1.790  -1.454  1.00  0.00     0.184 C 
HETATM    4  C5  UNL     1      -0.140  -0.719  -0.538  1.00  0.00    -0.035 C 
HETATM    5  C6  UNL     1      -1.254  -0.523   0.187  1.00  0.00     0.057 C 
HETATM    6  C7  UNL     1      -2.154  -1.675  -0.043  1.00  0.00     0.255 C 
HETATM    7  O1  UNL     1      -1.611  -2.843  -0.118  1.00  0.00    -0.268 OA
HETATM    8  N2  UNL     1      -3.583  -1.835  -0.215  1.00  0.00    -0.333 N 
HETATM    9  C8  UNL     1      -4.663  -1.020   0.303  1.00  0.00     0.087 C 
HETATM   10  C9  UNL     1      -4.753  -0.242   1.402  1.00  0.00    -0.005 C 
HETATM   11  C10 UNL     1      -3.885   0.127   2.509  1.00  0.00     0.066 C 
HETATM   12  C11 UNL     1      -2.486   0.373   2.139  1.00  0.00    -0.034 A 
HETATM   13  C12 UNL     1      -1.226   0.516   2.443  1.00  0.00     0.027 A 
HETATM   14  C13 UNL     1      -1.571   0.640   1.040  1.00  0.00     0.135 A 
HETATM   15  C15 UNL     1       1.224  -0.102  -0.800  1.00  0.00     0.065 C 
HETATM   16  H8  UNL     1      -3.909  -2.638  -0.783  1.00  0.00     0.168 HD
ENDROOT
BRANCH  15  17
HETATM   17  C16 UNL     1       1.359   1.206  -0.110  1.00  0.00     0.025 C 
BRANCH  17  18
HETATM   18  C17 UNL     1       2.776   1.778  -0.247  1.00  0.00     0.111 C 
BRANCH  18  19
HETATM   19  C18 UNL     1       3.166   1.978  -1.663  1.00  0.00     0.139 C 
HETATM   20  O3  UNL     1       2.644   1.809  -2.804  1.00  0.00    -0.650 OA
BRANCH  19  21
HETATM   21  O4  UNL     1       4.445   2.489  -1.832  1.00  0.00    -0.776 OA
HETATM   22  H22 UNL     1       4.771   3.025  -2.603  1.00  0.00     0.167 HD
ENDBRANCH  19  21
ENDBRANCH  18  19
ENDBRANCH  17  18
ENDBRANCH  15  17
BRANCH  14  23
HETATM   23  O2  UNL     1      -1.605   1.884   0.409  1.00  0.00    -0.371 OA
HETATM   24  C14 UNL     1      -2.529   1.978  -0.613  1.00  0.00     0.204 C 
ENDBRANCH  14  23
BRANCH   1  25
HETATM   25  C2  UNL     1       3.376  -1.619   0.349  1.00  0.00     0.050 C 
HETATM   26  C1  UNL     1       4.632  -1.281  -0.414  1.00  0.00     0.011 C 
ENDBRANCH   1  25
TORSDOF 6
