REMARK  10 active torsions:
REMARK  status: ('A' for Active; 'I' for Inactive)
REMARK    1  A    between atoms: C2_2  and  N1_3 
REMARK    2  A    between atoms: N1_3  and  C3_4 
REMARK    3  A    between atoms: C3_4  and  C9_11 
REMARK    4  A    between atoms: C4_5  and  C6_7 
REMARK    5  A    between atoms: C6_7  and  C7_8 
REMARK    6  A    between atoms: C7_8  and  C8_9 
REMARK    7  A    between atoms: C8_9  and  O1_10 
REMARK    8  A    between atoms: C13_17  and  C14_18 
REMARK    9  A    between atoms: C16_20  and  O3_21 
REMARK   10  A    between atoms: O3_21  and  C17_22 
ROOT
HETATM    1  C9  UNL     1      -2.332  -0.694  -1.126  1.00  0.00     0.163 A 
HETATM    2  C10 UNL     1      -2.391   0.190  -2.324  1.00  0.00     0.236 A 
HETATM    3  O2  UNL     1      -3.445   0.499  -2.983  1.00  0.00    -0.272 OA
HETATM    4  N2  UNL     1      -1.119   0.698  -2.713  1.00  0.00    -0.326 N 
HETATM    5  C11 UNL     1      -0.203   0.114  -1.790  1.00  0.00     0.043 A 
HETATM    6  C12 UNL     1       1.165   0.301  -1.782  1.00  0.00     0.042 A 
HETATM    7  C13 UNL     1       1.956  -0.331  -0.852  1.00  0.00    -0.023 A 
HETATM    8  C23 UNL     1       1.338  -1.168   0.086  1.00  0.00     0.013 A 
HETATM    9  C24 UNL     1      -0.034  -1.334   0.052  1.00  0.00     0.011 A 
HETATM   10  C25 UNL     1      -0.844  -0.702  -0.880  1.00  0.00    -0.012 A 
HETATM   11  H16 UNL     1      -0.922   1.351  -3.500  1.00  0.00     0.169 HD
ENDROOT
BRANCH   1  12
HETATM   12  C3  UNL     1      -3.050  -0.117   0.022  1.00  0.00     0.028 C 
HETATM   13  C4  UNL     1      -3.703   0.990   0.332  1.00  0.00    -0.060 C 
HETATM   14  C5  UNL     1      -3.933   2.145  -0.537  1.00  0.00     0.045 C 
BRANCH  12  15
HETATM   15  N1  UNL     1      -2.922  -1.154   1.014  1.00  0.00    -0.369 N 
HETATM   16  H4  UNL     1      -2.521  -1.093   1.995  1.00  0.00     0.165 HD
BRANCH  15  17
HETATM   17  C2  UNL     1      -3.318  -2.508   0.872  1.00  0.00     0.078 C 
HETATM   18  C1  UNL     1      -4.542  -2.764   0.466  1.00  0.00     0.029 C 
ENDBRANCH  15  17
ENDBRANCH  12  15
BRANCH  13  19
HETATM   19  C6  UNL     1      -4.270   1.117   1.682  1.00  0.00     0.038 C 
BRANCH  19  20
HETATM   20  C7  UNL     1      -5.748   1.286   1.748  1.00  0.00     0.030 C 
BRANCH  20  21
HETATM   21  C8  UNL     1      -6.538   0.142   1.159  1.00  0.00     0.164 C 
BRANCH  21  22
HETATM   22  O1  UNL     1      -6.296  -0.103  -0.168  1.00  0.00    -0.401 OA
HETATM   23  H14 UNL     1      -6.820   0.569  -0.703  1.00  0.00     0.209 HD
ENDBRANCH  21  22
ENDBRANCH  20  21
ENDBRANCH  19  20
ENDBRANCH  13  19
ENDBRANCH   1  12
BRANCH   7  24
HETATM   24  C14 UNL     1       3.407  -0.244  -0.708  1.00  0.00    -0.017 A 
HETATM   25  C15 UNL     1       3.917  -0.049   0.578  1.00  0.00     0.049 A 
HETATM   26  C16 UNL     1       5.268   0.057   0.882  1.00  0.00     0.069 A 
HETATM   27  C19 UNL     1       6.126  -0.044  -0.193  1.00  0.00     0.037 A 
HETATM   28  C20 UNL     1       5.685  -0.237  -1.483  1.00  0.00     0.010 A 
HETATM   29  C21 UNL     1       4.332  -0.335  -1.729  1.00  0.00    -0.051 A 
HETATM   30  C22 UNL     1       3.818  -0.546  -3.104  1.00  0.00     0.049 C 
BRANCH  26  31
HETATM   31  O3  UNL     1       5.642   0.251   2.203  1.00  0.00    -0.351 OA
BRANCH  31  32
HETATM   32  C17 UNL     1       6.980   0.367   2.585  1.00  0.00     0.171 C 
HETATM   33  C18 UNL     1       7.716   1.512   1.953  1.00  0.00     0.034 C 
ENDBRANCH  31  32
ENDBRANCH  26  31
ENDBRANCH   7  24
TORSDOF 10
