REMARK  8 active torsions:
REMARK  status: ('A' for Active; 'I' for Inactive)
REMARK    1  A    between atoms: O1_2  and  C2_3 
REMARK    2  A    between atoms: C6_7  and  C7_8 
REMARK    3  A    between atoms: C9_10  and  C10_11 
REMARK    4  A    between atoms: C10_11  and  C11_12 
REMARK    5  A    between atoms: C12_13  and  C13_14 
REMARK    6  A    between atoms: C13_14  and  C14_15 
REMARK    7  A    between atoms: C14_15  and  C15_16 
REMARK    8  A    between atoms: C15_16  and  O2_18 
ROOT
HETATM    1  C7  UNL     1       2.688  -1.323   0.236  1.00  0.00    -0.019 C 
HETATM    2  C8  UNL     1       1.461  -0.861   0.391  1.00  0.00     0.018 C 
HETATM    3  C9  UNL     1       0.274  -1.738   0.683  1.00  0.00    -0.028 C 
HETATM    4  C21 UNL     1       0.831  -2.969   1.298  1.00  0.00     0.308 C 
HETATM    5  N2  UNL     1       1.831  -3.586   0.435  1.00  0.00     0.091 N 
HETATM    6  C22 UNL     1       3.017  -2.767   0.330  1.00  0.00     0.309 C 
HETATM    7  H27 UNL     1       1.425  -3.670  -0.540  1.00  0.00     0.316 HD
ENDROOT
BRANCH   3   8
HETATM    8  C10 UNL     1      -0.997  -1.615   0.501  1.00  0.00     0.038 C 
BRANCH   8   9
HETATM    9  C11 UNL     1      -2.394  -1.364   0.248  1.00  0.00     0.037 A 
HETATM   10  C12 UNL     1      -3.105  -0.332  -0.306  1.00  0.00    -0.050 A 
HETATM   11  C17 UNL     1      -4.573  -0.334  -0.500  1.00  0.00     0.065 A 
HETATM   12  C18 UNL     1      -5.165  -1.571  -0.009  1.00  0.00    -0.005 A 
HETATM   13  C19 UNL     1      -4.570  -2.583   0.528  1.00  0.00     0.087 A 
HETATM   14  N1  UNL     1      -3.137  -2.538   0.687  1.00  0.00    -0.361 N 
HETATM   15  C20 UNL     1      -2.607  -3.727   1.292  1.00  0.00     0.155 C 
BRANCH  10  16
HETATM   16  C13 UNL     1      -2.345   0.829  -0.781  1.00  0.00     0.039 C 
BRANCH  16  17
HETATM   17  C14 UNL     1      -2.332   2.066   0.008  1.00  0.00     0.035 C 
BRANCH  17  18
HETATM   18  C15 UNL     1      -3.564   2.798   0.323  1.00  0.00     0.114 C 
HETATM   19  C16 UNL     1      -4.370   3.258  -0.841  1.00  0.00     0.039 C 
BRANCH  18  20
HETATM   20  O2  UNL     1      -3.100   4.038   0.922  1.00  0.00    -0.396 OA
HETATM   21  H17 UNL     1      -2.851   4.664   0.188  1.00  0.00     0.210 HD
ENDBRANCH  18  20
ENDBRANCH  17  18
ENDBRANCH  16  17
ENDBRANCH  10  16
ENDBRANCH   8   9
ENDBRANCH   3   8
BRANCH   1  22
HETATM   22  C6  UNL     1       3.742  -0.368  -0.042  1.00  0.00    -0.025 A 
HETATM   23  C5  UNL     1       5.024  -0.849  -0.213  1.00  0.00     0.012 A 
HETATM   24  C4  UNL     1       6.115  -0.065  -0.480  1.00  0.00     0.004 A 
HETATM   25  C3  UNL     1       5.976   1.296  -0.594  1.00  0.00     0.037 A 
HETATM   26  C2  UNL     1       4.707   1.808  -0.428  1.00  0.00     0.069 A 
HETATM   27  C23 UNL     1       3.642   0.975  -0.161  1.00  0.00     0.048 A 
BRANCH  26  28
HETATM   28  O1  UNL     1       4.510   3.198  -0.534  1.00  0.00    -0.356 OA
HETATM   29  C1  UNL     1       5.607   4.042  -0.808  1.00  0.00     0.210 C 
ENDBRANCH  26  28
ENDBRANCH   1  22
TORSDOF 8
