REMARK  1 active torsions:
REMARK  status: ('A' for Active; 'I' for Inactive)
REMARK    1  A    between atoms: N1_7  and  C6_8 
ROOT
HETATM    1  C6  UNL     1       1.699  -0.648   0.616  1.00  0.00     0.164 A 
HETATM    2  N2  UNL     1       2.357  -1.539   1.412  1.00  0.00    -0.222 NA
HETATM    3  C7  UNL     1       1.668  -2.570   1.987  1.00  0.00     0.238 A 
HETATM    4  N3  UNL     1       0.329  -2.772   1.813  1.00  0.00    -0.215 NA
HETATM    5  C8  UNL     1      -0.341  -1.886   1.016  1.00  0.00     0.202 A 
HETATM    6  C9  UNL     1       0.340  -0.837   0.425  1.00  0.00     0.129 A 
HETATM    7  N4  UNL     1      -0.158   0.162  -0.455  1.00  0.00    -0.379 N 
HETATM    8  C10 UNL     1      -1.460   0.775  -0.492  1.00  0.00     0.161 C 
HETATM    9  C11 UNL     1      -2.548  -0.115  -0.104  1.00  0.00    -0.007 A 
HETATM   10  C12 UNL     1      -3.710   0.577  -0.467  1.00  0.00     0.011 A 
HETATM   11  C13 UNL     1      -4.987   0.047  -0.254  1.00  0.00     0.001 A 
HETATM   12  C14 UNL     1      -5.127  -1.195   0.329  1.00  0.00     0.003 A 
HETATM   13  C15 UNL     1      -3.999  -1.886   0.690  1.00  0.00     0.038 A 
HETATM   14  C16 UNL     1      -2.748  -1.351   0.475  1.00  0.00     0.086 A 
HETATM   15  O1  UNL     1      -1.709  -2.169   0.894  1.00  0.00    -0.289 OA
HETATM   16  H7  UNL     1       0.614   0.418  -1.151  1.00  0.00     0.160 HD
ENDROOT
BRANCH   1  17
HETATM   17  N1  UNL     1       2.470   0.426   0.085  1.00  0.00    -0.305 N 
HETATM   18  C1  UNL     1       2.496   1.814   0.506  1.00  0.00     0.300 A 
HETATM   19  F1  UNL     1       1.260   2.412   0.391  1.00  0.00    -0.222 F 
HETATM   20  C2  UNL     1       3.440   2.539  -0.383  1.00  0.00     0.032 A 
HETATM   21  C3  UNL     1       4.192   2.144  -1.396  1.00  0.00     0.002 A 
HETATM   22  C4  UNL     1       4.089   0.726  -1.719  1.00  0.00     0.017 A 
HETATM   23  C5  UNL     1       3.274  -0.059  -1.009  1.00  0.00     0.096 A 
ENDBRANCH   1  17
TORSDOF 1
