REMARK  6 active torsions:
REMARK  status: ('A' for Active; 'I' for Inactive)
REMARK    1  A    between atoms: C5_5  and  N1_6 
REMARK    2  A    between atoms: C6_7  and  C7_8 
REMARK    3  A    between atoms: C8_11  and  C9_12 
REMARK    4  A    between atoms: C9_12  and  C10_13 
REMARK    5  A    between atoms: C10_13  and  C11_14 
REMARK    6  A    between atoms: C11_14  and  O3_16 
ROOT
HETATM    1  C1  UNL     1      -4.860   0.477   0.908  1.00  0.00     0.046 C 
HETATM    2  C2  UNL     1      -3.406   0.251   0.503  1.00  0.00    -0.057 C 
HETATM    3  C3  UNL     1      -3.284  -1.043   0.640  1.00  0.00     0.007 C 
HETATM    4  C4  UNL     1      -2.412  -2.191   0.533  1.00  0.00     0.026 C 
HETATM    5  C5  UNL     1      -1.165  -2.565   0.213  1.00  0.00     0.023 C 
HETATM    6  C6  UNL     1      -0.449  -1.359  -0.146  1.00  0.00     0.162 C 
HETATM    7  S1  UNL     1       1.379  -1.472  -0.009  1.00  0.00    -0.115 SA
HETATM    8  C8  UNL     1       1.873   0.264  -0.376  1.00  0.00    -0.005 C 
HETATM    9  C12 UNL     1       1.393   1.458  -0.654  1.00  0.00     0.099 C 
HETATM   10  N2  UNL     1       1.034   2.779  -0.956  1.00  0.00    -0.375 N 
HETATM   11  C13 UNL     1      -0.089   3.425  -0.305  1.00  0.00     0.332 C 
HETATM   12  O4  UNL     1      -1.316   2.917  -0.536  1.00  0.00    -0.221 OA
HETATM   13  O5  UNL     1      -1.610   1.713  -0.212  1.00  0.00    -0.235 OA
HETATM   14  C14 UNL     1      -2.915   1.573   0.184  1.00  0.00     0.244 C 
HETATM   15  H16 UNL     1       1.818   2.814  -1.635  1.00  0.00     0.161 HD
ENDROOT
BRANCH   8  16
HETATM   16  C9  UNL     1       3.304   0.140  -0.295  1.00  0.00     0.057 C 
BRANCH  16  17
HETATM   17  C10 UNL     1       3.815  -0.416   1.019  1.00  0.00     0.115 C 
BRANCH  17  18
HETATM   18  C11 UNL     1       5.307  -0.478   0.898  1.00  0.00     0.139 C 
HETATM   19  O2  UNL     1       5.720   0.685   0.556  1.00  0.00    -0.650 OA
BRANCH  18  20
HETATM   20  O3  UNL     1       6.439  -1.293   1.000  1.00  0.00    -0.776 OA
HETATM   21  H14 UNL     1       6.896  -1.554   0.113  1.00  0.00     0.167 HD
ENDBRANCH  18  20
ENDBRANCH  17  18
ENDBRANCH  16  17
ENDBRANCH   8  16
BRANCH   6  22
HETATM   22  C7  UNL     1      -0.770  -1.043  -1.585  1.00  0.00     0.252 C 
HETATM   23  O1  UNL     1      -1.224  -0.349  -2.485  1.00  0.00    -0.305 OA
ENDBRANCH   6  22
BRANCH   5  24
HETATM   24  N1  UNL     1      -0.305  -3.670   0.101  1.00  0.00    -0.401 N 
HETATM   25  H6  UNL     1       0.154  -3.847   1.043  1.00  0.00     0.156 HD
HETATM   26  H7  UNL     1      -0.217  -4.158  -0.820  1.00  0.00     0.156 HD
ENDBRANCH   5  24
TORSDOF 6
