REMARK  4 active torsions:
REMARK  status: ('A' for Active; 'I' for Inactive)
REMARK    1  A    between atoms: C1_2  and  O2_3 
REMARK    2  A    between atoms: C1_2  and  C2_4 
REMARK    3  A    between atoms: C2_4  and  C3_5 
REMARK    4  A    between atoms: C5_8  and  C6_9 
ROOT
HETATM    1  C3  UNL     1       2.650  -0.107  -0.009  1.00  0.00    -0.051 A 
HETATM    2  C4  UNL     1       2.034   0.997   0.379  1.00  0.00     0.091 A 
HETATM    3  N1  UNL     1       0.711   0.910   0.894  1.00  0.00    -0.368 N 
HETATM    4  C5  UNL     1      -0.004  -0.305   1.021  1.00  0.00     0.023 A 
HETATM    5  C14 UNL     1       0.664  -1.369   0.618  1.00  0.00     0.004 A 
HETATM    6  C15 UNL     1       2.039  -1.444   0.061  1.00  0.00     0.065 A 
HETATM    7  H5  UNL     1       0.275   1.811   1.185  1.00  0.00     0.165 HD
ENDROOT
BRANCH   4   8
HETATM    8  C6  UNL     1      -1.385  -0.387   1.557  1.00  0.00     0.163 A 
HETATM    9  C7  UNL     1      -1.855  -1.814   1.611  1.00  0.00     0.236 A 
HETATM   10  O3  UNL     1      -1.375  -2.760   2.298  1.00  0.00    -0.272 OA
HETATM   11  N2  UNL     1      -2.981  -2.021   0.750  1.00  0.00    -0.326 N 
HETATM   12  C8  UNL     1      -3.257  -0.749   0.145  1.00  0.00     0.042 A 
HETATM   13  H7  UNL     1      -3.490  -2.918   0.600  1.00  0.00     0.169 HD
HETATM   14  C9  UNL     1      -4.264  -0.473  -0.756  1.00  0.00     0.030 A 
HETATM   15  C13 UNL     1      -2.369   0.211   0.586  1.00  0.00    -0.012 A 
HETATM   16  C10 UNL     1      -4.419   0.803  -1.256  1.00  0.00     0.002 A 
HETATM   17  C11 UNL     1      -3.553   1.784  -0.840  1.00  0.00     0.001 A 
HETATM   18  C12 UNL     1      -2.562   1.470   0.059  1.00  0.00     0.011 A 
ENDBRANCH   4   8
BRANCH   1  19
HETATM   19  C2  UNL     1       4.005  -0.235  -0.565  1.00  0.00     0.145 C 
BRANCH  19  20
HETATM   20  C1  UNL     1       4.717   1.081  -0.677  1.00  0.00     0.143 C 
HETATM   21  O1  UNL     1       5.879   1.175  -1.122  1.00  0.00    -0.650 OA
BRANCH  20  22
HETATM   22  O2  UNL     1       4.722   2.455  -0.504  1.00  0.00    -0.776 OA
HETATM   23  H1  UNL     1       4.924   2.895   0.397  1.00  0.00     0.167 HD
ENDBRANCH  20  22
ENDBRANCH  19  20
ENDBRANCH   1  19
TORSDOF 4
