REMARK  6 active torsions:
REMARK  status: ('A' for Active; 'I' for Inactive)
REMARK    1  A    between atoms: C2_2  and  C3_4 
REMARK    2  A    between atoms: C11_13  and  C12_14 
REMARK    3  A    between atoms: C12_14  and  C13_15 
REMARK    4  A    between atoms: C13_15  and  C14_16 
REMARK    5  A    between atoms: C14_16  and  O2_17 
REMARK    6  A    between atoms: C14_16  and  P1_18 
ROOT
HETATM    1  C3  UNL     1      -1.695  -0.466  -0.031  1.00  0.00     0.109 C 
HETATM    2  C4  UNL     1      -2.546  -1.174  -0.998  1.00  0.00     0.045 C 
HETATM    3  C5  UNL     1      -3.914  -0.457  -0.908  1.00  0.00    -0.026 C 
HETATM    4  C6  UNL     1      -4.028   0.906  -0.784  1.00  0.00    -0.004 C 
HETATM    5  C7  UNL     1      -3.384   2.233  -0.717  1.00  0.00    -0.003 C 
HETATM    6  C8  UNL     1      -2.101   2.654  -0.914  1.00  0.00    -0.007 C 
HETATM    7  C9  UNL     1      -1.219   1.635  -1.305  1.00  0.00     0.155 C 
HETATM    8  N1  UNL     1      -0.107   1.126  -0.661  1.00  0.00    -0.355 N 
HETATM    9  C10 UNL     1       1.190   1.461  -0.560  1.00  0.00     0.099 A 
HETATM   10  C11 UNL     1       1.788   0.378   0.106  1.00  0.00    -0.034 A 
HETATM   11  C15 UNL     1       0.860  -0.611   0.412  1.00  0.00    -0.031 A 
HETATM   12  C16 UNL     1       1.096  -1.897   1.095  1.00  0.00     0.051 C 
HETATM   13  C17 UNL     1      -0.329  -0.087  -0.091  1.00  0.00     0.029 A 
ENDROOT
BRANCH  10  14
HETATM   14  C12 UNL     1       3.246   0.406   0.379  1.00  0.00     0.047 C 
BRANCH  14  15
HETATM   15  C13 UNL     1       4.056  -0.394  -0.591  1.00  0.00     0.070 C 
BRANCH  15  16
HETATM   16  C14 UNL     1       5.496  -0.255  -0.162  1.00  0.00     0.049 C 
BRANCH  16  17
HETATM   17  O2  UNL     1       6.562  -0.846  -0.844  1.00  0.00    -0.364 OA
HETATM   18  H18 UNL     1       6.892  -0.450  -1.717  1.00  0.00     0.217 HD
ENDBRANCH  16  17
BRANCH  16  19
HETATM   19  P1  UNL     1       6.122   0.573   1.135  1.00  0.00    -0.042 P 
HETATM   20  H19 UNL     1       5.292   1.312   2.069  1.00  0.00     0.069 HD
ENDBRANCH  16  19
ENDBRANCH  15  16
ENDBRANCH  14  15
ENDBRANCH  10  14
BRANCH   1  21
HETATM   21  C2  UNL     1      -2.066  -0.973   1.405  1.00  0.00     0.133 C 
HETATM   22  C1  UNL     1      -3.287  -1.555   1.946  1.00  0.00     0.091 C 
HETATM   23  O1  UNL     1      -1.236  -0.913   2.324  1.00  0.00    -0.298 OA
ENDBRANCH   1  21
TORSDOF 6
