REMARK  7 active torsions:
REMARK  status: ('A' for Active; 'I' for Inactive)
REMARK    1  A    between atoms: C2_2  and  O1_3 
REMARK    2  A    between atoms: O1_3  and  C3_4 
REMARK    3  A    between atoms: C7_8  and  C8_9 
REMARK    4  A    between atoms: C16_19  and  C17_20 
REMARK    5  A    between atoms: C17_20  and  C18_21 
REMARK    6  A    between atoms: C18_21  and  C19_22 
REMARK    7  A    between atoms: C19_22  and  O4_24 
ROOT
HETATM    1  C8  UNL     1      -2.610  -0.993  -0.657  1.00  0.00    -0.024 A 
HETATM    2  C9  UNL     1      -1.723  -2.003  -0.959  1.00  0.00     0.013 A 
HETATM    3  C10 UNL     1      -0.399  -1.756  -0.789  1.00  0.00     0.015 A 
HETATM    4  C11 UNL     1       0.011  -0.524  -0.328  1.00  0.00     0.006 A 
HETATM    5  C12 UNL     1      -0.827   0.519  -0.011  1.00  0.00     0.047 A 
HETATM    6  C13 UNL     1      -2.169   0.228  -0.198  1.00  0.00     0.042 A 
HETATM    7  N1  UNL     1      -0.105   1.660   0.436  1.00  0.00    -0.322 N 
HETATM    8  C14 UNL     1       1.267   1.287   0.388  1.00  0.00     0.256 A 
HETATM    9  O2  UNL     1       2.055   2.205   0.761  1.00  0.00    -0.267 OA
HETATM   10  C15 UNL     1       1.405  -0.087  -0.088  1.00  0.00     0.043 A 
HETATM   11  C16 UNL     1       2.588  -0.659  -0.216  1.00  0.00     0.027 C 
HETATM   12  H12 UNL     1      -0.639   2.518   0.706  1.00  0.00     0.169 HD
ENDROOT
BRANCH  11  13
HETATM   13  C17 UNL     1       3.960  -0.219   0.023  1.00  0.00     0.082 A 
HETATM   14  N2  UNL     1       4.882  -1.196  -0.598  1.00  0.00    -0.382 N 
HETATM   15  C21 UNL     1       5.418  -0.259  -1.483  1.00  0.00     0.089 A 
HETATM   16  H19 UNL     1       4.982  -2.202  -0.353  1.00  0.00     0.160 HD
HETATM   17  C22 UNL     1       4.600   0.671  -0.953  1.00  0.00    -0.036 A 
HETATM   18  C23 UNL     1       4.494   2.102  -1.338  1.00  0.00     0.048 C 
BRANCH  13  19
HETATM   19  C18 UNL     1       4.398  -0.090   1.467  1.00  0.00     0.151 C 
BRANCH  19  20
HETATM   20  C19 UNL     1       5.798   0.361   1.607  1.00  0.00     0.261 C 
HETATM   21  O3  UNL     1       6.168   0.470   2.796  1.00  0.00    -0.265 OA
BRANCH  20  22
HETATM   22  O4  UNL     1       6.802   0.693   0.706  1.00  0.00    -0.326 OA
HETATM   23  C20 UNL     1       8.060   1.095   1.165  1.00  0.00     0.213 C 
ENDBRANCH  20  22
ENDBRANCH  19  20
ENDBRANCH  13  19
ENDBRANCH  11  13
BRANCH   1  24
HETATM   24  C7  UNL     1      -4.030  -1.273  -0.845  1.00  0.00    -0.023 A 
HETATM   25  C6  UNL     1      -4.458  -2.132  -1.843  1.00  0.00     0.012 A 
HETATM   26  C5  UNL     1      -5.816  -2.365  -1.982  1.00  0.00     0.004 A 
HETATM   27  C4  UNL     1      -6.699  -1.723  -1.108  1.00  0.00     0.037 A 
HETATM   28  C3  UNL     1      -6.251  -0.863  -0.109  1.00  0.00     0.069 A 
HETATM   29  C24 UNL     1      -4.899  -0.651   0.003  1.00  0.00     0.049 A 
BRANCH  28  30
HETATM   30  O1  UNL     1      -7.347  -0.387   0.586  1.00  0.00    -0.351 OA
BRANCH  30  31
HETATM   31  C2  UNL     1      -7.174   0.510   1.651  1.00  0.00     0.171 C 
HETATM   32  C1  UNL     1      -6.510   1.787   1.203  1.00  0.00     0.034 C 
ENDBRANCH  30  31
ENDBRANCH  28  30
ENDBRANCH   1  24
TORSDOF 7
