REMARK  7 active torsions:
REMARK  status: ('A' for Active; 'I' for Inactive)
REMARK    1  A    between atoms: C3_3  and  C4_4 
REMARK    2  A    between atoms: C4_4  and  C5_5 
REMARK    3  A    between atoms: C10_12  and  C11_13 
REMARK    4  A    between atoms: C11_13  and  O3_15 
REMARK    5  A    between atoms: C15_21  and  C16_22 
REMARK    6  A    between atoms: C16_22  and  C17_23 
REMARK    7  A    between atoms: C17_23  and  C18_24 
ROOT
HETATM    1  C5  UNL     1       1.427  -1.085  -0.486  1.00  0.00     0.047 A 
HETATM    2  C6  UNL     1       1.451  -2.067  -1.560  1.00  0.00     0.257 A 
HETATM    3  O1  UNL     1       0.775  -2.676  -2.398  1.00  0.00    -0.267 OA
HETATM    4  N1  UNL     1       2.795  -2.503  -1.708  1.00  0.00    -0.322 N 
HETATM    5  C7  UNL     1       3.610  -1.828  -0.764  1.00  0.00     0.046 A 
HETATM    6  C8  UNL     1       4.935  -1.782  -0.387  1.00  0.00     0.031 A 
HETATM    7  C9  UNL     1       5.514  -1.020   0.596  1.00  0.00     0.020 A 
HETATM    8  C10 UNL     1       4.688  -0.184   1.311  1.00  0.00     0.038 A 
HETATM    9  C12 UNL     1       3.353  -0.182   0.983  1.00  0.00     0.033 A 
HETATM   10  C13 UNL     1       2.816  -0.985  -0.034  1.00  0.00     0.007 A 
HETATM   11  H5  UNL     1       3.334  -3.183  -2.323  1.00  0.00     0.169 HD
ENDROOT
BRANCH   1  12
HETATM   12  C4  UNL     1       0.334  -0.532  -0.132  1.00  0.00     0.047 C 
BRANCH  12  13
HETATM   13  C3  UNL     1      -0.994  -0.086   0.050  1.00  0.00     0.035 C 
HETATM   14  C2  UNL     1      -2.072  -0.489  -0.645  1.00  0.00    -0.029 C 
HETATM   15  C1  UNL     1      -1.989  -1.488  -1.718  1.00  0.00     0.048 C 
HETATM   16  C15 UNL     1      -3.413   0.082  -0.376  1.00  0.00     0.154 C 
HETATM   17  O4  UNL     1      -3.739   0.180   0.956  1.00  0.00    -0.363 OA
HETATM   18  C14 UNL     1      -2.778   0.757   1.735  1.00  0.00     0.291 C 
HETATM   19  N2  UNL     1      -1.512   0.868   1.017  1.00  0.00    -0.368 N 
HETATM   20  H10 UNL     1      -0.868   1.693   1.181  1.00  0.00     0.161 HD
BRANCH  16  21
HETATM   21  C16 UNL     1      -3.460   1.408  -1.108  1.00  0.00     0.043 C 
BRANCH  21  22
HETATM   22  C17 UNL     1      -4.760   2.139  -0.972  1.00  0.00     0.072 C 
BRANCH  22  23
HETATM   23  C18 UNL     1      -5.147   2.483   0.409  1.00  0.00     0.231 C 
HETATM   24  O5  UNL     1      -5.778   1.818   1.191  1.00  0.00    -0.307 OA
ENDBRANCH  22  23
ENDBRANCH  21  22
ENDBRANCH  16  21
ENDBRANCH  12  13
ENDBRANCH   1  12
BRANCH   8  25
HETATM   25  C11 UNL     1       5.112   0.695   2.384  1.00  0.00     0.176 C 
HETATM   26  O2  UNL     1       4.358   1.459   3.038  1.00  0.00    -0.646 OA
BRANCH  25  27
HETATM   27  O3  UNL     1       6.451   0.714   2.738  1.00  0.00    -0.773 OA
HETATM   28  H8  UNL     1       6.868   1.519   3.232  1.00  0.00     0.167 HD
ENDBRANCH  25  27
ENDBRANCH   8  25
TORSDOF 7
