REMARK  2 active torsions:
REMARK  status: ('A' for Active; 'I' for Inactive)
REMARK    1  A    between atoms: C3_3  and  O1_4 
REMARK    2  A    between atoms: O1_4  and  C4_5 
ROOT
HETATM    1  C4  UNL     1       2.314   0.507   1.501  1.00  0.00     0.308 C 
HETATM    2  C5  UNL     1       1.548   0.484   2.773  1.00  0.00     0.224 C 
HETATM    3  O2  UNL     1       1.628   0.437   4.045  1.00  0.00    -0.286 OA
HETATM    4  C6  UNL     1       0.342   0.547   1.916  1.00  0.00     0.087 C 
HETATM    5  C7  UNL     1      -0.932   0.889   1.785  1.00  0.00     0.062 C 
HETATM    6  C8  UNL     1      -2.204   1.015   1.052  1.00  0.00     0.026 C 
HETATM    7  C9  UNL     1      -2.468   2.051   0.228  1.00  0.00     0.003 C 
HETATM    8  C10 UNL     1      -3.449   1.837  -0.882  1.00  0.00     0.031 C 
HETATM    9  C11 UNL     1      -3.353   0.382  -1.280  1.00  0.00     0.029 C 
HETATM   10  C12 UNL     1      -3.543  -0.589  -0.163  1.00  0.00     0.091 C 
HETATM   11  C13 UNL     1      -2.847  -1.891  -0.331  1.00  0.00     0.136 C 
HETATM   12  C14 UNL     1      -1.524  -1.854  -1.002  1.00  0.00     0.262 C 
HETATM   13  O3  UNL     1      -0.770  -2.131  -1.948  1.00  0.00    -0.265 OA
HETATM   14  O4  UNL     1      -0.705  -1.149  -0.141  1.00  0.00    -0.301 OA
HETATM   15  C15 UNL     1       0.622  -0.788  -0.214  1.00  0.00     0.307 C 
HETATM   16  N1  UNL     1       1.124  -0.025   0.891  1.00  0.00    -0.322 N 
HETATM   17  N2  UNL     1      -3.291   0.040   1.151  1.00  0.00    -0.385 N 
HETATM   18  H18 UNL     1      -3.836  -0.205   2.015  1.00  0.00     0.160 HD
ENDROOT
BRANCH   1  19
HETATM   19  O1  UNL     1       3.467  -0.306   1.468  1.00  0.00    -0.330 OA
BRANCH  19  20
HETATM   20  C3  UNL     1       4.228  -0.315   0.300  1.00  0.00     0.133 C 
HETATM   21  C2  UNL     1       4.435  -0.464  -0.997  1.00  0.00    -0.007 C 
HETATM   22  C1  UNL     1       5.807  -0.247  -1.538  1.00  0.00     0.038 C 
ENDBRANCH  19  20
ENDBRANCH   1  19
TORSDOF 2
