REMARK  7 active torsions:
REMARK  status: ('A' for Active; 'I' for Inactive)
REMARK    1  A    between atoms: O1_1  and  C1_2 
REMARK    2  A    between atoms: N1_6  and  C5_7 
REMARK    3  A    between atoms: C5_7  and  C6_8 
REMARK    4  A    between atoms: C7_9  and  C8_10 
REMARK    5  A    between atoms: C8_10  and  C9_11 
REMARK    6  A    between atoms: C11_14  and  C12_15 
REMARK    7  A    between atoms: C14_19  and  O3_20 
ROOT
HETATM    1  C5  UNL     1      -0.939  -1.106  -0.414  1.00  0.00     0.151 C 
ENDROOT
BRANCH   1   2
HETATM    2  N1  UNL     1      -2.341  -0.693  -0.563  1.00  0.00    -0.360 N 
HETATM    3  C4  UNL     1      -2.396   0.722  -0.836  1.00  0.00     0.088 C 
HETATM    4  C3  UNL     1      -3.371   1.635  -0.691  1.00  0.00     0.019 C 
HETATM    5  C2  UNL     1      -4.722   1.405  -0.184  1.00  0.00     0.033 C 
HETATM    6  C1  UNL     1      -5.156   0.288   0.379  1.00  0.00     0.047 C 
HETATM    7  C15 UNL     1      -4.460  -0.994   0.652  1.00  0.00     0.117 C 
HETATM    8  C14 UNL     1      -3.580  -1.443  -0.480  1.00  0.00     0.225 C 
BRANCH   6   9
HETATM    9  O1  UNL     1      -6.501   0.384   0.760  1.00  0.00    -0.365 OA
HETATM   10  H1  UNL     1      -7.257   0.161   0.128  1.00  0.00     0.217 HD
ENDBRANCH   6   9
BRANCH   8  11
HETATM   11  O3  UNL     1      -3.222  -2.775  -0.187  1.00  0.00    -0.376 OA
HETATM   12  H17 UNL     1      -3.373  -3.373  -0.955  1.00  0.00     0.212 HD
ENDBRANCH   8  11
ENDBRANCH   1   2
BRANCH   1  13
HETATM   13  C6  UNL     1      -0.428  -0.501   0.820  1.00  0.00    -0.011 C 
HETATM   14  C7  UNL     1       0.569   0.335   0.988  1.00  0.00    -0.023 C 
BRANCH  14  15
HETATM   15  C8  UNL     1       1.507   0.949   0.024  1.00  0.00     0.086 C 
BRANCH  15  16
HETATM   16  C9  UNL     1       2.938   0.604   0.310  1.00  0.00     0.035 A 
HETATM   17  C10 UNL     1       3.382  -0.169   1.311  1.00  0.00     0.167 A 
HETATM   18  O2  UNL     1       4.714  -0.456   1.531  1.00  0.00    -0.321 OA
HETATM   19  C11 UNL     1       5.681   0.077   0.676  1.00  0.00     0.096 A 
HETATM   20  C13 UNL     1       5.263   0.852  -0.331  1.00  0.00     0.123 A 
HETATM   21  N2  UNL     1       3.894   1.165  -0.582  1.00  0.00    -0.365 N 
HETATM   22  H15 UNL     1       3.665   1.787  -1.403  1.00  0.00     0.165 HD
BRANCH  19  23
HETATM   23  C12 UNL     1       7.124  -0.219   0.894  1.00  0.00     0.288 C 
HETATM   24  F1  UNL     1       7.829   0.438  -0.098  1.00  0.00    -0.248 F 
ENDBRANCH  19  23
ENDBRANCH  15  16
ENDBRANCH  14  15
ENDBRANCH   1  13
TORSDOF 7
