REMARK  3 active torsions:
REMARK  status: ('A' for Active; 'I' for Inactive)
REMARK    1  A    between atoms: C2_2  and  C3_4 
REMARK    2  A    between atoms: C13_15  and  C14_16 
REMARK    3  A    between atoms: C14_16  and  O4_18 
ROOT
HETATM    1  C3  UNL     1      -1.435   1.119  -0.537  1.00  0.00     0.014 C 
HETATM    2  C4  UNL     1      -2.685   1.074   0.274  1.00  0.00     0.012 C 
HETATM    3  C5  UNL     1      -3.232  -0.284   0.702  1.00  0.00    -0.006 C 
HETATM    4  C6  UNL     1      -2.780  -1.741   0.253  1.00  0.00     0.065 A 
HETATM    5  C7  UNL     1      -2.517  -1.612  -1.072  1.00  0.00     0.159 A 
HETATM    6  O2  UNL     1      -3.145  -1.613  -2.192  1.00  0.00    -0.295 OA
HETATM    7  C8  UNL     1      -1.328  -1.549  -0.245  1.00  0.00     0.082 A 
HETATM    8  C9  UNL     1      -0.596  -0.191  -0.557  1.00  0.00    -0.037 C 
HETATM    9  C10 UNL     1       0.799  -0.022  -0.798  1.00  0.00     0.046 C 
HETATM   10  C11 UNL     1       1.423  -0.714  -1.953  1.00  0.00     0.018 C 
HETATM   11  C12 UNL     1       2.743  -1.139  -1.347  1.00  0.00     0.046 C 
HETATM   12  C13 UNL     1       2.919  -0.396  -0.084  1.00  0.00     0.018 C 
HETATM   13  C15 UNL     1       1.796   0.257   0.245  1.00  0.00    -0.063 C 
HETATM   14  C16 UNL     1       1.659   1.094   1.442  1.00  0.00     0.045 C 
HETATM   15  C17 UNL     1      -0.541  -1.627   1.073  1.00  0.00    -0.007 C 
HETATM   16  C18 UNL     1      -1.416  -1.964   2.163  1.00  0.00    -0.028 C 
HETATM   17  C19 UNL     1      -2.877  -2.310   1.631  1.00  0.00     0.050 C 
ENDROOT
BRANCH   1  18
HETATM   18  C2  UNL     1      -1.045   2.256  -1.227  1.00  0.00     0.155 C 
HETATM   19  C1  UNL     1      -1.820   3.489  -1.190  1.00  0.00     0.097 C 
HETATM   20  O1  UNL     1      -0.145   2.641  -1.966  1.00  0.00    -0.293 OA
ENDBRANCH   1  18
BRANCH  12  21
HETATM   21  C14 UNL     1       4.139  -0.387   0.678  1.00  0.00     0.172 C 
HETATM   22  O3  UNL     1       4.315   0.237   1.756  1.00  0.00    -0.646 OA
BRANCH  21  23
HETATM   23  O4  UNL     1       5.269  -1.068   0.309  1.00  0.00    -0.773 OA
HETATM   24  H11 UNL     1       6.211  -0.905   0.619  1.00  0.00     0.167 HD
ENDBRANCH  21  23
ENDBRANCH  12  21
TORSDOF 3
