REMARK  6 active torsions:
REMARK  status: ('A' for Active; 'I' for Inactive)
REMARK    1  A    between atoms: N1_1  and  S1_2 
REMARK    2  A    between atoms: S1_2  and  C1_5 
REMARK    3  A    between atoms: C6_10  and  C7_11 
REMARK    4  A    between atoms: C7_11  and  C8_12 
REMARK    5  A    between atoms: C8_12  and  C9_13 
REMARK    6  A    between atoms: C9_13  and  O4_15 
ROOT
HETATM    1  C1  UNL     1      -3.012   0.092   0.100  1.00  0.00     0.056 C 
HETATM    2  C2  UNL     1      -2.739  -0.091  -1.208  1.00  0.00     0.023 C 
HETATM    3  C3  UNL     1      -1.531  -0.678  -1.846  1.00  0.00     0.029 C 
HETATM    4  C4  UNL     1      -0.453  -1.388  -1.435  1.00  0.00     0.043 A 
HETATM    5  C5  UNL     1       0.786  -2.194  -1.096  1.00  0.00     0.173 A 
HETATM    6  C6  UNL     1       2.008  -1.386  -0.652  1.00  0.00    -0.035 C 
HETATM    7  C10 UNL     1       2.206  -0.872   0.551  1.00  0.00     0.088 C 
HETATM    8  N2  UNL     1       2.012  -0.517   1.905  1.00  0.00    -0.395 N 
HETATM    9  C11 UNL     1       1.351   0.678   2.318  1.00  0.00     0.147 C 
HETATM   10  C12 UNL     1      -0.113   0.717   2.071  1.00  0.00     0.005 C 
HETATM   11  C13 UNL     1      -1.029  -0.112   1.590  1.00  0.00     0.013 C 
HETATM   12  C14 UNL     1      -2.470   0.214   1.451  1.00  0.00     0.096 C 
HETATM   13  C15 UNL     1      -0.610  -1.481   1.164  1.00  0.00     0.255 C 
HETATM   14  O5  UNL     1      -0.419  -2.672   1.275  1.00  0.00    -0.267 OA
HETATM   15  N3  UNL     1      -0.097  -1.714  -0.144  1.00  0.00    -0.301 N 
HETATM   16  H12 UNL     1       2.363  -1.162   2.678  1.00  0.00     0.159 HD
ENDROOT
BRANCH   1  17
HETATM   17  S1  UNL     1      -4.743   0.257   0.273  1.00  0.00     0.235 S 
HETATM   18  O1  UNL     1      -5.212  -0.259   1.600  1.00  0.00    -0.206 OA
HETATM   19  O2  UNL     1      -5.426  -0.592  -0.795  1.00  0.00    -0.206 OA
BRANCH  17  20
HETATM   20  N1  UNL     1      -5.274   1.892   0.144  1.00  0.00    -0.225 NA
HETATM   21  H1  UNL     1      -4.587   2.527  -0.271  1.00  0.00     0.136 HD
HETATM   22  H2  UNL     1      -6.197   1.862  -0.354  1.00  0.00     0.136 HD
ENDBRANCH  17  20
ENDBRANCH   1  17
BRANCH   6  23
HETATM   23  C7  UNL     1       2.937  -1.261  -1.789  1.00  0.00     0.048 C 
BRANCH  23  24
HETATM   24  C8  UNL     1       4.152  -0.437  -1.559  1.00  0.00     0.114 C 
BRANCH  24  25
HETATM   25  C9  UNL     1       3.919   0.976  -1.237  1.00  0.00     0.139 C 
HETATM   26  O3  UNL     1       5.065   1.522  -1.074  1.00  0.00    -0.650 OA
BRANCH  25  27
HETATM   27  O4  UNL     1       2.959   1.959  -1.038  1.00  0.00    -0.776 OA
HETATM   28  H10 UNL     1       2.980   2.469  -0.165  1.00  0.00     0.167 HD
ENDBRANCH  25  27
ENDBRANCH  24  25
ENDBRANCH  23  24
ENDBRANCH   6  23
TORSDOF 6
