REMARK  3 active torsions:
REMARK  status: ('A' for Active; 'I' for Inactive)
REMARK    1  A    between atoms: O1_2  and  C2_3 
REMARK    2  A    between atoms: C10_13  and  C11_14 
REMARK    3  A    between atoms: C14_17  and  C16_19 
ROOT
HETATM    1  C2  UNL     1       3.659   0.641   1.773  1.00  0.00     0.070 A 
HETATM    2  C3  UNL     1       3.492   1.039   0.465  1.00  0.00     0.038 A 
HETATM    3  C4  UNL     1       2.258   0.804  -0.067  1.00  0.00     0.017 A 
HETATM    4  C5  UNL     1       1.186   0.209   0.594  1.00  0.00     0.006 A 
HETATM    5  C6  UNL     1       1.360  -0.184   1.894  1.00  0.00     0.049 A 
HETATM    6  C7  UNL     1       2.605   0.051   2.437  1.00  0.00     0.067 A 
HETATM    7  N1  UNL     1       0.187  -0.768   2.426  1.00  0.00    -0.322 N 
HETATM    8  C8  UNL     1      -0.733  -0.715   1.371  1.00  0.00     0.257 A 
HETATM    9  O2  UNL     1      -1.866  -1.175   1.586  1.00  0.00    -0.267 OA
HETATM   10  C9  UNL     1      -0.196  -0.111   0.161  1.00  0.00     0.045 A 
HETATM   11  C10 UNL     1      -0.708   0.123  -1.027  1.00  0.00     0.025 C 
HETATM   12  H7  UNL     1       0.119  -1.131   3.401  1.00  0.00     0.169 HD
ENDROOT
BRANCH  11  13
HETATM   13  C11 UNL     1      -2.031  -0.162  -1.499  1.00  0.00    -0.050 A 
HETATM   14  C12 UNL     1      -2.415   0.131  -2.742  1.00  0.00    -0.018 A 
HETATM   15  C13 UNL     1      -3.757  -0.373  -2.595  1.00  0.00     0.044 A 
HETATM   16  C14 UNL     1      -3.364  -0.703  -1.196  1.00  0.00     0.017 A 
HETATM   17  C15 UNL     1      -4.078   0.166  -0.172  1.00  0.00     0.023 C 
BRANCH  16  18
HETATM   18  C16 UNL     1      -3.452  -2.171  -0.943  1.00  0.00     0.405 C 
HETATM   19  O3  UNL     1      -3.886  -3.278  -1.216  1.00  0.00    -0.429 OA
ENDBRANCH  16  18
ENDBRANCH  11  13
BRANCH   1  20
HETATM   20  O1  UNL     1       4.857   0.814   2.448  1.00  0.00    -0.356 OA
HETATM   21  C1  UNL     1       5.995   1.403   1.870  1.00  0.00     0.210 C 
ENDBRANCH   1  20
TORSDOF 3
