REMARK  5 active torsions:
REMARK  status: ('A' for Active; 'I' for Inactive)
REMARK    1  A    between atoms: O1_2  and  C2_3 
REMARK    2  A    between atoms: C9_12  and  C10_13 
REMARK    3  A    between atoms: C13_16  and  C14_17 
REMARK    4  A    between atoms: C14_17  and  C15_18 
REMARK    5  A    between atoms: C15_18  and  O4_20 
ROOT
HETATM    1  C2  UNL     1       3.803  -0.776  -0.624  1.00  0.00     0.070 A 
HETATM    2  C3  UNL     1       2.844  -0.851  -1.607  1.00  0.00     0.037 A 
HETATM    3  C4  UNL     1       1.715  -0.068  -1.488  1.00  0.00     0.013 A 
HETATM    4  C5  UNL     1       1.451   0.804  -0.449  1.00  0.00    -0.012 A 
HETATM    5  C6  UNL     1       2.449   0.834   0.504  1.00  0.00     0.044 A 
HETATM    6  C7  UNL     1       3.600   0.076   0.441  1.00  0.00     0.066 A 
HETATM    7  N1  UNL     1       2.156   1.759   1.546  1.00  0.00    -0.326 N 
HETATM    8  C8  UNL     1       0.909   2.341   1.230  1.00  0.00     0.236 A 
HETATM    9  O2  UNL     1       0.272   3.236   1.874  1.00  0.00    -0.272 OA
HETATM   10  C9  UNL     1       0.381   1.737  -0.050  1.00  0.00     0.163 A 
HETATM   11  H7  UNL     1       2.694   2.016   2.402  1.00  0.00     0.169 HD
ENDROOT
BRANCH  10  12
HETATM   12  C10 UNL     1      -0.934   1.121   0.173  1.00  0.00     0.025 C 
HETATM   13  C11 UNL     1      -1.479  -0.093   0.271  1.00  0.00    -0.054 C 
HETATM   14  C12 UNL     1      -0.705  -1.348   0.151  1.00  0.00     0.046 C 
HETATM   15  C13 UNL     1      -2.936  -0.065   0.513  1.00  0.00     0.044 C 
HETATM   16  C16 UNL     1      -3.311   1.341   0.152  1.00  0.00     0.129 C 
HETATM   17  N2  UNL     1      -2.042   2.024   0.385  1.00  0.00    -0.391 N 
HETATM   18  H18 UNL     1      -2.070   3.047   0.668  1.00  0.00     0.159 HD
BRANCH  15  19
HETATM   19  C14 UNL     1      -3.698  -1.021  -0.368  1.00  0.00     0.120 C 
BRANCH  19  20
HETATM   20  C15 UNL     1      -5.138  -0.885  -0.018  1.00  0.00     0.140 C 
HETATM   21  O3  UNL     1      -5.599  -0.095   0.871  1.00  0.00    -0.650 OA
BRANCH  20  22
HETATM   22  O4  UNL     1      -6.142  -1.625  -0.640  1.00  0.00    -0.776 OA
HETATM   23  H15 UNL     1      -7.040  -1.233  -0.902  1.00  0.00     0.167 HD
ENDBRANCH  20  22
ENDBRANCH  19  20
ENDBRANCH  15  19
ENDBRANCH  10  12
BRANCH   1  24
HETATM   24  O1  UNL     1       4.902  -1.599  -0.829  1.00  0.00    -0.356 OA
HETATM   25  C1  UNL     1       5.987  -1.655   0.078  1.00  0.00     0.210 C 
ENDBRANCH   1  24
TORSDOF 5
