REMARK  0 active torsions:
REMARK  status: ('A' for Active; 'I' for Inactive)
ROOT
HETATM    1  F1  UNL     1       5.915   0.826   1.366  1.00  0.00    -0.206 F 
HETATM    2  C1  UNL     1       4.637   0.933   0.918  1.00  0.00     0.117 A 
HETATM    3  C2  UNL     1       4.151   2.137   0.435  1.00  0.00     0.045 A 
HETATM    4  C3  UNL     1       2.849   2.204  -0.011  1.00  0.00     0.040 A 
HETATM    5  C4  UNL     1       1.983   1.104  -0.001  1.00  0.00     0.078 A 
HETATM    6  C5  UNL     1       2.535  -0.058   0.493  1.00  0.00     0.006 A 
HETATM    7  C6  UNL     1       3.832  -0.170   0.949  1.00  0.00     0.054 A 
HETATM    8  C7  UNL     1       1.801  -1.370   0.602  1.00  0.00     0.312 C 
HETATM    9  N1  UNL     1       1.085  -1.487  -0.655  1.00  0.00     0.098 N 
HETATM   10  C8  UNL     1      -0.198  -0.855  -0.578  1.00  0.00     0.278 C 
HETATM   11  C9  UNL     1      -1.193  -1.728  -1.269  1.00  0.00     0.011 C 
HETATM   12  C10 UNL     1      -2.508  -1.948  -1.146  1.00  0.00    -0.001 C 
HETATM   13  C11 UNL     1      -3.618  -1.491  -0.328  1.00  0.00     0.017 C 
HETATM   14  C12 UNL     1      -3.854  -0.655   0.665  1.00  0.00     0.084 C 
HETATM   15  N2  UNL     1      -3.336   0.285   1.564  1.00  0.00    -0.381 N 
HETATM   16  C13 UNL     1      -2.819   1.389   0.781  1.00  0.00     0.268 C 
HETATM   17  N3  UNL     1      -1.783   1.064  -0.063  1.00  0.00    -0.284 NA
HETATM   18  C14 UNL     1      -1.525   1.133  -1.269  1.00  0.00     0.120 C 
HETATM   19  C15 UNL     1      -0.141   0.515  -1.190  1.00  0.00     0.206 C 
HETATM   20  O1  UNL     1       0.727   1.319  -0.471  1.00  0.00    -0.338 OA
HETATM   21  H6  UNL     1       1.087  -2.442  -1.055  1.00  0.00     0.317 HD
HETATM   22  H12 UNL     1      -3.298   0.239   2.603  1.00  0.00     0.160 HD
ENDROOT
TORSDOF 0
