REMARK  2 active torsions:
REMARK  status: ('A' for Active; 'I' for Inactive)
REMARK    1  A    between atoms: C18_19  and  C19_20 
REMARK    2  A    between atoms: C19_20  and  N1_21 
ROOT
HETATM    1  C1  UNL     1       4.906   1.280  -2.703  1.00  0.00     0.045 C 
HETATM    2  C2  UNL     1       3.809   0.618  -2.066  1.00  0.00    -0.064 C 
HETATM    3  C3  UNL     1       2.667  -0.005  -2.263  1.00  0.00     0.034 C 
HETATM    4  C4  UNL     1       2.002  -0.491  -1.063  1.00  0.00     0.039 C 
HETATM    5  C5  UNL     1       0.838  -1.027  -1.221  1.00  0.00    -0.007 C 
HETATM    6  C6  UNL     1       0.189  -1.142  -2.562  1.00  0.00     0.387 C 
HETATM    7  O1  UNL     1      -0.302  -1.214  -3.694  1.00  0.00    -0.405 OA
HETATM    8  C7  UNL     1      -0.107  -1.668  -0.242  1.00  0.00     0.049 C 
HETATM    9  C8  UNL     1      -1.074  -0.545   0.191  1.00  0.00    -0.025 A 
HETATM   10  C9  UNL     1      -2.302  -1.145  -0.470  1.00  0.00     0.010 A 
HETATM   11  C10 UNL     1      -3.154  -0.645  -1.472  1.00  0.00    -0.012 A 
HETATM   12  C11 UNL     1      -4.322  -1.144  -2.092  1.00  0.00    -0.003 A 
HETATM   13  C12 UNL     1      -4.631  -2.376  -1.550  1.00  0.00     0.000 A 
HETATM   14  C13 UNL     1      -3.942  -3.024  -0.580  1.00  0.00     0.004 A 
HETATM   15  C14 UNL     1      -2.793  -2.424  -0.038  1.00  0.00    -0.071 A 
HETATM   16  C15 UNL     1      -2.201  -3.143   1.103  1.00  0.00     0.044 C 
HETATM   17  C16 UNL     1      -2.097   0.311   0.435  1.00  0.00     0.051 A 
HETATM   18  C17 UNL     1      -1.402   1.331   1.282  1.00  0.00     0.039 A 
HETATM   19  C18 UNL     1      -0.863   2.314   2.058  1.00  0.00     0.120 A 
HETATM   20  O2  UNL     1      -0.022   1.370   1.720  1.00  0.00     0.000 OA
HETATM   21  C20 UNL     1       1.255   1.088   2.055  1.00  0.00     0.078 A 
HETATM   22  O3  UNL     1       0.450   1.981   2.364  1.00  0.00    -0.337 OA
HETATM   23  C21 UNL     1       2.621   0.595   2.269  1.00  0.00     0.087 C 
HETATM   24  C22 UNL     1       2.995  -0.506   1.331  1.00  0.00     0.130 C 
HETATM   25  N2  UNL     1       2.907  -0.096  -0.092  1.00  0.00    -0.376 N 
HETATM   26  C23 UNL     1       3.884   0.835  -0.571  1.00  0.00     0.157 C 
ENDROOT
BRANCH  19  27
HETATM   27  C19 UNL     1      -1.257   3.576   2.736  1.00  0.00     0.153 C 
BRANCH  27  28
HETATM   28  N1  UNL     1      -2.645   3.846   2.493  1.00  0.00    -0.427 N 
HETATM   29  H19 UNL     1      -3.275   3.497   3.219  1.00  0.00     0.150 HD
HETATM   30  H20 UNL     1      -2.975   3.752   1.539  1.00  0.00     0.150 HD
ENDBRANCH  27  28
ENDBRANCH  19  27
TORSDOF 2
