REMARK  8 active torsions:
REMARK  status: ('A' for Active; 'I' for Inactive)
REMARK    1  A    between atoms: C5_6  and  C6_7 
REMARK    2  A    between atoms: C9_10  and  C10_11 
REMARK    3  A    between atoms: C10_11  and  C11_12 
REMARK    4  A    between atoms: C11_12  and  C12_13 
REMARK    5  A    between atoms: C12_13  and  O2_15 
REMARK    6  A    between atoms: C16_19  and  C17_20 
REMARK    7  A    between atoms: C18_21  and  C19_22 
REMARK    8  A    between atoms: C23_26  and  O3_27 
ROOT
HETATM    1  C1  UNL     1       2.243   2.241  -0.998  1.00  0.00     0.063 C 
HETATM    2  C2  UNL     1       0.968   2.031  -0.894  1.00  0.00     0.016 C 
HETATM    3  N1  UNL     1       0.063   2.776  -1.668  1.00  0.00    -0.388 N 
HETATM    4  C3  UNL     1      -1.120   2.629  -0.836  1.00  0.00     0.159 C 
HETATM    5  C4  UNL     1      -1.061   1.174  -0.450  1.00  0.00    -0.028 C 
HETATM    6  C5  UNL     1      -1.953   0.191  -0.408  1.00  0.00     0.021 C 
HETATM    7  C15 UNL     1       0.350   0.965  -0.071  1.00  0.00    -0.009 C 
HETATM    8  C16 UNL     1       0.899   0.041   0.747  1.00  0.00    -0.007 C 
HETATM    9  H3  UNL     1       0.243   3.268  -2.569  1.00  0.00     0.159 HD
ENDROOT
BRANCH   6  10
HETATM   10  C6  UNL     1      -3.349   0.118  -0.718  1.00  0.00    -0.028 C 
HETATM   11  C7  UNL     1      -4.197  -0.920  -0.647  1.00  0.00    -0.044 C 
HETATM   12  C8  UNL     1      -3.852  -2.287  -0.207  1.00  0.00     0.049 C 
HETATM   13  C9  UNL     1      -5.518  -0.488  -1.068  1.00  0.00    -0.040 C 
HETATM   14  C13 UNL     1      -5.406   0.835  -1.071  1.00  0.00    -0.018 C 
HETATM   15  C14 UNL     1      -4.158   1.213  -1.213  1.00  0.00     0.025 C 
BRANCH  13  16
HETATM   16  C10 UNL     1      -6.616  -1.437  -1.379  1.00  0.00     0.050 C 
BRANCH  16  17
HETATM   17  C11 UNL     1      -7.832  -0.664  -1.830  1.00  0.00     0.114 C 
BRANCH  17  18
HETATM   18  C12 UNL     1      -8.253   0.246  -0.744  1.00  0.00     0.139 C 
HETATM   19  O1  UNL     1      -9.233   0.956  -1.068  1.00  0.00    -0.650 OA
BRANCH  18  20
HETATM   20  O2  UNL     1      -7.674   0.362   0.529  1.00  0.00    -0.776 OA
HETATM   21  H14 UNL     1      -8.347   0.595   1.266  1.00  0.00     0.167 HD
ENDBRANCH  18  20
ENDBRANCH  17  18
ENDBRANCH  16  17
ENDBRANCH  13  16
ENDBRANCH   6  10
BRANCH   8  22
HETATM   22  C17 UNL     1       2.403   0.135   0.825  1.00  0.00     0.054 C 
HETATM   23  C18 UNL     1       3.114  -0.787   1.573  1.00  0.00     0.013 C 
BRANCH  23  24
HETATM   24  C19 UNL     1       4.554  -0.493   1.503  1.00  0.00    -0.054 A 
HETATM   25  C20 UNL     1       5.102   0.612   0.872  1.00  0.00     0.007 A 
HETATM   26  C21 UNL     1       6.428   0.947   0.738  1.00  0.00     0.003 A 
HETATM   27  C22 UNL     1       7.350   0.089   1.295  1.00  0.00     0.037 A 
HETATM   28  C23 UNL     1       6.926  -1.031   1.941  1.00  0.00     0.068 A 
HETATM   29  C25 UNL     1       5.575  -1.273   2.018  1.00  0.00     0.044 A 
BRANCH  28  30
HETATM   30  O3  UNL     1       7.774  -1.962   2.539  1.00  0.00    -0.356 OA
HETATM   31  C24 UNL     1       9.158  -1.861   2.547  1.00  0.00     0.210 C 
ENDBRANCH  28  30
ENDBRANCH  23  24
ENDBRANCH   8  22
TORSDOF 8
