REMARK  5 active torsions:
REMARK  status: ('A' for Active; 'I' for Inactive)
REMARK    1  A    between atoms: B1_1  and  C1_2 
REMARK    2  A    between atoms: C1_2  and  O1_3 
REMARK    3  A    between atoms: C8_13  and  C9_14 
REMARK    4  A    between atoms: C12_17  and  C13_18 
REMARK    5  A    between atoms: C18_23  and  O2_24 
ROOT
HETATM    1  C1  UNL     1      -3.842   0.096  -2.064  1.00  0.00     0.282 C 
HETATM    2  N1  UNL     1      -4.711   0.458  -0.898  1.00  0.00     0.127 N 
HETATM    3  C2  UNL     1      -4.070   1.487  -0.125  1.00  0.00     0.281 C 
HETATM    4  C3  UNL     1      -4.360   1.497   1.341  1.00  0.00     0.097 C 
HETATM    5  C4  UNL     1      -3.683   0.308   1.922  1.00  0.00     0.077 A 
HETATM    6  N2  UNL     1      -2.837  -0.267   1.288  1.00  0.00    -0.248 NA
HETATM    7  C5  UNL     1      -2.109  -1.307   1.590  1.00  0.00     0.065 A 
HETATM    8  C6  UNL     1      -2.336  -1.849   2.848  1.00  0.00     0.006 A 
HETATM    9  C7  UNL     1      -1.646  -3.035   3.445  1.00  0.00     0.058 C 
HETATM   10  S1  UNL     1      -3.680  -0.698   3.481  1.00  0.00    -0.078 SA
HETATM   11  C8  UNL     1      -1.190  -1.700   0.434  1.00  0.00     0.164 C 
HETATM   12  C22 UNL     1      -2.075  -1.820  -0.782  1.00  0.00     0.235 C 
HETATM   13  O3  UNL     1      -2.431  -2.645  -1.661  1.00  0.00    -0.272 OA
HETATM   14  N3  UNL     1      -2.935  -0.887  -1.406  1.00  0.00    -0.314 N 
HETATM   15  H4  UNL     1      -5.605   0.731  -1.327  1.00  0.00     0.320 HD
HETATM   16  H24 UNL     1      -2.539  -0.133  -0.839  1.00  0.00     0.166 HD
ENDROOT
BRANCH  11  17
HETATM   17  C9  UNL     1      -0.020  -0.901   0.340  1.00  0.00    -0.039 A 
HETATM   18  C10 UNL     1       0.182   0.429   0.062  1.00  0.00     0.009 A 
HETATM   19  C11 UNL     1       1.369   1.116  -0.021  1.00  0.00     0.013 A 
HETATM   20  C12 UNL     1       2.532   0.410   0.199  1.00  0.00    -0.023 A 
HETATM   21  C20 UNL     1       2.465  -0.933   0.487  1.00  0.00     0.013 A 
HETATM   22  C21 UNL     1       1.225  -1.524   0.546  1.00  0.00     0.009 A 
BRANCH  20  23
HETATM   23  C13 UNL     1       3.801   1.080   0.125  1.00  0.00     0.007 A 
HETATM   24  C14 UNL     1       3.844   2.291   0.784  1.00  0.00     0.015 A 
HETATM   25  C15 UNL     1       4.972   3.083   0.829  1.00  0.00     0.001 A 
HETATM   26  C16 UNL     1       6.127   2.638   0.176  1.00  0.00     0.003 A 
HETATM   27  C17 UNL     1       6.099   1.428  -0.488  1.00  0.00     0.037 A 
HETATM   28  C18 UNL     1       4.951   0.646  -0.521  1.00  0.00     0.079 A 
BRANCH  28  29
HETATM   29  O2  UNL     1       4.835  -0.579  -1.163  1.00  0.00    -0.355 OA
HETATM   30  C19 UNL     1       5.966  -1.094  -1.846  1.00  0.00     0.210 C 
ENDBRANCH  28  29
ENDBRANCH  20  23
ENDBRANCH  11  17
BRANCH   1  31
HETATM   31  B1  UNL     1      -4.756  -0.644  -3.091  1.00  0.00     0.247 B 
HETATM   32  H1  UNL     1      -5.849  -0.171  -3.255  1.00  0.00    -0.024 HD
HETATM   33  H2  UNL     1      -4.706  -1.802  -3.321  1.00  0.00    -0.024 HD
ENDBRANCH   1  31
BRANCH   1  34
HETATM   34  O1  UNL     1      -3.238   1.157  -2.626  1.00  0.00    -0.357 OA
HETATM   35  H3  UNL     1      -3.565   1.376  -3.556  1.00  0.00     0.213 HD
ENDBRANCH   1  34
TORSDOF 5
