REMARK  6 active torsions:
REMARK  status: ('A' for Active; 'I' for Inactive)
REMARK    1  A    between atoms: O1_2  and  C2_3 
REMARK    2  A    between atoms: C6_7  and  C7_8 
REMARK    3  A    between atoms: C18_20  and  C19_21 
REMARK    4  A    between atoms: C19_21  and  C20_22 
REMARK    5  A    between atoms: C20_22  and  C21_23 
REMARK    6  A    between atoms: C21_23  and  O3_25 
ROOT
HETATM    1  C7  UNL     1       2.107  -0.389   0.688  1.00  0.00    -0.035 C 
HETATM    2  C8  UNL     1       2.102  -1.222   1.682  1.00  0.00     0.052 C 
HETATM    3  C9  UNL     1       1.824  -2.150   2.674  1.00  0.00    -0.019 C 
HETATM    4  C10 UNL     1       0.983  -2.962   3.298  1.00  0.00    -0.001 C 
HETATM    5  C11 UNL     1      -0.375  -2.954   2.725  1.00  0.00     0.297 C 
HETATM    6  N1  UNL     1      -1.308  -2.511   3.755  1.00  0.00     0.090 N 
HETATM    7  C12 UNL     1      -2.647  -2.392   3.151  1.00  0.00     0.297 C 
HETATM    8  C13 UNL     1      -2.477  -1.274   2.184  1.00  0.00     0.005 C 
HETATM    9  C14 UNL     1      -2.589  -1.099   0.885  1.00  0.00     0.030 C 
HETATM   10  C15 UNL     1      -2.463  -0.133  -0.191  1.00  0.00     0.068 A 
HETATM   11  C16 UNL     1      -3.536   0.520  -0.730  1.00  0.00    -0.025 A 
HETATM   12  C17 UNL     1      -4.952   0.313  -0.320  1.00  0.00     0.051 C 
HETATM   13  C18 UNL     1      -2.949   1.354  -1.698  1.00  0.00    -0.031 A 
HETATM   14  C22 UNL     1      -1.596   1.106  -1.632  1.00  0.00     0.131 A 
HETATM   15  N2  UNL     1      -1.284   0.187  -0.702  1.00  0.00    -0.232 N 
HETATM   16  O4  UNL     1      -0.153  -0.438  -0.207  1.00  0.00    -0.269 OA
HETATM   17  C23 UNL     1       1.130   0.140  -0.363  1.00  0.00     0.237 C 
HETATM   18  H12 UNL     1      -1.026  -1.552   4.033  1.00  0.00     0.316 HD
ENDROOT
BRANCH   1  19
HETATM   19  C6  UNL     1       3.379   0.253   0.431  1.00  0.00    -0.028 A 
HETATM   20  C5  UNL     1       3.679   1.277  -0.374  1.00  0.00     0.012 A 
HETATM   21  C4  UNL     1       4.947   1.753  -0.640  1.00  0.00     0.004 A 
HETATM   22  C3  UNL     1       5.964   1.099  -0.005  1.00  0.00     0.037 A 
HETATM   23  C2  UNL     1       5.800   0.040   0.845  1.00  0.00     0.069 A 
HETATM   24  C24 UNL     1       4.503  -0.352   1.040  1.00  0.00     0.048 A 
BRANCH  23  25
HETATM   25  O1  UNL     1       6.855  -0.598   1.458  1.00  0.00    -0.356 OA
HETATM   26  C1  UNL     1       8.207  -0.348   1.359  1.00  0.00     0.210 C 
ENDBRANCH  23  25
ENDBRANCH   1  19
BRANCH  13  27
HETATM   27  C19 UNL     1      -3.726   2.295  -2.530  1.00  0.00     0.051 C 
BRANCH  27  28
HETATM   28  C20 UNL     1      -4.512   1.688  -3.641  1.00  0.00     0.114 C 
BRANCH  28  29
HETATM   29  C21 UNL     1      -5.249   2.757  -4.416  1.00  0.00     0.139 C 
HETATM   30  O2  UNL     1      -5.976   2.446  -5.421  1.00  0.00    -0.650 OA
BRANCH  29  31
HETATM   31  O3  UNL     1      -5.421   4.144  -4.391  1.00  0.00    -0.776 OA
HETATM   32  H24 UNL     1      -6.219   4.612  -3.971  1.00  0.00     0.167 HD
ENDBRANCH  29  31
ENDBRANCH  28  29
ENDBRANCH  27  28
ENDBRANCH  13  27
TORSDOF 6
