REMARK  9 active torsions:
REMARK  status: ('A' for Active; 'I' for Inactive)
REMARK    1  A    between atoms: C5_6  and  C6_7 
REMARK    2  A    between atoms: C7_8  and  C8_9 
REMARK    3  A    between atoms: C11_12  and  O1_13 
REMARK    4  A    between atoms: C15_17  and  C16_18 
REMARK    5  A    between atoms: C20_22  and  C21_23 
REMARK    6  A    between atoms: C21_23  and  C22_24 
REMARK    7  A    between atoms: C22_24  and  C23_25 
REMARK    8  A    between atoms: C23_25  and  O3_27 
REMARK    9  A    between atoms: N2_29  and  O4_30 
ROOT
HETATM    1  C1  UNL     1      -0.142  -1.243  -2.599  1.00  0.00     0.043 C 
HETATM    2  C2  UNL     1       0.879  -1.105  -1.846  1.00  0.00     0.029 C 
HETATM    3  N1  UNL     1       2.197  -1.205  -2.294  1.00  0.00    -0.386 N 
HETATM    4  C3  UNL     1       3.031  -1.125  -1.136  1.00  0.00     0.155 C 
HETATM    5  C4  UNL     1       2.142  -0.707  -0.035  1.00  0.00    -0.045 C 
HETATM    6  C5  UNL     1       2.805  -0.354   1.026  1.00  0.00     0.061 C 
HETATM    7  C14 UNL     1       0.716  -0.799  -0.444  1.00  0.00    -0.009 C 
HETATM    8  C15 UNL     1      -0.274  -0.620   0.447  1.00  0.00    -0.005 C 
HETATM    9  H3  UNL     1       2.601  -1.314  -3.221  1.00  0.00     0.160 HD
ENDROOT
BRANCH   8  10
HETATM   10  C16 UNL     1      -1.563  -0.801  -0.266  1.00  0.00     0.114 C 
HETATM   11  C17 UNL     1      -2.843  -0.714   0.179  1.00  0.00     0.051 C 
HETATM   12  C18 UNL     1      -3.918  -0.481   1.247  1.00  0.00     0.033 C 
HETATM   13  N2  UNL     1      -3.606  -1.016  -1.023  1.00  0.00    -0.266 N 
HETATM   14  C19 UNL     1      -4.810   0.632   0.809  1.00  0.00     0.038 C 
HETATM   15  C20 UNL     1      -5.546   0.294  -0.445  1.00  0.00    -0.062 C 
HETATM   16  C24 UNL     1      -4.935  -0.517  -1.325  1.00  0.00     0.120 C 
BRANCH  15  17
HETATM   17  C21 UNL     1      -6.872   0.901  -0.576  1.00  0.00     0.046 C 
BRANCH  17  18
HETATM   18  C22 UNL     1      -6.768   2.412  -0.543  1.00  0.00     0.114 C 
BRANCH  18  19
HETATM   19  C23 UNL     1      -8.116   3.004  -0.677  1.00  0.00     0.139 C 
HETATM   20  O2  UNL     1      -8.015   4.259  -0.637  1.00  0.00    -0.650 OA
BRANCH  19  21
HETATM   21  O3  UNL     1      -9.360   2.409  -0.828  1.00  0.00    -0.776 OA
HETATM   22  H26 UNL     1     -10.181   2.996  -0.660  1.00  0.00     0.167 HD
ENDBRANCH  19  21
ENDBRANCH  18  19
ENDBRANCH  17  18
ENDBRANCH  15  17
BRANCH  13  23
HETATM   23  O4  UNL     1      -3.276  -1.810  -2.093  1.00  0.00    -0.288 OA
HETATM   24  H28 UNL     1      -2.629  -2.471  -1.737  1.00  0.00     0.244 HD
ENDBRANCH  13  23
ENDBRANCH   8  10
BRANCH   6  25
HETATM   25  C6  UNL     1       2.954   0.123   2.387  1.00  0.00     0.004 C 
HETATM   26  C7  UNL     1       4.216   0.244   2.835  1.00  0.00    -0.018 C 
BRANCH  26  27
HETATM   27  C8  UNL     1       5.616   0.046   2.387  1.00  0.00    -0.056 A 
HETATM   28  C9  UNL     1       6.897   0.140   2.774  1.00  0.00     0.009 A 
HETATM   29  C10 UNL     1       7.732  -0.270   1.661  1.00  0.00     0.033 A 
HETATM   30  C11 UNL     1       6.990  -0.598   0.629  1.00  0.00     0.050 A 
HETATM   31  C13 UNL     1       5.551  -0.416   0.984  1.00  0.00     0.102 A 
BRANCH  30  32
HETATM   32  O1  UNL     1       7.558  -1.024  -0.538  1.00  0.00    -0.360 OA
HETATM   33  C12 UNL     1       8.145  -0.135  -1.460  1.00  0.00     0.209 C 
ENDBRANCH  30  32
ENDBRANCH  26  27
ENDBRANCH   6  25
TORSDOF 9
