REMARK  9 active torsions:
REMARK  status: ('A' for Active; 'I' for Inactive)
REMARK    1  A    between atoms: O1_2  and  C2_3 
REMARK    2  A    between atoms: C6_7  and  C7_8 
REMARK    3  A    between atoms: C16_19  and  C17_20 
REMARK    4  A    between atoms: C17_20  and  N2_21 
REMARK    5  A    between atoms: N2_21  and  C18_22 
REMARK    6  A    between atoms: C19_23  and  C20_24 
REMARK    7  A    between atoms: C20_24  and  C21_25 
REMARK    8  A    between atoms: C21_25  and  C22_26 
REMARK    9  A    between atoms: C22_26  and  O4_28 
ROOT
HETATM    1  C7  UNL     1       3.238  -0.126  -0.059  1.00  0.00    -0.024 A 
HETATM    2  C8  UNL     1       2.207   0.725  -0.405  1.00  0.00     0.013 A 
HETATM    3  C9  UNL     1       0.886   0.279  -0.355  1.00  0.00     0.015 A 
HETATM    4  C10 UNL     1       0.642  -1.031   0.048  1.00  0.00    -0.003 A 
HETATM    5  C11 UNL     1       1.668  -1.913   0.403  1.00  0.00     0.046 A 
HETATM    6  C12 UNL     1       2.955  -1.418   0.335  1.00  0.00     0.042 A 
HETATM    7  N1  UNL     1       1.363  -3.253   0.816  1.00  0.00    -0.326 N 
HETATM    8  C13 UNL     1       0.020  -3.743   0.882  1.00  0.00     0.226 C 
HETATM    9  O2  UNL     1      -0.030  -5.005   0.772  1.00  0.00    -0.273 OA
HETATM   10  C14 UNL     1      -0.967  -2.644   1.063  1.00  0.00     0.142 C 
HETATM   11  C15 UNL     1      -0.732  -1.537   0.110  1.00  0.00    -0.039 C 
HETATM   12  C16 UNL     1      -1.672  -1.013  -0.657  1.00  0.00     0.001 C 
HETATM   13  H10 UNL     1       2.235  -3.798   1.052  1.00  0.00     0.169 HD
ENDROOT
BRANCH  12  14
HETATM   14  C17 UNL     1      -3.114  -1.294  -0.822  1.00  0.00     0.147 C 
BRANCH  14  15
HETATM   15  N2  UNL     1      -3.840  -0.079  -0.493  1.00  0.00    -0.396 N 
HETATM   16  H16 UNL     1      -3.367   0.807  -0.197  1.00  0.00     0.159 HD
BRANCH  15  17
HETATM   17  C18 UNL     1      -5.229   0.092  -0.518  1.00  0.00     0.079 C 
HETATM   18  C19 UNL     1      -6.305   0.154   0.236  1.00  0.00    -0.009 C 
BRANCH  18  19
HETATM   19  C20 UNL     1      -7.671   0.371  -0.316  1.00  0.00     0.039 C 
BRANCH  19  20
HETATM   20  C21 UNL     1      -8.238   1.647   0.283  1.00  0.00     0.113 C 
BRANCH  20  21
HETATM   21  C22 UNL     1      -7.378   2.812  -0.058  1.00  0.00     0.139 C 
HETATM   22  O3  UNL     1      -6.343   2.654  -0.752  1.00  0.00    -0.650 OA
BRANCH  21  23
HETATM   23  O4  UNL     1      -7.790   4.040   0.432  1.00  0.00    -0.776 OA
HETATM   24  H23 UNL     1      -7.152   4.815   0.358  1.00  0.00     0.167 HD
ENDBRANCH  21  23
ENDBRANCH  20  21
ENDBRANCH  19  20
ENDBRANCH  18  19
ENDBRANCH  15  17
ENDBRANCH  14  15
ENDBRANCH  12  14
BRANCH   1  25
HETATM   25  C6  UNL     1       4.599   0.393  -0.130  1.00  0.00    -0.023 A 
HETATM   26  C5  UNL     1       4.815   1.346  -1.121  1.00  0.00     0.012 A 
HETATM   27  C4  UNL     1       6.081   1.900  -1.265  1.00  0.00     0.004 A 
HETATM   28  C3  UNL     1       7.093   1.500  -0.432  1.00  0.00     0.037 A 
HETATM   29  C2  UNL     1       6.900   0.559   0.554  1.00  0.00     0.069 A 
HETATM   30  C23 UNL     1       5.630  -0.004   0.707  1.00  0.00     0.049 A 
BRANCH  29  31
HETATM   31  O1  UNL     1       7.826   0.064   1.462  1.00  0.00    -0.356 OA
HETATM   32  C1  UNL     1       9.172   0.488   1.494  1.00  0.00     0.210 C 
ENDBRANCH  29  31
ENDBRANCH   1  25
TORSDOF 9
