REMARK  7 active torsions:
REMARK  status: ('A' for Active; 'I' for Inactive)
REMARK    1  A    between atoms: O1_2  and  C2_3 
REMARK    2  A    between atoms: C5_6  and  C6_7 
REMARK    3  A    between atoms: C7_8  and  C8_9 
REMARK    4  A    between atoms: C10_11  and  N1_12 
REMARK    5  A    between atoms: C14_17  and  C15_18 
REMARK    6  A    between atoms: C15_18  and  C16_19 
REMARK    7  A    between atoms: C16_19  and  C17_20 
ROOT
HETATM    1  C8  UNL     1      -0.262   1.469   1.049  1.00  0.00    -0.034 C 
HETATM    2  C9  UNL     1       0.068   2.682   0.625  1.00  0.00     0.006 C 
HETATM    3  C10 UNL     1       0.338   2.829  -0.642  1.00  0.00     0.015 C 
HETATM    4  C11 UNL     1      -0.433   1.690  -1.253  1.00  0.00     0.074 C 
HETATM    5  C12 UNL     1      -1.199   1.219  -0.066  1.00  0.00     0.019 C 
HETATM    6  C13 UNL     1      -2.450   2.065   0.025  1.00  0.00     0.164 C 
HETATM    7  N2  UNL     1      -3.361   1.336  -0.826  1.00  0.00    -0.297 NA
HETATM    8  C14 UNL     1      -3.002   0.112  -0.924  1.00  0.00     0.012 C 
HETATM    9  C18 UNL     1      -1.767  -0.140  -0.127  1.00  0.00     0.044 C 
HETATM   10  C19 UNL     1      -0.909  -1.218  -0.692  1.00  0.00     0.017 C 
ENDROOT
BRANCH   1  11
HETATM   11  C7  UNL     1       0.188   0.721   2.215  1.00  0.00     0.010 C 
HETATM   12  C6  UNL     1       1.125  -0.078   2.660  1.00  0.00     0.012 C 
BRANCH  12  13
HETATM   13  C5  UNL     1       2.264  -0.548   1.898  1.00  0.00    -0.036 A 
HETATM   14  C4  UNL     1       3.199  -1.398   2.484  1.00  0.00     0.014 A 
HETATM   15  C3  UNL     1       4.291  -1.859   1.779  1.00  0.00     0.037 A 
HETATM   16  C2  UNL     1       4.506  -1.494   0.453  1.00  0.00     0.068 A 
HETATM   17  C21 UNL     1       3.592  -0.652  -0.147  1.00  0.00     0.037 A 
HETATM   18  C20 UNL     1       2.513  -0.211   0.587  1.00  0.00     0.014 A 
BRANCH  16  19
HETATM   19  O1  UNL     1       5.637  -2.015  -0.162  1.00  0.00    -0.356 OA
HETATM   20  C1  UNL     1       5.896  -1.675  -1.500  1.00  0.00     0.210 C 
ENDBRANCH  16  19
ENDBRANCH  12  13
ENDBRANCH   1  11
BRANCH   3  21
HETATM   21  N1  UNL     1       1.202   3.933  -0.964  1.00  0.00    -0.402 N 
HETATM   22  H8  UNL     1       2.159   3.496  -0.908  1.00  0.00     0.156 HD
HETATM   23  H9  UNL     1       0.590   4.772  -1.140  1.00  0.00     0.156 HD
ENDBRANCH   3  21
BRANCH   8  24
HETATM   24  C15 UNL     1      -3.715  -0.946  -1.730  1.00  0.00     0.061 C 
BRANCH  24  25
HETATM   25  C16 UNL     1      -4.145  -2.045  -0.782  1.00  0.00     0.076 C 
BRANCH  25  26
HETATM   26  C17 UNL     1      -5.050  -1.417   0.217  1.00  0.00     0.117 A 
HETATM   27  O2  UNL     1      -5.331  -0.178   0.173  1.00  0.00    -0.194 OA
HETATM   28  O3  UNL     1      -5.903  -1.035   1.230  1.00  0.00     0.000 OA
HETATM   29  H18 UNL     1      -6.027  -1.684   2.005  1.00  0.00     0.000 HD
ENDBRANCH  25  26
ENDBRANCH  24  25
ENDBRANCH   8  24
TORSDOF 7
