REMARK  6 active torsions:
REMARK  status: ('A' for Active; 'I' for Inactive)
REMARK    1  A    between atoms: C3_3  and  O1_4 
REMARK    2  A    between atoms: C11_13  and  C12_14 
REMARK    3  A    between atoms: C15_17  and  C16_18 
REMARK    4  A    between atoms: C16_18  and  C17_19 
REMARK    5  A    between atoms: C17_19  and  C18_20 
REMARK    6  A    between atoms: C18_20  and  O3_22 
ROOT
HETATM    1  C1  UNL     1      -1.691   4.633  -1.727  1.00  0.00     0.020 C 
HETATM    2  C2  UNL     1      -1.369   3.527  -1.352  1.00  0.00    -0.050 C 
HETATM    3  C3  UNL     1      -0.973   2.221  -0.930  1.00  0.00     0.150 C 
HETATM    4  C5  UNL     1      -1.777   1.253  -1.220  1.00  0.00     0.106 C 
HETATM    5  N1  UNL     1      -3.059   1.204  -1.912  1.00  0.00    -0.256 NA
HETATM    6  C6  UNL     1      -3.473   0.237  -2.743  1.00  0.00     0.129 C 
HETATM    7  C7  UNL     1      -2.981  -1.188  -2.652  1.00  0.00    -0.017 C 
HETATM    8  C8  UNL     1      -2.697  -1.688  -1.401  1.00  0.00     0.013 C 
HETATM    9  C9  UNL     1      -1.912  -1.064  -0.269  1.00  0.00     0.012 C 
HETATM   10  C10 UNL     1      -1.191  -0.018  -0.784  1.00  0.00    -0.008 C 
HETATM   11  C11 UNL     1       0.310  -0.264  -1.037  1.00  0.00     0.147 C 
HETATM   12  C20 UNL     1       0.119  -1.551  -1.886  1.00  0.00     0.234 C 
HETATM   13  O4  UNL     1       0.119  -2.656  -2.402  1.00  0.00    -0.272 OA
HETATM   14  N2  UNL     1      -0.787  -1.391  -2.966  1.00  0.00    -0.336 N 
HETATM   15  C21 UNL     1      -1.508  -1.880  -4.080  1.00  0.00     0.092 C 
HETATM   16  C22 UNL     1      -2.867  -1.812  -4.010  1.00  0.00     0.030 C 
HETATM   17  H18 UNL     1      -1.161  -0.434  -3.148  1.00  0.00     0.168 HD
ENDROOT
BRANCH   3  18
HETATM   18  O1  UNL     1       0.219   2.146  -0.261  1.00  0.00    -0.345 OA
HETATM   19  C4  UNL     1       0.265   2.535   1.123  1.00  0.00     0.211 C 
ENDBRANCH   3  18
BRANCH  11  20
HETATM   20  C12 UNL     1       1.026  -0.669   0.137  1.00  0.00    -0.034 A 
HETATM   21  C13 UNL     1       2.212  -0.345   0.683  1.00  0.00    -0.048 A 
HETATM   22  C14 UNL     1       3.321   0.588   0.306  1.00  0.00     0.049 C 
HETATM   23  C15 UNL     1       1.932  -1.277   1.760  1.00  0.00    -0.051 A 
HETATM   24  C19 UNL     1       0.747  -1.601   1.215  1.00  0.00     0.016 A 
BRANCH  23  25
HETATM   25  C16 UNL     1       2.656  -1.715   2.984  1.00  0.00     0.049 C 
BRANCH  25  26
HETATM   26  C17 UNL     1       2.911  -0.535   3.906  1.00  0.00     0.114 C 
BRANCH  26  27
HETATM   27  C18 UNL     1       1.620   0.067   4.302  1.00  0.00     0.139 C 
HETATM   28  O2  UNL     1       0.667  -0.569   3.767  1.00  0.00    -0.650 OA
BRANCH  27  29
HETATM   29  O3  UNL     1       0.742   0.920   4.910  1.00  0.00    -0.776 OA
HETATM   30  H16 UNL     1       0.355   0.758   5.815  1.00  0.00     0.167 HD
ENDBRANCH  27  29
ENDBRANCH  26  27
ENDBRANCH  25  26
ENDBRANCH  23  25
ENDBRANCH  11  20
TORSDOF 6
