REMARK  7 active torsions:
REMARK  status: ('A' for Active; 'I' for Inactive)
REMARK    1  A    between atoms: O1_2  and  C2_3 
REMARK    2  A    between atoms: C5_6  and  C6_7 
REMARK    3  A    between atoms: C9_10  and  C10_11 
REMARK    4  A    between atoms: C10_11  and  C11_12 
REMARK    5  A    between atoms: C11_12  and  C12_13 
REMARK    6  A    between atoms: C12_13  and  C13_14 
REMARK    7  A    between atoms: C13_14  and  O3_16 
ROOT
HETATM    1  C6  UNL     1       1.081  -0.101   0.357  1.00  0.00    -0.025 C 
HETATM    2  C7  UNL     1       0.406   0.371  -0.661  1.00  0.00     0.013 C 
HETATM    3  C8  UNL     1      -0.983   0.754  -1.005  1.00  0.00     0.013 C 
HETATM    4  C9  UNL     1      -2.072   1.107  -0.295  1.00  0.00     0.010 C 
HETATM    5  C14 UNL     1      -2.244   1.270   1.167  1.00  0.00     0.251 C 
HETATM    6  O4  UNL     1      -3.087   2.217   1.368  1.00  0.00    -0.268 OA
HETATM    7  N1  UNL     1      -1.666   0.596   2.278  1.00  0.00    -0.333 N 
HETATM    8  C15 UNL     1      -0.495  -0.201   2.418  1.00  0.00     0.092 C 
HETATM    9  C16 UNL     1       0.559  -0.455   1.654  1.00  0.00     0.029 C 
HETATM   10  H15 UNL     1      -2.274   0.774   3.090  1.00  0.00     0.168 HD
ENDROOT
BRANCH   1  11
HETATM   11  C5  UNL     1       2.498  -0.302   0.149  1.00  0.00    -0.026 A 
HETATM   12  C4  UNL     1       3.164  -0.131  -1.037  1.00  0.00     0.015 A 
HETATM   13  C3  UNL     1       4.519  -0.322  -1.179  1.00  0.00     0.037 A 
HETATM   14  C2  UNL     1       5.327  -0.698  -0.164  1.00  0.00     0.068 A 
HETATM   15  C18 UNL     1       4.698  -0.888   1.078  1.00  0.00     0.037 A 
HETATM   16  C17 UNL     1       3.340  -0.683   1.164  1.00  0.00     0.015 A 
BRANCH  14  17
HETATM   17  O1  UNL     1       6.698  -0.888  -0.317  1.00  0.00    -0.356 OA
HETATM   18  C1  UNL     1       7.227  -0.657  -1.637  1.00  0.00     0.210 C 
ENDBRANCH  14  17
ENDBRANCH   1  11
BRANCH   4  19
HETATM   19  C10 UNL     1      -3.226   1.395  -1.148  1.00  0.00     0.044 C 
BRANCH  19  20
HETATM   20  C11 UNL     1      -4.407   0.518  -1.016  1.00  0.00     0.015 C 
BRANCH  20  21
HETATM   21  C12 UNL     1      -5.072   0.388   0.305  1.00  0.00     0.110 C 
BRANCH  21  22
HETATM   22  C13 UNL     1      -6.241  -0.560   0.072  1.00  0.00     0.139 C 
HETATM   23  O2  UNL     1      -7.106  -0.374  -0.840  1.00  0.00    -0.650 OA
BRANCH  22  24
HETATM   24  O3  UNL     1      -6.698  -1.747   0.654  1.00  0.00    -0.776 OA
HETATM   25  H14 UNL     1      -6.666  -2.640   0.142  1.00  0.00     0.167 HD
ENDBRANCH  22  24
ENDBRANCH  21  22
ENDBRANCH  20  21
ENDBRANCH  19  20
ENDBRANCH   4  19
TORSDOF 7
