REMARK  2 active torsions:
REMARK  status: ('A' for Active; 'I' for Inactive)
REMARK    1  A    between atoms: C3_3  and  C4_4 
REMARK    2  A    between atoms: C4_4  and  C5_5 
ROOT
HETATM    1  C5  UNL     1       0.827  -0.272  -0.302  1.00  0.00    -0.015 C 
HETATM    2  C6  UNL     1       0.059   0.643   0.489  1.00  0.00    -0.037 A 
HETATM    3  C7  UNL     1      -0.156   1.540   1.495  1.00  0.00     0.005 A 
HETATM    4  C8  UNL     1      -1.483   1.997   1.574  1.00  0.00    -0.014 A 
HETATM    5  C9  UNL     1      -2.199   1.408   0.594  1.00  0.00     0.005 A 
HETATM    6  C10 UNL     1      -2.364   0.590  -0.479  1.00  0.00     0.001 A 
HETATM    7  C11 UNL     1      -1.050   0.405  -0.209  1.00  0.00     0.044 A 
HETATM    8  C12 UNL     1      -0.435  -0.896  -0.661  1.00  0.00     0.270 C 
HETATM    9  N1  UNL     1      -0.898  -1.832   0.389  1.00  0.00     0.105 N 
HETATM   10  C13 UNL     1      -2.256  -2.165   0.273  1.00  0.00     0.266 C 
HETATM   11  C14 UNL     1      -3.194  -1.182   0.853  1.00  0.00     0.008 C 
HETATM   12  C15 UNL     1      -3.942  -0.131   1.305  1.00  0.00    -0.027 C 
HETATM   13  C16 UNL     1      -3.648   1.377   1.056  1.00  0.00     0.042 C 
HETATM   14  C17 UNL     1      -2.634  -2.294  -1.223  1.00  0.00     0.008 C 
HETATM   15  C18 UNL     1      -3.011  -1.175  -1.917  1.00  0.00    -0.027 C 
HETATM   16  C19 UNL     1      -3.405   0.220  -1.415  1.00  0.00     0.039 C 
HETATM   17  H8  UNL     1      -0.230  -2.599   0.537  1.00  0.00     0.318 HD
ENDROOT
BRANCH   1  18
HETATM   18  C4  UNL     1       2.095  -0.472  -0.596  1.00  0.00     0.039 C 
BRANCH  18  19
HETATM   19  C3  UNL     1       3.299   0.210  -0.207  1.00  0.00     0.038 C 
HETATM   20  C2  UNL     1       4.564  -0.055  -0.545  1.00  0.00     0.012 C 
HETATM   21  C1  UNL     1       4.979  -1.176  -1.445  1.00  0.00     0.054 C 
HETATM   22  C21 UNL     1       5.457   0.892   0.090  1.00  0.00     0.174 C 
HETATM   23  C20 UNL     1       4.643   1.372   1.266  1.00  0.00     0.203 C 
HETATM   24  O1  UNL     1       6.620   1.141  -0.366  1.00  0.00    -0.291 OA
HETATM   25  N2  UNL     1       3.308   1.368   0.643  1.00  0.00    -0.382 N 
HETATM   26  H18 UNL     1       2.599   2.099   0.839  1.00  0.00     0.160 HD
ENDBRANCH  18  19
ENDBRANCH   1  18
TORSDOF 2
