REMARK  3 active torsions:
REMARK  status: ('A' for Active; 'I' for Inactive)
REMARK    1  A    between atoms: O1_2  and  C2_3 
REMARK    2  A    between atoms: C5_6  and  C6_7 
REMARK    3  A    between atoms: C6_7  and  C7_8 
ROOT
HETATM    1  C7  UNL     1      -0.256  -0.664   1.177  1.00  0.00     0.009 C 
HETATM    2  C8  UNL     1      -1.378  -0.382   0.538  1.00  0.00     0.051 A 
HETATM    3  C9  UNL     1      -1.989  -1.217  -0.485  1.00  0.00     0.031 A 
HETATM    4  C10 UNL     1      -3.008  -1.336  -1.322  1.00  0.00     0.002 A 
HETATM    5  C11 UNL     1      -4.246  -0.726  -1.822  1.00  0.00     0.000 A 
HETATM    6  C12 UNL     1      -5.073   0.284  -1.743  1.00  0.00     0.000 A 
HETATM    7  C13 UNL     1      -5.459   1.539  -1.171  1.00  0.00     0.006 A 
HETATM    8  C14 UNL     1      -4.969   2.350  -0.253  1.00  0.00     0.084 A 
HETATM    9  C15 UNL     1      -3.780   2.363   0.637  1.00  0.00     0.304 A 
HETATM   10  O2  UNL     1      -3.213   3.050   1.527  1.00  0.00    -0.258 OA
HETATM   11  O3  UNL     1      -3.132   1.207   0.326  1.00  0.00    -0.195 OA
HETATM   12  N1  UNL     1      -1.980   0.863   0.944  1.00  0.00    -0.258 N 
HETATM   13  H15 UNL     1      -1.568   1.463   1.660  1.00  0.00     0.195 HD
ENDROOT
BRANCH   1  14
HETATM   14  C6  UNL     1       0.731  -1.770   1.152  1.00  0.00     0.068 C 
BRANCH  14  15
HETATM   15  C5  UNL     1       2.054  -1.157   0.767  1.00  0.00    -0.054 A 
HETATM   16  C4  UNL     1       2.833  -0.713   1.814  1.00  0.00     0.010 A 
HETATM   17  C3  UNL     1       4.079  -0.127   1.573  1.00  0.00     0.037 A 
HETATM   18  C2  UNL     1       4.477  -0.021   0.236  1.00  0.00     0.068 A 
HETATM   19  C17 UNL     1       3.669  -0.477  -0.772  1.00  0.00     0.037 A 
HETATM   20  C16 UNL     1       2.440  -1.054  -0.535  1.00  0.00     0.010 A 
BRANCH  18  21
HETATM   21  O1  UNL     1       5.722   0.571   0.099  1.00  0.00    -0.356 OA
HETATM   22  C1  UNL     1       6.368   0.804  -1.131  1.00  0.00     0.210 C 
ENDBRANCH  18  21
ENDBRANCH  14  15
ENDBRANCH   1  14
TORSDOF 3
