REMARK  4 active torsions:
REMARK  status: ('A' for Active; 'I' for Inactive)
REMARK    1  A    between atoms: C2_2  and  O1_3 
REMARK    2  A    between atoms: C2_2  and  C3_4 
REMARK    3  A    between atoms: C3_4  and  C4_5 
REMARK    4  A    between atoms: C4_5  and  C5_6 
ROOT
HETATM    1  C5  UNL     1       1.772   0.110  -0.328  1.00  0.00    -0.034 A 
HETATM    2  C6  UNL     1       1.123   1.329  -0.093  1.00  0.00     0.104 A 
HETATM    3  N1  UNL     1      -0.202   1.128   0.027  1.00  0.00    -0.332 N 
HETATM    4  C7  UNL     1      -1.035   2.155   0.259  1.00  0.00     0.096 C 
HETATM    5  C8  UNL     1      -1.786   2.421   1.383  1.00  0.00     0.018 C 
HETATM    6  C9  UNL     1      -2.176   1.527   2.357  1.00  0.00     0.001 C 
HETATM    7  C10 UNL     1      -3.318   0.797   2.286  1.00  0.00     0.001 C 
HETATM    8  C11 UNL     1      -4.040   0.867   1.143  1.00  0.00     0.010 C 
HETATM    9  C12 UNL     1      -3.826   0.467  -0.152  1.00  0.00    -0.025 C 
HETATM   10  C13 UNL     1      -2.871  -0.444  -0.549  1.00  0.00     0.042 C 
HETATM   11  C14 UNL     1      -1.639  -0.829  -0.081  1.00  0.00     0.048 C 
HETATM   12  C15 UNL     1      -0.455  -0.163  -0.118  1.00  0.00     0.045 A 
HETATM   13  C16 UNL     1       0.743  -0.805  -0.336  1.00  0.00    -0.027 A 
HETATM   14  C17 UNL     1       1.056  -2.260  -0.566  1.00  0.00     0.051 C 
HETATM   15  C18 UNL     1      -3.522  -1.008  -1.756  1.00  0.00     0.252 C 
HETATM   16  O2  UNL     1      -3.016  -1.922  -2.500  1.00  0.00    -0.268 OA
HETATM   17  N2  UNL     1      -4.811  -0.390  -1.988  1.00  0.00    -0.353 N 
HETATM   18  C19 UNL     1      -4.569   0.922  -1.357  1.00  0.00     0.162 C 
HETATM   19  H18 UNL     1      -5.561  -0.937  -2.497  1.00  0.00     0.163 HD
ENDROOT
BRANCH   1  20
HETATM   20  C4  UNL     1       3.233  -0.106  -0.519  1.00  0.00     0.047 C 
BRANCH  20  21
HETATM   21  C3  UNL     1       3.913  -0.689   0.675  1.00  0.00     0.068 C 
BRANCH  21  22
HETATM   22  C2  UNL     1       5.365  -0.837   0.305  1.00  0.00     0.034 C 
HETATM   23  C1  UNL     1       6.347  -0.237   0.957  1.00  0.00     0.045 C 
BRANCH  22  24
HETATM   24  O1  UNL     1       5.456  -1.680  -0.796  1.00  0.00    -0.366 OA
HETATM   25  H3  UNL     1       5.260  -2.671  -0.677  1.00  0.00     0.217 HD
ENDBRANCH  22  24
ENDBRANCH  21  22
ENDBRANCH  20  21
ENDBRANCH   1  20
TORSDOF 4
