REMARK  0 active torsions:
REMARK  status: ('A' for Active; 'I' for Inactive)
ROOT
HETATM    1  C1  UNL     1       1.673   2.414   1.046  1.00  0.00     0.018 C 
HETATM    2  C2  UNL     1       0.542   2.836   0.550  1.00  0.00    -0.002 C 
HETATM    3  C3  UNL     1      -0.795   2.941  -0.028  1.00  0.00     0.115 C 
HETATM    4  N1  UNL     1      -1.982   2.876  -0.537  1.00  0.00    -0.240 NA
HETATM    5  C4  UNL     1      -2.629   1.621  -0.774  1.00  0.00     0.181 A 
HETATM    6  N2  UNL     1      -3.955   1.516  -0.457  1.00  0.00    -0.220 NA
HETATM    7  C5  UNL     1      -4.544   0.283  -0.484  1.00  0.00     0.238 A 
HETATM    8  N3  UNL     1      -3.905  -0.855  -0.802  1.00  0.00    -0.215 NA
HETATM    9  C6  UNL     1      -2.584  -0.837  -1.128  1.00  0.00     0.202 A 
HETATM   10  C7  UNL     1      -1.993   0.452  -1.107  1.00  0.00     0.130 A 
HETATM   11  N4  UNL     1      -0.672   0.752  -1.653  1.00  0.00    -0.379 N 
HETATM   12  C8  UNL     1       0.362  -0.210  -1.971  1.00  0.00     0.161 C 
HETATM   13  C9  UNL     1       0.404  -1.252  -0.862  1.00  0.00    -0.006 A 
HETATM   14  C10 UNL     1       1.578  -1.151  -0.142  1.00  0.00     0.018 A 
HETATM   15  C11 UNL     1       1.695  -2.032   0.902  1.00  0.00    -0.057 A 
HETATM   16  C12 UNL     1       0.764  -2.962   1.233  1.00  0.00     0.010 A 
HETATM   17  C13 UNL     1      -0.390  -3.062   0.522  1.00  0.00     0.038 A 
HETATM   18  C14 UNL     1      -0.611  -2.189  -0.560  1.00  0.00     0.086 A 
HETATM   19  O1  UNL     1      -1.782  -2.060  -1.457  1.00  0.00    -0.289 OA
HETATM   20  C15 UNL     1       2.894  -1.542   1.587  1.00  0.00     0.044 C 
HETATM   21  C16 UNL     1       2.931   0.002   1.621  1.00  0.00     0.023 C 
HETATM   22  C17 UNL     1       2.442   1.232   1.399  1.00  0.00    -0.015 C 
HETATM   23  H5  UNL     1      -0.338   1.680  -1.906  1.00  0.00     0.160 HD
ENDROOT
TORSDOF 0
