REMARK  2 active torsions:
REMARK  status: ('A' for Active; 'I' for Inactive)
REMARK    1  A    between atoms: N1_2  and  C2_3 
REMARK    2  A    between atoms: C12_15  and  O3_16 
ROOT
HETATM    1  C2  UNL     1       1.259   3.761  -0.328  1.00  0.00     0.090 C 
HETATM    2  C3  UNL     1       0.881   2.519  -0.312  1.00  0.00    -0.031 C 
HETATM    3  C4  UNL     1       0.770   2.044   1.119  1.00  0.00     0.151 C 
HETATM    4  C5  UNL     1      -0.639   1.512   1.427  1.00  0.00     0.263 C 
HETATM    5  O1  UNL     1      -1.666   1.798   2.094  1.00  0.00    -0.265 OA
HETATM    6  O2  UNL     1      -1.194   0.423   0.960  1.00  0.00    -0.320 OA
HETATM    7  C6  UNL     1      -1.795  -0.644   0.529  1.00  0.00     0.191 C 
HETATM    8  C7  UNL     1      -0.959  -1.621  -0.404  1.00  0.00     0.064 C 
HETATM    9  C8  UNL     1      -1.987  -2.653  -0.730  1.00  0.00    -0.015 C 
HETATM   10  C9  UNL     1      -2.252  -3.841  -0.278  1.00  0.00    -0.003 C 
HETATM   11  C10 UNL     1      -1.617  -4.620   0.748  1.00  0.00    -0.001 C 
HETATM   12  C11 UNL     1      -0.445  -4.402   1.280  1.00  0.00     0.009 C 
HETATM   13  C12 UNL     1       0.595  -3.368   1.063  1.00  0.00     0.170 C 
HETATM   14  C13 UNL     1       0.130  -2.146   0.416  1.00  0.00    -0.041 C 
HETATM   15  C14 UNL     1       0.970  -1.128   0.625  1.00  0.00    -0.010 C 
HETATM   16  C15 UNL     1       0.324  -0.106  -0.133  1.00  0.00     0.049 C 
HETATM   17  C16 UNL     1       0.270   1.186  -0.500  1.00  0.00    -0.067 C 
HETATM   18  C17 UNL     1      -0.666   1.756  -1.460  1.00  0.00     0.044 C 
ENDROOT
BRANCH   1  19
HETATM   19  N1  UNL     1       1.407   4.345  -1.618  1.00  0.00    -0.403 N 
HETATM   20  C1  UNL     1       2.733   4.631  -2.129  1.00  0.00     0.145 C 
HETATM   21  H4  UNL     1       0.460   4.473  -1.996  1.00  0.00     0.158 HD
ENDBRANCH   1  19
BRANCH  13  22
HETATM   22  O3  UNL     1       1.700  -3.895   0.362  1.00  0.00    -0.387 OA
HETATM   23  H16 UNL     1       1.409  -4.075  -0.561  1.00  0.00     0.210 HD
ENDBRANCH  13  22
TORSDOF 2
