REMARK  3 active torsions:
REMARK  status: ('A' for Active; 'I' for Inactive)
REMARK    1  A    between atoms: C3_3  and  C4_4 
REMARK    2  A    between atoms: C4_4  and  C5_5 
REMARK    3  A    between atoms: C5_5  and  O2_7 
ROOT
HETATM    1  C1  UNL     1       1.213  -2.356  -0.534  1.00  0.00     0.019 C 
HETATM    2  C2  UNL     1       1.042  -0.848  -0.650  1.00  0.00     0.044 C 
HETATM    3  C3  UNL     1       2.310  -0.161  -0.236  1.00  0.00    -0.048 C 
HETATM    4  C6  UNL     1       2.530   0.375   0.949  1.00  0.00     0.087 C 
HETATM    5  N1  UNL     1       1.432   0.247   1.833  1.00  0.00    -0.395 N 
HETATM    6  C7  UNL     1       0.406  -0.767   1.538  1.00  0.00     0.155 C 
HETATM    7  C8  UNL     1      -0.110  -0.502   0.210  1.00  0.00    -0.038 C 
HETATM    8  C9  UNL     1      -1.254  -0.085  -0.287  1.00  0.00     0.049 A 
HETATM    9  C10 UNL     1      -1.466   0.060  -1.716  1.00  0.00     0.257 A 
HETATM   10  O3  UNL     1      -0.883  -0.092  -2.809  1.00  0.00    -0.267 OA
HETATM   11  N2  UNL     1      -2.790   0.537  -1.908  1.00  0.00    -0.322 N 
HETATM   12  C11 UNL     1      -3.457   0.710  -0.646  1.00  0.00     0.046 A 
HETATM   13  C12 UNL     1      -4.717   1.139  -0.260  1.00  0.00     0.030 A 
HETATM   14  C13 UNL     1      -5.075   1.206   1.059  1.00  0.00     0.002 A 
HETATM   15  C14 UNL     1      -4.158   0.836   2.012  1.00  0.00     0.001 A 
HETATM   16  C15 UNL     1      -2.919   0.415   1.598  1.00  0.00     0.015 A 
HETATM   17  C16 UNL     1      -2.519   0.333   0.288  1.00  0.00     0.007 A 
HETATM   18  H8  UNL     1       1.323   0.850   2.694  1.00  0.00     0.159 HD
HETATM   19  H11 UNL     1      -3.367   0.783  -2.772  1.00  0.00     0.169 HD
ENDROOT
BRANCH   3  20
HETATM   20  C4  UNL     1       3.399  -0.088  -1.259  1.00  0.00     0.148 C 
BRANCH  20  21
HETATM   21  C5  UNL     1       4.586   0.605  -0.757  1.00  0.00     0.274 C 
HETATM   22  O1  UNL     1       4.456   1.862  -0.582  1.00  0.00    -0.264 OA
BRANCH  21  23
HETATM   23  O2  UNL     1       5.900   0.362  -0.374  1.00  0.00    -0.236 OA
HETATM   24 BR1  UNL     1       7.006   1.768   0.225  1.00  0.00     0.109 Br
ENDBRANCH  21  23
ENDBRANCH  20  21
ENDBRANCH   3  20
TORSDOF 3
