REMARK  5 active torsions:
REMARK  status: ('A' for Active; 'I' for Inactive)
REMARK    1  A    between atoms: C3_3  and  C4_4 
REMARK    2  A    between atoms: C4_4  and  C5_5 
REMARK    3  A    between atoms: C5_5  and  C6_6 
REMARK    4  A    between atoms: C6_6  and  O2_8 
REMARK    5  A    between atoms: C9_11  and  C10_12 
ROOT
HETATM    1  C1  UNL     1      -3.430  -0.645   1.818  1.00  0.00     0.070 C 
HETATM    2  C2  UNL     1      -2.324  -0.169   0.959  1.00  0.00     0.031 C 
HETATM    3  C3  UNL     1      -2.646  -0.093  -0.344  1.00  0.00    -0.052 C 
HETATM    4  C7  UNL     1      -1.797   0.336  -1.468  1.00  0.00     0.066 C 
HETATM    5  C8  UNL     1      -0.360   0.242  -1.281  1.00  0.00     0.017 C 
HETATM    6  C9  UNL     1       0.487   0.404  -0.262  1.00  0.00     0.096 C 
HETATM    7  O4  UNL     1      -0.048   0.752   0.968  1.00  0.00    -0.238 OA
HETATM    8  N2  UNL     1      -1.081   0.140   1.624  1.00  0.00    -0.265 N 
HETATM    9  H18 UNL     1      -1.125  -0.172   2.634  1.00  0.00     0.194 HD
ENDROOT
BRANCH   6  10
HETATM   10  C10 UNL     1       1.915   0.212  -0.483  1.00  0.00     0.057 C 
HETATM   11  C11 UNL     1       2.901   0.317   0.354  1.00  0.00     0.047 A 
HETATM   12  C12 UNL     1       2.970   0.648   1.760  1.00  0.00     0.257 A 
HETATM   13  C18 UNL     1       4.313   0.092  -0.012  1.00  0.00     0.006 A 
HETATM   14  O3  UNL     1       2.013   0.920   2.506  1.00  0.00    -0.267 OA
HETATM   15  N1  UNL     1       4.309   0.637   2.257  1.00  0.00    -0.322 N 
HETATM   16  C13 UNL     1       5.072   0.289   1.113  1.00  0.00     0.046 A 
HETATM   17  H13 UNL     1       4.666   0.832   3.210  1.00  0.00     0.169 HD
HETATM   18  C14 UNL     1       6.456   0.123   0.985  1.00  0.00     0.030 A 
HETATM   19  C15 UNL     1       7.067  -0.216  -0.181  1.00  0.00     0.002 A 
HETATM   20  C16 UNL     1       6.312  -0.412  -1.305  1.00  0.00     0.001 A 
HETATM   21  C17 UNL     1       4.949  -0.253  -1.195  1.00  0.00     0.015 A 
ENDBRANCH   6  10
BRANCH   3  22
HETATM   22  C4  UNL     1      -4.027  -0.486  -0.731  1.00  0.00     0.047 C 
BRANCH  22  23
HETATM   23  C5  UNL     1      -4.808   0.621  -1.392  1.00  0.00     0.114 C 
BRANCH  23  24
HETATM   24  C6  UNL     1      -6.161   0.037  -1.704  1.00  0.00     0.139 C 
HETATM   25  O1  UNL     1      -7.067   0.703  -2.265  1.00  0.00    -0.650 OA
BRANCH  24  26
HETATM   26  O2  UNL     1      -6.606  -1.253  -1.441  1.00  0.00    -0.776 OA
HETATM   27  H8  UNL     1      -7.512  -1.452  -1.003  1.00  0.00     0.167 HD
ENDBRANCH  24  26
ENDBRANCH  23  24
ENDBRANCH  22  23
ENDBRANCH   3  22
TORSDOF 5
