REMARK  5 active torsions:
REMARK  status: ('A' for Active; 'I' for Inactive)
REMARK    1  A    between atoms: C3_3  and  C4_4 
REMARK    2  A    between atoms: C4_4  and  C5_5 
REMARK    3  A    between atoms: C5_5  and  C6_6 
REMARK    4  A    between atoms: C6_6  and  C7_7 
REMARK    5  A    between atoms: C7_7  and  O2_9 
ROOT
HETATM    1  C1  UNL     1       1.388  -4.082  -0.249  1.00  0.00     0.068 C 
HETATM    2  C2  UNL     1       0.595  -3.059   0.524  1.00  0.00     0.008 C 
HETATM    3  C3  UNL     1       0.427  -1.762   0.196  1.00  0.00    -0.027 C 
HETATM    4  C8  UNL     1      -0.346  -1.022   1.162  1.00  0.00    -0.016 C 
HETATM    5  C9  UNL     1      -1.136   0.004   1.241  1.00  0.00     0.053 A 
HETATM    6  C10 UNL     1      -1.701   0.381   2.563  1.00  0.00     0.257 A 
HETATM    7  O3  UNL     1      -1.670   0.017   3.785  1.00  0.00    -0.267 OA
HETATM    8  N1  UNL     1      -2.542   1.510   2.402  1.00  0.00    -0.322 N 
HETATM    9  C11 UNL     1      -2.575   1.913   1.044  1.00  0.00     0.046 A 
HETATM   10  C12 UNL     1      -3.220   2.914   0.352  1.00  0.00     0.030 A 
HETATM   11  C13 UNL     1      -3.059   3.049  -1.007  1.00  0.00     0.002 A 
HETATM   12  C14 UNL     1      -2.241   2.163  -1.656  1.00  0.00     0.001 A 
HETATM   13  C15 UNL     1      -1.622   1.186  -0.931  1.00  0.00     0.015 A 
HETATM   14  C16 UNL     1      -1.750   1.015   0.414  1.00  0.00     0.007 A 
HETATM   15  C17 UNL     1      -0.004  -1.937   2.316  1.00  0.00     0.160 C 
HETATM   16  N2  UNL     1      -0.121  -3.262   1.730  1.00  0.00    -0.389 N 
HETATM   17  H10 UNL     1      -3.111   2.064   3.094  1.00  0.00     0.169 HD
HETATM   18  H17 UNL     1      -0.554  -4.195   1.969  1.00  0.00     0.159 HD
ENDROOT
BRANCH   3  19
HETATM   19  C4  UNL     1       1.017  -1.135  -1.011  1.00  0.00     0.042 C 
BRANCH  19  20
HETATM   20  C5  UNL     1       1.729   0.163  -0.759  1.00  0.00     0.014 C 
BRANCH  20  21
HETATM   21  C6  UNL     1       2.264   0.666  -2.082  1.00  0.00     0.112 C 
BRANCH  21  22
HETATM   22  C7  UNL     1       2.982   1.945  -1.931  1.00  0.00     0.270 C 
HETATM   23  O1  UNL     1       3.482   2.477  -2.972  1.00  0.00    -0.264 OA
BRANCH  22  24
HETATM   24  O2  UNL     1       3.075   2.497  -0.668  1.00  0.00    -0.236 OA
HETATM   25 BR1  UNL     1       3.958   4.108  -0.358  1.00  0.00     0.109 Br
ENDBRANCH  22  24
ENDBRANCH  21  22
ENDBRANCH  20  21
ENDBRANCH  19  20
ENDBRANCH   3  19
TORSDOF 5
