REMARK  4 active torsions:
REMARK  status: ('A' for Active; 'I' for Inactive)
REMARK    1  A    between atoms: C3_3  and  C4_4 
REMARK    2  A    between atoms: C4_4  and  C5_5 
REMARK    3  A    between atoms: C5_5  and  C6_6 
REMARK    4  A    between atoms: C6_6  and  O2_8 
ROOT
HETATM    1  C1  UNL     1       2.450  -1.829   2.013  1.00  0.00     0.068 C 
HETATM    2  C2  UNL     1       1.536  -0.799   1.482  1.00  0.00     0.006 C 
HETATM    3  C3  UNL     1       2.072   0.134   0.710  1.00  0.00    -0.034 C 
HETATM    4  C7  UNL     1       1.462   1.292   0.052  1.00  0.00     0.215 C 
HETATM    5  O3  UNL     1       0.090   1.363   0.331  1.00  0.00    -0.316 OA
HETATM    6  C8  UNL     1      -0.759   2.324  -0.160  1.00  0.00     0.279 C 
HETATM    7  O4  UNL     1      -0.156   3.140  -0.902  1.00  0.00    -0.263 OA
HETATM    8  C9  UNL     1      -2.188   2.585   0.001  1.00  0.00     0.189 C 
HETATM    9  C10 UNL     1      -2.766   3.060  -1.311  1.00  0.00     0.059 C 
HETATM   10  C11 UNL     1      -2.848   1.816  -2.203  1.00  0.00    -0.017 C 
HETATM   11  C12 UNL     1      -3.040   0.937  -1.234  1.00  0.00    -0.029 C 
HETATM   12  C13 UNL     1      -4.107   1.252  -0.170  1.00  0.00     0.159 C 
HETATM   13  N1  UNL     1      -2.922   1.553   0.719  1.00  0.00    -0.177 NA
HETATM   14  O5  UNL     1      -2.282   0.337   0.709  1.00  0.00    -0.283 OA
HETATM   15  C14 UNL     1      -2.653  -0.342  -0.495  1.00  0.00     0.121 C 
HETATM   16  C15 UNL     1      -3.760  -1.293  -0.354  1.00  0.00     0.058 C 
HETATM   17  C16 UNL     1      -1.498  -1.021  -1.127  1.00  0.00     0.015 C 
HETATM   18  C17 UNL     1      -0.711  -1.663  -0.300  1.00  0.00    -0.003 C 
HETATM   19  C18 UNL     1      -0.681  -1.886   1.141  1.00  0.00     0.100 C 
HETATM   20  C19 UNL     1      -0.313  -3.311   1.435  1.00  0.00     0.036 C 
HETATM   21  N2  UNL     1       0.163  -0.915   1.843  1.00  0.00    -0.386 N 
HETATM   22  H26 UNL     1       0.275  -0.171   2.570  1.00  0.00     0.160 HD
ENDROOT
BRANCH   3  23
HETATM   23  C4  UNL     1       3.495   0.159   0.388  1.00  0.00     0.048 C 
BRANCH  23  24
HETATM   24  C5  UNL     1       3.828   0.078  -1.081  1.00  0.00     0.114 C 
BRANCH  24  25
HETATM   25  C6  UNL     1       5.333   0.118  -1.171  1.00  0.00     0.139 C 
HETATM   26  O1  UNL     1       6.126  -0.825  -0.914  1.00  0.00    -0.650 OA
BRANCH  25  27
HETATM   27  O2  UNL     1       6.283   1.069  -1.521  1.00  0.00    -0.776 OA
HETATM   28  H8  UNL     1       6.857   1.585  -0.900  1.00  0.00     0.167 HD
ENDBRANCH  25  27
ENDBRANCH  24  25
ENDBRANCH  23  24
ENDBRANCH   3  23
TORSDOF 4
