REMARK  4 active torsions:
REMARK  status: ('A' for Active; 'I' for Inactive)
REMARK    1  A    between atoms: C3_3  and  C4_4 
REMARK    2  A    between atoms: C4_4  and  C5_5 
REMARK    3  A    between atoms: C5_5  and  C6_6 
REMARK    4  A    between atoms: C6_6  and  O2_8 
ROOT
HETATM    1  C1  UNL     1       0.503  -1.030  -2.261  1.00  0.00     0.068 C 
HETATM    2  C2  UNL     1       0.737  -0.849  -0.777  1.00  0.00     0.005 C 
HETATM    3  C3  UNL     1       0.829   0.197   0.080  1.00  0.00    -0.058 C 
HETATM    4  C7  UNL     1       0.571   1.633   0.097  1.00  0.00     0.038 C 
HETATM    5  C8  UNL     1      -0.502   2.122  -0.797  1.00  0.00     0.030 C 
HETATM    6  C9  UNL     1      -1.934   1.861  -0.369  1.00  0.00     0.093 C 
HETATM    7  N1  UNL     1      -2.725   1.943  -1.563  1.00  0.00    -0.403 N 
HETATM    8  C10 UNL     1      -2.475   0.602  -1.617  1.00  0.00     0.077 A 
HETATM    9  C11 UNL     1      -2.224  -0.613  -1.072  1.00  0.00     0.091 A 
HETATM   10  C12 UNL     1      -2.008  -1.351   0.040  1.00  0.00     0.056 A 
HETATM   11  C13 UNL     1      -1.943  -1.170   1.387  1.00  0.00     0.030 A 
HETATM   12  C14 UNL     1      -2.186   0.139   1.056  1.00  0.00    -0.009 A 
HETATM   13  C15 UNL     1      -2.347   0.486  -0.255  1.00  0.00     0.038 A 
HETATM   14  O3  UNL     1      -1.729  -2.733  -0.274  1.00  0.00    -0.336 OA
HETATM   15  C16 UNL     1      -0.383  -3.116   0.186  1.00  0.00     0.297 C 
HETATM   16  N2  UNL     1       0.645  -2.266  -0.405  1.00  0.00    -0.372 N 
HETATM   17  H14 UNL     1      -3.315   2.336  -2.346  1.00  0.00     0.154 HD
HETATM   18  H20 UNL     1       1.551  -2.796  -0.605  1.00  0.00     0.161 HD
ENDROOT
BRANCH   3  19
HETATM   19  C4  UNL     1       1.119  -0.274   1.465  1.00  0.00     0.046 C 
BRANCH  19  20
HETATM   20  C5  UNL     1       2.506   0.020   1.968  1.00  0.00     0.114 C 
BRANCH  20  21
HETATM   21  C6  UNL     1       2.922   1.417   2.105  1.00  0.00     0.139 C 
HETATM   22  O1  UNL     1       2.747   2.684   2.043  1.00  0.00    -0.650 OA
BRANCH  21  23
HETATM   23  O2  UNL     1       4.225   1.408   2.546  1.00  0.00    -0.776 OA
HETATM   24  H8  UNL     1       4.774   2.174   2.826  1.00  0.00     0.167 HD
ENDBRANCH  21  23
ENDBRANCH  20  21
ENDBRANCH  19  20
ENDBRANCH   3  19
TORSDOF 4
