REMARK  12 active torsions:
REMARK  status: ('A' for Active; 'I' for Inactive)
REMARK    1  A    between atoms: B1_1  and  O1_2 
REMARK    2  A    between atoms: O1_2  and  C1_3 
REMARK    3  A    between atoms: C1_3  and  C2_4 
REMARK    4  A    between atoms: C1_3  and  C4_7 
REMARK    5  A    between atoms: C2_4  and  C3_5 
REMARK    6  A    between atoms: C7_11  and  C8_12 
REMARK    7  A    between atoms: C8_12  and  C9_13 
REMARK    8  A    between atoms: C9_13  and  C10_14 
REMARK    9  A    between atoms: C13_17  and  C14_18 
REMARK   10  A    between atoms: C14_18  and  C15_19 
REMARK   11  A    between atoms: C15_19  and  O3_21 
REMARK   12  A    between atoms: C17_23  and  O4_24 
ROOT
HETATM    1  C10 UNL     1      -1.358   0.463   0.028  1.00  0.00     0.030 C 
HETATM    2  C11 UNL     1      -2.179  -0.174  -0.795  1.00  0.00    -0.049 C 
HETATM    3  C12 UNL     1      -1.593  -0.562  -2.108  1.00  0.00     0.046 C 
HETATM    4  C13 UNL     1      -3.573  -0.554  -0.600  1.00  0.00     0.051 C 
HETATM    5  C16 UNL     1      -4.396   0.274   0.256  1.00  0.00     0.017 C 
HETATM    6  C17 UNL     1      -4.219   0.957   1.366  1.00  0.00     0.060 C 
HETATM    7  C19 UNL     1      -2.955   1.045   2.098  1.00  0.00     0.184 C 
HETATM    8  N2  UNL     1      -1.760   0.923   1.339  1.00  0.00    -0.384 N 
HETATM    9  H26 UNL     1      -0.976   1.286   1.959  1.00  0.00     0.160 HD
ENDROOT
BRANCH   1  10
HETATM   10  C9  UNL     1      -0.014   0.752  -0.327  1.00  0.00     0.026 C 
BRANCH  10  11
HETATM   11  C8  UNL     1       1.151   0.897  -0.872  1.00  0.00    -0.012 C 
BRANCH  11  12
HETATM   12  C7  UNL     1       2.529   1.201  -1.217  1.00  0.00     0.075 C 
HETATM   13  C5  UNL     1       3.386   0.042  -1.550  1.00  0.00     0.013 C 
HETATM   14  C4  UNL     1       4.297  -0.739  -0.991  1.00  0.00     0.032 C 
HETATM   15  N1  UNL     1       2.785   0.097  -2.863  1.00  0.00    -0.392 N 
HETATM   16  C6  UNL     1       2.752   1.535  -2.690  1.00  0.00     0.134 C 
HETATM   17  H7  UNL     1       2.510  -0.600  -3.587  1.00  0.00     0.159 HD
BRANCH  14  18
HETATM   18  C1  UNL     1       4.950  -0.857   0.319  1.00  0.00     0.148 C 
BRANCH  18  19
HETATM   19  O1  UNL     1       6.337  -0.916   0.231  1.00  0.00    -0.452 OA
BRANCH  19  20
HETATM   20  B1  UNL     1       6.794  -2.215   0.727  1.00  0.00     0.292 B 
HETATM   21  H1  UNL     1       6.192  -2.662   1.645  1.00  0.00     0.002 HD
HETATM   22  H2  UNL     1       7.396  -2.975   0.059  1.00  0.00     0.002 HD
ENDBRANCH  19  20
ENDBRANCH  18  19
BRANCH  18  23
HETATM   23  C2  UNL     1       4.602   0.250   1.240  1.00  0.00     0.019 C 
BRANCH  23  24
HETATM   24  C3  UNL     1       5.245   0.071   2.386  1.00  0.00     0.216 C 
HETATM   25 CL1  UNL     1       6.238  -0.491   3.720  1.00  0.00    -0.230 Cl
ENDBRANCH  23  24
ENDBRANCH  18  23
ENDBRANCH  14  18
ENDBRANCH  11  12
ENDBRANCH  10  11
ENDBRANCH   1  10
BRANCH   4  26
HETATM   26  C14 UNL     1      -3.771  -2.009  -0.175  1.00  0.00     0.123 C 
BRANCH  26  27
HETATM   27  C15 UNL     1      -3.109  -2.352   1.085  1.00  0.00     0.140 C 
HETATM   28  O2  UNL     1      -1.884  -2.175   1.293  1.00  0.00    -0.650 OA
BRANCH  27  29
HETATM   29  O3  UNL     1      -3.753  -2.912   2.200  1.00  0.00    -0.776 OA
HETATM   30  H19 UNL     1      -3.406  -2.689   3.151  1.00  0.00     0.167 HD
ENDBRANCH  27  29
ENDBRANCH  26  27
ENDBRANCH   4  26
BRANCH   6  31
HETATM   31  O4  UNL     1      -5.314   1.650   1.890  1.00  0.00    -0.359 OA
HETATM   32  C18 UNL     1      -5.727   2.796   1.156  1.00  0.00     0.209 C 
ENDBRANCH   6  31
TORSDOF 12
