REMARK  8 active torsions:
REMARK  status: ('A' for Active; 'I' for Inactive)
REMARK    1  A    between atoms: O1_2  and  C2_3 
REMARK    2  A    between atoms: C9_12  and  C10_13 
REMARK    3  A    between atoms: C11_14  and  N2_15 
REMARK    4  A    between atoms: N2_15  and  C12_16 
REMARK    5  A    between atoms: C13_17  and  C14_18 
REMARK    6  A    between atoms: C14_18  and  C15_19 
REMARK    7  A    between atoms: C15_19  and  C16_20 
REMARK    8  A    between atoms: C16_20  and  O4_22 
ROOT
HETATM    1  C2  UNL     1       5.076   0.090  -0.111  1.00  0.00     0.070 A 
HETATM    2  C3  UNL     1       4.072   1.001  -0.395  1.00  0.00     0.037 A 
HETATM    3  C4  UNL     1       2.768   0.508  -0.345  1.00  0.00     0.013 A 
HETATM    4  C5  UNL     1       2.481  -0.815  -0.030  1.00  0.00    -0.014 A 
HETATM    5  C6  UNL     1       3.524  -1.677   0.244  1.00  0.00     0.044 A 
HETATM    6  C7  UNL     1       4.838  -1.237   0.208  1.00  0.00     0.066 A 
HETATM    7  N1  UNL     1       2.964  -2.971   0.536  1.00  0.00    -0.326 N 
HETATM    8  C8  UNL     1       1.544  -2.896   0.438  1.00  0.00     0.234 A 
HETATM    9  O2  UNL     1       0.760  -3.864   0.636  1.00  0.00    -0.272 OA
HETATM   10  C9  UNL     1       1.165  -1.508   0.070  1.00  0.00     0.137 A 
HETATM   11  H7  UNL     1       3.476  -3.864   0.788  1.00  0.00     0.169 HD
ENDROOT
BRANCH  10  12
HETATM   12  C10 UNL     1       0.272  -0.874   1.072  1.00  0.00     0.009 C 
HETATM   13  C11 UNL     1      -0.788  -0.134   0.825  1.00  0.00     0.084 C 
BRANCH  13  14
HETATM   14  N2  UNL     1      -1.129   0.092  -0.538  1.00  0.00    -0.376 N 
HETATM   15  H11 UNL     1      -0.424   0.255  -1.290  1.00  0.00     0.164 HD
BRANCH  14  16
HETATM   16  C12 UNL     1      -2.551   0.064  -0.719  1.00  0.00     0.083 C 
HETATM   17  C13 UNL     1      -3.519   0.922  -0.436  1.00  0.00    -0.009 C 
BRANCH  17  18
HETATM   18  C14 UNL     1      -4.998   0.854  -0.641  1.00  0.00     0.039 C 
BRANCH  18  19
HETATM   19  C15 UNL     1      -5.739   0.959   0.672  1.00  0.00     0.113 C 
BRANCH  19  20
HETATM   20  C16 UNL     1      -7.195   0.877   0.315  1.00  0.00     0.139 C 
HETATM   21  O3  UNL     1      -7.544   0.747  -0.889  1.00  0.00    -0.650 OA
BRANCH  20  22
HETATM   22  O4  UNL     1      -8.248   0.932   1.226  1.00  0.00    -0.776 OA
HETATM   23  H18 UNL     1      -9.007   0.268   1.197  1.00  0.00     0.167 HD
ENDBRANCH  20  22
ENDBRANCH  19  20
ENDBRANCH  18  19
ENDBRANCH  17  18
ENDBRANCH  14  16
ENDBRANCH  13  14
ENDBRANCH  10  12
BRANCH   1  24
HETATM   24  O1  UNL     1       6.415   0.470  -0.131  1.00  0.00    -0.356 OA
HETATM   25  C1  UNL     1       6.868   1.760  -0.428  1.00  0.00     0.210 C 
ENDBRANCH   1  24
TORSDOF 8
