REMARK  8 active torsions:
REMARK  status: ('A' for Active; 'I' for Inactive)
REMARK    1  A    between atoms: C2_2  and  C3_3 
REMARK    2  A    between atoms: C3_3  and  C4_4 
REMARK    3  A    between atoms: C4_4  and  C5_5 
REMARK    4  A    between atoms: C5_5  and  C6_6 
REMARK    5  A    between atoms: C6_6  and  O2_8 
REMARK    6  A    between atoms: C7_9  and  C8_10 
REMARK    7  A    between atoms: C7_9  and  C9_12 
REMARK    8  A    between atoms: C14_18  and  O4_19 
ROOT
HETATM    1  C9  UNL     1       0.040  -0.234  -0.970  1.00  0.00    -0.025 C 
HETATM    2  C10 UNL     1       1.016   0.437  -1.487  1.00  0.00    -0.001 C 
HETATM    3  C11 UNL     1       1.779   1.641  -1.898  1.00  0.00     0.069 C 
HETATM    4  C12 UNL     1       2.737   1.963  -0.763  1.00  0.00     0.172 C 
HETATM    5  O3  UNL     1       1.996   2.309   0.385  1.00  0.00    -0.384 OA
HETATM    6  C13 UNL     1       2.789   1.903   1.500  1.00  0.00     0.231 C 
HETATM    7  C14 UNL     1       2.710   0.368   1.486  1.00  0.00     0.066 C 
HETATM    8  C16 UNL     1       1.996  -0.345   0.576  1.00  0.00     0.025 C 
HETATM    9  C17 UNL     1       1.213  -1.029  -0.427  1.00  0.00     0.119 C 
HETATM   10  C18 UNL     1       1.733  -0.751  -1.790  1.00  0.00     0.168 C 
HETATM   11  O5  UNL     1       2.448  -1.478  -2.552  1.00  0.00    -0.292 OA
ENDROOT
BRANCH   1  12
HETATM   12  C7  UNL     1      -1.418   0.041  -1.134  1.00  0.00    -0.034 C 
HETATM   13  C3  UNL     1      -2.410  -0.682  -0.570  1.00  0.00    -0.072 C 
BRANCH  13  14
HETATM   14  C2  UNL     1      -3.858  -0.540  -0.670  1.00  0.00     0.030 C 
HETATM   15  C1  UNL     1      -4.521  -1.826  -1.190  1.00  0.00     0.010 C 
ENDBRANCH  13  14
BRANCH  13  16
HETATM   16  C4  UNL     1      -2.242  -1.831   0.317  1.00  0.00     0.045 C 
BRANCH  16  17
HETATM   17  C5  UNL     1      -2.858  -1.562   1.660  1.00  0.00     0.114 C 
BRANCH  17  18
HETATM   18  C6  UNL     1      -2.202  -0.362   2.242  1.00  0.00     0.139 C 
HETATM   19  O1  UNL     1      -2.511   0.094   3.383  1.00  0.00    -0.650 OA
BRANCH  18  20
HETATM   20  O2  UNL     1      -1.230   0.554   1.908  1.00  0.00    -0.776 OA
HETATM   21  H10 UNL     1      -1.395   1.502   1.635  1.00  0.00     0.167 HD
ENDBRANCH  18  20
ENDBRANCH  17  18
ENDBRANCH  16  17
ENDBRANCH  13  16
BRANCH  12  22
HETATM   22  C8  UNL     1      -1.759   1.197  -2.017  1.00  0.00     0.154 C 
HETATM   23 CL1  UNL     1      -1.036   0.787  -3.608  1.00  0.00    -0.126 Cl
ENDBRANCH  12  22
ENDBRANCH   1  12
BRANCH   7  24
HETATM   24  O4  UNL     1       3.511   0.069   2.573  1.00  0.00    -0.358 OA
HETATM   25  C15 UNL     1       4.907   0.060   2.442  1.00  0.00     0.209 C 
ENDBRANCH   7  24
TORSDOF 8
