REMARK  4 active torsions:
REMARK  status: ('A' for Active; 'I' for Inactive)
REMARK    1  A    between atoms: O1_2  and  C2_3 
REMARK    2  A    between atoms: C2_3  and  C3_5 
REMARK    3  A    between atoms: C3_5  and  C4_6 
REMARK    4  A    between atoms: C12_17  and  O4_18 
ROOT
HETATM    1  C4  UNL     1       0.334  -0.562   0.408  1.00  0.00    -0.010 C 
HETATM    2  C5  UNL     1       0.800  -1.826   0.528  1.00  0.00     0.007 C 
HETATM    3  C6  UNL     1       2.116  -1.763   1.261  1.00  0.00     0.068 C 
HETATM    4  N1  UNL     1       0.571  -3.243   0.264  1.00  0.00    -0.390 N 
HETATM    5  C7  UNL     1      -0.339  -3.866  -0.717  1.00  0.00     0.148 C 
HETATM    6  C8  UNL     1      -1.116  -2.742  -1.421  1.00  0.00     0.010 C 
HETATM    7  C9  UNL     1      -1.467  -1.556  -0.817  1.00  0.00     0.039 C 
HETATM    8  C10 UNL     1      -1.071  -0.333  -1.666  1.00  0.00     0.253 C 
HETATM    9  O3  UNL     1      -0.561  -0.426  -2.858  1.00  0.00    -0.268 OA
HETATM   10  N2  UNL     1      -1.430   0.773  -0.784  1.00  0.00    -0.334 N 
HETATM   11  C11 UNL     1      -1.036  -0.011   0.361  1.00  0.00     0.136 A 
HETATM   12  C12 UNL     1      -1.305   0.817   1.566  1.00  0.00     0.083 A 
HETATM   13  C14 UNL     1      -2.287   0.307   2.279  1.00  0.00     0.036 A 
HETATM   14  C15 UNL     1      -2.759  -0.884   1.608  1.00  0.00     0.014 A 
HETATM   15  C16 UNL     1      -2.055  -1.081   0.472  1.00  0.00    -0.003 A 
HETATM   16  H9  UNL     1       1.121  -3.892   0.845  1.00  0.00     0.159 HD
HETATM   17  H13 UNL     1      -1.792   1.622  -1.260  1.00  0.00     0.164 HD
ENDROOT
BRANCH   1  18
HETATM   18  C3  UNL     1       1.378   0.496   0.347  1.00  0.00     0.150 C 
BRANCH  18  19
HETATM   19  C2  UNL     1       1.367   1.379  -0.800  1.00  0.00     0.262 C 
HETATM   20  O2  UNL     1       2.330   2.212  -0.643  1.00  0.00    -0.265 OA
BRANCH  19  21
HETATM   21  O1  UNL     1       1.066   1.997  -1.978  1.00  0.00    -0.326 OA
HETATM   22  C1  UNL     1       1.805   3.092  -2.443  1.00  0.00     0.213 C 
ENDBRANCH  19  21
ENDBRANCH  18  19
ENDBRANCH   1  18
BRANCH  12  23
HETATM   23  O4  UNL     1      -0.721   1.985   2.045  1.00  0.00    -0.357 OA
HETATM   24  C13 UNL     1      -0.813   3.243   1.445  1.00  0.00     0.209 C 
ENDBRANCH  12  23
TORSDOF 4
