REMARK  5 active torsions:
REMARK  status: ('A' for Active; 'I' for Inactive)
REMARK    1  A    between atoms: C6_6  and  O1_7 
REMARK    2  A    between atoms: C7_8  and  C8_9 
REMARK    3  A    between atoms: C7_8  and  C9_11 
REMARK    4  A    between atoms: C11_13  and  N1_14 
REMARK    5  A    between atoms: C16_19  and  C17_20 
ROOT
HETATM    1  C9  UNL     1      -1.102   0.271   0.557  1.00  0.00    -0.015 A 
HETATM    2  C10 UNL     1      -1.039   1.414   1.263  1.00  0.00     0.023 A 
HETATM    3  C11 UNL     1       0.317   1.994   1.454  1.00  0.00     0.275 A 
HETATM    4  C12 UNL     1       1.131   0.991   0.699  1.00  0.00    -0.004 A 
HETATM    5  C13 UNL     1       0.278   0.023   0.211  1.00  0.00    -0.018 A 
HETATM    6  C14 UNL     1       0.832  -1.013  -0.511  1.00  0.00     0.013 A 
HETATM    7  C15 UNL     1       2.194  -1.040  -0.716  1.00  0.00     0.013 A 
HETATM    8  C16 UNL     1       3.044  -0.052  -0.216  1.00  0.00    -0.019 A 
HETATM    9  C23 UNL     1       2.474   0.975   0.504  1.00  0.00    -0.041 A 
HETATM   10  C24 UNL     1       3.370   2.015   1.027  1.00  0.00     0.049 C 
ENDROOT
BRANCH   1  11
HETATM   11  C7  UNL     1      -2.355  -0.446   0.266  1.00  0.00     0.115 C 
HETATM   12  C6  UNL     1      -2.719  -0.505  -1.183  1.00  0.00     0.154 C 
HETATM   13  C5  UNL     1      -3.557  -1.745  -1.402  1.00  0.00     0.038 C 
HETATM   14  C4  UNL     1      -5.036  -1.459  -1.387  1.00  0.00     0.032 C 
HETATM   15  C3  UNL     1      -5.342  -0.363  -0.443  1.00  0.00    -0.003 C 
HETATM   16  C2  UNL     1      -4.836   0.379   0.531  1.00  0.00    -0.002 C 
HETATM   17  C1  UNL     1      -5.614   1.459   1.237  1.00  0.00     0.067 C 
HETATM   18  N2  UNL     1      -3.475   0.163   0.959  1.00  0.00    -0.376 N 
HETATM   19  H26 UNL     1      -3.280   0.514   1.944  1.00  0.00     0.160 HD
BRANCH  12  20
HETATM   20  O1  UNL     1      -1.699  -0.329  -2.076  1.00  0.00    -0.393 OA
HETATM   21  H10 UNL     1      -1.837  -0.976  -2.813  1.00  0.00     0.210 HD
ENDBRANCH  12  20
BRANCH  11  22
HETATM   22  C8  UNL     1      -2.236  -1.819   0.861  1.00  0.00     0.430 C 
HETATM   23  O2  UNL     1      -1.725  -2.919   0.966  1.00  0.00    -0.427 OA
ENDBRANCH  11  22
ENDBRANCH   1  11
BRANCH   3  24
HETATM   24  N1  UNL     1       0.636   1.835   2.863  1.00  0.00     0.090 N 
HETATM   25  H14 UNL     1       0.923   0.823   3.017  1.00  0.00     0.314 HD
HETATM   26  H15 UNL     1      -0.239   1.954   3.439  1.00  0.00     0.314 HD
ENDBRANCH   3  24
BRANCH   8  27
HETATM   27  C17 UNL     1       4.462  -0.218  -0.511  1.00  0.00    -0.025 A 
HETATM   28  C18 UNL     1       5.549  -0.095   0.325  1.00  0.00     0.012 A 
HETATM   29  C19 UNL     1       6.819  -0.287  -0.138  1.00  0.00     0.001 A 
HETATM   30  C20 UNL     1       7.102  -0.610  -1.447  1.00  0.00     0.000 A 
HETATM   31  C21 UNL     1       6.024  -0.737  -2.300  1.00  0.00     0.001 A 
HETATM   32  C22 UNL     1       4.748  -0.545  -1.839  1.00  0.00     0.012 A 
ENDBRANCH   8  27
TORSDOF 5
