REMARK  6 active torsions:
REMARK  status: ('A' for Active; 'I' for Inactive)
REMARK    1  A    between atoms: C3_3  and  C4_4 
REMARK    2  A    between atoms: C4_4  and  C5_5 
REMARK    3  A    between atoms: C5_5  and  C6_6 
REMARK    4  A    between atoms: C6_6  and  O2_8 
REMARK    5  A    between atoms: C9_11  and  C10_12 
REMARK    6  A    between atoms: C15_19  and  C16_20 
ROOT
HETATM    1  C10 UNL     1       0.270  -0.197  -0.332  1.00  0.00     0.047 C 
HETATM    2  C11 UNL     1      -0.697   0.357   0.310  1.00  0.00     0.046 A 
HETATM    3  C12 UNL     1      -0.735   1.268   1.434  1.00  0.00     0.257 A 
HETATM    4  O3  UNL     1       0.155   1.797   2.142  1.00  0.00    -0.267 OA
HETATM    5  N1  UNL     1      -2.041   1.650   1.831  1.00  0.00    -0.322 N 
HETATM    6  C13 UNL     1      -2.854   0.934   0.897  1.00  0.00     0.047 A 
HETATM    7  C14 UNL     1      -4.244   0.873   0.734  1.00  0.00     0.042 A 
HETATM    8  C15 UNL     1      -4.923   0.151  -0.202  1.00  0.00    -0.024 A 
HETATM    9  C22 UNL     1      -4.174  -0.598  -1.083  1.00  0.00     0.013 A 
HETATM   10  C23 UNL     1      -2.809  -0.563  -0.954  1.00  0.00     0.015 A 
HETATM   11  C24 UNL     1      -2.131   0.189   0.020  1.00  0.00     0.006 A 
HETATM   12  H13 UNL     1      -2.430   2.268   2.571  1.00  0.00     0.169 HD
ENDROOT
BRANCH   1  13
HETATM   13  C9  UNL     1       1.697  -0.251  -0.338  1.00  0.00     0.029 A 
HETATM   14  C8  UNL     1       2.358  -1.001  -1.236  1.00  0.00     0.007 A 
HETATM   15  C7  UNL     1       3.765  -1.226  -1.453  1.00  0.00     0.065 A 
HETATM   16  C3  UNL     1       4.609  -0.446  -0.482  1.00  0.00    -0.054 A 
HETATM   17  C2  UNL     1       4.093   0.329   0.456  1.00  0.00     0.008 A 
HETATM   18  C1  UNL     1       4.909   1.098   1.413  1.00  0.00     0.068 C 
HETATM   19  N2  UNL     1       2.676   0.375   0.465  1.00  0.00    -0.360 N 
HETATM   20  H22 UNL     1       2.311   0.984   1.199  1.00  0.00     0.166 HD
BRANCH  16  21
HETATM   21  C4  UNL     1       5.981  -0.747  -0.826  1.00  0.00     0.047 C 
BRANCH  21  22
HETATM   22  C5  UNL     1       7.087  -0.253   0.036  1.00  0.00     0.114 C 
BRANCH  22  23
HETATM   23  C6  UNL     1       8.402  -0.682  -0.624  1.00  0.00     0.139 C 
HETATM   24  O1  UNL     1       9.273   0.060  -1.121  1.00  0.00    -0.650 OA
BRANCH  23  25
HETATM   25  O2  UNL     1       8.511  -2.075  -0.597  1.00  0.00    -0.776 OA
HETATM   26  H8  UNL     1       9.272  -2.543  -1.113  1.00  0.00     0.167 HD
ENDBRANCH  23  25
ENDBRANCH  22  23
ENDBRANCH  21  22
ENDBRANCH  16  21
ENDBRANCH   1  13
BRANCH   8  27
HETATM   27  C16 UNL     1      -6.379   0.206  -0.236  1.00  0.00    -0.026 A 
HETATM   28  C17 UNL     1      -7.127   0.072  -1.393  1.00  0.00     0.012 A 
HETATM   29  C18 UNL     1      -8.500   0.139  -1.359  1.00  0.00     0.001 A 
HETATM   30  C19 UNL     1      -9.162   0.343  -0.155  1.00  0.00     0.000 A 
HETATM   31  C20 UNL     1      -8.445   0.481   1.017  1.00  0.00     0.001 A 
HETATM   32  C21 UNL     1      -7.072   0.407   0.935  1.00  0.00     0.012 A 
ENDBRANCH   8  27
TORSDOF 6
