REMARK  6 active torsions:
REMARK  status: ('A' for Active; 'I' for Inactive)
REMARK    1  A    between atoms: C2_2  and  C3_3 
REMARK    2  A    between atoms: C3_3  and  C4_4 
REMARK    3  A    between atoms: C4_4  and  C5_5 
REMARK    4  A    between atoms: C5_5  and  C6_6 
REMARK    5  A    between atoms: C12_15  and  C13_16 
REMARK    6  A    between atoms: C23_27  and  O3_28 
ROOT
HETATM    1  C3  UNL     1      -3.259  -0.358  -0.343  1.00  0.00     0.079 A 
HETATM    2  N1  UNL     1      -2.010  -1.021   0.139  1.00  0.00    -0.374 N 
HETATM    3  C7  UNL     1      -0.832  -0.238  -0.024  1.00  0.00     0.040 A 
HETATM    4  C8  UNL     1       0.321  -0.735   0.363  1.00  0.00     0.003 A 
HETATM    5  C9  UNL     1       1.618  -0.102   0.286  1.00  0.00     0.001 A 
HETATM    6  C10 UNL     1       2.124   1.106  -0.089  1.00  0.00     0.015 A 
HETATM    7  C11 UNL     1       3.444   1.490  -0.080  1.00  0.00     0.013 A 
HETATM    8  C12 UNL     1       4.361   0.572   0.349  1.00  0.00    -0.027 A 
HETATM    9  C18 UNL     1       3.952  -0.681   0.751  1.00  0.00     0.042 A 
HETATM   10  C19 UNL     1       2.610  -0.974   0.707  1.00  0.00     0.040 A 
HETATM   11  N2  UNL     1       1.985  -2.182   1.079  1.00  0.00    -0.381 N 
HETATM   12  C20 UNL     1       0.558  -2.075   0.952  1.00  0.00     0.114 A 
HETATM   13  C21 UNL     1       0.039  -3.081  -0.087  1.00  0.00     0.037 C 
HETATM   14  C22 UNL     1      -1.380   0.957  -0.634  1.00  0.00     0.064 A 
HETATM   15  C23 UNL     1      -2.691   0.909  -0.815  1.00  0.00     0.073 A 
HETATM   16  H11 UNL     1      -2.172  -1.975   0.534  1.00  0.00     0.161 HD
HETATM   17  H20 UNL     1       2.284  -3.118   1.417  1.00  0.00     0.160 HD
ENDROOT
BRANCH   1  18
HETATM   18  C2  UNL     1      -3.732  -1.246  -1.450  1.00  0.00     0.033 C 
HETATM   19  C1  UNL     1      -5.039  -0.907  -2.080  1.00  0.00     0.008 C 
ENDBRANCH   1  18
BRANCH   1  20
HETATM   20  C4  UNL     1      -4.103  -0.247   0.855  1.00  0.00     0.045 C 
BRANCH  20  21
HETATM   21  C5  UNL     1      -5.478   0.256   0.801  1.00  0.00     0.073 C 
BRANCH  21  22
HETATM   22  C6  UNL     1      -5.693   1.639   0.355  1.00  0.00     0.117 A 
HETATM   23  O1  UNL     1      -6.938   1.935   0.339  1.00  0.00    -0.194 OA
HETATM   24  O2  UNL     1      -5.894   2.932  -0.062  1.00  0.00     0.000 OA
HETATM   25  H10 UNL     1      -5.169   3.630   0.168  1.00  0.00     0.000 HD
ENDBRANCH  21  22
ENDBRANCH  20  21
ENDBRANCH   1  20
BRANCH  15  26
HETATM   26  O3  UNL     1      -3.357   1.982  -1.393  1.00  0.00    -0.362 OA
HETATM   27  H26 UNL     1      -3.243   2.309  -2.324  1.00  0.00     0.217 HD
ENDBRANCH  15  26
BRANCH   8  28
HETATM   28  C13 UNL     1       5.786   0.873   0.397  1.00  0.00    -0.044 A 
HETATM   29  C14 UNL     1       6.800   0.093   0.782  1.00  0.00     0.008 A 
HETATM   30  C15 UNL     1       8.050   0.828   0.659  1.00  0.00    -0.003 A 
HETATM   31  C16 UNL     1       7.829   2.034   0.210  1.00  0.00    -0.022 A 
HETATM   32  C17 UNL     1       6.379   2.194  -0.003  1.00  0.00     0.066 A 
ENDBRANCH   8  28
TORSDOF 6
