REMARK  3 active torsions:
REMARK  status: ('A' for Active; 'I' for Inactive)
REMARK    1  A    between atoms: N1_3  and  C3_4 
REMARK    2  A    between atoms: C13_16  and  C14_17 
REMARK    3  A    between atoms: C22_26  and  C23_27 
ROOT
HETATM    1  C3  UNL     1       2.502   0.269  -0.577  1.00  0.00     0.167 C 
HETATM    2  C4  UNL     1       2.147   1.131  -1.696  1.00  0.00     0.030 C 
HETATM    3  C5  UNL     1       0.999   1.628  -2.122  1.00  0.00     0.011 C 
HETATM    4  C6  UNL     1      -0.004   1.119  -1.182  1.00  0.00     0.072 C 
HETATM    5  C7  UNL     1      -1.151   2.179  -1.139  1.00  0.00     0.095 C 
HETATM    6  C8  UNL     1      -1.250   2.309  -2.578  1.00  0.00     0.227 C 
HETATM    7  O1  UNL     1      -2.064   2.378  -3.547  1.00  0.00    -0.273 OA
HETATM    8  N2  UNL     1       0.149   2.379  -2.973  1.00  0.00    -0.331 N 
HETATM    9  C9  UNL     1      -2.153   1.371  -0.428  1.00  0.00     0.009 A 
HETATM   10  C10 UNL     1      -1.631   1.159   0.814  1.00  0.00     0.006 A 
HETATM   11  C11 UNL     1      -1.063   1.983   1.943  1.00  0.00     0.022 C 
HETATM   12  C12 UNL     1      -1.809  -0.224   0.693  1.00  0.00    -0.036 A 
HETATM   13  C13 UNL     1      -1.351  -1.423   0.699  1.00  0.00     0.013 C 
HETATM   14  N3  UNL     1       0.070  -1.565   0.936  1.00  0.00    -0.359 N 
HETATM   15  C16 UNL     1       1.156  -1.867   0.028  1.00  0.00     0.041 A 
HETATM   16  C17 UNL     1       1.070  -3.231  -0.178  1.00  0.00     0.030 A 
HETATM   17  C18 UNL     1       1.918  -3.982  -1.009  1.00  0.00     0.002 A 
HETATM   18  C19 UNL     1       2.922  -3.303  -1.675  1.00  0.00     0.001 A 
HETATM   19  C20 UNL     1       2.969  -1.937  -1.435  1.00  0.00     0.012 A 
HETATM   20  C21 UNL     1       2.147  -1.141  -0.615  1.00  0.00    -0.003 A 
HETATM   21  C22 UNL     1      -3.006   0.566   0.454  1.00  0.00     0.090 A 
HETATM   22  H10 UNL     1       0.723   2.852  -3.747  1.00  0.00     0.168 HD
HETATM   23  H19 UNL     1       0.486  -1.448   1.903  1.00  0.00     0.166 HD
ENDROOT
BRANCH  21  24
HETATM   24  C23 UNL     1      -3.458   1.308   1.635  1.00  0.00     0.127 A 
HETATM   25  O2  UNL     1      -4.734   1.434   1.735  1.00  0.00    -0.193 OA
HETATM   26  O3  UNL     1      -3.995   1.999   2.728  1.00  0.00     0.000 OA
HETATM   27  H25 UNL     1      -3.432   2.155   3.573  1.00  0.00     0.000 HD
ENDBRANCH  21  24
BRANCH  13  28
HETATM   28  C14 UNL     1      -2.412  -2.467   0.441  1.00  0.00     0.053 C 
HETATM   29  C15 UNL     1      -2.178  -3.229  -0.827  1.00  0.00     0.011 C 
ENDBRANCH  13  28
BRANCH   1  30
HETATM   30  N1  UNL     1       2.315   0.877   0.738  1.00  0.00    -0.292 NA
HETATM   31  C2  UNL     1       3.070   1.746   1.241  1.00  0.00     0.080 C 
HETATM   32  C1  UNL     1       2.804   2.323   2.609  1.00  0.00     0.057 C 
ENDBRANCH   1  30
TORSDOF 3
