REMARK  8 active torsions:
REMARK  status: ('A' for Active; 'I' for Inactive)
REMARK    1  A    between atoms: N1_2  and  C2_3 
REMARK    2  A    between atoms: C2_3  and  C9_12 
REMARK    3  A    between atoms: C3_4  and  C5_6 
REMARK    4  A    between atoms: C5_6  and  C6_7 
REMARK    5  A    between atoms: C6_7  and  C7_8 
REMARK    6  A    between atoms: C7_8  and  C8_9 
REMARK    7  A    between atoms: C8_9  and  O2_11 
REMARK    8  A    between atoms: C13_17  and  C14_18 
ROOT
HETATM    1  C9  UNL     1      -0.474  -1.034   1.533  1.00  0.00     0.088 C 
HETATM    2  C10 UNL     1      -0.054  -2.464   1.395  1.00  0.00     0.135 C 
HETATM    3  N2  UNL     1       0.857  -2.408   0.263  1.00  0.00    -0.388 N 
HETATM    4  C11 UNL     1       1.618  -1.209   0.489  1.00  0.00     0.035 A 
HETATM    5  C12 UNL     1       2.908  -0.886   0.048  1.00  0.00     0.042 A 
HETATM    6  C13 UNL     1       3.441   0.346   0.397  1.00  0.00    -0.024 A 
HETATM    7  C20 UNL     1       2.679   1.219   1.172  1.00  0.00     0.013 A 
HETATM    8  C21 UNL     1       1.405   0.857   1.587  1.00  0.00     0.011 A 
HETATM    9  C22 UNL     1       0.842  -0.341   1.268  1.00  0.00    -0.020 A 
HETATM   10  H18 UNL     1       0.927  -3.095  -0.525  1.00  0.00     0.159 HD
ENDROOT
BRANCH   1  11
HETATM   11  C2  UNL     1      -1.444  -0.593   0.496  1.00  0.00     0.017 C 
HETATM   12  C3  UNL     1      -2.669  -0.243   0.753  1.00  0.00    -0.061 C 
HETATM   13  C4  UNL     1      -3.335  -0.207   2.082  1.00  0.00     0.045 C 
BRANCH  11  14
HETATM   14  N1  UNL     1      -0.888  -0.597  -0.829  1.00  0.00    -0.397 N 
HETATM   15  C1  UNL     1      -0.480   0.669  -1.395  1.00  0.00     0.146 C 
HETATM   16  H4  UNL     1      -0.767  -1.464  -1.395  1.00  0.00     0.158 HD
ENDBRANCH  11  14
BRANCH  12  17
HETATM   17  C5  UNL     1      -3.530   0.180  -0.407  1.00  0.00     0.036 C 
BRANCH  17  18
HETATM   18  C6  UNL     1      -4.716  -0.717  -0.576  1.00  0.00     0.015 C 
BRANCH  18  19
HETATM   19  C7  UNL     1      -5.577  -0.285  -1.742  1.00  0.00     0.110 C 
BRANCH  19  20
HETATM   20  C8  UNL     1      -6.111   1.088  -1.577  1.00  0.00     0.139 C 
HETATM   21  O1  UNL     1      -5.277   2.023  -1.767  1.00  0.00    -0.650 OA
BRANCH  20  22
HETATM   22  O2  UNL     1      -7.416   1.400  -1.241  1.00  0.00    -0.776 OA
HETATM   23  H14 UNL     1      -7.656   2.266  -0.767  1.00  0.00     0.167 HD
ENDBRANCH  20  22
ENDBRANCH  19  20
ENDBRANCH  18  19
ENDBRANCH  17  18
ENDBRANCH  12  17
ENDBRANCH   1  11
BRANCH   6  24
HETATM   24  C14 UNL     1       4.788   0.639  -0.095  1.00  0.00    -0.026 A 
HETATM   25  C15 UNL     1       5.144   0.089  -1.322  1.00  0.00     0.012 A 
HETATM   26  C16 UNL     1       6.393   0.299  -1.889  1.00  0.00     0.001 A 
HETATM   27  C17 UNL     1       7.332   1.075  -1.234  1.00  0.00     0.000 A 
HETATM   28  C18 UNL     1       6.983   1.621  -0.018  1.00  0.00     0.001 A 
HETATM   29  C19 UNL     1       5.745   1.419   0.552  1.00  0.00     0.012 A 
ENDBRANCH   6  24
TORSDOF 8
