REMARK  7 active torsions:
REMARK  status: ('A' for Active; 'I' for Inactive)
REMARK    1  A    between atoms: C8_9  and  C9_10 
REMARK    2  A    between atoms: C9_10  and  C10_11 
REMARK    3  A    between atoms: C10_11  and  C11_12 
REMARK    4  A    between atoms: C11_12  and  O2_14 
REMARK    5  A    between atoms: C13_16  and  C14_17 
REMARK    6  A    between atoms: C16_19  and  C19_22 
REMARK    7  A    between atoms: C18_21  and  C19_22 
ROOT
HETATM    1  C1  UNL     1       3.347  -2.701   1.474  1.00  0.00     0.045 C 
HETATM    2  C2  UNL     1       2.496  -2.205   0.372  1.00  0.00    -0.061 C 
HETATM    3  C3  UNL     1       1.297  -2.576   0.784  1.00  0.00     0.011 C 
HETATM    4  C4  UNL     1       0.333  -2.122  -0.302  1.00  0.00     0.059 C 
HETATM    5  C5  UNL     1       0.108  -0.786   0.318  1.00  0.00     0.038 C 
HETATM    6  C6  UNL     1      -0.894  -0.136  -0.540  1.00  0.00     0.141 C 
HETATM    7  N1  UNL     1      -0.172   0.419  -1.520  1.00  0.00    -0.295 NA
HETATM    8  C7  UNL     1       1.048   0.018  -1.850  1.00  0.00     0.089 C 
HETATM    9  C8  UNL     1       2.293  -0.758  -1.825  1.00  0.00     0.030 C 
HETATM   10  C12 UNL     1       2.981  -1.405  -0.764  1.00  0.00     0.045 C 
HETATM   11  C13 UNL     1      -1.851   0.134   0.475  1.00  0.00    -0.028 C 
HETATM   12  C21 UNL     1      -1.929  -0.580   1.659  1.00  0.00     0.011 C 
HETATM   13  C22 UNL     1      -1.529  -1.590   2.569  1.00  0.00     0.018 C 
HETATM   14  C23 UNL     1      -0.568  -2.436   2.395  1.00  0.00     0.088 C 
HETATM   15  N3  UNL     1       0.544  -3.173   1.829  1.00  0.00    -0.369 N 
HETATM   16  H27 UNL     1       1.176  -3.926   1.707  1.00  0.00     0.165 HD
ENDROOT
BRANCH  11  17
HETATM   17  C14 UNL     1      -2.910   1.127   0.325  1.00  0.00    -0.032 A 
HETATM   18  C15 UNL     1      -3.781   1.953   0.189  1.00  0.00     0.027 A 
HETATM   19  C16 UNL     1      -5.220   2.324  -0.294  1.00  0.00     0.034 A 
HETATM   20  C20 UNL     1      -2.876   3.149   0.811  1.00  0.00     0.131 A 
HETATM   21  C18 UNL     1      -4.768   0.971  -0.466  1.00  0.00     0.061 A 
HETATM   22  C19 UNL     1      -3.958   2.146   0.167  1.00  0.00     0.048 A 
HETATM   23  C17 UNL     1      -6.020   1.234  -0.900  1.00  0.00    -0.012 A 
HETATM   24  N2  UNL     1      -4.026   3.781   0.568  1.00  0.00    -0.408 N 
HETATM   25  H21 UNL     1      -4.827   4.241   0.405  1.00  0.00     0.154 HD
ENDBRANCH  11  17
BRANCH   9  26
HETATM   26  C9  UNL     1       3.294   0.273  -2.414  1.00  0.00     0.020 C 
BRANCH  26  27
HETATM   27  C10 UNL     1       3.394   1.576  -1.778  1.00  0.00     0.110 C 
BRANCH  27  28
HETATM   28  C11 UNL     1       3.763   1.626  -0.362  1.00  0.00     0.139 C 
HETATM   29  O1  UNL     1       4.086   1.190   0.800  1.00  0.00    -0.650 OA
BRANCH  28  30
HETATM   30  O2  UNL     1       3.799   2.977  -0.018  1.00  0.00    -0.776 OA
HETATM   31  H15 UNL     1       4.086   3.331   0.865  1.00  0.00     0.167 HD
ENDBRANCH  28  30
ENDBRANCH  27  28
ENDBRANCH  26  27
ENDBRANCH   9  26
TORSDOF 7
