REMARK  2 active torsions:
REMARK  status: ('A' for Active; 'I' for Inactive)
REMARK    1  A    between atoms: O1_2  and  C2_3 
REMARK    2  A    between atoms: C6_7  and  C7_8 
ROOT
HETATM    1  C7  UNL     1      -0.327  -0.141   0.498  1.00  0.00    -0.024 A 
HETATM    2  C8  UNL     1      -1.055  -0.882   1.413  1.00  0.00     0.013 A 
HETATM    3  C9  UNL     1      -2.435  -0.840   1.427  1.00  0.00     0.015 A 
HETATM    4  C10 UNL     1      -3.112  -0.053   0.521  1.00  0.00     0.007 A 
HETATM    5  C11 UNL     1      -2.387   0.696  -0.402  1.00  0.00     0.047 A 
HETATM    6  C12 UNL     1      -1.001   0.656  -0.419  1.00  0.00     0.042 A 
HETATM    7  N1  UNL     1      -3.250   1.447  -1.256  1.00  0.00    -0.322 N 
HETATM    8  C13 UNL     1      -4.614   1.183  -0.880  1.00  0.00     0.258 A 
HETATM    9  O2  UNL     1      -5.653   1.663  -1.402  1.00  0.00    -0.267 OA
HETATM   10  C14 UNL     1      -4.502   0.257   0.217  1.00  0.00     0.055 A 
HETATM   11  C15 UNL     1      -5.548  -0.238   0.853  1.00  0.00     0.102 C 
HETATM   12 CL1  UNL     1      -5.549  -1.363   2.190  1.00  0.00    -0.096 Cl
HETATM   13  H10 UNL     1      -2.956   2.086  -2.029  1.00  0.00     0.169 HD
ENDROOT
BRANCH   1  14
HETATM   14  C6  UNL     1       1.136  -0.191   0.490  1.00  0.00    -0.023 A 
HETATM   15  C5  UNL     1       1.759  -0.387   1.708  1.00  0.00     0.012 A 
HETATM   16  C4  UNL     1       3.130  -0.447   1.788  1.00  0.00     0.004 A 
HETATM   17  C3  UNL     1       3.925  -0.311   0.651  1.00  0.00     0.037 A 
HETATM   18  C2  UNL     1       3.299  -0.115  -0.565  1.00  0.00     0.069 A 
HETATM   19  C16 UNL     1       1.912  -0.054  -0.654  1.00  0.00     0.049 A 
BRANCH  18  20
HETATM   20  O1  UNL     1       3.929   0.039  -1.789  1.00  0.00    -0.356 OA
HETATM   21  C1  UNL     1       5.347   0.004  -1.891  1.00  0.00     0.210 C 
ENDBRANCH  18  20
ENDBRANCH   1  14
TORSDOF 2
