REMARK  3 active torsions:
REMARK  status: ('A' for Active; 'I' for Inactive)
REMARK    1  A    between atoms: C2_2  and  C3_3 
REMARK       I    between atoms: C3_3  and  N1_5 
REMARK    2  A    between atoms: N1_5  and  C4_6 
REMARK    3  A    between atoms: C14_19  and  C15_20 
ROOT
HETATM    1  C4  UNL     1       3.398   0.489   0.232  1.00  0.00     0.035 A 
HETATM    2  C5  UNL     1       3.408   1.706  -0.456  1.00  0.00     0.032 A 
HETATM    3  C6  UNL     1       2.221   2.186  -1.009  1.00  0.00     0.040 A 
HETATM    4  C7  UNL     1       1.081   1.419  -0.844  1.00  0.00     0.086 A 
HETATM    5  C8  UNL     1       1.047   0.215  -0.169  1.00  0.00    -0.004 A 
HETATM    6  C9  UNL     1       2.235  -0.240   0.370  1.00  0.00     0.041 A 
HETATM    7  C10 UNL     1       0.005  -0.753   0.134  1.00  0.00     0.161 C 
HETATM    8  N2  UNL     1      -1.329  -0.206   0.211  1.00  0.00    -0.380 N 
HETATM    9  C11 UNL     1      -1.912   0.707  -0.713  1.00  0.00     0.112 A 
HETATM   10  C12 UNL     1      -1.340   1.730  -1.463  1.00  0.00     0.200 A 
HETATM   11  N3  UNL     1      -2.063   2.504  -2.280  1.00  0.00    -0.215 NA
HETATM   12  C13 UNL     1      -3.386   2.259  -2.355  1.00  0.00     0.236 A 
HETATM   13  N4  UNL     1      -4.000   1.277  -1.648  1.00  0.00    -0.239 NA
HETATM   14  C14 UNL     1      -3.289   0.469  -0.807  1.00  0.00     0.099 A 
HETATM   15  O2  UNL     1       0.026   2.075  -1.465  1.00  0.00    -0.289 OA
HETATM   16  H10 UNL     1      -2.048  -0.412   0.971  1.00  0.00     0.160 HD
ENDROOT
BRANCH  14  17
HETATM   17  C15 UNL     1      -3.999  -0.571  -0.074  1.00  0.00    -0.004 A 
HETATM   18  C16 UNL     1      -5.156  -0.044   0.513  1.00  0.00     0.014 A 
HETATM   19  C17 UNL     1      -6.027  -0.817   1.260  1.00  0.00     0.002 A 
HETATM   20  C18 UNL     1      -5.742  -2.153   1.431  1.00  0.00     0.019 A 
HETATM   21  C19 UNL     1      -4.607  -2.685   0.859  1.00  0.00     0.011 A 
HETATM   22 BR1  UNL     1      -4.088  -4.513   1.012  1.00  0.00    -0.051 Br
HETATM   23  C20 UNL     1      -3.740  -1.922   0.117  1.00  0.00     0.033 A 
ENDBRANCH  14  17
BRANCH   1  24
HETATM   24  N1  UNL     1       4.690   0.159   0.724  1.00  0.00    -0.324 N 
HETATM   25  C3  UNL     1       5.640  -0.595  -0.016  1.00  0.00     0.241 C 
HETATM   26  O1  UNL     1       5.372  -1.015  -1.170  1.00  0.00    -0.269 OA
HETATM   27  H4  UNL     1       4.782   0.563   1.682  1.00  0.00     0.169 HD
BRANCH  25  28
HETATM   28  C2  UNL     1       6.854  -0.768   0.742  1.00  0.00     0.048 C 
HETATM   29  C1  UNL     1       7.185  -0.346   1.961  1.00  0.00     0.037 C 
ENDBRANCH  25  28
ENDBRANCH   1  24
TORSDOF 3
