REMARK  6 active torsions:
REMARK  status: ('A' for Active; 'I' for Inactive)
REMARK    1  A    between atoms: O1_2  and  C2_3 
REMARK    2  A    between atoms: C3_4  and  C4_5 
REMARK    3  A    between atoms: C4_5  and  C5_6 
REMARK    4  A    between atoms: C5_6  and  C6_7 
REMARK    5  A    between atoms: C6_7  and  C7_8 
REMARK    6  A    between atoms: C11_14  and  O3_15 
ROOT
HETATM    1  C2  UNL     1       1.233  -1.448   0.116  1.00  0.00     0.153 A 
HETATM    2  C3  UNL     1       1.973  -0.769  -0.867  1.00  0.00     0.001 A 
HETATM    3  C8  UNL     1       1.084  -0.028  -1.650  1.00  0.00    -0.024 A 
HETATM    4  C9  UNL     1       1.228   0.847  -2.838  1.00  0.00     0.051 C 
HETATM    5  C10 UNL     1      -0.119  -0.300  -1.094  1.00  0.00     0.046 A 
HETATM    6  N1  UNL     1      -0.122  -1.167  -0.005  1.00  0.00    -0.296 N 
HETATM    7  C11 UNL     1      -0.930  -1.871   0.942  1.00  0.00     0.251 C 
HETATM    8  C12 UNL     1      -2.157  -1.263   1.364  1.00  0.00     0.026 C 
HETATM    9  C13 UNL     1      -3.279  -0.738   1.806  1.00  0.00     0.000 C 
HETATM   10  C14 UNL     1      -4.503   0.057   1.901  1.00  0.00    -0.003 C 
HETATM   11  C15 UNL     1      -5.204   0.974   1.192  1.00  0.00    -0.009 C 
HETATM   12  C16 UNL     1      -4.617   1.368  -0.127  1.00  0.00     0.021 A 
HETATM   13  C17 UNL     1      -5.195   0.357  -0.809  1.00  0.00    -0.027 A 
HETATM   14  C18 UNL     1      -3.926   0.554  -1.229  1.00  0.00     0.046 A 
HETATM   15  C19 UNL     1      -3.170   1.496  -0.685  1.00  0.00     0.059 A 
HETATM   16  C20 UNL     1      -2.784   2.496   0.080  1.00  0.00     0.025 A 
HETATM   17  C21 UNL     1      -4.097   2.393   0.596  1.00  0.00     0.017 A 
HETATM   18  N2  UNL     1      -1.645   3.152   0.506  1.00  0.00    -0.326 N 
HETATM   19  C22 UNL     1      -0.728   2.295  -0.230  1.00  0.00     0.253 A 
HETATM   20  O4  UNL     1       0.483   2.447  -0.199  1.00  0.00    -0.268 OA
HETATM   21  C23 UNL     1      -1.687   1.413  -0.847  1.00  0.00     0.029 A 
HETATM   22  C24 UNL     1      -1.463   0.147  -1.308  1.00  0.00     0.044 C 
HETATM   23  H23 UNL     1      -1.676   3.961   1.138  1.00  0.00     0.169 HD
ENDROOT
BRANCH   2  24
HETATM   24  C4  UNL     1       3.418  -0.662  -1.221  1.00  0.00     0.044 C 
BRANCH  24  25
HETATM   25  C5  UNL     1       4.158   0.244  -0.272  1.00  0.00     0.011 C 
BRANCH  25  26
HETATM   26  C6  UNL     1       5.602   0.253  -0.764  1.00  0.00     0.069 C 
BRANCH  26  27
HETATM   27  C7  UNL     1       6.444   1.126   0.086  1.00  0.00     0.231 C 
HETATM   28  O2  UNL     1       5.486   1.406   0.821  1.00  0.00    -0.307 OA
ENDBRANCH  26  27
ENDBRANCH  25  26
ENDBRANCH  24  25
ENDBRANCH   2  24
BRANCH   1  29
HETATM   29  O1  UNL     1       2.129  -2.129   0.819  1.00  0.00    -0.340 OA
HETATM   30  C1  UNL     1       2.420  -2.957   1.813  1.00  0.00     0.211 C 
ENDBRANCH   1  29
BRANCH   7  31
HETATM   31  O3  UNL     1      -0.216  -2.310   2.079  1.00  0.00    -0.373 OA
HETATM   32  H15 UNL     1      -0.454  -3.238   2.241  1.00  0.00     0.212 HD
ENDBRANCH   7  31
TORSDOF 6
