REMARK  3 active torsions:
REMARK  status: ('A' for Active; 'I' for Inactive)
REMARK    1  A    between atoms: C10_13  and  C11_14 
REMARK    2  A    between atoms: C11_14  and  C12_15 
REMARK    3  A    between atoms: C12_15  and  O3_17 
ROOT
HETATM    1  C1  UNL     1      -4.091  -1.956   1.816  1.00  0.00     0.059 C 
HETATM    2  C2  UNL     1      -3.843  -0.675   1.675  1.00  0.00    -0.001 A 
HETATM    3  N1  UNL     1      -4.455   0.347   2.413  1.00  0.00    -0.330 N 
HETATM    4  C3  UNL     1      -3.931   1.529   1.826  1.00  0.00     0.252 A 
HETATM    5  O1  UNL     1      -4.265   2.692   2.242  1.00  0.00    -0.268 OA
HETATM    6  C4  UNL     1      -2.987   1.311   0.717  1.00  0.00     0.018 A 
HETATM    7  C5  UNL     1      -2.340   2.200  -0.026  1.00  0.00     0.006 C 
HETATM    8  C6  UNL     1      -1.520   1.417  -1.013  1.00  0.00     0.147 C 
HETATM    9  N2  UNL     1      -0.126   1.526  -0.705  1.00  0.00    -0.392 N 
HETATM   10  C7  UNL     1       1.017   0.858  -1.124  1.00  0.00    -0.010 C 
HETATM   11  C8  UNL     1       1.984   1.681  -1.491  1.00  0.00     0.058 C 
HETATM   12  C9  UNL     1       1.301  -0.644  -1.128  1.00  0.00     0.049 A 
HETATM   13  C10 UNL     1       2.537  -0.957  -1.781  1.00  0.00     0.027 A 
HETATM   14  C13 UNL     1       0.968  -1.164   0.255  1.00  0.00    -0.087 A 
HETATM   15  C14 UNL     1       2.058  -1.394  -0.192  1.00  0.00     0.041 A 
HETATM   16  C15 UNL     1      -0.215  -0.998   1.083  1.00  0.00     0.025 C 
HETATM   17  C16 UNL     1      -1.517  -0.649   1.201  1.00  0.00     0.014 C 
HETATM   18  C17 UNL     1      -2.869  -0.151   0.682  1.00  0.00     0.075 A 
HETATM   19  H3  UNL     1      -5.133   0.317   3.203  1.00  0.00     0.168 HD
HETATM   20  H7  UNL     1       0.112   2.285   0.012  1.00  0.00     0.159 HD
ENDROOT
BRANCH  13  21
HETATM   21  C11 UNL     1       3.876  -0.478  -1.513  1.00  0.00     0.111 C 
BRANCH  21  22
HETATM   22  C12 UNL     1       4.521  -0.685  -0.240  1.00  0.00     0.139 C 
HETATM   23  O2  UNL     1       5.223  -1.711   0.059  1.00  0.00    -0.650 OA
BRANCH  22  24
HETATM   24  O3  UNL     1       4.755  -0.165   1.023  1.00  0.00    -0.776 OA
HETATM   25  H15 UNL     1       5.549   0.429   1.217  1.00  0.00     0.167 HD
ENDBRANCH  22  24
ENDBRANCH  21  22
ENDBRANCH  13  21
TORSDOF 3
