REMARK  3 active torsions:
REMARK  status: ('A' for Active; 'I' for Inactive)
REMARK    1  A    between atoms: C6_6  and  O1_7 
REMARK    2  A    between atoms: C7_8  and  C9_10 
REMARK    3  A    between atoms: C15_18  and  C16_19 
ROOT
HETATM    1  C9  UNL     1      -1.087  -0.722  -0.795  1.00  0.00     0.004 A 
HETATM    2  C10 UNL     1      -0.796  -2.016  -1.018  1.00  0.00     0.086 A 
HETATM    3  C11 UNL     1       0.637  -2.242  -0.899  1.00  0.00     0.249 A 
HETATM    4  O2  UNL     1       1.120  -3.412  -1.075  1.00  0.00    -0.268 OA
HETATM    5  N1  UNL     1       1.223  -0.963  -0.578  1.00  0.00    -0.305 N 
HETATM    6  C12 UNL     1       0.172  -0.011  -0.510  1.00  0.00     0.047 A 
HETATM    7  C13 UNL     1       0.607   1.197  -0.222  1.00  0.00     0.031 A 
HETATM    8  C14 UNL     1       2.018   1.489  -0.003  1.00  0.00     0.012 A 
HETATM    9  C15 UNL     1       2.958   0.563  -0.079  1.00  0.00    -0.025 A 
HETATM   10  C22 UNL     1       2.655  -0.852  -0.376  1.00  0.00     0.123 A 
HETATM   11  C23 UNL     1       3.120  -1.775   0.733  1.00  0.00     0.038 C 
ENDROOT
BRANCH   1  12
HETATM   12  C7  UNL     1      -2.402  -0.026  -0.808  1.00  0.00     0.082 C 
HETATM   13  C6  UNL     1      -3.453  -1.081  -1.186  1.00  0.00     0.151 C 
HETATM   14  C5  UNL     1      -3.653  -2.049  -0.070  1.00  0.00     0.038 C 
HETATM   15  C4  UNL     1      -4.997  -1.704   0.549  1.00  0.00     0.032 C 
HETATM   16  C3  UNL     1      -4.941  -0.361   1.152  1.00  0.00    -0.003 C 
HETATM   17  C2  UNL     1      -4.002   0.601   1.146  1.00  0.00    -0.002 C 
HETATM   18  C1  UNL     1      -4.257   1.894   1.877  1.00  0.00     0.067 C 
HETATM   19  N2  UNL     1      -2.715   0.541   0.492  1.00  0.00    -0.378 N 
HETATM   20  H26 UNL     1      -1.958   0.971   1.071  1.00  0.00     0.160 HD
HETATM   21  C8  UNL     1      -2.478   1.027  -1.893  1.00  0.00     0.046 C 
BRANCH  13  22
HETATM   22  O1  UNL     1      -4.629  -0.473  -1.606  1.00  0.00    -0.393 OA
HETATM   23  H10 UNL     1      -4.835   0.380  -1.195  1.00  0.00     0.210 HD
ENDBRANCH  13  22
ENDBRANCH   1  12
BRANCH   9  24
HETATM   24  C16 UNL     1       4.339   0.944   0.151  1.00  0.00    -0.028 A 
HETATM   25  C17 UNL     1       4.769   2.204   0.487  1.00  0.00     0.012 A 
HETATM   26  C18 UNL     1       6.075   2.588   0.699  1.00  0.00     0.001 A 
HETATM   27  C19 UNL     1       7.058   1.634   0.567  1.00  0.00     0.000 A 
HETATM   28  C20 UNL     1       6.702   0.349   0.232  1.00  0.00     0.001 A 
HETATM   29  C21 UNL     1       5.374   0.033   0.034  1.00  0.00     0.012 A 
ENDBRANCH   9  24
TORSDOF 3
