REMARK  4 active torsions:
REMARK  status: ('A' for Active; 'I' for Inactive)
REMARK    1  A    between atoms: C17_18  and  C18_19 
REMARK    2  A    between atoms: C18_19  and  C19_20 
REMARK    3  A    between atoms: C19_20  and  C20_21 
REMARK    4  A    between atoms: C20_21  and  O2_23 
ROOT
HETATM    1  C1  UNL     1       0.001   4.910   1.462  1.00  0.00     0.011 C 
HETATM    2  C2  UNL     1      -0.203   3.406   1.195  1.00  0.00    -0.042 C 
HETATM    3  C3  UNL     1      -1.053   2.350   1.055  1.00  0.00     0.054 C 
HETATM    4  C4  UNL     1      -2.559   2.359   1.161  1.00  0.00    -0.008 C 
HETATM    5  C5  UNL     1      -2.982   1.088   0.945  1.00  0.00     0.012 C 
HETATM    6  C6  UNL     1      -2.234  -0.182   0.645  1.00  0.00     0.100 C 
HETATM    7  C7  UNL     1      -3.030  -0.863  -0.394  1.00  0.00     0.013 C 
HETATM    8  C8  UNL     1      -2.849  -1.518  -1.548  1.00  0.00    -0.001 C 
HETATM    9  C9  UNL     1      -1.717  -1.895  -2.375  1.00  0.00     0.033 C 
HETATM   10  C10 UNL     1      -0.355  -1.604  -1.796  1.00  0.00     0.044 C 
HETATM   11  C11 UNL     1      -0.121  -2.365  -0.541  1.00  0.00    -0.031 A 
HETATM   12  C12 UNL     1      -0.912  -3.443  -0.200  1.00  0.00     0.009 A 
HETATM   13  C13 UNL     1      -0.684  -4.149   0.961  1.00  0.00     0.001 A 
HETATM   14  C14 UNL     1       0.325  -3.842   1.849  1.00  0.00     0.002 A 
HETATM   15  C15 UNL     1       1.090  -2.746   1.452  1.00  0.00     0.030 A 
HETATM   16  C16 UNL     1       0.906  -2.003   0.304  1.00  0.00     0.038 A 
HETATM   17  N1  UNL     1       1.735  -0.894  -0.005  1.00  0.00    -0.359 N 
HETATM   18  C17 UNL     1       1.730   0.525   0.046  1.00  0.00     0.006 C 
HETATM   19  C21 UNL     1       1.306   1.498   0.829  1.00  0.00    -0.002 C 
HETATM   20  C22 UNL     1       1.201   2.940   1.061  1.00  0.00     0.034 C 
HETATM   21  N2  UNL     1      -4.367  -0.715   0.132  1.00  0.00    -0.327 N 
HETATM   22  C23 UNL     1      -4.323   0.470   0.941  1.00  0.00     0.252 C 
HETATM   23  O3  UNL     1      -5.332   0.934   1.583  1.00  0.00    -0.268 OA
HETATM   24  H17 UNL     1       2.505  -1.449  -0.334  1.00  0.00     0.166 HD
HETATM   25  H26 UNL     1      -5.259  -1.278   0.023  1.00  0.00     0.169 HD
ENDROOT
BRANCH  18  26
HETATM   26  C18 UNL     1       2.356   1.093  -1.143  1.00  0.00     0.067 C 
BRANCH  26  27
HETATM   27  C19 UNL     1       3.841   1.002  -1.248  1.00  0.00     0.116 C 
BRANCH  27  28
HETATM   28  C20 UNL     1       4.469  -0.299  -1.235  1.00  0.00     0.139 C 
HETATM   29  O1  UNL     1       5.040  -0.697  -0.160  1.00  0.00    -0.650 OA
BRANCH  28  30
HETATM   30  O2  UNL     1       4.955  -1.554  -1.559  1.00  0.00    -0.776 OA
HETATM   31  H22 UNL     1       5.388  -1.712  -2.459  1.00  0.00     0.167 HD
ENDBRANCH  28  30
ENDBRANCH  27  28
ENDBRANCH  26  27
ENDBRANCH  18  26
TORSDOF 4
