REMARK  4 active torsions:
REMARK  status: ('A' for Active; 'I' for Inactive)
REMARK    1  A    between atoms: O1_2  and  C2_3 
REMARK    2  A    between atoms: C2_3  and  C3_4 
REMARK    3  A    between atoms: C4_5  and  C5_6 
REMARK    4  A    between atoms: C13_17  and  C14_18 
ROOT
HETATM    1  C5  UNL     1      -0.585  -0.030  -0.091  1.00  0.00    -0.036 C 
HETATM    2  C6  UNL     1      -0.903   0.367  -1.310  1.00  0.00     0.010 C 
HETATM    3  C7  UNL     1      -2.197   0.420  -2.073  1.00  0.00     0.197 C 
HETATM    4  O2  UNL     1      -3.158  -0.388  -1.521  1.00  0.00    -0.368 OA
HETATM    5  C8  UNL     1      -3.716   0.079  -0.341  1.00  0.00     0.242 C 
HETATM    6  C9  UNL     1      -5.079  -0.472  -0.107  1.00  0.00     0.178 C 
HETATM    7  O3  UNL     1      -5.992  -0.550  -0.913  1.00  0.00    -0.293 OA
HETATM    8  C10 UNL     1      -5.191  -0.940   1.313  1.00  0.00     0.201 C 
HETATM    9  N1  UNL     1      -3.801  -1.095   1.745  1.00  0.00    -0.384 N 
HETATM   10  C11 UNL     1      -2.934  -0.536   0.766  1.00  0.00     0.043 C 
HETATM   11  C12 UNL     1      -1.611  -0.546   0.809  1.00  0.00     0.039 C 
HETATM   12  H12 UNL     1      -3.528  -1.553   2.643  1.00  0.00     0.160 HD
ENDROOT
BRANCH   1  13
HETATM   13  C4  UNL     1       0.745   0.011   0.436  1.00  0.00     0.014 C 
HETATM   14  C3  UNL     1       1.861   0.421  -0.134  1.00  0.00     0.037 C 
BRANCH  14  15
HETATM   15  C2  UNL     1       3.204   0.432   0.479  1.00  0.00     0.068 C 
HETATM   16  C13 UNL     1       4.268   0.862  -0.172  1.00  0.00     0.035 C 
BRANCH  15  17
HETATM   17  O1  UNL     1       3.207  -0.052   1.782  1.00  0.00    -0.356 OA
HETATM   18  C1  UNL     1       3.412  -1.425   2.026  1.00  0.00     0.210 C 
ENDBRANCH  15  17
BRANCH  16  19
HETATM   19  C14 UNL     1       4.408   1.393  -1.535  1.00  0.00     0.015 C 
HETATM   20  C15 UNL     1       5.578   1.781  -2.020  1.00  0.00     0.441 C 
HETATM   21  F1  UNL     1       5.594   2.250  -3.274  1.00  0.00    -0.452 F 
ENDBRANCH  16  19
ENDBRANCH  14  15
ENDBRANCH   1  13
TORSDOF 4
