REMARK  3 active torsions:
REMARK  status: ('A' for Active; 'I' for Inactive)
REMARK    1  A    between atoms: C18_21  and  C19_22 
REMARK    2  A    between atoms: C19_22  and  C20_23 
REMARK    3  A    between atoms: C20_23  and  O3_25 
ROOT
HETATM    1  C1  UNL     1      -1.769   1.625  -1.153  1.00  0.00     0.049 C 
HETATM    2  C2  UNL     1      -0.976   0.432  -0.644  1.00  0.00    -0.052 C 
HETATM    3  C3  UNL     1      -0.009   0.492  -1.540  1.00  0.00    -0.068 C 
HETATM    4  C4  UNL     1       1.218  -0.416  -1.747  1.00  0.00     0.055 C 
HETATM    5  C5  UNL     1       2.084  -1.487  -1.522  1.00  0.00     0.267 A 
HETATM    6  N1  UNL     1       1.905  -2.575  -0.459  1.00  0.00    -0.343 N 
HETATM    7  C6  UNL     1       3.338  -2.717  -0.690  1.00  0.00     0.229 A 
HETATM    8  O1  UNL     1       3.545  -1.861  -1.542  1.00  0.00    -0.320 OA
HETATM    9  C7  UNL     1       0.487  -2.542  -0.069  1.00  0.00     0.078 C 
HETATM   10  C8  UNL     1       0.706  -1.522   0.743  1.00  0.00     0.108 A 
HETATM   11  C9  UNL     1       0.016  -0.631   1.649  1.00  0.00    -0.052 A 
HETATM   12  C10 UNL     1       1.271  -0.813   1.292  1.00  0.00     0.158 A 
HETATM   13  S1  UNL     1       2.213   0.418   2.211  1.00  0.00    -0.257 SA
HETATM   14  C11 UNL     1       2.737   1.630   0.917  1.00  0.00     0.104 C 
HETATM   15  C12 UNL     1       2.913   2.398  -0.153  1.00  0.00    -0.015 C 
HETATM   16  C13 UNL     1       1.843   1.950  -1.078  1.00  0.00     0.021 C 
HETATM   17  C14 UNL     1       1.471   2.305  -2.331  1.00  0.00     0.003 C 
HETATM   18  C15 UNL     1       0.269   1.417  -2.642  1.00  0.00     0.040 C 
HETATM   19  C16 UNL     1      -1.378  -0.350   1.802  1.00  0.00    -0.051 C 
HETATM   20  C17 UNL     1      -1.354  -0.833   3.151  1.00  0.00     0.049 C 
HETATM   21  C18 UNL     1      -1.660   0.145   0.611  1.00  0.00    -0.036 C 
ENDROOT
BRANCH  21  22
HETATM   22  C19 UNL     1      -3.145   0.278   0.618  1.00  0.00     0.149 C 
BRANCH  22  23
HETATM   23  C20 UNL     1      -3.866  -0.699   1.479  1.00  0.00     0.143 C 
HETATM   24  O2  UNL     1      -3.893  -1.661   2.299  1.00  0.00    -0.650 OA
BRANCH  23  25
HETATM   25  O3  UNL     1      -5.224  -0.454   1.324  1.00  0.00    -0.776 OA
HETATM   26  H21 UNL     1      -5.977  -0.871   1.797  1.00  0.00     0.167 HD
ENDBRANCH  23  25
ENDBRANCH  22  23
ENDBRANCH  21  22
TORSDOF 3
