REMARK  5 active torsions:
REMARK  status: ('A' for Active; 'I' for Inactive)
REMARK    1  A    between atoms: O1_2  and  C2_3 
REMARK    2  A    between atoms: C10_11  and  C11_12 
REMARK    3  A    between atoms: C11_12  and  C12_13 
REMARK    4  A    between atoms: C12_13  and  C13_14 
REMARK    5  A    between atoms: C13_14  and  O3_16 
ROOT
HETATM    1  C2  UNL     1      -1.258   2.412  -0.192  1.00  0.00     0.064 C 
HETATM    2  C3  UNL     1      -1.786   1.808  -1.261  1.00  0.00     0.010 C 
HETATM    3  C4  UNL     1      -1.944   0.663  -2.145  1.00  0.00     0.032 C 
HETATM    4  C5  UNL     1      -2.277  -0.656  -1.585  1.00  0.00     0.032 C 
HETATM    5  C6  UNL     1      -1.451  -1.340  -0.602  1.00  0.00     0.216 A 
HETATM    6  C7  UNL     1      -0.088  -1.661  -0.780  1.00  0.00     0.028 C 
HETATM    7  C8  UNL     1       0.643  -1.851   0.351  1.00  0.00    -0.050 C 
HETATM    8  C9  UNL     1       0.609  -3.043   1.210  1.00  0.00     0.046 C 
HETATM    9  C10 UNL     1       1.516  -0.690   0.425  1.00  0.00    -0.006 C 
HETATM   10  C14 UNL     1       2.758  -1.509   0.072  1.00  0.00     0.034 C 
HETATM   11  C15 UNL     1       2.371  -2.192  -1.255  1.00  0.00     0.120 C 
HETATM   12  N1  UNL     1       0.986  -1.920  -1.693  1.00  0.00    -0.392 N 
HETATM   13  C16 UNL     1       1.262  -0.033   1.635  1.00  0.00     0.024 C 
HETATM   14  C17 UNL     1       0.521   1.318   1.513  1.00  0.00    -0.018 C 
HETATM   15  C18 UNL     1      -0.317   2.143   0.908  1.00  0.00     0.033 C 
HETATM   16  C19 UNL     1       0.569  -0.459   2.877  1.00  0.00     0.037 C 
HETATM   17  C20 UNL     1      -0.921  -0.624   2.777  1.00  0.00    -0.014 C 
HETATM   18  C21 UNL     1      -2.018  -0.748   2.018  1.00  0.00     0.059 C 
HETATM   19  N2  UNL     1      -1.638  -0.726   0.700  1.00  0.00    -0.258 NA
HETATM   20  C22 UNL     1      -2.109  -2.122   0.628  1.00  0.00     0.400 A 
HETATM   21  O4  UNL     1      -2.630  -2.942   1.456  1.00  0.00    -0.425 OA
HETATM   22  H22 UNL     1       0.464  -1.838  -2.623  1.00  0.00     0.159 HD
ENDROOT
BRANCH   9  23
HETATM   23  C11 UNL     1       1.668   0.269  -0.713  1.00  0.00     0.025 C 
BRANCH  23  24
HETATM   24  C12 UNL     1       2.646   1.379  -0.361  1.00  0.00     0.111 C 
BRANCH  24  25
HETATM   25  C13 UNL     1       2.735   2.332  -1.539  1.00  0.00     0.139 C 
HETATM   26  O2  UNL     1       3.518   3.300  -1.355  1.00  0.00    -0.650 OA
BRANCH  25  27
HETATM   27  O3  UNL     1       2.051   2.221  -2.744  1.00  0.00    -0.776 OA
HETATM   28  H17 UNL     1       1.824   3.047  -3.309  1.00  0.00     0.167 HD
ENDBRANCH  25  27
ENDBRANCH  24  25
ENDBRANCH  23  24
ENDBRANCH   9  23
BRANCH   1  29
HETATM   29  O1  UNL     1      -1.741   3.750  -0.053  1.00  0.00    -0.356 OA
HETATM   30  C1  UNL     1      -3.099   3.855   0.323  1.00  0.00     0.210 C 
ENDBRANCH   1  29
TORSDOF 5
