REMARK  7 active torsions:
REMARK  status: ('A' for Active; 'I' for Inactive)
REMARK    1  A    between atoms: O1_2  and  C2_3 
REMARK    2  A    between atoms: C2_3  and  C3_5 
REMARK    3  A    between atoms: C3_5  and  C4_6 
REMARK    4  A    between atoms: C4_6  and  C5_7 
REMARK    5  A    between atoms: C5_7  and  C6_8 
REMARK    6  A    between atoms: C6_8  and  C7_9 
REMARK    7  A    between atoms: C7_9  and  O3_11 
ROOT
HETATM    1  C5  UNL     1      -0.813   0.400   0.309  1.00  0.00     0.008 C 
HETATM    2  C10 UNL     1      -1.704   0.865   1.405  1.00  0.00     0.134 C 
HETATM    3  N1  UNL     1      -1.016   2.120   1.759  1.00  0.00    -0.388 N 
HETATM    4  C11 UNL     1      -0.705   2.746   0.500  1.00  0.00     0.035 A 
HETATM    5  C12 UNL     1      -0.552   4.081   0.186  1.00  0.00     0.029 A 
HETATM    6  C13 UNL     1      -0.247   4.386  -1.141  1.00  0.00     0.002 A 
HETATM    7  C14 UNL     1      -0.109   3.380  -2.082  1.00  0.00     0.001 A 
HETATM    8  C15 UNL     1      -0.272   2.045  -1.720  1.00  0.00     0.010 A 
HETATM    9  C16 UNL     1      -0.575   1.706  -0.410  1.00  0.00    -0.021 A 
HETATM   10  H19 UNL     1      -0.795   2.487   2.708  1.00  0.00     0.159 HD
ENDROOT
BRANCH   1  11
HETATM   11  C4  UNL     1       0.514  -0.001   0.908  1.00  0.00     0.026 C 
BRANCH  11  12
HETATM   12  C3  UNL     1       1.545  -0.206  -0.159  1.00  0.00     0.112 C 
BRANCH  12  13
HETATM   13  C2  UNL     1       2.846  -0.596   0.449  1.00  0.00     0.258 C 
HETATM   14  O2  UNL     1       2.982  -0.718   1.707  1.00  0.00    -0.265 OA
BRANCH  13  15
HETATM   15  O1  UNL     1       3.872  -0.810  -0.460  1.00  0.00    -0.326 OA
HETATM   16  C1  UNL     1       5.148  -1.184   0.005  1.00  0.00     0.213 C 
ENDBRANCH  13  15
ENDBRANCH  12  13
ENDBRANCH  11  12
ENDBRANCH   1  11
BRANCH   1  17
HETATM   17  C6  UNL     1      -1.349  -0.622  -0.623  1.00  0.00     0.047 C 
BRANCH  17  18
HETATM   18  C7  UNL     1      -1.603  -1.979  -0.060  1.00  0.00     0.117 C 
HETATM   19  C8  UNL     1      -2.603  -2.004   1.071  1.00  0.00     0.039 C 
BRANCH  18  20
HETATM   20  O3  UNL     1      -2.219  -2.691  -1.119  1.00  0.00    -0.391 OA
HETATM   21  C9  UNL     1      -1.470  -3.808  -1.467  1.00  0.00     0.202 C 
ENDBRANCH  18  20
ENDBRANCH  17  18
ENDBRANCH   1  17
TORSDOF 7
