REMARK  7 active torsions:
REMARK  status: ('A' for Active; 'I' for Inactive)
REMARK    1  A    between atoms: O1_2  and  C2_3 
REMARK    2  A    between atoms: C5_6  and  C6_7 
REMARK    3  A    between atoms: C12_14  and  N1_15 
REMARK    4  A    between atoms: C15_18  and  C16_19 
REMARK    5  A    between atoms: C16_19  and  C17_20 
REMARK    6  A    between atoms: C17_20  and  C18_21 
REMARK    7  A    between atoms: C18_21  and  O4_23 
ROOT
HETATM    1  C6  UNL     1      -1.400  -0.882   0.006  1.00  0.00    -0.011 A 
HETATM    2  C7  UNL     1      -0.725  -1.981   0.562  1.00  0.00     0.008 A 
HETATM    3  C8  UNL     1       0.123  -2.765  -0.285  1.00  0.00    -0.011 A 
HETATM    4  C9  UNL     1      -0.049  -2.125  -1.425  1.00  0.00     0.042 A 
HETATM    5  C10 UNL     1      -0.376  -1.347  -2.407  1.00  0.00     0.031 A 
HETATM    6  C11 UNL     1      -1.004  -0.923  -1.277  1.00  0.00     0.121 A 
HETATM    7  O2  UNL     1      -1.405   0.161  -2.017  1.00  0.00    -0.317 OA
HETATM    8  C12 UNL     1      -0.152   0.949  -2.050  1.00  0.00     0.143 C 
HETATM    9  C13 UNL     1       1.026   0.625  -1.262  1.00  0.00    -0.005 C 
HETATM   10  C14 UNL     1       1.065   1.809  -0.373  1.00  0.00     0.053 C 
HETATM   11  C15 UNL     1       2.068  -0.341  -1.039  1.00  0.00    -0.044 C 
HETATM   12  C19 UNL     1       2.190  -1.569  -1.844  1.00  0.00    -0.064 C 
HETATM   13  C20 UNL     1       3.537  -2.243  -1.832  1.00  0.00     0.045 C 
HETATM   14  C21 UNL     1       0.841  -1.747  -2.469  1.00  0.00     0.014 A 
HETATM   15  C22 UNL     1       1.454  -1.268  -3.529  1.00  0.00    -0.036 A 
HETATM   16  C23 UNL     1      -0.075  -1.335  -3.855  1.00  0.00     0.053 A 
ENDROOT
BRANCH   1  17
HETATM   17  C5  UNL     1      -2.301  -0.041   0.743  1.00  0.00    -0.027 A 
HETATM   18  C4  UNL     1      -2.525   1.290   0.705  1.00  0.00     0.015 A 
HETATM   19  C3  UNL     1      -3.437   1.941   1.503  1.00  0.00     0.037 A 
HETATM   20  C2  UNL     1      -4.147   1.169   2.380  1.00  0.00     0.068 A 
HETATM   21  C25 UNL     1      -3.991  -0.208   2.496  1.00  0.00     0.037 A 
HETATM   22  C24 UNL     1      -3.045  -0.806   1.652  1.00  0.00     0.015 A 
BRANCH  20  23
HETATM   23  O1  UNL     1      -5.083   1.764   3.213  1.00  0.00    -0.356 OA
HETATM   24  C1  UNL     1      -5.322   3.176   3.172  1.00  0.00     0.210 C 
ENDBRANCH  20  23
ENDBRANCH   1  17
BRANCH   8  25
HETATM   25  N1  UNL     1      -0.030   2.100  -2.881  1.00  0.00    -0.380 N 
HETATM   26  H8  UNL     1       0.627   1.933  -3.687  1.00  0.00     0.158 HD
HETATM   27  H9  UNL     1      -0.463   3.071  -2.843  1.00  0.00     0.158 HD
ENDBRANCH   8  25
BRANCH  11  28
HETATM   28  C16 UNL     1       3.071  -0.155  -0.013  1.00  0.00     0.050 C 
BRANCH  28  29
HETATM   29  C17 UNL     1       2.633  -0.407   1.402  1.00  0.00     0.114 C 
BRANCH  29  30
HETATM   30  C18 UNL     1       3.815  -0.153   2.267  1.00  0.00     0.139 C 
HETATM   31  O3  UNL     1       3.765  -0.287   3.528  1.00  0.00    -0.650 OA
BRANCH  30  32
HETATM   32  O4  UNL     1       5.101   0.183   2.588  1.00  0.00    -0.776 OA
HETATM   33  H17 UNL     1       5.873  -0.376   2.265  1.00  0.00     0.167 HD
ENDBRANCH  30  32
ENDBRANCH  29  30
ENDBRANCH  28  29
ENDBRANCH  11  28
TORSDOF 7
