REMARK  7 active torsions:
REMARK  status: ('A' for Active; 'I' for Inactive)
REMARK    1  A    between atoms: O1_2  and  C2_3 
REMARK    2  A    between atoms: C2_3  and  C3_5 
REMARK    3  A    between atoms: C3_5  and  C4_6 
REMARK    4  A    between atoms: C4_6  and  C5_7 
REMARK    5  A    between atoms: C5_7  and  C6_8 
REMARK    6  A    between atoms: C6_8  and  C7_9 
REMARK    7  A    between atoms: C7_9  and  O4_11 
ROOT
HETATM    1  C5  UNL     1       0.742  -0.359   0.241  1.00  0.00     0.051 A 
HETATM    2  C9  UNL     1       1.926  -0.377   1.179  1.00  0.00     0.091 A 
HETATM    3  S1  UNL     1       2.880   0.863   1.685  1.00  0.00    -0.064 SA
HETATM    4  N1  UNL     1       2.200  -1.708   1.666  1.00  0.00    -0.349 N 
HETATM    5  C10 UNL     1       1.250  -2.556   1.017  1.00  0.00     0.040 A 
HETATM    6  C11 UNL     1       1.153  -3.925   1.152  1.00  0.00     0.030 A 
HETATM    7  C12 UNL     1       0.214  -4.638   0.443  1.00  0.00     0.002 A 
HETATM    8  C13 UNL     1      -0.623  -3.942  -0.404  1.00  0.00     0.001 A 
HETATM    9  C14 UNL     1      -0.479  -2.573  -0.498  1.00  0.00     0.011 A 
HETATM   10  C15 UNL     1       0.441  -1.808   0.188  1.00  0.00    -0.015 A 
HETATM   11  H13 UNL     1       2.934  -1.997   2.347  1.00  0.00     0.166 HD
ENDROOT
BRANCH   1  12
HETATM   12  C4  UNL     1      -0.316   0.495   0.831  1.00  0.00     0.032 C 
BRANCH  12  13
HETATM   13  C3  UNL     1      -1.534   0.655   0.005  1.00  0.00     0.112 C 
BRANCH  13  14
HETATM   14  C2  UNL     1      -2.549   1.558   0.676  1.00  0.00     0.258 C 
HETATM   15  O2  UNL     1      -2.084   1.953   1.797  1.00  0.00    -0.265 OA
BRANCH  14  16
HETATM   16  O1  UNL     1      -3.739   1.789  -0.001  1.00  0.00    -0.326 OA
HETATM   17  C1  UNL     1      -4.717   2.623   0.583  1.00  0.00     0.213 C 
ENDBRANCH  14  16
ENDBRANCH  13  14
ENDBRANCH  12  13
ENDBRANCH   1  12
BRANCH   1  18
HETATM   18  C6  UNL     1       1.238   0.165  -1.075  1.00  0.00     0.132 C 
BRANCH  18  19
HETATM   19  C7  UNL     1       1.801   1.534  -0.935  1.00  0.00     0.259 C 
HETATM   20  O3  UNL     1       2.150   2.607  -0.391  1.00  0.00    -0.265 OA
BRANCH  19  21
HETATM   21  O4  UNL     1       2.257   1.984  -2.166  1.00  0.00    -0.326 OA
HETATM   22  C8  UNL     1       2.831   3.267  -2.250  1.00  0.00     0.213 C 
ENDBRANCH  19  21
ENDBRANCH  18  19
ENDBRANCH   1  18
TORSDOF 7
