REMARK  4 active torsions:
REMARK  status: ('A' for Active; 'I' for Inactive)
REMARK    1  A    between atoms: C1_2  and  O2_3 
REMARK    2  A    between atoms: C1_2  and  C2_4 
REMARK    3  A    between atoms: C2_4  and  C3_5 
REMARK    4  A    between atoms: C3_5  and  C4_6 
ROOT
HETATM    1  C4  UNL     1      -1.355  -1.175  -0.431  1.00  0.00    -0.036 A 
HETATM    2  C5  UNL     1      -1.121  -2.518  -0.395  1.00  0.00     0.009 A 
HETATM    3  C6  UNL     1      -0.012  -3.178   0.052  1.00  0.00     0.003 A 
HETATM    4  C7  UNL     1       0.952  -2.278   0.515  1.00  0.00     0.031 A 
HETATM    5  C8  UNL     1       0.812  -0.893   0.521  1.00  0.00     0.052 A 
HETATM    6  C9  UNL     1      -0.370  -0.359   0.035  1.00  0.00     0.062 A 
HETATM    7  S1  UNL     1      -0.486   1.466   0.049  1.00  0.00     0.042 SA
HETATM    8  O3  UNL     1       1.196   2.018   0.053  1.00  0.00    -0.239 OA
HETATM    9  C10 UNL     1       2.021   1.526  -1.006  1.00  0.00     0.270 C 
HETATM   10  O4  UNL     1       1.828   0.789  -2.015  1.00  0.00    -0.264 OA
HETATM   11  C11 UNL     1       3.425   1.989  -0.854  1.00  0.00     0.119 C 
HETATM   12  C12 UNL     1       4.099   0.741  -0.191  1.00  0.00     0.079 C 
HETATM   13  C13 UNL     1       3.177   0.459   0.985  1.00  0.00     0.078 C 
HETATM   14  S2  UNL     1       3.799   1.043   2.409  1.00  0.00    -0.065 SA
HETATM   15  N1  UNL     1       1.922  -0.204   1.021  1.00  0.00    -0.349 N 
HETATM   16  H13 UNL     1       1.526  -0.260   1.983  1.00  0.00     0.166 HD
ENDROOT
BRANCH   1  17
HETATM   17  C3  UNL     1      -2.546  -0.447  -0.914  1.00  0.00     0.050 C 
BRANCH  17  18
HETATM   18  C2  UNL     1      -3.369   0.145   0.213  1.00  0.00     0.114 C 
BRANCH  18  19
HETATM   19  C1  UNL     1      -4.517   0.855  -0.408  1.00  0.00     0.139 C 
HETATM   20  O1  UNL     1      -5.186   0.256  -1.262  1.00  0.00    -0.650 OA
BRANCH  19  21
HETATM   21  O2  UNL     1      -4.793   2.160   0.005  1.00  0.00    -0.776 OA
HETATM   22  H1  UNL     1      -5.549   2.707  -0.360  1.00  0.00     0.167 HD
ENDBRANCH  19  21
ENDBRANCH  18  19
ENDBRANCH  17  18
ENDBRANCH   1  17
TORSDOF 4
