REMARK  0 active torsions:
REMARK  status: ('A' for Active; 'I' for Inactive)
ROOT
HETATM    1  O1  UNL     1      -3.074   2.899  -1.064  1.00  0.00    -0.307 OA
HETATM    2  C1  UNL     1      -3.066   1.870  -0.408  1.00  0.00     0.144 C 
HETATM    3  B1  UNL     1      -4.319   1.086   0.130  1.00  0.00     0.282 B 
HETATM    4  C2  UNL     1      -3.687   0.076   1.188  1.00  0.00     0.224 C 
HETATM    5  N1  UNL     1      -2.321   0.478   1.291  1.00  0.00     0.121 N 
HETATM    6  C3  UNL     1      -1.875   1.056   0.074  1.00  0.00     0.329 C 
HETATM    7  C4  UNL     1      -1.387   0.124  -0.945  1.00  0.00     0.047 C 
HETATM    8  C5  UNL     1      -0.631  -0.693  -1.684  1.00  0.00    -0.021 C 
HETATM    9  C6  UNL     1       0.596  -1.387  -2.034  1.00  0.00     0.065 C 
HETATM   10  C7  UNL     1       1.778  -1.187  -1.121  1.00  0.00    -0.058 C 
HETATM   11  C8  UNL     1       2.857  -0.336  -1.099  1.00  0.00    -0.013 C 
HETATM   12  C9  UNL     1       3.272   0.569   0.081  1.00  0.00     0.092 C 
HETATM   13  C10 UNL     1       2.033   0.446   0.949  1.00  0.00     0.050 C 
HETATM   14  C11 UNL     1       1.132   1.247   0.449  1.00  0.00     0.034 C 
HETATM   15  C12 UNL     1       0.729   2.202  -0.526  1.00  0.00     0.027 C 
HETATM   16  C13 UNL     1      -0.402   2.828  -0.726  1.00  0.00     0.139 C 
HETATM   17  O2  UNL     1      -0.928   2.120   0.387  1.00  0.00    -0.314 OA
HETATM   18  O3  UNL     1       1.704  -0.304   2.080  1.00  0.00    -0.351 OA
HETATM   19  C14 UNL     1       1.930  -1.693   2.403  1.00  0.00     0.202 C 
HETATM   20  C15 UNL     1       1.758  -2.575   1.200  1.00  0.00     0.000 C 
HETATM   21  C16 UNL     1       1.537  -2.247  -0.093  1.00  0.00     0.005 C 
HETATM   22  H1  UNL     1      -5.446   1.390  -0.041  1.00  0.00    -0.016 HD
HETATM   23  H4  UNL     1      -1.714  -0.282   1.612  1.00  0.00     0.319 HD
ENDROOT
TORSDOF 0
