REMARK  2 active torsions:
REMARK  status: ('A' for Active; 'I' for Inactive)
REMARK    1  A    between atoms: C11_13  and  C12_14 
REMARK    2  A    between atoms: C12_14  and  O3_16 
ROOT
HETATM    1  O1  UNL     1      -0.385   3.889   0.745  1.00  0.00    -0.261 OA
HETATM    2  C1  UNL     1      -0.786   2.694   0.530  1.00  0.00     0.298 C 
HETATM    3  C2  UNL     1      -2.240   2.719   0.132  1.00  0.00     0.235 C 
HETATM    4  N1  UNL     1      -2.596   1.311  -0.111  1.00  0.00    -0.377 N 
HETATM    5  C3  UNL     1      -3.497   0.998   0.971  1.00  0.00     0.086 C 
HETATM    6  C4  UNL     1      -3.815  -0.135   1.604  1.00  0.00     0.017 C 
HETATM    7  C5  UNL     1      -3.176  -1.468   1.721  1.00  0.00     0.002 C 
HETATM    8  C6  UNL     1      -2.038  -1.909   1.179  1.00  0.00     0.011 C 
HETATM    9  C7  UNL     1      -1.081  -1.477   0.166  1.00  0.00    -0.037 C 
HETATM   10  C8  UNL     1      -1.332  -0.651  -0.865  1.00  0.00     0.004 C 
HETATM   11  C9  UNL     1      -2.088   0.552  -1.207  1.00  0.00     0.151 C 
HETATM   12  C10 UNL     1       0.202  -2.090   0.462  1.00  0.00     0.030 C 
HETATM   13  C11 UNL     1       1.438  -1.740   0.277  1.00  0.00     0.051 C 
HETATM   14  C13 UNL     1       2.008  -0.547  -0.336  1.00  0.00     0.009 A 
HETATM   15  C14 UNL     1       2.770  -0.950  -1.429  1.00  0.00     0.015 A 
HETATM   16  C15 UNL     1       3.484  -0.092  -2.280  1.00  0.00     0.001 A 
HETATM   17  C16 UNL     1       3.433   1.260  -2.019  1.00  0.00     0.002 A 
HETATM   18  C17 UNL     1       2.657   1.631  -0.911  1.00  0.00     0.032 A 
HETATM   19  C18 UNL     1       1.950   0.801  -0.067  1.00  0.00     0.066 A 
HETATM   20  N2  UNL     1       1.244   1.450   0.977  1.00  0.00    -0.257 N 
HETATM   21  O4  UNL     1      -0.055   1.519   0.627  1.00  0.00    -0.197 OA
HETATM   22  H16 UNL     1       2.053   1.615   1.604  1.00  0.00     0.195 HD
ENDROOT
BRANCH  13  23
HETATM   23  C12 UNL     1       2.464  -2.703   0.750  1.00  0.00     0.177 C 
HETATM   24  O2  UNL     1       2.139  -3.810   1.305  1.00  0.00    -0.646 OA
BRANCH  23  25
HETATM   25  O3  UNL     1       3.806  -2.524   0.649  1.00  0.00    -0.773 OA
HETATM   26  H11 UNL     1       4.425  -3.322   0.582  1.00  0.00     0.167 HD
ENDBRANCH  23  25
ENDBRANCH  13  23
TORSDOF 2
