REMARK  8 active torsions:
REMARK  status: ('A' for Active; 'I' for Inactive)
REMARK    1  A    between atoms: O1_2  and  C2_3 
REMARK    2  A    between atoms: C2_3  and  C3_5 
REMARK    3  A    between atoms: C3_5  and  C4_6 
REMARK    4  A    between atoms: C4_6  and  S1_7 
REMARK    5  A    between atoms: S1_7  and  C5_8 
REMARK    6  A    between atoms: C5_8  and  C6_9 
REMARK    7  A    between atoms: C6_9  and  C7_10 
REMARK    8  A    between atoms: C7_10  and  O4_12 
ROOT
HETATM    1  S1  UNL     1       0.141   0.456   0.685  1.00  0.00    -0.206 SA
HETATM    2  C9  UNL     1       0.236   0.777   2.530  1.00  0.00     0.180 C 
HETATM    3  N1  UNL     1      -0.667   1.908   2.554  1.00  0.00    -0.381 N 
HETATM    4  C10 UNL     1      -0.479   2.812   1.490  1.00  0.00     0.044 A 
HETATM    5  C11 UNL     1      -0.714   4.172   1.557  1.00  0.00     0.030 A 
HETATM    6  C12 UNL     1      -0.497   4.965   0.451  1.00  0.00     0.002 A 
HETATM    7  C13 UNL     1      -0.044   4.363  -0.707  1.00  0.00     0.001 A 
HETATM    8  C14 UNL     1       0.201   3.009  -0.809  1.00  0.00     0.019 A 
HETATM    9  C15 UNL     1      -0.028   2.274   0.305  1.00  0.00     0.011 A 
HETATM   10  H17 UNL     1      -1.377   1.976   3.337  1.00  0.00     0.160 HD
ENDROOT
BRANCH   1  11
HETATM   11  C4  UNL     1       1.668  -0.260   0.024  1.00  0.00     0.070 C 
BRANCH  11  12
HETATM   12  C3  UNL     1       1.832  -1.651   0.522  1.00  0.00     0.120 C 
BRANCH  12  13
HETATM   13  C2  UNL     1       3.108  -2.169  -0.064  1.00  0.00     0.259 C 
HETATM   14  O2  UNL     1       3.595  -1.232  -0.780  1.00  0.00    -0.265 OA
BRANCH  13  15
HETATM   15  O1  UNL     1       3.592  -3.450   0.182  1.00  0.00    -0.326 OA
HETATM   16  C1  UNL     1       4.819  -3.872  -0.415  1.00  0.00     0.213 C 
ENDBRANCH  13  15
ENDBRANCH  12  13
ENDBRANCH  11  12
ENDBRANCH   1  11
BRANCH   1  17
HETATM   17  C5  UNL     1      -1.353  -0.438   0.229  1.00  0.00     0.070 C 
BRANCH  17  18
HETATM   18  C6  UNL     1      -1.517  -0.474  -1.246  1.00  0.00     0.120 C 
BRANCH  18  19
HETATM   19  C7  UNL     1      -2.757  -1.215  -1.624  1.00  0.00     0.259 C 
HETATM   20  O3  UNL     1      -3.012  -1.318  -2.861  1.00  0.00    -0.265 OA
BRANCH  19  21
HETATM   21  O4  UNL     1      -3.599  -1.770  -0.684  1.00  0.00    -0.326 OA
HETATM   22  C8  UNL     1      -4.783  -2.479  -1.020  1.00  0.00     0.213 C 
ENDBRANCH  19  21
ENDBRANCH  18  19
ENDBRANCH  17  18
ENDBRANCH   1  17
TORSDOF 8
