REMARK  12 active torsions:
REMARK  status: ('A' for Active; 'I' for Inactive)
REMARK    1  A    between atoms: O1_2  and  C2_3 
REMARK    2  A    between atoms: C2_3  and  C3_5 
REMARK    3  A    between atoms: C3_5  and  C4_6 
REMARK    4  A    between atoms: C4_6  and  N1_7 
REMARK    5  A    between atoms: C11_14  and  C12_15 
REMARK    6  A    between atoms: C12_15  and  C13_16 
REMARK    7  A    between atoms: C13_16  and  O3_18 
REMARK    8  A    between atoms: C15_19  and  S1_20 
REMARK    9  A    between atoms: C15_19  and  C16_21 
REMARK   10  A    between atoms: C16_21  and  C17_22 
REMARK   11  A    between atoms: C17_22  and  C18_23 
REMARK   12  A    between atoms: C18_23  and  O5_25 
ROOT
HETATM    1  N1  UNL     1      -0.737   0.310  -0.639  1.00  0.00    -0.361 N 
HETATM    2  C5  UNL     1      -1.175  -0.824  -1.363  1.00  0.00     0.038 A 
HETATM    3  C6  UNL     1      -2.242  -1.064  -2.188  1.00  0.00     0.030 A 
HETATM    4  C7  UNL     1      -2.522  -2.238  -2.830  1.00  0.00     0.002 A 
HETATM    5  C8  UNL     1      -1.620  -3.293  -2.612  1.00  0.00     0.001 A 
HETATM    6  C9  UNL     1      -0.545  -3.068  -1.788  1.00  0.00     0.010 A 
HETATM    7  C10 UNL     1      -0.286  -1.851  -1.144  1.00  0.00    -0.024 A 
HETATM    8  C11 UNL     1       0.769  -1.369  -0.216  1.00  0.00     0.062 C 
HETATM    9  C15 UNL     1       0.736   0.103  -0.496  1.00  0.00     0.087 C 
ENDROOT
BRANCH   9  10
HETATM   10  S1  UNL     1       1.459   0.394  -2.105  1.00  0.00    -0.150 SA
HETATM   11  H20 UNL     1       1.064   1.594  -2.682  1.00  0.00     0.104 HD
ENDBRANCH   9  10
BRANCH   9  12
HETATM   12  C16 UNL     1       1.213   0.999   0.571  1.00  0.00     0.053 C 
BRANCH  12  13
HETATM   13  C17 UNL     1       2.658   1.018   0.913  1.00  0.00     0.114 C 
BRANCH  13  14
HETATM   14  C18 UNL     1       3.491   1.442  -0.263  1.00  0.00     0.258 C 
HETATM   15  O4  UNL     1       4.083   1.793  -1.298  1.00  0.00    -0.265 OA
BRANCH  14  16
HETATM   16  O5  UNL     1       4.789   1.561   0.166  1.00  0.00    -0.326 OA
HETATM   17  C19 UNL     1       5.911   1.932  -0.576  1.00  0.00     0.213 C 
ENDBRANCH  14  16
ENDBRANCH  13  14
ENDBRANCH  12  13
ENDBRANCH   9  12
BRANCH   1  18
HETATM   18  C4  UNL     1      -1.428   1.429  -0.102  1.00  0.00     0.134 C 
BRANCH  18  19
HETATM   19  C3  UNL     1      -2.894   1.551  -0.338  1.00  0.00     0.131 C 
BRANCH  19  20
HETATM   20  C2  UNL     1      -3.444   2.779   0.352  1.00  0.00     0.259 C 
HETATM   21  O2  UNL     1      -2.728   3.800   0.083  1.00  0.00    -0.265 OA
BRANCH  20  22
HETATM   22  O1  UNL     1      -4.475   3.190   1.192  1.00  0.00    -0.326 OA
HETATM   23  C1  UNL     1      -4.548   4.584   1.563  1.00  0.00     0.213 C 
ENDBRANCH  20  22
ENDBRANCH  19  20
ENDBRANCH  18  19
ENDBRANCH   1  18
BRANCH   8  24
HETATM   24  C12 UNL     1       0.502  -1.753   1.209  1.00  0.00     0.044 C 
BRANCH  24  25
HETATM   25  C13 UNL     1       0.425  -3.263   1.316  1.00  0.00     0.114 C 
HETATM   26  C14 UNL     1       0.146  -3.563   2.795  1.00  0.00     0.039 C 
BRANCH  25  27
HETATM   27  O3  UNL     1       1.606  -3.907   0.990  1.00  0.00    -0.396 OA
HETATM   28  H19 UNL     1       1.384  -4.749   0.527  1.00  0.00     0.210 HD
ENDBRANCH  25  27
ENDBRANCH  24  25
ENDBRANCH   8  24
TORSDOF 12
