REMARK  2 active torsions:
REMARK  status: ('A' for Active; 'I' for Inactive)
REMARK    1  A    between atoms: C3_3  and  C4_4 
REMARK    2  A    between atoms: C4_4  and  O1_5 
ROOT
HETATM    1  C4  UNL     1       1.615   0.119  -0.194  1.00  0.00     0.182 C 
HETATM    2  C5  UNL     1       1.657   1.328  -0.994  1.00  0.00     0.075 C 
HETATM    3  C6  UNL     1       1.524   2.665  -0.278  1.00  0.00     0.044 C 
HETATM    4  C7  UNL     1       0.281   2.803   0.493  1.00  0.00     0.255 C 
HETATM    5  N1  UNL     1      -0.935   2.891  -0.102  1.00  0.00     0.087 N 
HETATM    6  C8  UNL     1      -2.055   3.011   0.838  1.00  0.00     0.344 A 
HETATM    7  C9  UNL     1      -2.162   1.903   0.120  1.00  0.00     0.362 A 
HETATM    8  N2  UNL     1      -1.070   1.774  -0.837  1.00  0.00    -0.155 N 
HETATM    9  C10 UNL     1      -0.752   0.588  -1.313  1.00  0.00     0.132 C 
HETATM   10  C11 UNL     1      -0.493  -0.465  -0.296  1.00  0.00     0.202 C 
HETATM   11  O2  UNL     1       0.723  -0.926  -0.444  1.00  0.00    -0.336 OA
HETATM   12  C12 UNL     1      -1.748  -1.185  -0.186  1.00  0.00     0.020 A 
HETATM   13  C13 UNL     1      -1.860  -2.516  -0.343  1.00  0.00     0.022 A 
HETATM   14 BR1  UNL     1      -0.222  -3.375  -0.740  1.00  0.00    -0.050 Br
HETATM   15  C14 UNL     1      -3.079  -3.151  -0.217  1.00  0.00     0.020 A 
HETATM   16  C15 UNL     1      -4.235  -2.460   0.074  1.00  0.00     0.004 A 
HETATM   17  C16 UNL     1      -4.163  -1.099   0.243  1.00  0.00     0.030 A 
HETATM   18  C17 UNL     1      -2.953  -0.486   0.115  1.00  0.00     0.042 A 
HETATM   19  N3  UNL     1      -3.218   0.934   0.350  1.00  0.00    -0.334 N 
HETATM   20  H18 UNL     1      -4.063   1.381   0.677  1.00  0.00     0.164 HD
ENDROOT
BRANCH   1  21
HETATM   21  C3  UNL     1       3.009  -0.372   0.131  1.00  0.00     0.036 C 
HETATM   22  C2  UNL     1       3.403  -1.615   0.112  1.00  0.00    -0.030 C 
HETATM   23  C1  UNL     1       4.780  -2.094   0.432  1.00  0.00     0.036 C 
ENDBRANCH   1  21
BRANCH   1  24
HETATM   24  O1  UNL     1       1.284   0.557   1.181  1.00  0.00    -0.362 OA
HETATM   25  H6  UNL     1       2.001   1.109   1.521  1.00  0.00     0.213 HD
ENDBRANCH   1  24
TORSDOF 2
