REMARK  2 active torsions:
REMARK  status: ('A' for Active; 'I' for Inactive)
REMARK    1  A    between atoms: O1_2  and  C2_3 
REMARK    2  A    between atoms: C2_3  and  C3_4 
ROOT
HETATM    1  C3  UNL     1       2.407   0.094  -0.076  1.00  0.00     0.037 C 
HETATM    2  C4  UNL     1       2.335   1.529   0.364  1.00  0.00     0.128 C 
HETATM    3  N1  UNL     1       1.224   2.302   0.586  1.00  0.00    -0.380 N 
HETATM    4  C5  UNL     1       0.126   3.158   0.867  1.00  0.00     0.099 C 
HETATM    5  S1  UNL     1       0.505   4.319   1.946  1.00  0.00    -0.060 SA
HETATM    6  C6  UNL     1      -1.221   2.990   0.358  1.00  0.00    -0.032 C 
HETATM    7  C7  UNL     1      -1.414   1.880  -0.447  1.00  0.00     0.009 C 
HETATM    8  C8  UNL     1      -0.909   0.616  -1.114  1.00  0.00     0.032 A 
HETATM    9  C9  UNL     1      -1.184  -0.417  -1.940  1.00  0.00     0.001 A 
HETATM   10  C10 UNL     1       0.149  -0.596  -1.444  1.00  0.00     0.005 A 
HETATM   11  C11 UNL     1       1.272  -0.435  -0.853  1.00  0.00    -0.020 C 
HETATM   12  C12 UNL     1       1.238  -1.921  -0.548  1.00  0.00     0.018 C 
HETATM   13  C13 UNL     1      -0.007  -2.677  -0.769  1.00  0.00     0.079 C 
HETATM   14  C14 UNL     1      -1.186  -2.295   0.072  1.00  0.00     0.127 C 
HETATM   15  O2  UNL     1      -2.387  -2.563  -0.054  1.00  0.00    -0.298 OA
HETATM   16  C15 UNL     1      -1.466  -1.521   1.301  1.00  0.00     0.080 C 
HETATM   17  C16 UNL     1      -2.867  -1.169   1.560  1.00  0.00     0.034 C 
HETATM   18  C17 UNL     1      -3.562  -0.128   0.747  1.00  0.00     0.179 C 
HETATM   19  O3  UNL     1      -3.058   1.165   0.840  1.00  0.00    -0.321 OA
HETATM   20  C18 UNL     1      -3.543   2.291   0.146  1.00  0.00     0.262 C 
HETATM   21  O4  UNL     1      -4.537   2.145  -0.643  1.00  0.00    -0.265 OA
HETATM   22  C19 UNL     1      -2.604   3.435   0.627  1.00  0.00     0.148 C 
HETATM   23  H9  UNL     1       1.047   1.526  -0.019  1.00  0.00     0.160 HD
ENDROOT
BRANCH   1  24
HETATM   24  C2  UNL     1       3.682  -0.014  -0.851  1.00  0.00     0.174 C 
BRANCH  24  25
HETATM   25  O1  UNL     1       4.113  -1.200  -1.320  1.00  0.00    -0.395 OA
HETATM   26  C1  UNL     1       4.618  -2.063  -0.349  1.00  0.00     0.201 C 
ENDBRANCH  24  25
ENDBRANCH   1  24
TORSDOF 2
