REMARK  6 active torsions:
REMARK  status: ('A' for Active; 'I' for Inactive)
REMARK    1  A    between atoms: O1_2  and  C2_3 
REMARK    2  A    between atoms: C2_3  and  C3_5 
REMARK    3  A    between atoms: C3_5  and  C4_6 
REMARK    4  A    between atoms: C4_6  and  C5_7 
REMARK    5  A    between atoms: C5_7  and  C6_8 
REMARK    6  A    between atoms: C6_8  and  O4_10 
ROOT
HETATM    1  C4  UNL     1      -0.239   0.195   0.337  1.00  0.00     0.059 A 
HETATM    2  C8  UNL     1       0.468   0.220   1.632  1.00  0.00     0.092 A 
HETATM    3  S1  UNL     1       0.822   1.657   2.350  1.00  0.00    -0.064 SA
HETATM    4  N1  UNL     1       0.749  -1.101   2.083  1.00  0.00    -0.349 N 
HETATM    5  C9  UNL     1       0.231  -2.009   1.090  1.00  0.00     0.040 A 
HETATM    6  C10 UNL     1       0.256  -3.390   1.070  1.00  0.00     0.030 A 
HETATM    7  C11 UNL     1      -0.323  -4.034  -0.021  1.00  0.00     0.002 A 
HETATM    8  C12 UNL     1      -0.897  -3.290  -1.036  1.00  0.00     0.001 A 
HETATM    9  C13 UNL     1      -0.928  -1.906  -1.025  1.00  0.00     0.011 A 
HETATM   10  C14 UNL     1      -0.348  -1.284   0.067  1.00  0.00    -0.015 A 
HETATM   11  H11 UNL     1       1.243  -1.309   2.977  1.00  0.00     0.166 HD
ENDROOT
BRANCH   1  12
HETATM   12  C3  UNL     1      -1.633   0.714   0.369  1.00  0.00     0.133 C 
BRANCH  12  13
HETATM   13  C2  UNL     1      -1.717   2.184   0.541  1.00  0.00     0.259 C 
HETATM   14  O2  UNL     1      -0.930   3.163   0.672  1.00  0.00    -0.265 OA
BRANCH  13  15
HETATM   15  O1  UNL     1      -3.018   2.676   0.572  1.00  0.00    -0.326 OA
HETATM   16  C1  UNL     1      -3.322   4.047   0.727  1.00  0.00     0.213 C 
ENDBRANCH  13  15
ENDBRANCH  12  13
ENDBRANCH   1  12
BRANCH   1  17
HETATM   17  C5  UNL     1       0.613   0.755  -0.779  1.00  0.00     0.133 C 
BRANCH  17  18
HETATM   18  C6  UNL     1       2.002   0.174  -0.732  1.00  0.00     0.259 C 
HETATM   19  O3  UNL     1       2.553  -0.657   0.037  1.00  0.00    -0.265 OA
BRANCH  18  20
HETATM   20  O4  UNL     1       2.817   0.665  -1.743  1.00  0.00    -0.326 OA
HETATM   21  C7  UNL     1       4.178   0.220  -1.851  1.00  0.00     0.213 C 
ENDBRANCH  18  20
ENDBRANCH  17  18
ENDBRANCH   1  17
TORSDOF 6
