REMARK  12 active torsions:
REMARK  status: ('A' for Active; 'I' for Inactive)
REMARK    1  A    between atoms: O1_2  and  C2_3 
REMARK    2  A    between atoms: C2_3  and  C3_5 
REMARK    3  A    between atoms: C3_5  and  C4_6 
REMARK    4  A    between atoms: C4_6  and  C5_7 
REMARK    5  A    between atoms: C5_7  and  C6_8 
REMARK    6  A    between atoms: C6_8  and  C7_9 
REMARK    7  A    between atoms: C7_9  and  O4_11 
REMARK    8  A    between atoms: N1_19  and  C15_20 
REMARK    9  A    between atoms: C15_20  and  C16_21 
REMARK   10  A    between atoms: C16_21  and  C17_22 
REMARK   11  A    between atoms: C17_22  and  O5_23 
REMARK   12  A    between atoms: C17_22  and  C18_24 
ROOT
HETATM    1  C5  UNL     1       1.087  -0.517  -0.165  1.00  0.00     0.018 C 
HETATM    2  C9  UNL     1       0.419  -1.067   1.010  1.00  0.00    -0.020 A 
HETATM    3  C10 UNL     1       0.945  -1.928   1.963  1.00  0.00     0.010 A 
HETATM    4  C11 UNL     1       0.101  -2.315   2.983  1.00  0.00     0.001 A 
HETATM    5  C12 UNL     1      -1.205  -1.888   3.086  1.00  0.00     0.002 A 
HETATM    6  C13 UNL     1      -1.661  -1.035   2.106  1.00  0.00     0.030 A 
HETATM    7  C14 UNL     1      -0.873  -0.593   1.037  1.00  0.00     0.037 A 
HETATM    8  N1  UNL     1      -1.086   0.279  -0.095  1.00  0.00    -0.375 N 
HETATM    9  C19 UNL     1      -0.012  -0.009  -1.028  1.00  0.00     0.094 C 
HETATM   10  C20 UNL     1      -0.546  -0.970  -2.050  1.00  0.00     0.033 C 
ENDROOT
BRANCH   1  11
HETATM   11  C4  UNL     1       1.972   0.685   0.128  1.00  0.00     0.027 C 
BRANCH  11  12
HETATM   12  C3  UNL     1       1.277   1.821   0.789  1.00  0.00     0.112 C 
BRANCH  12  13
HETATM   13  C2  UNL     1       2.332   2.884   0.983  1.00  0.00     0.258 C 
HETATM   14  O2  UNL     1       2.141   4.002   1.527  1.00  0.00    -0.265 OA
BRANCH  13  15
HETATM   15  O1  UNL     1       3.648   2.740   0.574  1.00  0.00    -0.326 OA
HETATM   16  C1  UNL     1       4.626   3.745   0.762  1.00  0.00     0.213 C 
ENDBRANCH  13  15
ENDBRANCH  12  13
ENDBRANCH  11  12
ENDBRANCH   1  11
BRANCH   1  17
HETATM   17  C6  UNL     1       2.012  -1.522  -0.825  1.00  0.00     0.127 C 
BRANCH  17  18
HETATM   18  C7  UNL     1       1.344  -2.796  -1.176  1.00  0.00     0.259 C 
HETATM   19  O3  UNL     1       0.539  -3.744  -1.353  1.00  0.00    -0.265 OA
BRANCH  18  20
HETATM   20  O4  UNL     1       2.251  -3.653  -1.781  1.00  0.00    -0.326 OA
HETATM   21  C8  UNL     1       1.949  -4.953  -2.242  1.00  0.00     0.213 C 
ENDBRANCH  18  20
ENDBRANCH  17  18
ENDBRANCH   1  17
BRANCH   8  22
HETATM   22  C15 UNL     1      -2.224   1.162  -0.040  1.00  0.00     0.126 C 
BRANCH  22  23
HETATM   23  C16 UNL     1      -3.325   0.863  -0.999  1.00  0.00     0.053 C 
BRANCH  23  24
HETATM   24  C17 UNL     1      -4.427   1.912  -0.750  1.00  0.00     0.135 C 
BRANCH  24  25
HETATM   25  O5  UNL     1      -3.924   3.193  -0.965  1.00  0.00    -0.394 OA
HETATM   26  H22 UNL     1      -3.785   3.312  -1.934  1.00  0.00     0.210 HD
ENDBRANCH  24  25
BRANCH  24  27
HETATM   27  C18 UNL     1      -4.944   1.755   0.639  1.00  0.00     0.210 C 
HETATM   28  S1  UNL     1      -5.065   2.927   1.458  1.00  0.00    -0.194 SA
ENDBRANCH  24  27
ENDBRANCH  23  24
ENDBRANCH  22  23
ENDBRANCH   8  22
TORSDOF 12
