REMARK  7 active torsions:
REMARK  status: ('A' for Active; 'I' for Inactive)
REMARK    1  A    between atoms: C3_3  and  C4_4 
REMARK    2  A    between atoms: C4_4  and  O1_5 
REMARK    3  A    between atoms: C7_8  and  S1_9 
REMARK    4  A    between atoms: S1_9  and  C8_10 
REMARK    5  A    between atoms: C9_11  and  C10_12 
REMARK    6  A    between atoms: C10_12  and  C11_13 
REMARK    7  A    between atoms: C11_13  and  O3_15 
ROOT
HETATM    1  C8  UNL     1       1.157  -0.080   0.650  1.00  0.00     0.086 A 
HETATM    2  C9  UNL     1       2.286   0.393   0.065  1.00  0.00    -0.002 A 
HETATM    3  C13 UNL     1       2.800  -0.663  -0.701  1.00  0.00     0.000 A 
HETATM    4  C14 UNL     1       3.929  -0.776  -1.524  1.00  0.00     0.014 A 
HETATM    5  C15 UNL     1       4.108  -1.991  -2.129  1.00  0.00     0.001 A 
HETATM    6  C16 UNL     1       3.295  -3.093  -2.004  1.00  0.00     0.002 A 
HETATM    7  C17 UNL     1       2.181  -2.964  -1.184  1.00  0.00     0.030 A 
HETATM    8  C18 UNL     1       1.960  -1.741  -0.547  1.00  0.00     0.045 A 
HETATM    9  N1  UNL     1       0.949  -1.373   0.289  1.00  0.00    -0.344 N 
HETATM   10  C19 UNL     1      -0.145  -2.279   0.681  1.00  0.00     0.157 C 
ENDROOT
BRANCH   1  11
HETATM   11  S1  UNL     1      -0.061   0.708   1.626  1.00  0.00    -0.054 SA
BRANCH  11  12
HETATM   12  C7  UNL     1      -1.486   1.097   0.616  1.00  0.00     0.075 A 
HETATM   13  C6  UNL     1      -2.472   1.607   1.337  1.00  0.00     0.023 A 
HETATM   14  C3  UNL     1      -3.702   1.932   0.504  1.00  0.00     0.084 A 
HETATM   15  C2  UNL     1      -3.177   1.485  -0.834  1.00  0.00     0.012 A 
HETATM   16  C1  UNL     1      -3.824   1.521  -1.994  1.00  0.00     0.039 C 
HETATM   17  N2  UNL     1      -1.854   0.991  -0.744  1.00  0.00    -0.349 N 
HETATM   18  C20 UNL     1      -0.984   0.473  -1.773  1.00  0.00     0.156 C 
BRANCH  14  19
HETATM   19  C4  UNL     1      -4.760   0.923   0.945  1.00  0.00     0.181 C 
BRANCH  19  20
HETATM   20  O1  UNL     1      -5.795   0.802   0.062  1.00  0.00    -0.395 OA
HETATM   21  C5  UNL     1      -6.693  -0.166   0.543  1.00  0.00     0.201 C 
ENDBRANCH  19  20
ENDBRANCH  14  19
ENDBRANCH  11  12
ENDBRANCH   1  11
BRANCH   2  22
HETATM   22  C10 UNL     1       3.021   1.682   0.153  1.00  0.00     0.153 C 
BRANCH  22  23
HETATM   23  C11 UNL     1       3.807   1.672   1.452  1.00  0.00     0.262 C 
HETATM   24  O2  UNL     1       3.346   2.016   2.600  1.00  0.00    -0.265 OA
BRANCH  23  25
HETATM   25  O3  UNL     1       5.133   1.240   1.290  1.00  0.00    -0.326 OA
HETATM   26  C12 UNL     1       6.088   1.119   2.292  1.00  0.00     0.213 C 
ENDBRANCH  23  25
ENDBRANCH  22  23
ENDBRANCH   2  22
TORSDOF 7
