REMARK  8 active torsions:
REMARK  status: ('A' for Active; 'I' for Inactive)
REMARK    1  A    between atoms: O1_2  and  C2_3 
REMARK    2  A    between atoms: C2_3  and  C3_5 
REMARK    3  A    between atoms: C3_5  and  C4_6 
REMARK    4  A    between atoms: C5_7  and  S1_8 
REMARK    5  A    between atoms: S1_8  and  C6_9 
REMARK    6  A    between atoms: C7_10  and  C8_11 
REMARK    7  A    between atoms: C8_11  and  C9_12 
REMARK    8  A    between atoms: C9_12  and  O4_14 
ROOT
HETATM    1  C6  UNL     1      -1.406   0.136  -0.909  1.00  0.00     0.086 A 
HETATM    2  C7  UNL     1      -2.391  -0.130   0.032  1.00  0.00    -0.002 A 
HETATM    3  C10 UNL     1      -3.058   1.069   0.211  1.00  0.00     0.000 A 
HETATM    4  C11 UNL     1      -4.125   1.309   1.058  1.00  0.00     0.014 A 
HETATM    5  C12 UNL     1      -4.646   2.587   1.085  1.00  0.00     0.001 A 
HETATM    6  C13 UNL     1      -4.077   3.543   0.274  1.00  0.00     0.002 A 
HETATM    7  C14 UNL     1      -3.008   3.262  -0.560  1.00  0.00     0.030 A 
HETATM    8  C15 UNL     1      -2.451   1.991  -0.622  1.00  0.00     0.045 A 
HETATM    9  N1  UNL     1      -1.440   1.421  -1.307  1.00  0.00    -0.344 N 
HETATM   10  C16 UNL     1      -0.620   2.139  -2.256  1.00  0.00     0.157 C 
ENDROOT
BRANCH   1  11
HETATM   11  S1  UNL     1      -0.268  -1.074  -1.477  1.00  0.00    -0.053 SA
BRANCH  11  12
HETATM   12  C5  UNL     1       1.224  -1.173  -0.536  1.00  0.00     0.081 C 
HETATM   13  C4  UNL     1       1.921  -0.655   0.543  1.00  0.00    -0.027 C 
HETATM   14  C21 UNL     1       3.249  -1.352   0.735  1.00  0.00     0.059 C 
HETATM   15  C20 UNL     1       3.201  -2.677   1.343  1.00  0.00    -0.016 C 
HETATM   16  C22 UNL     1       3.528  -1.510  -0.814  1.00  0.00     0.142 C 
HETATM   17  C19 UNL     1       3.105  -3.987   0.977  1.00  0.00    -0.002 C 
HETATM   18  C18 UNL     1       2.512  -4.404  -0.336  1.00  0.00     0.017 C 
HETATM   19  C17 UNL     1       1.853  -3.595  -1.228  1.00  0.00     0.091 C 
HETATM   20  N2  UNL     1       2.187  -2.190  -0.934  1.00  0.00    -0.350 N 
BRANCH  13  21
HETATM   21  C3  UNL     1       1.225   0.472   1.249  1.00  0.00     0.148 C 
BRANCH  21  22
HETATM   22  C2  UNL     1       2.137   1.642   1.125  1.00  0.00     0.262 C 
HETATM   23  O2  UNL     1       3.322   1.494   1.546  1.00  0.00    -0.265 OA
BRANCH  22  24
HETATM   24  O1  UNL     1       1.907   2.924   0.607  1.00  0.00    -0.326 OA
HETATM   25  C1  UNL     1       2.973   3.841   0.613  1.00  0.00     0.213 C 
ENDBRANCH  22  24
ENDBRANCH  21  22
ENDBRANCH  13  21
ENDBRANCH  11  12
ENDBRANCH   1  11
BRANCH   2  26
HETATM   26  C8  UNL     1      -2.668  -1.435   0.686  1.00  0.00     0.152 C 
BRANCH  26  27
HETATM   27  C9  UNL     1      -3.389  -2.348  -0.250  1.00  0.00     0.143 C 
HETATM   28  O3  UNL     1      -3.695  -1.991  -1.422  1.00  0.00    -0.650 OA
BRANCH  27  29
HETATM   29  O4  UNL     1      -3.856  -3.641  -0.128  1.00  0.00    -0.776 OA
HETATM   30  H8  UNL     1      -3.556  -4.389  -0.772  1.00  0.00     0.167 HD
ENDBRANCH  27  29
ENDBRANCH  26  27
ENDBRANCH   2  26
TORSDOF 8
