REMARK  5 active torsions:
REMARK  status: ('A' for Active; 'I' for Inactive)
REMARK    1  A    between atoms: O1_2  and  C2_3 
REMARK    2  A    between atoms: C2_3  and  C3_5 
REMARK    3  A    between atoms: C3_5  and  C4_6 
REMARK    4  A    between atoms: C5_7  and  S1_8 
REMARK    5  A    between atoms: S1_8  and  C6_9 
ROOT
HETATM    1  C4  UNL     1      -1.842  -0.523   0.687  1.00  0.00    -0.002 A 
HETATM    2  C5  UNL     1      -0.662  -1.071   1.109  1.00  0.00     0.084 A 
HETATM    3  N1  UNL     1      -0.583  -2.343   0.670  1.00  0.00    -0.344 N 
HETATM    4  C14 UNL     1       0.533  -3.239   0.927  1.00  0.00     0.157 C 
HETATM    5  C15 UNL     1      -1.670  -2.691  -0.041  1.00  0.00     0.045 A 
HETATM    6  C16 UNL     1      -2.043  -3.842  -0.676  1.00  0.00     0.030 A 
HETATM    7  C17 UNL     1      -3.263  -3.817  -1.319  1.00  0.00     0.002 A 
HETATM    8  C18 UNL     1      -4.113  -2.729  -1.361  1.00  0.00     0.001 A 
HETATM    9  C19 UNL     1      -3.681  -1.597  -0.702  1.00  0.00     0.014 A 
HETATM   10  C20 UNL     1      -2.463  -1.545  -0.031  1.00  0.00     0.000 A 
ENDROOT
BRANCH   2  11
HETATM   11  S1  UNL     1       0.570  -0.253   2.063  1.00  0.00    -0.072 SA
BRANCH  11  12
HETATM   12  C6  UNL     1       1.817   0.565   1.103  1.00  0.00     0.007 C 
HETATM   13  C7  UNL     1       1.696   0.422  -0.218  1.00  0.00     0.019 C 
HETATM   14  C8  UNL     1       2.482   0.913  -1.359  1.00  0.00     0.001 C 
HETATM   15  C9  UNL     1       3.694   1.424  -1.524  1.00  0.00     0.000 C 
HETATM   16  C10 UNL     1       4.836   1.749  -0.659  1.00  0.00     0.000 C 
HETATM   17  C11 UNL     1       4.954   1.895   0.649  1.00  0.00     0.000 C 
HETATM   18  C12 UNL     1       4.019   1.800   1.791  1.00  0.00     0.001 C 
HETATM   19  C13 UNL     1       2.810   1.276   1.927  1.00  0.00     0.019 C 
ENDBRANCH  11  12
ENDBRANCH   2  11
BRANCH   1  20
HETATM   20  C3  UNL     1      -2.448   0.811   0.874  1.00  0.00     0.153 C 
BRANCH  20  21
HETATM   21  C2  UNL     1      -1.787   1.774  -0.037  1.00  0.00     0.262 C 
HETATM   22  O2  UNL     1      -0.957   2.099  -0.920  1.00  0.00    -0.265 OA
BRANCH  21  23
HETATM   23  O1  UNL     1      -2.332   3.042   0.103  1.00  0.00    -0.326 OA
HETATM   24  C1  UNL     1      -1.820   4.092  -0.693  1.00  0.00     0.213 C 
ENDBRANCH  21  23
ENDBRANCH  20  21
ENDBRANCH   1  20
TORSDOF 5
