REMARK  8 active torsions:
REMARK  status: ('A' for Active; 'I' for Inactive)
REMARK    1  A    between atoms: O1_2  and  C2_3 
REMARK    2  A    between atoms: C2_3  and  C3_5 
REMARK    3  A    between atoms: C4_6  and  S1_7 
REMARK    4  A    between atoms: S1_7  and  C5_8 
REMARK    5  A    between atoms: C6_9  and  C7_10 
REMARK    6  A    between atoms: C7_10  and  C8_11 
REMARK    7  A    between atoms: C8_11  and  C9_12 
REMARK    8  A    between atoms: C18_23  and  C19_24 
ROOT
HETATM    1  C5  UNL     1      -0.984  -0.026   0.698  1.00  0.00     0.084 A 
HETATM    2  C6  UNL     1      -2.045  -0.225  -0.163  1.00  0.00    -0.011 A 
HETATM    3  C10 UNL     1      -2.975   0.806   0.041  1.00  0.00    -0.000 A 
HETATM    4  C11 UNL     1      -4.194   1.066  -0.565  1.00  0.00     0.014 A 
HETATM    5  C12 UNL     1      -4.926   2.171  -0.170  1.00  0.00     0.001 A 
HETATM    6  C13 UNL     1      -4.398   2.985   0.831  1.00  0.00     0.002 A 
HETATM    7  C14 UNL     1      -3.172   2.719   1.435  1.00  0.00     0.030 A 
HETATM    8  C15 UNL     1      -2.445   1.622   1.043  1.00  0.00     0.045 A 
HETATM    9  N1  UNL     1      -1.267   1.088   1.399  1.00  0.00    -0.344 N 
HETATM   10  C16 UNL     1      -0.457   1.711   2.441  1.00  0.00     0.157 C 
ENDROOT
BRANCH   1  11
HETATM   11  S1  UNL     1       0.509  -1.015   0.846  1.00  0.00    -0.075 SA
BRANCH  11  12
HETATM   12  C4  UNL     1       1.725  -0.327  -0.284  1.00  0.00    -0.002 A 
HETATM   13  C3  UNL     1       2.923  -0.564  -0.761  1.00  0.00     0.038 A 
HETATM   14  C18 UNL     1       3.043   0.639  -1.599  1.00  0.00     0.055 A 
HETATM   15  C17 UNL     1       1.628   0.851  -1.162  1.00  0.00     0.060 A 
BRANCH  13  16
HETATM   16  C2  UNL     1       3.930  -1.594  -0.590  1.00  0.00     0.290 C 
HETATM   17  O2  UNL     1       5.048  -1.782  -1.063  1.00  0.00    -0.260 OA
BRANCH  16  18
HETATM   18  O1  UNL     1       3.724  -2.669   0.265  1.00  0.00    -0.323 OA
HETATM   19  C1  UNL     1       4.728  -3.670   0.400  1.00  0.00     0.213 C 
ENDBRANCH  16  18
ENDBRANCH  13  16
BRANCH  14  20
HETATM   20  C19 UNL     1       3.982   1.678  -1.053  1.00  0.00     0.012 C 
HETATM   21  C20 UNL     1       3.940   2.960  -0.666  1.00  0.00     0.185 C 
HETATM   22  F1  UNL     1       4.802   3.914  -0.163  1.00  0.00    -0.220 F 
ENDBRANCH  14  20
ENDBRANCH  11  12
ENDBRANCH   1  11
BRANCH   2  23
HETATM   23  C7  UNL     1      -2.165  -1.358  -1.127  1.00  0.00     0.049 C 
BRANCH  23  24
HETATM   24  C8  UNL     1      -2.550  -2.603  -0.373  1.00  0.00     0.074 C 
BRANCH  24  25
HETATM   25  C9  UNL     1      -2.685  -3.788  -1.237  1.00  0.00     0.231 C 
HETATM   26  O3  UNL     1      -3.428  -3.649  -2.228  1.00  0.00    -0.307 OA
ENDBRANCH  24  25
ENDBRANCH  23  24
ENDBRANCH   2  23
TORSDOF 8
