REMARK  10 active torsions:
REMARK  status: ('A' for Active; 'I' for Inactive)
REMARK    1  A    between atoms: C1_2  and  C2_3 
REMARK    2  A    between atoms: C1_2  and  O2_22 
REMARK    3  A    between atoms: C2_3  and  C3_4 
REMARK    4  A    between atoms: N1_13  and  C12_14 
REMARK    5  A    between atoms: C12_14  and  C13_15 
REMARK    6  A    between atoms: O2_22  and  C19_23 
REMARK    7  A    between atoms: C19_23  and  C20_24 
REMARK    8  A    between atoms: C20_24  and  P1_25 
REMARK    9  A    between atoms: P1_25  and  O3_26 
REMARK   10  A    between atoms: P1_25  and  O4_27 
ROOT
HETATM    1  C3  UNL     1      -0.544  -0.594   0.320  1.00  0.00     0.122 C 
HETATM    2  C4  UNL     1       0.067  -1.950   0.034  1.00  0.00    -0.029 A 
HETATM    3  C5  UNL     1       1.058  -2.531   0.807  1.00  0.00     0.010 A 
HETATM    4  C6  UNL     1       1.536  -3.795   0.506  1.00  0.00     0.001 A 
HETATM    5  C7  UNL     1       1.034  -4.543  -0.597  1.00  0.00     0.001 A 
HETATM    6  C8  UNL     1       0.060  -3.956  -1.349  1.00  0.00     0.008 A 
HETATM    7  C9  UNL     1      -0.392  -2.734  -1.045  1.00  0.00    -0.048 A 
HETATM    8  C10 UNL     1      -1.460  -1.958  -1.798  1.00  0.00     0.058 C 
HETATM    9  C11 UNL     1      -2.421  -1.454  -0.793  1.00  0.00     0.122 C 
HETATM   10  N1  UNL     1      -1.910  -0.703   0.335  1.00  0.00    -0.403 N 
ENDROOT
BRANCH   1  11
HETATM   11  C2  UNL     1       0.253   0.162   1.273  1.00  0.00     0.141 C 
BRANCH  11  12
HETATM   12  C1  UNL     1       1.526   0.500   0.637  1.00  0.00     0.261 C 
HETATM   13  O1  UNL     1       1.470   0.620  -0.614  1.00  0.00    -0.265 OA
BRANCH  12  14
HETATM   14  O2  UNL     1       2.784   0.775   0.526  1.00  0.00    -0.310 OA
BRANCH  14  15
HETATM   15  C19 UNL     1       3.447   1.089  -0.739  1.00  0.00     0.268 C 
BRANCH  15  16
HETATM   16  C20 UNL     1       4.783   0.948  -0.336  1.00  0.00    -0.069 C 
BRANCH  16  17
HETATM   17  P1  UNL     1       5.976   0.795   0.023  1.00  0.00     0.241 P 
BRANCH  17  18
HETATM   18  O3  UNL     1       6.674   0.722   0.239  1.00  0.00    -0.341 OA
HETATM   19  H22 UNL     1       7.317   1.722   0.968  1.00  0.00     0.218 HD
ENDBRANCH  17  18
BRANCH  17  20
HETATM   20  O4  UNL     1       8.363   0.436   0.731  1.00  0.00    -0.341 OA
HETATM   21  H23 UNL     1       8.325   0.662  -0.280  1.00  0.00     0.218 HD
ENDBRANCH  17  20
ENDBRANCH  16  17
ENDBRANCH  15  16
ENDBRANCH  14  15
ENDBRANCH  12  14
ENDBRANCH  11  12
ENDBRANCH   1  11
BRANCH  10  22
HETATM   22  C12 UNL     1      -2.858   0.286   0.639  1.00  0.00     0.127 C 
BRANCH  22  23
HETATM   23  C13 UNL     1      -3.023   1.480  -0.297  1.00  0.00     0.039 C 
HETATM   24  C14 UNL     1      -1.803   2.286  -0.219  1.00  0.00    -0.017 C 
HETATM   25  C15 UNL     1      -1.648   3.460   0.529  1.00  0.00     0.021 C 
HETATM   26  C16 UNL     1      -3.029   3.245   0.870  1.00  0.00     0.025 A 
HETATM   27  C17 UNL     1      -3.625   3.940   2.016  1.00  0.00     0.089 A 
HETATM   28  N2  UNL     1      -4.331   3.063   1.207  1.00  0.00    -0.257 NA
HETATM   29  C18 UNL     1      -4.263   2.245  -0.000  1.00  0.00     0.111 C 
ENDBRANCH  22  23
ENDBRANCH  10  22
TORSDOF 10
