REMARK  10 active torsions:
REMARK  status: ('A' for Active; 'I' for Inactive)
REMARK    1  A    between atoms: N1_2  and  C2_3 
REMARK    2  A    between atoms: C7_8  and  C8_9 
REMARK    3  A    between atoms: C8_9  and  C9_10 
REMARK    4  A    between atoms: C8_9  and  C21_25 
REMARK    5  A    between atoms: C9_10  and  C10_11 
REMARK    6  A    between atoms: C15_16  and  C16_17 
REMARK    7  A    between atoms: C16_17  and  C17_18 
REMARK    8  A    between atoms: C17_18  and  O2_20 
REMARK    9  A    between atoms: C21_25  and  C22_26 
REMARK   10  A    between atoms: C22_26  and  O4_28 
ROOT
HETATM    1  C8  UNL     1      -2.006  -0.389  -0.053  1.00  0.00    -0.040 C 
ENDROOT
BRANCH   1   2
HETATM    2  C7  UNL     1      -3.151   0.163  -0.755  1.00  0.00    -0.003 A 
HETATM    3  C2  UNL     1      -3.921   1.231  -0.362  1.00  0.00     0.038 A 
HETATM    4  C3  UNL     1      -4.890   1.762  -1.159  1.00  0.00     0.030 A 
HETATM    5  C4  UNL     1      -5.121   1.219  -2.403  1.00  0.00     0.002 A 
HETATM    6  C5  UNL     1      -4.366   0.163  -2.794  1.00  0.00     0.001 A 
HETATM    7  C6  UNL     1      -3.396  -0.365  -1.994  1.00  0.00     0.014 A 
BRANCH   3   8
HETATM    8  N1  UNL     1      -3.817   1.775   0.971  1.00  0.00    -0.394 N 
HETATM    9  C1  UNL     1      -4.632   2.916   1.306  1.00  0.00     0.146 C 
HETATM   10  H4  UNL     1      -3.357   1.638   1.889  1.00  0.00     0.159 HD
ENDBRANCH   3   8
ENDBRANCH   1   2
BRANCH   1  11
HETATM   11  C9  UNL     1      -1.196  -0.003   0.909  1.00  0.00    -0.009 C 
BRANCH  11  12
HETATM   12  C10 UNL     1      -0.213   0.231   1.937  1.00  0.00     0.039 C 
HETATM   13  C11 UNL     1       0.672   1.409   1.627  1.00  0.00    -0.017 C 
HETATM   14  C12 UNL     1       1.579   2.364   1.332  1.00  0.00    -0.003 C 
HETATM   15  C13 UNL     1       2.997   2.280   0.976  1.00  0.00     0.000 C 
HETATM   16  C14 UNL     1       4.105   1.670   0.685  1.00  0.00     0.004 C 
HETATM   17  C15 UNL     1       4.420   0.276   0.540  1.00  0.00    -0.055 C 
HETATM   18  C19 UNL     1       3.117   0.099   0.749  1.00  0.00     0.188 C 
HETATM   19  S1  UNL     1       1.922  -1.220   0.851  1.00  0.00    -0.231 SA
HETATM   20  C20 UNL     1       0.740  -0.937   2.121  1.00  0.00     0.068 C 
BRANCH  17  21
HETATM   21  C16 UNL     1       5.695  -0.399   0.281  1.00  0.00     0.146 C 
BRANCH  21  22
HETATM   22  C17 UNL     1       6.327   0.005  -1.002  1.00  0.00     0.262 C 
HETATM   23  O1  UNL     1       6.394   0.647  -2.069  1.00  0.00    -0.265 OA
BRANCH  22  24
HETATM   24  O2  UNL     1       7.537  -0.636  -1.260  1.00  0.00    -0.326 OA
HETATM   25  C18 UNL     1       8.239  -0.339  -2.450  1.00  0.00     0.213 C 
ENDBRANCH  22  24
ENDBRANCH  21  22
ENDBRANCH  17  21
ENDBRANCH  11  12
ENDBRANCH   1  11
BRANCH   1  26
HETATM   26  C21 UNL     1      -1.588  -1.787  -0.420  1.00  0.00     0.150 C 
BRANCH  26  27
HETATM   27  C22 UNL     1      -2.826  -2.620  -0.274  1.00  0.00     0.262 C 
HETATM   28  O3  UNL     1      -3.887  -2.064   0.113  1.00  0.00    -0.265 OA
BRANCH  27  29
HETATM   29  O4  UNL     1      -2.718  -3.991  -0.583  1.00  0.00    -0.326 OA
HETATM   30  C23 UNL     1      -3.915  -4.772  -0.436  1.00  0.00     0.213 C 
ENDBRANCH  27  29
ENDBRANCH  26  27
ENDBRANCH   1  26
TORSDOF 10
