REMARK  8 active torsions:
REMARK  status: ('A' for Active; 'I' for Inactive)
REMARK    1  A    between atoms: C4_6  and  C5_7 
REMARK    2  A    between atoms: C5_7  and  C6_8 
REMARK    3  A    between atoms: C6_8  and  C7_9 
REMARK    4  A    between atoms: C7_9  and  O2_11 
REMARK    5  A    between atoms: C15_21  and  C16_22 
REMARK    6  A    between atoms: C16_22  and  C17_23 
REMARK    7  A    between atoms: C17_23  and  C18_24 
REMARK    8  A    between atoms: C18_24  and  O4_26 
ROOT
HETATM    1  C1  UNL     1       1.981   0.827   1.039  1.00  0.00     0.152 C 
HETATM    2  N1  UNL     1       1.452   0.439  -0.260  1.00  0.00    -0.363 N 
HETATM    3  C2  UNL     1       0.333   1.268  -0.733  1.00  0.00     0.256 C 
HETATM    4  N2  UNL     1      -0.928   0.599  -0.432  1.00  0.00    -0.323 N 
HETATM    5  C3  UNL     1      -1.444  -0.495  -0.999  1.00  0.00     0.092 A 
HETATM    6  C4  UNL     1      -2.678  -0.792  -0.391  1.00  0.00    -0.011 A 
HETATM    7  C8  UNL     1      -2.785   0.217   0.537  1.00  0.00    -0.000 A 
HETATM    8  C9  UNL     1      -3.820   0.401   1.416  1.00  0.00     0.014 A 
HETATM    9  C10 UNL     1      -3.801   1.456   2.296  1.00  0.00     0.001 A 
HETATM   10  C11 UNL     1      -2.742   2.316   2.286  1.00  0.00     0.002 A 
HETATM   11  C12 UNL     1      -1.667   2.157   1.402  1.00  0.00     0.030 A 
HETATM   12  C13 UNL     1      -1.718   1.087   0.531  1.00  0.00     0.047 A 
HETATM   13  S1  UNL     1      -0.652  -1.400  -2.337  1.00  0.00    -0.032 SA
HETATM   14  S2  UNL     1       1.344  -1.884  -1.954  1.00  0.00    -0.034 SA
HETATM   15  C14 UNL     1       2.125  -0.697  -0.843  1.00  0.00     0.076 C 
HETATM   16  C15 UNL     1       3.381  -0.908  -0.569  1.00  0.00     0.011 C 
ENDROOT
BRANCH  16  17
HETATM   17  C16 UNL     1       4.653  -0.624   0.063  1.00  0.00     0.040 C 
BRANCH  17  18
HETATM   18  C17 UNL     1       5.762  -0.342  -0.938  1.00  0.00     0.113 C 
BRANCH  18  19
HETATM   19  C18 UNL     1       7.009  -0.082  -0.193  1.00  0.00     0.139 C 
HETATM   20  O3  UNL     1       6.952  -0.171   1.069  1.00  0.00    -0.650 OA
BRANCH  19  21
HETATM   21  O4  UNL     1       8.317   0.231  -0.065  1.00  0.00    -0.776 OA
HETATM   22  H20 UNL     1       8.720   1.152   0.012  1.00  0.00     0.167 HD
ENDBRANCH  19  21
ENDBRANCH  18  19
ENDBRANCH  17  18
ENDBRANCH  16  17
BRANCH   6  23
HETATM   23  C5  UNL     1      -3.398  -1.951  -0.862  1.00  0.00     0.053 C 
BRANCH  23  24
HETATM   24  C6  UNL     1      -4.842  -2.078  -0.569  1.00  0.00     0.115 C 
BRANCH  24  25
HETATM   25  C7  UNL     1      -5.681  -0.999  -1.086  1.00  0.00     0.139 C 
HETATM   26  O1  UNL     1      -6.925  -1.135  -0.888  1.00  0.00    -0.650 OA
BRANCH  25  27
HETATM   27  O2  UNL     1      -5.620   0.192  -1.753  1.00  0.00    -0.776 OA
HETATM   28  H10 UNL     1      -5.756   1.073  -1.241  1.00  0.00     0.167 HD
ENDBRANCH  25  27
ENDBRANCH  24  25
ENDBRANCH  23  24
ENDBRANCH   6  23
TORSDOF 8
