REMARK  11 active torsions:
REMARK  status: ('A' for Active; 'I' for Inactive)
REMARK    1  A    between atoms: C2_3  and  S1_4 
REMARK    2  A    between atoms: S1_4  and  S2_5 
REMARK    3  A    between atoms: S2_5  and  C3_6 
REMARK    4  A    between atoms: C4_7  and  C5_8 
REMARK    5  A    between atoms: C5_8  and  C6_9 
REMARK    6  A    between atoms: C6_9  and  C7_10 
REMARK    7  A    between atoms: C7_10  and  O2_12 
REMARK    8  A    between atoms: C8_13  and  C9_14 
REMARK    9  A    between atoms: C9_14  and  C10_15 
REMARK   10  A    between atoms: C10_15  and  C11_16 
REMARK   11  A    between atoms: C11_16  and  O4_18 
ROOT
HETATM    1  C1  UNL     1       0.733   1.721  -0.504  1.00  0.00     0.157 C 
HETATM    2  N1  UNL     1      -0.572   1.100  -0.629  1.00  0.00    -0.344 N 
HETATM    3  C2  UNL     1      -0.894  -0.146  -0.993  1.00  0.00     0.090 A 
HETATM    4  C8  UNL     1      -2.278  -0.356  -1.022  1.00  0.00    -0.011 A 
HETATM    5  C12 UNL     1      -2.712   0.890  -0.636  1.00  0.00    -0.000 A 
HETATM    6  C13 UNL     1      -4.007   1.314  -0.466  1.00  0.00     0.014 A 
HETATM    7  C14 UNL     1      -4.307   2.586  -0.063  1.00  0.00     0.001 A 
HETATM    8  C15 UNL     1      -3.324   3.513   0.193  1.00  0.00     0.002 A 
HETATM    9  C16 UNL     1      -2.031   3.085   0.020  1.00  0.00     0.030 A 
HETATM   10  C17 UNL     1      -1.715   1.798  -0.388  1.00  0.00     0.045 A 
ENDROOT
BRANCH   3  11
HETATM   11  S1  UNL     1       0.383  -1.367  -1.371  1.00  0.00    -0.035 SA
BRANCH  11  12
HETATM   12  S2  UNL     1       0.827  -2.341   0.474  1.00  0.00    -0.063 SA
BRANCH  12  13
HETATM   13  C3  UNL     1       2.149  -1.387   1.251  1.00  0.00     0.053 C 
HETATM   14  C4  UNL     1       3.373  -1.544   0.699  1.00  0.00    -0.018 C 
BRANCH  14  15
HETATM   15  C5  UNL     1       4.716  -0.966   1.011  1.00  0.00     0.038 C 
BRANCH  15  16
HETATM   16  C6  UNL     1       5.191  -0.250  -0.219  1.00  0.00     0.113 C 
BRANCH  16  17
HETATM   17  C7  UNL     1       6.544   0.358   0.046  1.00  0.00     0.139 C 
HETATM   18  O1  UNL     1       6.883   1.200   0.901  1.00  0.00    -0.650 OA
BRANCH  17  19
HETATM   19  O2  UNL     1       7.770   0.189  -0.541  1.00  0.00    -0.776 OA
HETATM   20  H10 UNL     1       8.528  -0.324  -0.108  1.00  0.00     0.167 HD
ENDBRANCH  17  19
ENDBRANCH  16  17
ENDBRANCH  15  16
ENDBRANCH  14  15
ENDBRANCH  12  13
ENDBRANCH  11  12
ENDBRANCH   3  11
BRANCH   4  21
HETATM   21  C9  UNL     1      -2.859  -1.649  -1.360  1.00  0.00     0.053 C 
BRANCH  21  22
HETATM   22  C10 UNL     1      -4.060  -2.091  -0.624  1.00  0.00     0.115 C 
BRANCH  22  23
HETATM   23  C11 UNL     1      -3.989  -2.150   0.831  1.00  0.00     0.139 C 
HETATM   24  O3  UNL     1      -3.066  -1.901   1.630  1.00  0.00    -0.650 OA
BRANCH  23  25
HETATM   25  O4  UNL     1      -5.156  -2.561   1.518  1.00  0.00    -0.776 OA
HETATM   26  H15 UNL     1      -5.528  -2.071   2.327  1.00  0.00     0.167 HD
ENDBRANCH  23  25
ENDBRANCH  22  23
ENDBRANCH  21  22
ENDBRANCH   4  21
TORSDOF 11
