REMARK  2 active torsions:
REMARK  status: ('A' for Active; 'I' for Inactive)
REMARK    1  A    between atoms: O1_2  and  C2_3 
REMARK    2  A    between atoms: C2_3  and  C3_5 
ROOT
HETATM    1  C3  UNL     1      -2.069   0.144  -0.044  1.00  0.00     0.182 C 
HETATM    2  C4  UNL     1      -0.791  -0.614   0.140  1.00  0.00     0.077 C 
HETATM    3  C5  UNL     1       0.409   0.194   0.342  1.00  0.00    -0.009 A 
HETATM    4  C6  UNL     1       0.855   1.433   0.766  1.00  0.00     0.090 A 
HETATM    5  N1  UNL     1       2.173   1.569   0.707  1.00  0.00    -0.344 N 
HETATM    6  C7  UNL     1       2.948   2.741   1.080  1.00  0.00     0.157 C 
HETATM    7  C8  UNL     1       2.635   0.394   0.232  1.00  0.00     0.045 A 
HETATM    8  C9  UNL     1       3.909  -0.048  -0.038  1.00  0.00     0.030 A 
HETATM    9  C10 UNL     1       4.145  -1.315  -0.529  1.00  0.00     0.002 A 
HETATM   10  C11 UNL     1       3.112  -2.207  -0.775  1.00  0.00     0.001 A 
HETATM   11  C12 UNL     1       1.841  -1.744  -0.498  1.00  0.00     0.014 A 
HETATM   12  C13 UNL     1       1.585  -0.481  -0.007  1.00  0.00    -0.000 A 
HETATM   13  S1  UNL     1      -0.136   2.797   1.355  1.00  0.00    -0.037 SA
HETATM   14  S2  UNL     1      -1.208   3.561  -0.336  1.00  0.00    -0.071 SA
HETATM   15  C14 UNL     1      -2.565   2.399  -0.654  1.00  0.00     0.202 C 
HETATM   16  N2  UNL     1      -2.019   1.134  -1.079  1.00  0.00    -0.400 N 
HETATM   17  H16 UNL     1      -1.163   1.178  -1.635  1.00  0.00     0.154 HD
ENDROOT
BRANCH   1  18
HETATM   18  C2  UNL     1      -3.077  -0.894  -0.477  1.00  0.00     0.281 C 
HETATM   19  O2  UNL     1      -3.740  -0.857  -1.570  1.00  0.00    -0.263 OA
BRANCH  18  20
HETATM   20  O1  UNL     1      -3.186  -1.897   0.479  1.00  0.00    -0.325 OA
HETATM   21  C1  UNL     1      -4.056  -3.009   0.349  1.00  0.00     0.213 C 
ENDBRANCH  18  20
ENDBRANCH   1  18
TORSDOF 2
