REMARK  5 active torsions:
REMARK  status: ('A' for Active; 'I' for Inactive)
REMARK    1  A    between atoms: C2_2  and  C3_3 
REMARK    2  A    between atoms: C3_3  and  N1_4 
REMARK    3  A    between atoms: C11_16  and  C12_17 
REMARK    4  A    between atoms: C12_17  and  C13_18 
REMARK    5  A    between atoms: C13_18  and  O2_20 
ROOT
HETATM    1  N1  UNL     1      -0.071   0.214  -0.362  1.00  0.00    -0.361 N 
HETATM    2  C4  UNL     1      -1.104   0.373   0.608  1.00  0.00     0.058 A 
HETATM    3  C5  UNL     1      -0.527   1.096   1.661  1.00  0.00     0.031 A 
HETATM    4  C6  UNL     1      -1.234   1.464   2.817  1.00  0.00     0.002 A 
HETATM    5  C7  UNL     1      -2.555   1.121   2.962  1.00  0.00     0.002 A 
HETATM    6  C8  UNL     1      -3.104   0.414   1.919  1.00  0.00     0.031 A 
HETATM    7  C9  UNL     1      -2.432   0.043   0.783  1.00  0.00     0.055 A 
HETATM    8  N2  UNL     1      -3.212  -0.693  -0.146  1.00  0.00    -0.379 N 
HETATM    9  C10 UNL     1      -3.831  -1.960  -0.464  1.00  0.00     0.207 C 
HETATM   10  S1  UNL     1      -2.718  -3.370  -0.188  1.00  0.00    -0.066 SA
HETATM   11  S2  UNL     1      -0.988  -3.374  -1.323  1.00  0.00    -0.021 SA
HETATM   12  S3  UNL     1       0.707  -2.465  -0.452  1.00  0.00    -0.060 SA
HETATM   13  C11 UNL     1       0.784  -0.780  -0.849  1.00  0.00     0.168 C 
HETATM   14  H10 UNL     1      -3.309   0.165  -0.726  1.00  0.00     0.160 HD
ENDROOT
BRANCH  13  15
HETATM   15  C12 UNL     1       2.236  -0.376  -0.502  1.00  0.00     0.148 C 
BRANCH  15  16
HETATM   16  C13 UNL     1       3.162  -1.460  -1.018  1.00  0.00     0.261 C 
HETATM   17  O1  UNL     1       3.277  -2.577  -1.625  1.00  0.00    -0.265 OA
BRANCH  16  18
HETATM   18  O2  UNL     1       4.487  -1.119  -0.714  1.00  0.00    -0.326 OA
HETATM   19  C14 UNL     1       5.598  -1.923  -1.060  1.00  0.00     0.213 C 
ENDBRANCH  16  18
ENDBRANCH  15  16
ENDBRANCH  13  15
BRANCH   1  20
HETATM   20  C3  UNL     1       0.136   1.533  -0.982  1.00  0.00     0.151 C 
BRANCH  20  21
HETATM   21  C2  UNL     1      -0.754   2.591  -0.553  1.00  0.00    -0.017 C 
HETATM   22  C1  UNL     1      -0.358   3.741   0.035  1.00  0.00     0.008 C 
ENDBRANCH  20  21
ENDBRANCH   1  20
TORSDOF 5
