REMARK  5 active torsions:
REMARK  status: ('A' for Active; 'I' for Inactive)
REMARK    1  A    between atoms: B1_1  and  C1_2 
REMARK    2  A    between atoms: C1_2  and  C2_3 
REMARK    3  A    between atoms: C1_2  and  C19_24 
REMARK    4  A    between atoms: C5_6  and  N1_7 
REMARK    5  A    between atoms: N1_7  and  C6_8 
ROOT
HETATM    1  C2  UNL     1      -2.210  -0.511   0.218  1.00  0.00    -0.054 A 
HETATM    2  C3  UNL     1      -0.881  -0.311  -0.095  1.00  0.00     0.023 A 
HETATM    3  C4  UNL     1       0.188  -0.642   0.705  1.00  0.00     0.022 A 
HETATM    4  C5  UNL     1       1.505  -0.439   0.386  1.00  0.00     0.139 A 
HETATM    5  N2  UNL     1       2.387  -0.833   1.305  1.00  0.00    -0.241 NA
HETATM    6  C12 UNL     1       2.092  -1.394   2.479  1.00  0.00     0.142 A 
HETATM    7  C13 UNL     1       0.776  -1.606   2.816  1.00  0.00     0.073 A 
HETATM    8  C14 UNL     1       0.452  -2.209   4.076  1.00  0.00     0.102 C 
HETATM    9  N3  UNL     1       0.187  -2.705   5.103  1.00  0.00    -0.191 NA
HETATM   10  C15 UNL     1      -0.174  -1.216   1.900  1.00  0.00     0.001 A 
HETATM   11  C16 UNL     1      -1.482  -1.439   2.264  1.00  0.00     0.021 A 
HETATM   12  C17 UNL     1      -2.520  -1.090   1.429  1.00  0.00    -0.055 A 
HETATM   13  C18 UNL     1      -3.911  -1.344   1.845  1.00  0.00     0.049 C 
ENDROOT
BRANCH   4  14
HETATM   14  N1  UNL     1       1.832   0.149  -0.859  1.00  0.00    -0.340 N 
HETATM   15  H5  UNL     1       1.101   0.411  -1.546  1.00  0.00     0.167 HD
BRANCH  14  16
HETATM   16  C6  UNL     1       3.100   0.482  -1.399  1.00  0.00     0.035 A 
HETATM   17  C7  UNL     1       3.335   0.940  -2.674  1.00  0.00     0.029 A 
HETATM   18  C8  UNL     1       4.573   1.259  -3.169  1.00  0.00     0.004 A 
HETATM   19  C9  UNL     1       5.692   1.132  -2.377  1.00  0.00     0.019 A 
HETATM   20  C10 UNL     1       5.512   0.678  -1.092  1.00  0.00     0.013 A 
HETATM   21 BR1  UNL     1       7.093   0.522  -0.041  1.00  0.00    -0.051 Br
HETATM   22  C11 UNL     1       4.244   0.371  -0.645  1.00  0.00     0.048 A 
ENDBRANCH  14  16
ENDBRANCH   4  14
BRANCH   1  23
HETATM   23  C1  UNL     1      -3.297  -0.116  -0.715  1.00  0.00     0.002 C 
BRANCH  23  24
HETATM   24  B1  UNL     1      -2.970  -0.449  -2.227  1.00  0.00     0.148 B 
HETATM   25  H1  UNL     1      -2.565   0.419  -2.909  1.00  0.00    -0.031 HD
HETATM   26  H2  UNL     1      -3.059  -1.566  -2.595  1.00  0.00    -0.031 HD
ENDBRANCH  23  24
BRANCH  23  27
HETATM   27  C19 UNL     1      -3.766   1.301  -0.534  1.00  0.00     0.151 A 
HETATM   28  C20 UNL     1      -2.839   2.350  -0.941  1.00  0.00     0.029 A 
HETATM   29  C21 UNL     1      -2.758   2.846   0.274  1.00  0.00     0.134 A 
HETATM   30  O1  UNL     1      -3.632   1.877   0.720  1.00  0.00    -0.354 OA
ENDBRANCH  23  27
ENDBRANCH   1  23
TORSDOF 5
