REMARK  2 active torsions:
REMARK  status: ('A' for Active; 'I' for Inactive)
REMARK    1  A    between atoms: C2_3  and  O1_4 
REMARK    2  A    between atoms: O1_4  and  C3_5 
ROOT
HETATM    1  C3  UNL     1       2.198  -0.097   0.511  1.00  0.00     0.123 C 
HETATM    2  C4  UNL     1       1.764   1.137   0.297  1.00  0.00     0.182 C 
HETATM    3  C5  UNL     1       2.022   2.472  -0.231  1.00  0.00     0.008 C 
HETATM    4  C6  UNL     1       0.876   3.056   0.058  1.00  0.00     0.131 C 
HETATM    5  O2  UNL     1      -0.405   3.298   0.510  1.00  0.00    -0.360 OA
HETATM    6  C7  UNL     1      -1.489   2.752  -0.178  1.00  0.00     0.202 C 
HETATM    7  C8  UNL     1      -2.695   2.604   0.646  1.00  0.00     0.000 C 
HETATM    8  C9  UNL     1      -3.310   1.464   0.912  1.00  0.00     0.009 C 
HETATM    9  C10 UNL     1      -2.939   0.152   0.462  1.00  0.00    -0.035 A 
HETATM   10  C11 UNL     1      -3.713  -0.789  -0.178  1.00  0.00     0.014 A 
HETATM   11  C12 UNL     1      -3.218  -2.016  -0.568  1.00  0.00     0.033 A 
HETATM   12  C13 UNL     1      -1.898  -2.337  -0.320  1.00  0.00     0.072 A 
HETATM   13  N1  UNL     1      -1.456  -3.542  -0.726  1.00  0.00    -0.241 NA
HETATM   14  C14 UNL     1      -0.150  -3.841  -0.485  1.00  0.00     0.235 A 
HETATM   15  N2  UNL     1       0.658  -2.939   0.146  1.00  0.00    -0.224 NA
HETATM   16  C15 UNL     1       0.191  -1.745   0.541  1.00  0.00     0.139 A 
HETATM   17  C16 UNL     1      -1.123  -1.396   0.320  1.00  0.00     0.039 A 
HETATM   18  C17 UNL     1      -1.597  -0.164   0.721  1.00  0.00     0.029 A 
HETATM   19  N3  UNL     1       1.172  -0.882   1.173  1.00  0.00    -0.346 N 
HETATM   20  H14 UNL     1       0.795  -1.110   2.120  1.00  0.00     0.163 HD
ENDROOT
BRANCH   1  21
HETATM   21  O1  UNL     1       2.906  -1.319   0.609  1.00  0.00    -0.336 OA
BRANCH  21  22
HETATM   22  C2  UNL     1       4.258  -1.380   0.308  1.00  0.00     0.149 C 
HETATM   23  C1  UNL     1       4.909  -0.938  -0.780  1.00  0.00     0.108 C 
HETATM   24 CL1  UNL     1       6.612  -1.042  -1.107  1.00  0.00    -0.095 Cl
ENDBRANCH  21  22
ENDBRANCH   1  21
TORSDOF 2
