REMARK  2 active torsions:
REMARK  status: ('A' for Active; 'I' for Inactive)
REMARK    1  A    between atoms: C10_14  and  N4_15 
REMARK    2  A    between atoms: N5_21  and  C16_22 
ROOT
HETATM    1  C1  UNL     1      -2.134  -1.837  -1.863  1.00  0.00     0.020 C 
HETATM    2  C2  UNL     1      -2.595  -0.602  -1.119  1.00  0.00     0.057 C 
HETATM    3  C3  UNL     1      -3.052  -1.074   0.220  1.00  0.00     0.120 C 
HETATM    4  N1  UNL     1      -3.826  -1.187   1.226  1.00  0.00    -0.194 NA
HETATM    5  N2  UNL     1      -5.038  -0.517   1.244  1.00  0.00    -0.295 N 
HETATM    6  C4  UNL     1      -4.732   0.774   1.876  1.00  0.00     0.289 C 
HETATM    7  N3  UNL     1      -3.744   1.453   1.078  1.00  0.00    -0.285 NA
HETATM    8  C5  UNL     1      -4.025   1.662  -0.157  1.00  0.00     0.090 C 
HETATM    9  C6  UNL     1      -2.984   2.371  -0.972  1.00  0.00     0.088 C 
HETATM   10  C7  UNL     1      -1.651   1.749  -0.866  1.00  0.00    -0.008 A 
HETATM   11  C8  UNL     1      -0.492   2.476  -0.693  1.00  0.00     0.125 A 
HETATM   12  F1  UNL     1      -0.632   3.841  -0.622  1.00  0.00    -0.205 F 
HETATM   13  C9  UNL     1       0.783   1.933  -0.589  1.00  0.00     0.072 A 
HETATM   14  C10 UNL     1       0.896   0.562  -0.664  1.00  0.00     0.034 A 
HETATM   15  C17 UNL     1      -0.246  -0.190  -0.836  1.00  0.00     0.038 A 
HETATM   16  C18 UNL     1      -1.519   0.379  -0.939  1.00  0.00    -0.037 A 
HETATM   17  H6  UNL     1      -5.799  -1.094   0.819  1.00  0.00     0.184 HD
ENDROOT
BRANCH  14  18
HETATM   18  N4  UNL     1       2.188  -0.024  -0.561  1.00  0.00    -0.372 N 
HETATM   19  C11 UNL     1       3.399   0.763  -0.381  1.00  0.00     0.159 C 
HETATM   20  C12 UNL     1       4.527  -0.234  -0.391  1.00  0.00     0.246 C 
HETATM   21  C13 UNL     1       3.913  -1.219  -1.407  1.00  0.00     0.064 C 
HETATM   22  N5  UNL     1       4.523  -1.093   0.747  1.00  0.00     0.124 NA
HETATM   23  C14 UNL     1       2.623  -1.385  -0.598  1.00  0.00     0.115 C 
HETATM   24  C15 UNL     1       3.221  -1.730   0.745  1.00  0.00     0.301 C 
BRANCH  22  25
HETATM   25  C16 UNL     1       4.887  -0.504   1.982  1.00  0.00     0.494 C 
HETATM   26  F2  UNL     1       4.078   0.478   2.460  1.00  0.00    -0.223 F 
ENDBRANCH  22  25
ENDBRANCH  14  18
TORSDOF 2
