REMARK  2 active torsions:
REMARK  status: ('A' for Active; 'I' for Inactive)
REMARK    1  A    between atoms: C2_2  and  C3_3 
REMARK       I    between atoms: C3_3  and  N1_5 
REMARK    2  A    between atoms: N1_5  and  C4_6 
ROOT
HETATM    1  C4  UNL     1      -1.794  -0.295  -0.403  1.00  0.00     0.035 A 
HETATM    2  C5  UNL     1      -1.429  -1.588  -0.712  1.00  0.00     0.032 A 
HETATM    3  C6  UNL     1      -0.117  -1.948  -0.696  1.00  0.00     0.040 A 
HETATM    4  C7  UNL     1       0.850  -1.021  -0.372  1.00  0.00     0.086 A 
HETATM    5  C8  UNL     1       0.543   0.281  -0.056  1.00  0.00    -0.004 A 
HETATM    6  C9  UNL     1      -0.810   0.618  -0.081  1.00  0.00     0.041 A 
HETATM    7  C10 UNL     1       1.246   1.518   0.327  1.00  0.00     0.161 C 
HETATM    8  N2  UNL     1       2.605   1.301   0.780  1.00  0.00    -0.381 N 
HETATM    9  C11 UNL     1       3.584   0.345   0.483  1.00  0.00     0.100 A 
HETATM   10  C12 UNL     1       4.866   0.737   0.757  1.00  0.00     0.151 A 
HETATM   11  N3  UNL     1       5.892  -0.113   0.507  1.00  0.00    -0.252 NA
HETATM   12  C13 UNL     1       5.624  -1.333  -0.009  1.00  0.00     0.235 A 
HETATM   13  N4  UNL     1       4.380  -1.761  -0.293  1.00  0.00    -0.216 NA
HETATM   14  C14 UNL     1       3.355  -0.908  -0.042  1.00  0.00     0.199 A 
HETATM   15  O2  UNL     1       2.152  -1.503  -0.390  1.00  0.00    -0.289 OA
HETATM   16  H10 UNL     1       2.907   2.032   1.488  1.00  0.00     0.160 HD
ENDROOT
BRANCH   1  17
HETATM   17  N1  UNL     1      -3.175   0.032  -0.433  1.00  0.00    -0.324 N 
HETATM   18  C3  UNL     1      -4.170  -0.026   0.583  1.00  0.00     0.244 C 
HETATM   19  O1  UNL     1      -3.640  -0.453   1.666  1.00  0.00    -0.268 OA
HETATM   20  H4  UNL     1      -3.340   0.345  -1.412  1.00  0.00     0.169 HD
BRANCH  18  21
HETATM   21  C2  UNL     1      -5.533   0.378   0.261  1.00  0.00     0.064 C 
HETATM   22  C1  UNL     1      -5.980   0.808  -0.900  1.00  0.00     0.017 C 
ENDBRANCH  18  21
ENDBRANCH   1  17
TORSDOF 2
