REMARK  2 active torsions:
REMARK  status: ('A' for Active; 'I' for Inactive)
REMARK    1  A    between atoms: C7_9  and  N3_10 
REMARK       I    between atoms: N3_10  and  C8_11 
REMARK    2  A    between atoms: C8_11  and  C9_13 
ROOT
HETATM    1  N1  UNL     1      -4.957  -3.761  -1.036  1.00  0.00    -0.191 NA
HETATM    2  C1  UNL     1      -4.274  -3.205  -0.287  1.00  0.00     0.102 C 
HETATM    3  C2  UNL     1      -3.454  -2.533   0.645  1.00  0.00     0.072 A 
HETATM    4  C3  UNL     1      -3.477  -2.458   2.060  1.00  0.00     0.135 A 
HETATM    5  N2  UNL     1      -2.586  -1.746   2.802  1.00  0.00    -0.280 NA
HETATM    6  C4  UNL     1      -1.533  -0.996   2.280  1.00  0.00     0.130 A 
HETATM    7  C5  UNL     1      -1.733  -1.234   0.920  1.00  0.00    -0.015 A 
HETATM    8  C6  UNL     1      -0.620  -0.391   1.153  1.00  0.00     0.084 A 
HETATM    9  C7  UNL     1      -0.274  -0.225  -0.247  1.00  0.00     0.030 A 
HETATM   10  C13 UNL     1      -0.887  -0.758  -1.419  1.00  0.00     0.027 A 
HETATM   11  C14 UNL     1      -2.019  -1.593  -1.294  1.00  0.00     0.015 A 
HETATM   12  C15 UNL     1      -2.478  -1.851  -0.035  1.00  0.00    -0.008 A 
ENDROOT
BRANCH   9  13
HETATM   13  N3  UNL     1       0.845   0.596  -0.399  1.00  0.00    -0.324 N 
HETATM   14  C8  UNL     1       1.554   1.192   0.654  1.00  0.00     0.279 C 
HETATM   15  O1  UNL     1       1.177   0.989   1.837  1.00  0.00    -0.265 OA
HETATM   16  H2  UNL     1       1.208   0.804  -1.352  1.00  0.00     0.169 HD
BRANCH  14  17
HETATM   17  C9  UNL     1       2.721   2.041   0.398  1.00  0.00     0.142 A 
HETATM   18  C10 UNL     1       3.228   2.334  -0.872  1.00  0.00     0.045 A 
HETATM   19  C11 UNL     1       4.318   3.161  -0.615  1.00  0.00     0.027 A 
HETATM   20  C12 UNL     1       4.416   3.324   0.752  1.00  0.00     0.143 A 
HETATM   21  O2  UNL     1       3.442   2.636   1.295  1.00  0.00    -0.317 OA
ENDBRANCH  14  17
ENDBRANCH   9  13
TORSDOF 2
