REMARK  3 active torsions:
REMARK  status: ('A' for Active; 'I' for Inactive)
REMARK    1  A    between atoms: C4_5  and  N2_6 
REMARK    2  A    between atoms: C9_12  and  N3_13 
REMARK       I    between atoms: N4_17  and  C13_18 
REMARK    3  A    between atoms: C13_18  and  C14_20 
ROOT
HETATM    1  N1  UNL     1      -1.879   3.670   4.348  1.00  0.00    -0.191 NA
HETATM    2  C1  UNL     1      -1.492   2.936   3.540  1.00  0.00     0.106 C 
HETATM    3  C2  UNL     1      -1.002   2.041   2.526  1.00  0.00     0.084 C 
HETATM    4  C3  UNL     1      -1.539   1.925   1.320  1.00  0.00     0.044 C 
HETATM    5  C4  UNL     1      -1.212   1.098   0.156  1.00  0.00     0.285 C 
HETATM    6  C10 UNL     1       0.200   0.642   0.099  1.00  0.00    -0.005 A 
HETATM    7  C11 UNL     1       0.700   0.301  -1.073  1.00  0.00     0.004 A 
HETATM    8  C12 UNL     1       2.088  -0.175  -1.307  1.00  0.00     0.159 A 
HETATM    9  N4  UNL     1       2.832  -0.218  -0.068  1.00  0.00    -0.321 N 
HETATM   10  C13 UNL     1       4.145  -0.681  -0.362  1.00  0.00     0.255 C 
HETATM   11  O1  UNL     1       3.935  -0.807  -1.594  1.00  0.00    -0.270 OA
HETATM   12  C16 UNL     1       2.314   0.142   1.194  1.00  0.00     0.113 A 
HETATM   13  C17 UNL     1       1.061   0.552   1.273  1.00  0.00     0.030 A 
HETATM   14  S1  UNL     1       0.416   1.006   2.880  1.00  0.00    -0.078 SA
ENDROOT
BRANCH   5  15
HETATM   15  N2  UNL     1      -2.087   0.008  -0.077  1.00  0.00     0.138 N 
HETATM   16  C5  UNL     1      -2.222  -0.980   0.935  1.00  0.00     0.305 C 
HETATM   17  C6  UNL     1      -2.561  -2.248   0.185  1.00  0.00     0.018 C 
HETATM   18  C7  UNL     1      -3.286  -2.013  -0.913  1.00  0.00    -0.010 C 
HETATM   19 BR1  UNL     1      -3.870  -3.433  -2.074  1.00  0.00    -0.056 Br
HETATM   20  C8  UNL     1      -3.805  -0.733  -1.509  1.00  0.00     0.114 C 
HETATM   21  C9  UNL     1      -3.426   0.356  -0.505  1.00  0.00     0.457 C 
BRANCH  21  22
HETATM   22  N3  UNL     1      -3.511   1.673  -1.077  1.00  0.00     0.112 N 
HETATM   23  H9  UNL     1      -4.488   1.983  -1.168  1.00  0.00     0.315 HD
HETATM   24  H10 UNL     1      -3.058   1.723  -2.007  1.00  0.00     0.315 HD
ENDBRANCH  21  22
ENDBRANCH   5  15
BRANCH  10  25
HETATM   25  C14 UNL     1       5.208  -0.859   0.667  1.00  0.00     0.237 A 
HETATM   26  C15 UNL     1       6.580  -1.103   0.234  1.00  0.00     0.210 A 
HETATM   27  O2  UNL     1       5.756  -2.232   0.478  1.00  0.00    -0.371 OA
ENDBRANCH  10  25
TORSDOF 3
