REMARK  3 active torsions:
REMARK  status: ('A' for Active; 'I' for Inactive)
REMARK    1  A    between atoms: N3_6  and  C4_7 
REMARK    2  A    between atoms: C11_15  and  N4_16 
REMARK       I    between atoms: N4_16  and  C12_17 
REMARK    3  A    between atoms: C12_17  and  C13_19 
ROOT
HETATM    1  N1  UNL     1      -1.528  -5.196   1.565  1.00  0.00    -0.195 NA
HETATM    2  C1  UNL     1      -1.914  -4.407   0.801  1.00  0.00     0.091 C 
HETATM    3  C2  UNL     1      -2.382  -3.411  -0.167  1.00  0.00     0.251 A 
HETATM    4  N2  UNL     1      -3.565  -2.733   0.321  1.00  0.00    -0.260 NA
HETATM    5  C3  UNL     1      -3.612  -1.458   0.469  1.00  0.00     0.210 A 
HETATM    6  N3  UNL     1      -2.567  -0.542   0.194  1.00  0.00    -0.308 N 
HETATM    7  C9  UNL     1      -1.346  -1.084  -0.294  1.00  0.00     0.052 A 
HETATM    8  C10 UNL     1      -0.295  -0.250  -0.580  1.00  0.00     0.060 A 
HETATM    9  C11 UNL     1       0.877  -0.829  -1.055  1.00  0.00     0.037 A 
HETATM   10  C17 UNL     1       0.948  -2.211  -1.222  1.00  0.00     0.030 A 
HETATM   11  C18 UNL     1      -0.136  -2.999  -0.919  1.00  0.00     0.015 A 
HETATM   12  C19 UNL     1      -1.308  -2.453  -0.449  1.00  0.00     0.007 A 
ENDROOT
BRANCH   6  13
HETATM   13  C4  UNL     1      -2.760   0.858   0.406  1.00  0.00     0.036 A 
HETATM   14  C5  UNL     1      -2.988   1.580  -0.681  1.00  0.00     0.027 A 
HETATM   15  C6  UNL     1      -3.163   2.981  -0.307  1.00  0.00    -0.001 A 
HETATM   16  C7  UNL     1      -3.030   3.046   1.012  1.00  0.00    -0.005 A 
HETATM   17  C8  UNL     1      -2.760   1.715   1.621  1.00  0.00     0.131 A 
HETATM   18 BR1  UNL     1      -0.984   1.888   2.395  1.00  0.00    -0.080 Br
ENDBRANCH   6  13
BRANCH   9  19
HETATM   19  N4  UNL     1       1.962   0.076  -1.345  1.00  0.00    -0.321 N 
HETATM   20  C12 UNL     1       2.767   0.246  -0.184  1.00  0.00     0.279 C 
HETATM   21  O1  UNL     1       2.462  -0.363   0.874  1.00  0.00    -0.265 OA
HETATM   22  H8  UNL     1       2.240   0.594  -2.208  1.00  0.00     0.169 HD
BRANCH  20  23
HETATM   23  C13 UNL     1       3.946   1.105  -0.160  1.00  0.00     0.142 A 
HETATM   24  C14 UNL     1       4.722   1.266   0.969  1.00  0.00     0.045 A 
HETATM   25  C15 UNL     1       5.754   2.150   0.629  1.00  0.00     0.027 A 
HETATM   26  C16 UNL     1       5.533   2.472  -0.707  1.00  0.00     0.143 A 
HETATM   27  O2  UNL     1       4.468   1.835  -1.111  1.00  0.00    -0.317 OA
ENDBRANCH  20  23
ENDBRANCH   9  19
TORSDOF 3
