REMARK  2 active torsions:
REMARK  status: ('A' for Active; 'I' for Inactive)
REMARK    1  A    between atoms: C4_6  and  N3_7 
REMARK    2  A    between atoms: N3_7  and  C5_8 
ROOT
HETATM    1  N1  UNL     1      -0.723  -5.467   0.567  1.00  0.00    -0.096 N 
HETATM    2  C1  UNL     1      -0.125  -4.483   0.227  1.00  0.00     0.022 C 
HETATM    3  C2  UNL     1       0.599  -3.307  -0.156  1.00  0.00     0.059 A 
HETATM    4  C3  UNL     1       1.958  -3.405  -0.513  1.00  0.00     0.141 A 
HETATM    5  N2  UNL     1       2.606  -2.268  -0.892  1.00  0.00    -0.241 NA
HETATM    6  C4  UNL     1       1.951  -1.092  -0.918  1.00  0.00     0.139 A 
HETATM    7  C11 UNL     1       0.632  -1.055  -0.560  1.00  0.00     0.024 A 
HETATM    8  C12 UNL     1      -0.029   0.143  -0.611  1.00  0.00     0.046 A 
HETATM    9  C13 UNL     1      -1.346   0.104  -0.262  1.00  0.00     0.042 A 
HETATM   10  C14 UNL     1      -2.196  -0.872   0.139  1.00  0.00    -0.030 A 
HETATM   11  C15 UNL     1      -1.444  -2.001   0.157  1.00  0.00     0.023 A 
HETATM   12  C16 UNL     1      -0.112  -2.132  -0.165  1.00  0.00    -0.000 A 
HETATM   13  C17 UNL     1      -3.600  -1.157   0.503  1.00  0.00     0.048 C 
HETATM   14  C18 UNL     1      -4.500  -0.034   0.159  1.00  0.00     0.088 C 
HETATM   15  C19 UNL     1      -5.392   0.391  -0.693  1.00  0.00     0.105 C 
HETATM   16  O1  UNL     1      -5.441   1.554   0.066  1.00  0.00    -0.381 OA
HETATM   17  C20 UNL     1      -4.558   2.612  -0.086  1.00  0.00     0.270 C 
HETATM   18  C21 UNL     1      -3.180   2.152  -0.192  1.00  0.00     0.245 C 
HETATM   19  O2  UNL     1      -2.516   3.226  -0.319  1.00  0.00    -0.271 OA
HETATM   20  N4  UNL     1      -2.271   1.124  -0.226  1.00  0.00    -0.325 N 
HETATM   21  H15 UNL     1      -1.494   1.816  -0.194  1.00  0.00     0.169 HD
ENDROOT
BRANCH   6  22
HETATM   22  N3  UNL     1       2.657   0.073  -1.351  1.00  0.00    -0.340 N 
HETATM   23  H2  UNL     1       2.479   0.465  -2.317  1.00  0.00     0.167 HD
BRANCH  22  24
HETATM   24  C5  UNL     1       3.632   0.832  -0.643  1.00  0.00     0.035 A 
HETATM   25  C6  UNL     1       4.099   2.111  -0.981  1.00  0.00     0.029 A 
HETATM   26  C7  UNL     1       5.086   2.692  -0.208  1.00  0.00     0.004 A 
HETATM   27  C8  UNL     1       5.602   2.020   0.880  1.00  0.00     0.019 A 
HETATM   28  C9  UNL     1       5.184   0.766   1.261  1.00  0.00     0.013 A 
HETATM   29 BR1  UNL     1       5.907  -0.162   2.757  1.00  0.00    -0.051 Br
HETATM   30  C10 UNL     1       4.198   0.236   0.457  1.00  0.00     0.048 A 
ENDBRANCH  22  24
ENDBRANCH   6  22
TORSDOF 2
