REMARK  4 active torsions:
REMARK  status: ('A' for Active; 'I' for Inactive)
REMARK    1  A    between atoms: C4_5  and  C5_6 
REMARK       I    between atoms: C5_6  and  N1_8 
REMARK    2  A    between atoms: N1_8  and  C6_9 
REMARK    3  A    between atoms: C12_16  and  N3_17 
REMARK    4  A    between atoms: N3_17  and  C13_18 
ROOT
HETATM    1  C6  UNL     1       1.266   0.476  -0.923  1.00  0.00     0.035 A 
HETATM    2  C7  UNL     1       1.565   0.752  -2.232  1.00  0.00     0.030 A 
HETATM    3  C8  UNL     1       0.530   0.846  -3.134  1.00  0.00     0.014 A 
HETATM    4  C9  UNL     1      -0.773   0.665  -2.721  1.00  0.00    -0.021 A 
HETATM    5  C10 UNL     1      -1.730   0.783  -3.706  1.00  0.00     0.031 A 
HETATM    6  C11 UNL     1      -3.022   0.599  -3.262  1.00  0.00     0.120 A 
HETATM    7  N2  UNL     1      -3.333   0.329  -1.991  1.00  0.00    -0.242 NA
HETATM    8  C12 UNL     1      -2.443   0.210  -1.030  1.00  0.00     0.139 A 
HETATM    9  C19 UNL     1      -1.135   0.386  -1.420  1.00  0.00     0.022 A 
HETATM   10  C20 UNL     1      -0.054   0.306  -0.572  1.00  0.00     0.045 A 
ENDROOT
BRANCH   1  11
HETATM   11  N1  UNL     1       2.340   0.380   0.002  1.00  0.00    -0.325 N 
HETATM   12  C5  UNL     1       3.092  -0.754   0.371  1.00  0.00     0.245 C 
HETATM   13  O2  UNL     1       2.783  -1.849  -0.186  1.00  0.00    -0.271 OA
HETATM   14  H6  UNL     1       2.398   1.391   0.315  1.00  0.00     0.169 HD
BRANCH  12  15
HETATM   15  C4  UNL     1       4.121  -0.330   1.389  1.00  0.00     0.177 C 
HETATM   16  C3  UNL     1       5.066   0.606   0.660  1.00  0.00     0.044 C 
HETATM   17  C2  UNL     1       6.469   0.243   1.077  1.00  0.00     0.105 C 
HETATM   18  C1  UNL     1       6.288  -1.050   1.783  1.00  0.00     0.218 C 
HETATM   19  O1  UNL     1       7.288  -1.671   2.281  1.00  0.00    -0.274 OA
HETATM   20  N4  UNL     1       4.921  -1.437   1.802  1.00  0.00    -0.348 N 
HETATM   21  H17 UNL     1       4.669  -2.402   2.090  1.00  0.00     0.163 HD
ENDBRANCH  12  15
ENDBRANCH   1  11
BRANCH   8  22
HETATM   22  N3  UNL     1      -2.724  -0.074   0.327  1.00  0.00    -0.340 N 
HETATM   23  H11 UNL     1      -2.001  -0.186   1.034  1.00  0.00     0.167 HD
BRANCH  22  24
HETATM   24  C13 UNL     1      -4.010  -0.242   0.902  1.00  0.00     0.035 A 
HETATM   25  C14 UNL     1      -5.185   0.069   0.270  1.00  0.00     0.029 A 
HETATM   26  C15 UNL     1      -6.438  -0.102   0.819  1.00  0.00     0.004 A 
HETATM   27  C16 UNL     1      -6.573  -0.612   2.076  1.00  0.00     0.019 A 
HETATM   28  C17 UNL     1      -5.441  -0.944   2.762  1.00  0.00     0.013 A 
HETATM   29 BR1  UNL     1      -5.554  -1.661   4.519  1.00  0.00    -0.051 Br
HETATM   30  C18 UNL     1      -4.216  -0.752   2.165  1.00  0.00     0.048 A 
ENDBRANCH  22  24
ENDBRANCH   8  22
TORSDOF 4
