REMARK  4 active torsions:
REMARK  status: ('A' for Active; 'I' for Inactive)
REMARK    1  A    between atoms: C4_5  and  N2_6 
REMARK    2  A    between atoms: N2_6  and  C5_7 
REMARK    3  A    between atoms: C14_17  and  N3_18 
REMARK       I    between atoms: N3_18  and  C15_19 
REMARK    4  A    between atoms: C15_19  and  C16_21 
ROOT
HETATM    1  C1  UNL     1      -0.077   3.944   1.552  1.00  0.00     0.050 C 
HETATM    2  C2  UNL     1      -0.715   2.627   1.288  1.00  0.00    -0.032 A 
HETATM    3  C3  UNL     1      -1.942   2.339   1.843  1.00  0.00     0.126 A 
HETATM    4  N1  UNL     1      -2.536   1.161   1.621  1.00  0.00    -0.242 NA
HETATM    5  C4  UNL     1      -2.026   0.186   0.871  1.00  0.00     0.139 A 
HETATM    6  C11 UNL     1      -0.815   0.465   0.320  1.00  0.00     0.024 A 
HETATM    7  C12 UNL     1      -0.144   1.650   0.503  1.00  0.00    -0.001 A 
HETATM    8  C13 UNL     1       0.985   1.621  -0.148  1.00  0.00     0.016 A 
HETATM    9  C14 UNL     1       1.199   0.493  -0.804  1.00  0.00     0.048 A 
HETATM   10  C20 UNL     1      -0.009  -0.257  -0.477  1.00  0.00     0.046 A 
ENDROOT
BRANCH   9  11
HETATM   11  N3  UNL     1       2.307   0.119  -1.606  1.00  0.00    -0.325 N 
HETATM   12  C15 UNL     1       3.366   1.054  -1.761  1.00  0.00     0.245 C 
HETATM   13  O1  UNL     1       3.256   2.177  -1.166  1.00  0.00    -0.271 OA
HETATM   14  H10 UNL     1       2.264  -0.832  -2.032  1.00  0.00     0.169 HD
BRANCH  12  15
HETATM   15  C16 UNL     1       4.539   0.646  -2.616  1.00  0.00     0.177 C 
HETATM   16  C17 UNL     1       5.665   0.425  -1.607  1.00  0.00     0.044 C 
HETATM   17  C18 UNL     1       5.282  -0.905  -0.993  1.00  0.00     0.105 C 
HETATM   18  C19 UNL     1       4.789  -1.641  -2.166  1.00  0.00     0.218 C 
HETATM   19  O2  UNL     1       4.714  -2.882  -2.343  1.00  0.00    -0.274 OA
HETATM   20  N4  UNL     1       4.375  -0.679  -3.151  1.00  0.00    -0.348 N 
HETATM   21  H16 UNL     1       4.006  -0.838  -4.116  1.00  0.00     0.163 HD
ENDBRANCH  12  15
ENDBRANCH   9  11
BRANCH   5  22
HETATM   22  N2  UNL     1      -2.634  -1.068   0.620  1.00  0.00    -0.340 N 
HETATM   23  H5  UNL     1      -2.111  -1.749   0.003  1.00  0.00     0.167 HD
BRANCH  22  24
HETATM   24  C5  UNL     1      -3.876  -1.563   1.086  1.00  0.00     0.035 A 
HETATM   25  C6  UNL     1      -4.340  -2.824   0.755  1.00  0.00     0.029 A 
HETATM   26  C7  UNL     1      -5.521  -3.338   1.177  1.00  0.00     0.004 A 
HETATM   27  C8  UNL     1      -6.355  -2.609   1.988  1.00  0.00     0.019 A 
HETATM   28  C9  UNL     1      -5.964  -1.344   2.362  1.00  0.00     0.013 A 
HETATM   29 BR1  UNL     1      -7.096  -0.303   3.487  1.00  0.00    -0.051 Br
HETATM   30  C10 UNL     1      -4.753  -0.880   1.899  1.00  0.00     0.048 A 
ENDBRANCH  22  24
ENDBRANCH   5  22
TORSDOF 4
