REMARK  4 active torsions:
REMARK  status: ('A' for Active; 'I' for Inactive)
REMARK    1  A    between atoms: C2_2  and  C3_3 
REMARK    2  A    between atoms: C4_4  and  O1_5 
REMARK    3  A    between atoms: C9_12  and  N3_13 
REMARK    4  A    between atoms: C12_16  and  O2_17 
ROOT
HETATM    1  C3  UNL     1      -4.519   1.092   0.281  1.00  0.00     0.061 A 
HETATM    2  C4  UNL     1      -3.674   1.712   1.079  1.00  0.00     0.092 A 
HETATM    3  C5  UNL     1      -2.236   1.569   0.940  1.00  0.00     0.050 A 
HETATM    4  C6  UNL     1      -1.692   0.824   0.022  1.00  0.00     0.002 A 
HETATM    5  C7  UNL     1      -0.257   1.011   0.297  1.00  0.00     0.097 A 
HETATM    6  N1  UNL     1      -0.127   2.210   0.939  1.00  0.00    -0.239 NA
HETATM    7  C8  UNL     1       1.115   2.587   1.285  1.00  0.00     0.236 A 
HETATM    8  N2  UNL     1       2.257   1.876   1.050  1.00  0.00    -0.222 NA
HETATM    9  C9  UNL     1       2.131   0.677   0.408  1.00  0.00     0.160 A 
HETATM   10  C15 UNL     1       0.867   0.214   0.016  1.00  0.00     0.104 A 
HETATM   11  N4  UNL     1       1.105  -1.056  -0.587  1.00  0.00    -0.382 N 
HETATM   12  C16 UNL     1       0.379  -1.830  -1.570  1.00  0.00     0.147 C 
HETATM   13  C17 UNL     1      -1.030  -2.065  -1.154  1.00  0.00    -0.009 C 
HETATM   14  C18 UNL     1      -2.151  -1.386  -0.912  1.00  0.00     0.000 C 
HETATM   15  C19 UNL     1      -2.496   0.059  -0.966  1.00  0.00     0.140 A 
HETATM   16  N5  UNL     1      -3.872   0.297  -0.689  1.00  0.00    -0.376 N 
HETATM   17  H13 UNL     1       1.994  -1.387  -0.145  1.00  0.00     0.160 HD
HETATM   18  H19 UNL     1      -4.348  -0.278  -1.401  1.00  0.00     0.160 HD
ENDROOT
BRANCH   9  19
HETATM   19  N3  UNL     1       3.326  -0.039   0.135  1.00  0.00    -0.336 N 
HETATM   20  C10 UNL     1       3.888  -0.570   1.353  1.00  0.00     0.096 A 
HETATM   21  C11 UNL     1       5.006  -1.294   1.346  1.00  0.00     0.053 A 
HETATM   22  C12 UNL     1       5.723  -1.588   0.114  1.00  0.00     0.064 A 
HETATM   23  C13 UNL     1       5.189  -1.084  -1.007  1.00  0.00     0.029 A 
HETATM   24  C14 UNL     1       3.958  -0.263  -1.150  1.00  0.00     0.160 A 
BRANCH  22  25
HETATM   25  O2  UNL     1       6.878  -2.320  -0.011  1.00  0.00    -0.361 OA
HETATM   26  H9  UNL     1       7.609  -2.057  -0.657  1.00  0.00     0.217 HD
ENDBRANCH  22  25
ENDBRANCH   9  19
BRANCH   2  27
HETATM   27  O1  UNL     1      -4.198   2.533   2.092  1.00  0.00    -0.358 OA
HETATM   28  H4  UNL     1      -4.461   2.119   2.991  1.00  0.00     0.217 HD
ENDBRANCH   2  27
BRANCH   1  29
HETATM   29  C2  UNL     1      -5.959   1.212   0.391  1.00  0.00     0.022 C 
HETATM   30  C1  UNL     1      -6.949   0.683  -0.299  1.00  0.00     0.013 C 
ENDBRANCH   1  29
TORSDOF 4
