REMARK  6 active torsions:
REMARK  status: ('A' for Active; 'I' for Inactive)
REMARK    1  A    between atoms: C2_2  and  C3_3 
REMARK    2  A    between atoms: C3_3  and  N4_20 
REMARK    3  A    between atoms: C4_4  and  C5_5 
REMARK    4  A    between atoms: C6_6  and  N1_7 
REMARK    5  A    between atoms: N3_12  and  C10_13 
REMARK       I    between atoms: N4_20  and  C16_21 
REMARK    6  A    between atoms: C16_21  and  C17_23 
ROOT
HETATM    1  C5  UNL     1      -1.847   1.540   0.493  1.00  0.00     0.057 A 
HETATM    2  C6  UNL     1      -2.710   2.725   0.764  1.00  0.00     0.069 A 
HETATM    3  C8  UNL     1      -4.013   2.752   0.657  1.00  0.00     0.149 A 
HETATM    4  N2  UNL     1      -4.655   1.575   0.255  1.00  0.00    -0.253 NA
HETATM    5  C9  UNL     1      -4.057   0.474  -0.015  1.00  0.00     0.214 A 
HETATM    6  N3  UNL     1      -2.616   0.382   0.085  1.00  0.00    -0.307 N 
ENDROOT
BRANCH   1   7
HETATM    7  C4  UNL     1      -0.604   1.059   0.463  1.00  0.00     0.105 C 
HETATM    8  C3  UNL     1       0.774   1.361   0.675  1.00  0.00     0.033 C 
BRANCH   8   9
HETATM    9  C2  UNL     1       1.630   2.349   1.061  1.00  0.00    -0.011 C 
HETATM   10  C1  UNL     1       2.008   3.394   1.812  1.00  0.00     0.026 C 
ENDBRANCH   8   9
BRANCH   8  11
HETATM   11  N4  UNL     1       1.690   0.312   0.435  1.00  0.00    -0.327 N 
HETATM   12  C16 UNL     1       1.772  -1.031   0.028  1.00  0.00     0.244 C 
HETATM   13  O1  UNL     1       0.694  -1.601  -0.246  1.00  0.00    -0.271 OA
HETATM   14  H14 UNL     1       2.747   0.379   0.549  1.00  0.00     0.168 HD
BRANCH  12  15
HETATM   15  C17 UNL     1       2.780  -2.071  -0.202  1.00  0.00     0.177 C 
HETATM   16  C18 UNL     1       2.938  -2.503  -1.619  1.00  0.00     0.044 C 
HETATM   17  C19 UNL     1       4.352  -3.061  -1.642  1.00  0.00     0.105 C 
HETATM   18  C20 UNL     1       5.065  -2.175  -0.688  1.00  0.00     0.218 C 
HETATM   19  O2  UNL     1       6.335  -2.179  -0.706  1.00  0.00    -0.274 OA
HETATM   20  N5  UNL     1       4.096  -1.474   0.084  1.00  0.00    -0.348 N 
HETATM   21  H20 UNL     1       4.498  -0.702   0.680  1.00  0.00     0.163 HD
ENDBRANCH  12  15
ENDBRANCH   8  11
ENDBRANCH   1   7
BRANCH   2  22
HETATM   22  N1  UNL     1      -1.843   3.788   1.154  1.00  0.00    -0.392 N 
HETATM   23  C7  UNL     1      -1.526   4.853   0.218  1.00  0.00     0.146 C 
HETATM   24  H4  UNL     1      -1.445   3.785   2.119  1.00  0.00     0.159 HD
ENDBRANCH   2  22
BRANCH   6  25
HETATM   25  C10 UNL     1      -2.359  -0.962  -0.288  1.00  0.00     0.041 A 
HETATM   26  C11 UNL     1      -2.159  -1.176  -1.646  1.00  0.00     0.030 A 
HETATM   27  C12 UNL     1      -1.919  -2.511  -1.990  1.00  0.00     0.004 A 
HETATM   28  C13 UNL     1      -1.895  -3.502  -1.010  1.00  0.00     0.019 A 
HETATM   29  C14 UNL     1      -2.107  -3.197   0.338  1.00  0.00     0.013 A 
HETATM   30 BR1  UNL     1      -2.065  -4.579   1.641  1.00  0.00    -0.051 Br
HETATM   31  C15 UNL     1      -2.351  -1.879   0.734  1.00  0.00     0.049 A 
ENDBRANCH   6  25
TORSDOF 6
