REMARK  5 active torsions:
REMARK  status: ('A' for Active; 'I' for Inactive)
REMARK    1  A    between atoms: C4_5  and  N2_6 
REMARK    2  A    between atoms: N2_6  and  C5_7 
REMARK    3  A    between atoms: N3_17  and  C14_18 
REMARK    4  A    between atoms: C14_18  and  C15_19 
REMARK    5  A    between atoms: C19_25  and  O2_26 
ROOT
HETATM    1  N1  UNL     1       2.287  -4.423   1.756  1.00  0.00    -0.191 NA
HETATM    2  C1  UNL     1       2.053  -3.310   1.547  1.00  0.00     0.100 C 
HETATM    3  C2  UNL     1       1.763  -1.918   1.263  1.00  0.00     0.053 A 
HETATM    4  C3  UNL     1       2.722  -0.984   1.117  1.00  0.00     0.025 A 
HETATM    5  C4  UNL     1       2.377   0.425   0.828  1.00  0.00     0.130 A 
HETATM    6  C11 UNL     1       0.937   0.652   0.723  1.00  0.00     0.011 A 
HETATM    7  C12 UNL     1      -0.050  -0.219   0.855  1.00  0.00    -0.030 A 
HETATM    8  C13 UNL     1      -1.508   0.204   0.711  1.00  0.00     0.159 C 
HETATM    9  N3  UNL     1      -2.345  -0.886   0.492  1.00  0.00    -0.379 N 
HETATM   10  C19 UNL     1      -2.076  -2.117   1.150  1.00  0.00     0.241 C 
HETATM   11  C20 UNL     1      -0.632  -2.459   1.275  1.00  0.00     0.039 C 
HETATM   12  C21 UNL     1       0.364  -1.584   1.141  1.00  0.00    -0.008 A 
ENDROOT
BRANCH   5  13
HETATM   13  N2  UNL     1       3.070   0.914  -0.340  1.00  0.00    -0.379 N 
HETATM   14  H3  UNL     1       2.478   1.161  -1.161  1.00  0.00     0.160 HD
BRANCH  13  15
HETATM   15  C5  UNL     1       4.472   1.089  -0.478  1.00  0.00     0.029 A 
HETATM   16  C6  UNL     1       5.378   0.827   0.527  1.00  0.00     0.029 A 
HETATM   17  C7  UNL     1       6.750   0.996   0.378  1.00  0.00     0.004 A 
HETATM   18  C8  UNL     1       7.214   1.447  -0.835  1.00  0.00     0.019 A 
HETATM   19  C9  UNL     1       6.348   1.723  -1.873  1.00  0.00     0.013 A 
HETATM   20 BR1  UNL     1       6.991   2.348  -3.553  1.00  0.00    -0.051 Br
HETATM   21  C10 UNL     1       5.019   1.530  -1.644  1.00  0.00     0.048 A 
ENDBRANCH  13  15
ENDBRANCH   5  13
BRANCH  10  22
HETATM   22  O2  UNL     1      -2.752  -3.118   0.426  1.00  0.00    -0.373 OA
HETATM   23  H20 UNL     1      -2.962  -3.869   1.047  1.00  0.00     0.212 HD
ENDBRANCH  10  22
BRANCH   9  24
HETATM   24  C14 UNL     1      -3.482  -0.827  -0.307  1.00  0.00     0.145 C 
BRANCH  24  25
HETATM   25  C15 UNL     1      -4.617  -0.045   0.230  1.00  0.00     0.102 C 
HETATM   26  C16 UNL     1      -4.452   1.395   0.493  1.00  0.00     0.036 C 
HETATM   27  C17 UNL     1      -5.208   2.075  -0.651  1.00  0.00     0.105 C 
HETATM   28  C18 UNL     1      -6.368   1.169  -0.816  1.00  0.00     0.218 C 
HETATM   29  O1  UNL     1      -7.607   1.230  -1.018  1.00  0.00    -0.274 OA
HETATM   30  N4  UNL     1      -5.758  -0.119  -0.685  1.00  0.00    -0.355 N 
HETATM   31  H18 UNL     1      -5.973  -1.065  -1.106  1.00  0.00     0.162 HD
ENDBRANCH  24  25
ENDBRANCH   9  24
TORSDOF 5
