REMARK  8 active torsions:
REMARK  status: ('A' for Active; 'I' for Inactive)
REMARK    1  A    between atoms: C2_2  and  O1_3 
REMARK    2  A    between atoms: O1_3  and  C3_4 
REMARK    3  A    between atoms: C4_5  and  C6_7 
REMARK    4  A    between atoms: C6_7  and  C7_8 
REMARK    5  A    between atoms: C7_8  and  N1_9 
REMARK    6  A    between atoms: N1_9  and  C8_10 
REMARK    7  A    between atoms: C15_19  and  N4_20 
REMARK       I    between atoms: N4_20  and  C16_21 
REMARK    8  A    between atoms: C16_21  and  C17_23 
ROOT
HETATM    1  C8  UNL     1       0.001  -1.644  -0.093  1.00  0.00     0.134 A 
HETATM    2  N2  UNL     1       0.829  -2.672  -0.320  1.00  0.00    -0.241 NA
HETATM    3  C9  UNL     1       0.406  -3.936  -0.492  1.00  0.00     0.142 A 
HETATM    4  C10 UNL     1      -0.923  -4.275  -0.448  1.00  0.00     0.073 A 
HETATM    5  C11 UNL     1      -1.431  -5.597  -0.623  1.00  0.00     0.102 C 
HETATM    6  N3  UNL     1      -1.845  -6.672  -0.746  1.00  0.00    -0.191 NA
HETATM    7  C12 UNL     1      -1.820  -3.238  -0.215  1.00  0.00     0.000 A 
HETATM    8  C13 UNL     1      -3.174  -3.488  -0.155  1.00  0.00     0.016 A 
HETATM    9  C14 UNL     1      -4.113  -2.484   0.075  1.00  0.00     0.030 A 
HETATM   10  C15 UNL     1      -3.603  -1.215   0.242  1.00  0.00     0.036 A 
HETATM   11  C21 UNL     1      -2.250  -0.969   0.181  1.00  0.00     0.045 A 
HETATM   12  C22 UNL     1      -1.327  -1.965  -0.047  1.00  0.00     0.024 A 
ENDROOT
BRANCH   1  13
HETATM   13  N1  UNL     1       0.527  -0.336   0.078  1.00  0.00    -0.374 N 
HETATM   14  H14 UNL     1      -0.006   0.537   0.258  1.00  0.00     0.161 HD
BRANCH  13  15
HETATM   15  C7  UNL     1       1.966  -0.128   0.005  1.00  0.00     0.126 C 
BRANCH  15  16
HETATM   16  C6  UNL     1       2.391   1.287   0.201  1.00  0.00     0.055 C 
BRANCH  16  17
HETATM   17  C4  UNL     1       3.875   1.368   0.105  1.00  0.00    -0.060 C 
HETATM   18  C3  UNL     1       4.647   1.809   1.111  1.00  0.00     0.137 C 
HETATM   19  C5  UNL     1       4.413   0.921  -1.193  1.00  0.00     0.045 C 
BRANCH  18  20
HETATM   20  O1  UNL     1       5.882   1.675   0.495  1.00  0.00    -0.363 OA
BRANCH  20  21
HETATM   21  C2  UNL     1       7.096   2.156   0.999  1.00  0.00     0.170 C 
HETATM   22  C1  UNL     1       8.209   1.802   0.023  1.00  0.00     0.034 C 
ENDBRANCH  20  21
ENDBRANCH  18  20
ENDBRANCH  16  17
ENDBRANCH  15  16
ENDBRANCH  13  15
ENDBRANCH   1  13
BRANCH  10  23
HETATM   23  N4  UNL     1      -4.575  -0.181   0.480  1.00  0.00    -0.321 N 
HETATM   24  C16 UNL     1      -5.160   0.541  -0.598  1.00  0.00     0.279 C 
HETATM   25  O2  UNL     1      -4.775   0.217  -1.756  1.00  0.00    -0.265 OA
HETATM   26  H18 UNL     1      -4.863   0.052   1.457  1.00  0.00     0.169 HD
BRANCH  24  27
HETATM   27  C17 UNL     1      -6.150   1.594  -0.345  1.00  0.00     0.142 A 
HETATM   28  C18 UNL     1      -6.669   2.059   0.869  1.00  0.00     0.045 A 
HETATM   29  C19 UNL     1      -7.568   3.061   0.539  1.00  0.00     0.027 A 
HETATM   30  C20 UNL     1      -7.561   3.163  -0.822  1.00  0.00     0.143 A 
HETATM   31  O3  UNL     1      -6.715   2.284  -1.301  1.00  0.00    -0.317 OA
ENDBRANCH  24  27
ENDBRANCH  10  23
TORSDOF 8
