REMARK  6 active torsions:
REMARK  status: ('A' for Active; 'I' for Inactive)
REMARK    1  A    between atoms: C2_2  and  C4_4 
REMARK    2  A    between atoms: C5_5  and  C6_6 
REMARK    3  A    between atoms: C6_6  and  C7_7 
REMARK    4  A    between atoms: C7_7  and  N1_8 
REMARK    5  A    between atoms: N1_8  and  C8_9 
REMARK    6  A    between atoms: C10_12  and  N3_13 
ROOT
HETATM    1  C8  UNL     1      -0.086  -1.752   0.262  1.00  0.00     0.110 C 
HETATM    2  N2  UNL     1      -0.363  -0.909   1.152  1.00  0.00    -0.245 NA
HETATM    3  C9  UNL     1       0.331   0.268   1.448  1.00  0.00     0.147 C 
HETATM    4  C10 UNL     1      -0.587   1.201   1.818  1.00  0.00     0.043 C 
HETATM    5  C11 UNL     1      -2.050   1.154   1.805  1.00  0.00     0.030 C 
HETATM    6  C12 UNL     1      -3.368   1.305   1.872  1.00  0.00     0.003 C 
HETATM    7  C13 UNL     1      -4.608   0.605   1.587  1.00  0.00     0.011 C 
HETATM    8  C14 UNL     1      -4.706  -0.598   1.092  1.00  0.00     0.060 C 
HETATM    9  N4  UNL     1      -3.661  -1.537   0.703  1.00  0.00    -0.263 NA
HETATM   10  C15 UNL     1      -3.209  -1.991  -0.616  1.00  0.00     0.225 C 
HETATM   11  O1  UNL     1      -3.556  -1.691  -1.849  1.00  0.00    -0.204 OA
HETATM   12  C16 UNL     1      -2.163  -2.999  -0.571  1.00  0.00     0.154 C 
HETATM   13  N5  UNL     1      -1.617  -3.189  -1.925  1.00  0.00    -0.351 N 
HETATM   14  C17 UNL     1      -0.477  -4.053  -1.694  1.00  0.00     0.218 C 
HETATM   15  O2  UNL     1       0.075  -4.619  -2.641  1.00  0.00    -0.274 OA
HETATM   16  C18 UNL     1      -0.113  -4.125  -0.227  1.00  0.00     0.117 C 
HETATM   17  C19 UNL     1      -0.957  -2.892   0.233  1.00  0.00     0.091 C 
HETATM   18  H18 UNL     1      -4.187  -1.093  -0.055  1.00  0.00     0.130 HD
HETATM   19  H20 UNL     1      -1.940  -2.819  -2.840  1.00  0.00     0.163 HD
ENDROOT
BRANCH   1  20
HETATM   20  N1  UNL     1       1.077  -1.544  -0.590  1.00  0.00    -0.354 N 
HETATM   21  H10 UNL     1       0.874  -1.732  -1.625  1.00  0.00     0.166 HD
BRANCH  20  22
HETATM   22  C7  UNL     1       2.331  -1.128  -0.011  1.00  0.00     0.089 C 
BRANCH  22  23
HETATM   23  C6  UNL     1       3.022  -0.030  -0.054  1.00  0.00     0.017 C 
BRANCH  23  24
HETATM   24  C5  UNL     1       3.989   1.023   0.088  1.00  0.00     0.002 C 
HETATM   25  C4  UNL     1       4.401   2.223  -0.173  1.00  0.00     0.002 C 
BRANCH  25  26
HETATM   26  C2  UNL     1       3.789   3.226  -0.989  1.00  0.00    -0.084 C 
HETATM   27  C1  UNL     1       4.510   4.346  -0.991  1.00  0.00     0.038 C 
HETATM   28  C3  UNL     1       2.646   3.517  -1.869  1.00  0.00     0.043 C 
ENDBRANCH  25  26
ENDBRANCH  23  24
ENDBRANCH  22  23
ENDBRANCH  20  22
ENDBRANCH   1  20
BRANCH   4  29
HETATM   29  N3  UNL     1      -0.682   2.555   2.247  1.00  0.00    -0.398 N 
HETATM   30  H12 UNL     1      -0.633   2.812   3.281  1.00  0.00     0.156 HD
HETATM   31  H13 UNL     1      -0.793   3.452   1.775  1.00  0.00     0.156 HD
ENDBRANCH   4  29
TORSDOF 6
