REMARK  7 active torsions:
REMARK  status: ('A' for Active; 'I' for Inactive)
REMARK    1  A    between atoms: C2_2  and  C3_3 
REMARK    2  A    between atoms: C3_3  and  N1_4 
REMARK    3  A    between atoms: N1_4  and  C4_5 
REMARK    4  A    between atoms: C7_8  and  O1_9 
REMARK    5  A    between atoms: O1_9  and  C8_10 
REMARK    6  A    between atoms: C10_14  and  N4_15 
REMARK    7  A    between atoms: C16_22  and  C17_23 
ROOT
HETATM    1  C8  UNL     1      -0.873  -0.330   0.307  1.00  0.00     0.188 A 
HETATM    2  N2  UNL     1      -0.415  -0.822  -0.857  1.00  0.00    -0.217 NA
HETATM    3  C9  UNL     1      -1.283  -1.302  -1.786  1.00  0.00     0.238 A 
HETATM    4  N3  UNL     1      -2.618  -1.282  -1.532  1.00  0.00    -0.223 NA
HETATM    5  C10 UNL     1      -3.112  -0.788  -0.359  1.00  0.00     0.149 A 
HETATM    6  C16 UNL     1      -2.224  -0.304   0.578  1.00  0.00     0.101 A 
ENDROOT
BRANCH   1   7
HETATM    7  O1  UNL     1      -0.088   0.187   1.332  1.00  0.00    -0.291 OA
BRANCH   7   8
HETATM    8  C7  UNL     1       1.285   0.187   1.118  1.00  0.00     0.078 A 
HETATM    9  C6  UNL     1       2.200  -0.789   1.425  1.00  0.00     0.039 A 
HETATM   10  C5  UNL     1       3.535  -0.616   1.137  1.00  0.00     0.032 A 
HETATM   11  C4  UNL     1       3.995   0.532   0.536  1.00  0.00     0.028 A 
HETATM   12  C19 UNL     1       3.070   1.518   0.226  1.00  0.00     0.032 A 
HETATM   13  C18 UNL     1       1.711   1.364   0.509  1.00  0.00     0.039 A 
BRANCH  11  14
HETATM   14  N1  UNL     1       5.376   0.717   0.235  1.00  0.00    -0.386 N 
HETATM   15  H6  UNL     1       6.039  -0.049   0.484  1.00  0.00     0.160 HD
BRANCH  14  16
HETATM   16  C3  UNL     1       5.806   1.947  -0.399  1.00  0.00     0.146 C 
BRANCH  16  17
HETATM   17  C2  UNL     1       7.276   1.863  -0.592  1.00  0.00    -0.018 C 
HETATM   18  C1  UNL     1       7.880   0.755  -0.177  1.00  0.00     0.008 C 
ENDBRANCH  16  17
ENDBRANCH  14  16
ENDBRANCH  11  14
ENDBRANCH   7   8
ENDBRANCH   1   7
BRANCH   6  19
HETATM   19  C17 UNL     1      -2.892   0.190   1.775  1.00  0.00     0.278 C 
HETATM   20  O2  UNL     1      -3.178   1.421   1.660  1.00  0.00    -0.301 OA
ENDBRANCH   6  19
BRANCH   5  21
HETATM   21  N4  UNL     1      -4.527  -0.887  -0.354  1.00  0.00    -0.336 N 
HETATM   22  C11 UNL     1      -5.200  -0.170  -1.392  1.00  0.00     0.112 A 
HETATM   23  C12 UNL     1      -6.520  -0.184  -1.501  1.00  0.00     0.026 A 
HETATM   24 BR1  UNL     1      -7.403   0.778  -2.892  1.00  0.00    -0.050 Br
HETATM   25  C13 UNL     1      -7.362  -0.920  -0.580  1.00  0.00     0.018 A 
HETATM   26  C14 UNL     1      -6.720  -1.588   0.390  1.00  0.00    -0.005 A 
HETATM   27  C15 UNL     1      -5.259  -1.651   0.618  1.00  0.00     0.157 A 
ENDBRANCH   5  21
TORSDOF 7
