REMARK  3 active torsions:
REMARK  status: ('A' for Active; 'I' for Inactive)
REMARK    1  A    between atoms: C8_9  and  C9_10 
REMARK    2  A    between atoms: C9_10  and  N3_12 
REMARK    3  A    between atoms: N3_12  and  C10_13 
ROOT
HETATM    1  N1  UNL     1      -3.642  -3.835   0.257  1.00  0.00    -0.196 NA
HETATM    2  C1  UNL     1      -3.296  -2.737   0.223  1.00  0.00     0.072 C 
HETATM    3  C2  UNL     1      -2.868  -1.296   0.177  1.00  0.00     0.094 C 
HETATM    4  C3  UNL     1      -3.561  -0.085   0.518  1.00  0.00     0.093 A 
HETATM    5  C4  UNL     1      -4.344   0.721  -0.547  1.00  0.00     0.061 A 
HETATM    6  C5  UNL     1      -3.186   1.017  -1.549  1.00  0.00     0.027 A 
HETATM    7  C6  UNL     1      -2.894   1.286  -0.213  1.00  0.00     0.050 A 
HETATM    8  C7  UNL     1      -1.306   1.099  -0.771  1.00  0.00     0.014 C 
HETATM    9  C8  UNL     1      -0.700  -0.245  -0.642  1.00  0.00    -0.012 C 
HETATM   10  C16 UNL     1      -1.435  -1.526  -0.331  1.00  0.00     0.070 C 
HETATM   11  N4  UNL     1      -2.621   1.512   1.248  1.00  0.00    -0.349 N 
HETATM   12  C17 UNL     1      -3.255   0.373   1.936  1.00  0.00     0.232 A 
HETATM   13  O1  UNL     1      -3.175   0.446   3.212  1.00  0.00    -0.273 OA
HETATM   14  H13 UNL     1      -2.203   2.303   1.901  1.00  0.00     0.163 HD
ENDROOT
BRANCH   9  15
HETATM   15  C9  UNL     1       0.705  -0.730  -0.769  1.00  0.00     0.126 C 
HETATM   16  N2  UNL     1       1.155  -1.919  -0.644  1.00  0.00    -0.283 NA
HETATM   17  H5  UNL     1       0.626  -2.774  -0.429  1.00  0.00     0.188 HD
BRANCH  15  18
HETATM   18  N3  UNL     1       1.718   0.215  -1.081  1.00  0.00    -0.341 N 
HETATM   19  H6  UNL     1       1.529   0.900  -1.873  1.00  0.00     0.167 HD
BRANCH  18  20
HETATM   20  C10 UNL     1       2.964   0.304  -0.402  1.00  0.00     0.034 A 
HETATM   21  C11 UNL     1       3.333  -0.487   0.639  1.00  0.00     0.029 A 
HETATM   22  C12 UNL     1       4.546  -0.393   1.289  1.00  0.00     0.004 A 
HETATM   23  C13 UNL     1       5.473   0.553   0.885  1.00  0.00     0.019 A 
HETATM   24  C14 UNL     1       5.122   1.379  -0.180  1.00  0.00     0.013 A 
HETATM   25 BR1  UNL     1       6.362   2.696  -0.773  1.00  0.00    -0.051 Br
HETATM   26  C15 UNL     1       3.899   1.239  -0.789  1.00  0.00     0.048 A 
ENDBRANCH  18  20
ENDBRANCH  15  18
ENDBRANCH   9  15
TORSDOF 3
