REMARK  4 active torsions:
REMARK  status: ('A' for Active; 'I' for Inactive)
REMARK    1  A    between atoms: C2_2  and  O1_3 
REMARK    2  A    between atoms: O1_3  and  B1_4 
REMARK    3  A    between atoms: B1_4  and  O2_5 
REMARK    4  A    between atoms: C9_15  and  N3_16 
ROOT
HETATM    1  B1  UNL     1       1.566  -0.651   2.256  1.00  0.00     0.438 B 
HETATM    2  C3  UNL     1       0.541  -0.135   1.165  1.00  0.00    -0.092 A 
HETATM    3  B2  UNL     1       0.674   1.289   2.283  1.00  0.00     0.279 B 
HETATM    4  C4  UNL     1      -0.175   2.746   2.055  1.00  0.00    -0.073 A 
HETATM    5  C5  UNL     1      -0.871   3.833   1.799  1.00  0.00     0.011 A 
HETATM    6  C6  UNL     1      -1.776   4.005   0.669  1.00  0.00     0.025 A 
HETATM    7  C7  UNL     1      -2.477   5.281   0.532  1.00  0.00     0.070 C 
HETATM    8  N1  UNL     1      -2.123   3.227  -0.306  1.00  0.00    -0.275 NA
HETATM    9  C8  UNL     1      -1.512   1.975  -0.271  1.00  0.00     0.272 A 
HETATM   10  N2  UNL     1      -1.678   0.954  -1.215  1.00  0.00    -0.358 N 
HETATM   11  C9  UNL     1      -0.970  -0.269  -1.027  1.00  0.00     0.103 A 
HETATM   12  C15 UNL     1      -0.131  -0.559  -0.049  1.00  0.00     0.033 A 
HETATM   13  H14 UNL     1      -2.277   1.037  -2.030  1.00  0.00     0.162 HD
ENDROOT
BRANCH  11  14
HETATM   14  N3  UNL     1      -1.157  -1.309  -1.968  1.00  0.00    -0.339 N 
HETATM   15  C10 UNL     1      -2.151  -2.312  -1.790  1.00  0.00     0.093 A 
HETATM   16  C11 UNL     1      -2.234  -3.237  -2.736  1.00  0.00     0.018 A 
HETATM   17  C12 UNL     1      -1.379  -3.276  -3.920  1.00  0.00     0.018 A 
HETATM   18  C13 UNL     1      -0.478  -2.320  -4.027  1.00  0.00     0.007 A 
HETATM   19 BR1  UNL     1       0.678  -2.298  -5.542  1.00  0.00    -0.054 Br
HETATM   20  C14 UNL     1      -0.233  -1.207  -3.083  1.00  0.00     0.176 A 
ENDBRANCH  11  14
BRANCH   1  21
HETATM   21  O1  UNL     1       2.916  -0.869   1.683  1.00  0.00    -0.429 OA
BRANCH  21  22
HETATM   22  C2  UNL     1       3.434  -2.105   1.968  1.00  0.00     0.141 C 
HETATM   23  C1  UNL     1       4.802  -2.201   1.321  1.00  0.00     0.031 C 
ENDBRANCH  21  22
ENDBRANCH   1  21
BRANCH   1  24
HETATM   24  O2  UNL     1       1.076  -1.728   3.117  1.00  0.00    -0.439 OA
HETATM   25  H6  UNL     1       1.296  -2.624   2.816  1.00  0.00     0.185 HD
ENDBRANCH   1  24
TORSDOF 4
