REMARK  3 active torsions:
REMARK  status: ('A' for Active; 'I' for Inactive)
REMARK    1  A    between atoms: P1_2  and  C1_3 
REMARK    2  A    between atoms: C12_17  and  N3_18 
REMARK       I    between atoms: N3_18  and  C13_19 
REMARK    3  A    between atoms: C13_19  and  C14_21 
ROOT
HETATM    1  C1  UNL     1       0.576   0.582   1.149  1.00  0.00     0.124 C 
HETATM    2  C2  UNL     1       0.974   1.573   0.101  1.00  0.00     0.007 C 
HETATM    3  C3  UNL     1       1.558   2.276  -0.910  1.00  0.00    -0.005 C 
HETATM    4 BR1  UNL     1       0.870   4.007  -1.510  1.00  0.00    -0.055 Br
HETATM    5  C4  UNL     1       2.620   1.282  -1.204  1.00  0.00     0.061 C 
HETATM    6  C5  UNL     1       3.687   0.936  -1.938  1.00  0.00    -0.014 C 
HETATM    7  C6  UNL     1       3.988  -0.377  -1.334  1.00  0.00     0.014 C 
HETATM    8  C7  UNL     1       3.801  -1.376  -0.496  1.00  0.00     0.089 C 
HETATM    9  N1  UNL     1       4.085  -2.640   0.090  1.00  0.00    -0.354 N 
HETATM   10  C8  UNL     1       3.039  -3.330   0.718  1.00  0.00     0.103 C 
HETATM   11  N2  UNL     1       2.808  -2.680   1.837  1.00  0.00    -0.247 NA
HETATM   12  C9  UNL     1       1.441  -2.306   2.028  1.00  0.00     0.125 C 
HETATM   13  C10 UNL     1       0.538  -2.634   1.084  1.00  0.00    -0.038 C 
HETATM   14  C11 UNL     1      -0.459  -1.664   0.671  1.00  0.00     0.034 C 
HETATM   15  C12 UNL     1      -0.450  -0.344   0.696  1.00  0.00     0.027 C 
HETATM   16  C18 UNL     1       0.664  -4.008   0.543  1.00  0.00     0.047 C 
HETATM   17  C19 UNL     1       2.075  -4.488   0.678  1.00  0.00     0.083 C 
HETATM   18  H7  UNL     1       5.085  -2.907  -0.028  1.00  0.00     0.166 HD
ENDROOT
BRANCH  15  19
HETATM   19  N3  UNL     1      -1.655   0.269   0.211  1.00  0.00    -0.328 N 
HETATM   20  C13 UNL     1      -2.658   1.103   0.750  1.00  0.00     0.255 C 
HETATM   21  O2  UNL     1      -2.669   1.514   1.937  1.00  0.00    -0.271 OA
HETATM   22  H10 UNL     1      -1.783   0.004  -0.812  1.00  0.00     0.168 HD
BRANCH  20  23
HETATM   23  C14 UNL     1      -3.791   1.554  -0.082  1.00  0.00     0.311 C 
HETATM   24  C15 UNL     1      -3.968   3.035  -0.110  1.00  0.00     0.047 C 
HETATM   25  C16 UNL     1      -3.528   3.438  -1.484  1.00  0.00     0.033 C 
HETATM   26  C17 UNL     1      -3.505   2.182  -2.308  1.00  0.00     0.271 C 
HETATM   27  N4  UNL     1      -3.750   1.081  -1.435  1.00  0.00     0.097 N 
HETATM   28  H18 UNL     1      -4.641   0.622  -1.702  1.00  0.00     0.317 HD
ENDBRANCH  20  23
ENDBRANCH  15  19
BRANCH   1  29
HETATM   29  P1  UNL     1       0.154   1.420   2.780  1.00  0.00     0.137 P 
HETATM   30  O1  UNL     1       0.552   0.758   4.146  1.00  0.00    -0.202 OA
ENDBRANCH   1  29
TORSDOF 3
