REMARK  1 active torsions:
REMARK  status: ('A' for Active; 'I' for Inactive)
REMARK    1  A    between atoms: C9_12  and  N3_13 
ROOT
HETATM    1  C1  UNL     1       4.111  -1.454   3.215  1.00  0.00     0.038 C 
HETATM    2  C2  UNL     1       2.631  -1.441   3.050  1.00  0.00    -0.006 C 
HETATM    3  C3  UNL     1       1.827  -0.681   2.280  1.00  0.00     0.018 C 
HETATM    4  C4  UNL     1       0.393  -1.014   2.434  1.00  0.00     0.085 C 
HETATM    5  C5  UNL     1      -0.200  -1.846   1.318  1.00  0.00     0.158 C 
HETATM    6 CL1  UNL     1      -1.852  -2.287   1.808  1.00  0.00    -0.116 Cl
HETATM    7  C6  UNL     1      -0.253  -1.150   0.057  1.00  0.00     0.133 C 
HETATM    8  N1  UNL     1      -1.479  -0.655   0.421  1.00  0.00    -0.231 NA
HETATM    9  C7  UNL     1      -2.066   0.400  -0.429  1.00  0.00     0.086 C 
HETATM   10  C8  UNL     1      -2.819   0.829  -1.490  1.00  0.00     0.150 C 
HETATM   11  N2  UNL     1      -3.345  -0.308  -2.249  1.00  0.00    -0.251 NA
HETATM   12  C9  UNL     1      -2.509  -1.031  -2.960  1.00  0.00     0.086 C 
HETATM   13  C10 UNL     1      -1.166  -1.480  -3.552  1.00  0.00     0.175 C 
HETATM   14  C11 UNL     1      -0.041  -1.317  -2.567  1.00  0.00     0.237 C 
HETATM   15  O1  UNL     1       0.979  -1.688  -2.578  1.00  0.00    -0.272 OA
HETATM   16  N4  UNL     1       0.268  -0.699  -1.293  1.00  0.00    -0.256 N 
HETATM   17  C12 UNL     1       0.959   0.359  -0.760  1.00  0.00     0.160 C 
HETATM   18  C13 UNL     1       0.328   1.633  -0.508  1.00  0.00     0.058 C 
HETATM   19  C14 UNL     1      -1.239   1.712  -0.300  1.00  0.00    -0.007 C 
HETATM   20  C15 UNL     1      -1.739   2.882  -0.094  1.00  0.00    -0.017 C 
HETATM   21  C16 UNL     1      -1.128   4.202   0.051  1.00  0.00     0.037 C 
HETATM   22  S1  UNL     1       2.500   0.955  -0.068  1.00  0.00     0.279 S 
HETATM   23  O2  UNL     1       2.420   2.395   0.075  1.00  0.00    -0.199 OA
HETATM   24  O3  UNL     1       3.705   0.693  -0.878  1.00  0.00    -0.199 OA
HETATM   25  N5  UNL     1       2.661   0.250   1.538  1.00  0.00    -0.283 N 
HETATM   26  H18 UNL     1       3.516   0.573   2.025  1.00  0.00     0.178 HD
ENDROOT
BRANCH  12  27
HETATM   27  N3  UNL     1      -3.625  -1.826  -3.352  1.00  0.00    -0.290 NA
HETATM   28  H9  UNL     1      -4.442  -2.303  -3.735  1.00  0.00     0.125 HD
HETATM   29  H10 UNL     1      -4.445  -2.132  -3.897  1.00  0.00     0.125 HD
ENDBRANCH  12  27
TORSDOF 1
