REMARK  8 active torsions:
REMARK  status: ('A' for Active; 'I' for Inactive)
REMARK    1  A    between atoms: C2_2  and  C3_3 
REMARK    2  A    between atoms: C3_3  and  N1_4 
REMARK    3  A    between atoms: C5_6  and  C6_7 
REMARK    4  A    between atoms: C8_11  and  N4_12 
REMARK    5  A    between atoms: N4_12  and  C9_13 
REMARK    6  A    between atoms: C9_13  and  C10_14 
REMARK    7  A    between atoms: C12_17  and  N5_18 
REMARK    8  A    between atoms: N5_18  and  C13_19 
ROOT
HETATM    1  C6  UNL     1       0.420   1.093   0.560  1.00  0.00     0.100 A 
HETATM    2  N2  UNL     1       1.039   2.242   0.861  1.00  0.00    -0.239 NA
HETATM    3  C7  UNL     1       2.310   2.356   1.198  1.00  0.00     0.236 A 
HETATM    4  N3  UNL     1       3.091   1.271   1.260  1.00  0.00    -0.222 NA
HETATM    5  C8  UNL     1       2.569   0.040   0.972  1.00  0.00     0.154 A 
HETATM    6  C12 UNL     1       1.237  -0.001   0.629  1.00  0.00     0.110 A 
ENDROOT
BRANCH   1   7
HETATM    7  C5  UNL     1      -0.973   1.057   0.203  1.00  0.00     0.010 A 
HETATM    8  C4  UNL     1      -1.780   0.065  -0.065  1.00  0.00     0.100 A 
HETATM    9  N1  UNL     1      -3.146   0.091  -0.413  1.00  0.00    -0.382 N 
HETATM   10  C16 UNL     1      -3.838   1.347  -0.523  1.00  0.00     0.149 A 
HETATM   11  C15 UNL     1      -2.900   2.441  -0.215  1.00  0.00    -0.006 A 
HETATM   12  C14 UNL     1      -1.629   2.354   0.109  1.00  0.00     0.013 A 
BRANCH   9  13
HETATM   13  C3  UNL     1      -3.899  -1.098  -0.670  1.00  0.00     0.149 C 
BRANCH  13  14
HETATM   14  C2  UNL     1      -5.300  -0.831  -1.014  1.00  0.00    -0.018 C 
HETATM   15  C1  UNL     1      -6.378  -1.254  -0.363  1.00  0.00     0.008 C 
ENDBRANCH  13  14
ENDBRANCH   9  13
ENDBRANCH   1   7
BRANCH   6  16
HETATM   16  N5  UNL     1       0.853  -1.317   0.350  1.00  0.00    -0.329 N 
HETATM   17  H13 UNL     1       0.438  -2.214   0.746  1.00  0.00     0.168 HD
BRANCH  16  18
HETATM   18  C13 UNL     1       1.157  -1.541  -1.047  1.00  0.00     0.353 C 
HETATM   19  O1  UNL     1       1.667  -0.671  -1.799  1.00  0.00    -0.283 OA
ENDBRANCH  16  18
ENDBRANCH   6  16
BRANCH   5  20
HETATM   20  N4  UNL     1       3.441  -1.052   1.058  1.00  0.00    -0.369 N 
HETATM   21  H8  UNL     1       3.070  -2.002   0.846  1.00  0.00     0.161 HD
BRANCH  20  22
HETATM   22  C9  UNL     1       4.832  -0.918   1.427  1.00  0.00     0.149 C 
BRANCH  22  23
HETATM   23  C10 UNL     1       5.528  -0.044   0.437  1.00  0.00    -0.000 C 
HETATM   24  C11 UNL     1       6.547  -0.518  -0.258  1.00  0.00     0.053 C 
HETATM   25 BR1  UNL     1       7.159  -2.317  -0.026  1.00  0.00    -0.064 Br
ENDBRANCH  22  23
ENDBRANCH  20  22
ENDBRANCH   5  20
TORSDOF 8
