REMARK  1 active torsions:
REMARK  status: ('A' for Active; 'I' for Inactive)
REMARK    1  A    between atoms: C6_8  and  C7_9 
ROOT
HETATM    1  C7  UNL     1      -1.398  -0.399  -0.834  1.00  0.00    -0.021 C 
HETATM    2  C8  UNL     1      -2.144  -0.366  -1.915  1.00  0.00     0.126 C 
HETATM    3  N1  UNL     1      -3.580  -0.510  -2.055  1.00  0.00    -0.256 NA
HETATM    4  C9  UNL     1      -4.432  -0.197  -1.068  1.00  0.00     0.207 C 
HETATM    5  N2  UNL     1      -4.181   0.317   0.290  1.00  0.00    -0.350 N 
HETATM    6  C10 UNL     1      -3.084  -0.307   1.018  1.00  0.00     0.045 A 
HETATM    7  C11 UNL     1      -3.387  -0.607   2.359  1.00  0.00     0.030 A 
HETATM    8  C12 UNL     1      -2.438  -1.358   3.065  1.00  0.00     0.004 A 
HETATM    9  C13 UNL     1      -1.257  -1.813   2.536  1.00  0.00     0.020 A 
HETATM   10  C14 UNL     1      -0.933  -1.536   1.234  1.00  0.00     0.024 A 
HETATM   11 BR1  UNL     1       0.576  -2.291   0.284  1.00  0.00    -0.050 Br
HETATM   12  C15 UNL     1      -1.861  -0.773   0.505  1.00  0.00     0.016 A 
HETATM   13  H9  UNL     1      -4.668   1.024   0.847  1.00  0.00     0.166 HD
ENDROOT
BRANCH   1  14
HETATM   14  C6  UNL     1       0.097  -0.202  -0.940  1.00  0.00    -0.009 C 
HETATM   15  C5  UNL     1       0.804   0.419   0.232  1.00  0.00     0.005 C 
HETATM   16  C4  UNL     1       1.169   0.944   1.433  1.00  0.00    -0.005 C 
HETATM   17  C3  UNL     1       2.501   1.483   1.821  1.00  0.00     0.005 C 
HETATM   18  C2  UNL     1       3.374   1.329   0.679  1.00  0.00     0.000 A 
HETATM   19  O2  UNL     1       4.086   1.253  -0.351  1.00  0.00     0.000 OA
HETATM   20  O1  UNL     1       4.127   1.232  -0.476  1.00  0.00     0.000 OA
HETATM   21  C1  UNL     1       4.523   1.058  -1.574  1.00  0.00     0.053 A 
HETATM   22  S1  UNL     1       4.380   0.588  -3.290  1.00  0.00    -0.202 SA
HETATM   23  C18 UNL     1       2.692  -0.095  -3.452  1.00  0.00     0.137 C 
HETATM   24  C17 UNL     1       1.445  -0.421  -3.031  1.00  0.00    -0.013 C 
HETATM   25  C16 UNL     1       1.223  -0.027  -1.596  1.00  0.00     0.067 C 
ENDBRANCH   1  14
TORSDOF 1
