REMARK  2 active torsions:
REMARK  status: ('A' for Active; 'I' for Inactive)
REMARK    1  A    between atoms: N2_5  and  N3_6 
REMARK    2  A    between atoms: N3_6  and  C4_7 
ROOT
HETATM    1  N1  UNL     1      -0.903  -4.724   2.348  1.00  0.00    -0.192 NA
HETATM    2  C1  UNL     1      -0.554  -3.734   1.783  1.00  0.00     0.097 C 
HETATM    3  C2  UNL     1      -0.145  -2.501   1.093  1.00  0.00     0.048 C 
HETATM    4  C3  UNL     1      -1.093  -1.526   1.139  1.00  0.00     0.135 C 
HETATM    5  N2  UNL     1      -1.346  -0.203   0.718  1.00  0.00    -0.269 N 
HETATM    6  C6  UNL     1      -0.806   1.093   0.581  1.00  0.00     0.083 A 
HETATM    7  C7  UNL     1      -1.047   1.820   1.753  1.00  0.00     0.035 A 
HETATM    8  C8  UNL     1      -0.683   3.138   2.079  1.00  0.00     0.021 A 
HETATM    9  C9  UNL     1       0.006   3.754   1.061  1.00  0.00     0.013 A 
HETATM   10 BR1  UNL     1       0.526   5.545   1.456  1.00  0.00    -0.051 Br
HETATM   11  C10 UNL     1       0.267   3.061  -0.131  1.00  0.00     0.052 A 
HETATM   12  C11 UNL     1      -0.113   1.763  -0.401  1.00  0.00     0.072 A 
HETATM   13  N4  UNL     1       0.374   1.520  -1.744  1.00  0.00    -0.319 N 
HETATM   14  N5  UNL     1       1.554   0.735  -1.983  1.00  0.00    -0.237 NA
HETATM   15  C12 UNL     1       2.091   0.341  -0.694  1.00  0.00     0.137 C 
HETATM   16  C13 UNL     1       3.222  -0.567  -0.904  1.00  0.00    -0.011 C 
HETATM   17  C14 UNL     1       3.347  -1.837  -0.558  1.00  0.00    -0.006 C 
HETATM   18  C15 UNL     1       2.317  -2.648   0.136  1.00  0.00    -0.016 C 
HETATM   19  C16 UNL     1       1.201  -3.025   0.721  1.00  0.00     0.066 C 
HETATM   20  H9  UNL     1      -0.251   1.999  -2.423  1.00  0.00     0.181 HD
HETATM   21  H10 UNL     1       2.280   1.387  -2.403  1.00  0.00     0.146 HD
ENDROOT
BRANCH   5  22
HETATM   22  N3  UNL     1      -2.569   0.163   0.232  1.00  0.00    -0.327 N 
HETATM   23  H2  UNL     1      -3.206   0.682   0.856  1.00  0.00     0.180 HD
BRANCH  22  24
HETATM   24  C4  UNL     1      -3.171  -0.723  -0.685  1.00  0.00     0.176 C 
HETATM   25  C5  UNL     1      -2.354  -0.932  -1.922  1.00  0.00     0.412 C 
HETATM   26  O1  UNL     1      -1.785  -1.183  -2.971  1.00  0.00    -0.428 OA
ENDBRANCH  22  24
ENDBRANCH   5  22
TORSDOF 2
