REMARK  2 active torsions:
REMARK  status: ('A' for Active; 'I' for Inactive)
REMARK    1  A    between atoms: C10_12  and  N2_13 
REMARK    2  A    between atoms: N2_13  and  C11_14 
ROOT
HETATM    1  C1  UNL     1       5.903   0.431   1.447  1.00  0.00     0.032 C 
HETATM    2  C2  UNL     1       4.718   0.229   0.489  1.00  0.00     0.078 C 
HETATM    3  C3  UNL     1       4.321  -1.204   0.498  1.00  0.00     0.055 C 
HETATM    4  C4  UNL     1       3.069  -1.498  -0.245  1.00  0.00     0.278 C 
HETATM    5  N1  UNL     1       1.847  -1.082   0.421  1.00  0.00     0.119 N 
HETATM    6  C5  UNL     1       1.632  -2.130   1.440  1.00  0.00     0.301 C 
HETATM    7  C6  UNL     1       0.813  -3.118   0.669  1.00  0.00     0.201 C 
HETATM    8  O1  UNL     1       0.410  -2.548  -0.520  1.00  0.00    -0.355 OA
HETATM    9  C7  UNL     1       0.715  -1.193  -0.440  1.00  0.00     0.364 C 
HETATM   10  C8  UNL     1      -0.434  -0.325  -0.191  1.00  0.00     0.075 A 
HETATM   11  C9  UNL     1      -1.256   0.773  -0.063  1.00  0.00     0.063 A 
HETATM   12  C10 UNL     1      -2.531   0.942   0.297  1.00  0.00     0.116 A 
HETATM   13  N3  UNL     1      -2.911   2.205   0.289  1.00  0.00    -0.249 NA
HETATM   14  C17 UNL     1      -2.009   3.204  -0.073  1.00  0.00     0.117 A 
HETATM   15  C18 UNL     1      -1.065   2.301  -0.266  1.00  0.00     0.094 A 
HETATM   16  C19 UNL     1      -0.107   3.673  -0.491  1.00  0.00    -0.003 C 
HETATM   17  N4  UNL     1       0.628   4.711  -0.641  1.00  0.00    -0.100 N 
HETATM   18  C20 UNL     1       0.011   1.311  -0.489  1.00  0.00     0.013 A 
HETATM   19  C21 UNL     1       1.157   1.654  -0.676  1.00  0.00     0.020 C 
HETATM   20  C22 UNL     1       2.290   2.245  -1.221  1.00  0.00     0.013 C 
HETATM   21  C23 UNL     1       3.144   1.826  -0.375  1.00  0.00     0.083 C 
HETATM   22  N5  UNL     1       3.668   1.148   0.784  1.00  0.00    -0.395 N 
HETATM   23  H24 UNL     1       2.937   1.757   1.196  1.00  0.00     0.159 HD
ENDROOT
BRANCH  12  24
HETATM   24  N2  UNL     1      -3.209  -0.302   0.584  1.00  0.00    -0.344 N 
HETATM   25  H15 UNL     1      -2.840  -1.166   1.011  1.00  0.00     0.167 HD
BRANCH  24  26
HETATM   26  C11 UNL     1      -4.575  -0.368   0.255  1.00  0.00     0.034 A 
HETATM   27  C12 UNL     1      -5.217  -1.627   0.096  1.00  0.00     0.029 A 
HETATM   28  C13 UNL     1      -6.560  -1.753  -0.238  1.00  0.00     0.004 A 
HETATM   29  C14 UNL     1      -7.331  -0.636  -0.435  1.00  0.00     0.019 A 
HETATM   30  C15 UNL     1      -6.769   0.610  -0.297  1.00  0.00     0.013 A 
HETATM   31 BR1  UNL     1      -7.811   2.209  -0.552  1.00  0.00    -0.051 Br
HETATM   32  C16 UNL     1      -5.434   0.675   0.039  1.00  0.00     0.048 A 
ENDBRANCH  24  26
ENDBRANCH  12  24
TORSDOF 2
