REMARK  4 active torsions:
REMARK  status: ('A' for Active; 'I' for Inactive)
REMARK    1  A    between atoms: C2_2  and  O1_3 
REMARK    2  A    between atoms: O1_3  and  C3_4 
REMARK    3  A    between atoms: C3_4  and  C4_6 
REMARK    4  A    between atoms: N3_21  and  N4_22 
ROOT
HETATM    1  C4  UNL     1       2.677  -0.203   0.711  1.00  0.00     0.041 A 
HETATM    2  C5  UNL     1       2.206  -1.077   1.668  1.00  0.00     0.018 A 
HETATM    3  C6  UNL     1       0.872  -1.372   1.753  1.00  0.00     0.016 A 
HETATM    4  C7  UNL     1       0.147  -0.724   0.818  1.00  0.00     0.014 A 
HETATM    5  C8  UNL     1       0.505   0.153  -0.170  1.00  0.00     0.060 A 
HETATM    6  C9  UNL     1       1.850   0.410  -0.202  1.00  0.00     0.049 A 
HETATM    7  N1  UNL     1      -0.272   0.826  -1.134  1.00  0.00    -0.299 N 
HETATM    8  N2  UNL     1      -1.582   0.799  -1.597  1.00  0.00    -0.298 N 
HETATM    9  C10 UNL     1      -2.989   1.043  -1.325  1.00  0.00     0.077 A 
HETATM   10  C11 UNL     1      -3.490   2.307  -1.522  1.00  0.00     0.052 A 
HETATM   11  C12 UNL     1      -4.826   2.687  -1.280  1.00  0.00     0.013 A 
HETATM   12 BR1  UNL     1      -5.392   4.474  -1.576  1.00  0.00    -0.051 Br
HETATM   13  C13 UNL     1      -5.578   1.643  -0.822  1.00  0.00     0.021 A 
HETATM   14  C14 UNL     1      -5.150   0.333  -0.596  1.00  0.00     0.035 A 
HETATM   15  C15 UNL     1      -3.804   0.036  -0.860  1.00  0.00     0.078 A 
HETATM   16  N3  UNL     1      -3.573  -1.334  -0.564  1.00  0.00    -0.287 N 
HETATM   17  C16 UNL     1      -2.348  -1.086   0.029  1.00  0.00     0.134 C 
HETATM   18  C17 UNL     1      -1.291  -0.811   0.715  1.00  0.00     0.074 C 
HETATM   19  C18 UNL     1      -1.903  -0.494   1.957  1.00  0.00     0.102 C 
HETATM   20  N5  UNL     1      -2.423  -0.243   2.981  1.00  0.00    -0.191 NA
HETATM   21  H9  UNL     1       0.139   1.567  -1.734  1.00  0.00     0.187 HD
HETATM   22  H10 UNL     1      -1.860   0.513  -2.581  1.00  0.00     0.187 HD
ENDROOT
BRANCH  16  23
HETATM   23  N4  UNL     1      -4.307  -2.454  -0.778  1.00  0.00    -0.243 NA
HETATM   24  H14 UNL     1      -4.531  -2.691  -1.747  1.00  0.00     0.143 HD
HETATM   25  H15 UNL     1      -3.865  -3.265  -0.318  1.00  0.00     0.143 HD
ENDBRANCH  16  23
BRANCH   1  26
HETATM   26  C3  UNL     1       4.131   0.115   0.653  1.00  0.00     0.293 C 
HETATM   27  O2  UNL     1       4.563   0.923  -0.206  1.00  0.00    -0.259 OA
BRANCH  26  28
HETATM   28  O1  UNL     1       4.996  -0.493   1.555  1.00  0.00    -0.318 OA
BRANCH  28  29
HETATM   29  C2  UNL     1       6.395  -0.180   1.519  1.00  0.00     0.174 C 
HETATM   30  C1  UNL     1       7.030  -0.491   0.217  1.00  0.00     0.034 C 
ENDBRANCH  28  29
ENDBRANCH  26  28
ENDBRANCH   1  26
TORSDOF 4
