REMARK  2 active torsions:
REMARK  status: ('A' for Active; 'I' for Inactive)
REMARK    1  A    between atoms: O1_1  and  C1_2 
REMARK    2  A    between atoms: C6_9  and  N3_10 
ROOT
HETATM    1  C1  UNL     1      -4.419  -1.680  -0.103  1.00  0.00     0.171 C 
HETATM    2  C2  UNL     1      -2.946  -1.478   0.085  1.00  0.00     0.019 C 
HETATM    3  C3  UNL     1      -2.275  -0.416  -0.326  1.00  0.00    -0.019 C 
HETATM    4  C4  UNL     1      -0.917  -0.772   0.126  1.00  0.00     0.095 A 
HETATM    5  N1  UNL     1      -1.021  -1.941   0.775  1.00  0.00    -0.239 NA
HETATM    6  C5  UNL     1       0.101  -2.475   1.284  1.00  0.00     0.236 A 
HETATM    7  N2  UNL     1       1.328  -1.887   1.169  1.00  0.00    -0.222 NA
HETATM    8  C6  UNL     1       1.448  -0.698   0.510  1.00  0.00     0.156 A 
HETATM    9  C12 UNL     1       0.314  -0.123  -0.023  1.00  0.00     0.104 A 
HETATM   10  N4  UNL     1       0.775   1.090  -0.623  1.00  0.00    -0.382 N 
HETATM   11  C13 UNL     1       0.264   1.915  -1.700  1.00  0.00     0.147 C 
HETATM   12  C14 UNL     1      -1.058   2.506  -1.281  1.00  0.00    -0.011 C 
HETATM   13  C15 UNL     1      -2.239   1.942  -1.054  1.00  0.00    -0.019 C 
HETATM   14  C16 UNL     1      -2.990   0.681  -1.031  1.00  0.00     0.055 C 
HETATM   15  C17 UNL     1      -4.302   0.859  -0.268  1.00  0.00     0.052 A 
HETATM   16  C18 UNL     1      -5.581   0.805  -0.870  1.00  0.00    -0.010 A 
HETATM   17  C19 UNL     1      -5.067  -0.394  -0.522  1.00  0.00    -0.042 A 
HETATM   18  H12 UNL     1       1.648   1.345  -0.109  1.00  0.00     0.160 HD
ENDROOT
BRANCH   8  19
HETATM   19  N3  UNL     1       2.753  -0.140   0.408  1.00  0.00    -0.359 N 
HETATM   20  C7  UNL     1       3.670   0.164  -0.704  1.00  0.00     0.151 C 
HETATM   21  C8  UNL     1       4.740  -0.869  -0.591  1.00  0.00    -0.010 C 
HETATM   22  C9  UNL     1       5.344  -0.904   0.592  1.00  0.00    -0.012 C 
HETATM   23  C10 UNL     1       4.885   0.079   1.643  1.00  0.00     0.098 C 
HETATM   24 BR1  UNL     1       5.689   1.802   1.306  1.00  0.00    -0.085 Br
HETATM   25  C11 UNL     1       3.398   0.245   1.668  1.00  0.00     0.144 C 
ENDBRANCH   8  19
BRANCH   1  26
HETATM   26  O1  UNL     1      -4.946  -2.032   1.126  1.00  0.00    -0.387 OA
HETATM   27  H1  UNL     1      -4.601  -1.388   1.801  1.00  0.00     0.210 HD
ENDBRANCH   1  26
TORSDOF 2
