REMARK  7 active torsions:
REMARK  status: ('A' for Active; 'I' for Inactive)
REMARK    1  A    between atoms: C2_2  and  C3_3 
REMARK    2  A    between atoms: C4_4  and  C5_5 
REMARK    3  A    between atoms: C4_4  and  N1_8 
REMARK    4  A    between atoms: C13_17  and  N4_18 
REMARK       I    between atoms: N4_18  and  C14_19 
REMARK    5  A    between atoms: C14_19  and  C15_21 
REMARK    6  A    between atoms: C15_21  and  C16_22 
REMARK    7  A    between atoms: C16_22  and  N5_23 
ROOT
HETATM    1  N1  UNL     1      -3.541  -0.283  -0.014  1.00  0.00    -0.256 N 
HETATM    2  N2  UNL     1      -4.930  -0.212   0.206  1.00  0.00    -0.303 N 
HETATM    3  C7  UNL     1      -5.520  -0.677   1.403  1.00  0.00     0.131 A 
HETATM    4  C8  UNL     1      -4.719  -1.187   2.322  1.00  0.00     0.074 A 
HETATM    5  C9  UNL     1      -5.247  -1.672   3.547  1.00  0.00     0.102 C 
HETATM    6  N3  UNL     1      -5.693  -2.056   4.559  1.00  0.00    -0.191 NA
HETATM    7  C10 UNL     1      -3.283  -1.283   2.143  1.00  0.00     0.015 A 
HETATM    8  C11 UNL     1      -2.414  -1.807   3.075  1.00  0.00     0.017 A 
HETATM    9  C12 UNL     1      -1.069  -1.869   2.844  1.00  0.00     0.030 A 
HETATM   10  C13 UNL     1      -0.487  -1.417   1.678  1.00  0.00     0.036 A 
HETATM   11  C21 UNL     1      -1.350  -0.903   0.768  1.00  0.00     0.062 A 
HETATM   12  C22 UNL     1      -2.706  -0.831   0.980  1.00  0.00     0.070 A 
HETATM   13  H7  UNL     1      -5.582   0.184  -0.502  1.00  0.00     0.186 HD
ENDROOT
BRANCH   1  14
HETATM   14  C4  UNL     1      -3.106   0.221  -1.266  1.00  0.00     0.057 C 
HETATM   15  C3  UNL     1      -3.025   1.515  -1.520  1.00  0.00     0.031 C 
BRANCH  15  16
HETATM   16  C2  UNL     1      -3.376   2.522  -0.508  1.00  0.00    -0.008 C 
HETATM   17  C1  UNL     1      -3.303   3.804  -0.740  1.00  0.00     0.011 C 
ENDBRANCH  15  16
BRANCH  14  18
HETATM   18  C5  UNL     1      -2.745  -0.740  -2.304  1.00  0.00     0.039 C 
HETATM   19  C6  UNL     1      -2.805  -2.034  -2.112  1.00  0.00     0.058 C 
HETATM   20 BR1  UNL     1      -2.326  -3.284  -3.492  1.00  0.00    -0.064 Br
ENDBRANCH  14  18
ENDBRANCH   1  14
BRANCH  10  21
HETATM   21  N4  UNL     1       0.919  -1.550   1.585  1.00  0.00    -0.327 N 
HETATM   22  C14 UNL     1       1.756  -1.156   0.517  1.00  0.00     0.223 C 
HETATM   23  O1  UNL     1       1.265  -0.614  -0.504  1.00  0.00    -0.273 OA
HETATM   24  H11 UNL     1       1.471  -1.977   2.346  1.00  0.00     0.169 HD
BRANCH  22  25
HETATM   25  C15 UNL     1       3.218  -1.328   0.485  1.00  0.00     0.133 C 
BRANCH  25  26
HETATM   26  C16 UNL     1       3.864  -0.816  -0.743  1.00  0.00     0.282 C 
BRANCH  26  27
HETATM   27  N5  UNL     1       3.700   0.576  -1.011  1.00  0.00     0.093 N 
HETATM   28  C17 UNL     1       4.380   1.448  -0.085  1.00  0.00     0.298 C 
HETATM   29  C18 UNL     1       5.888   1.444  -0.289  1.00  0.00     0.198 C 
HETATM   30  O2  UNL     1       6.128   2.090  -1.486  1.00  0.00    -0.388 OA
HETATM   31  C19 UNL     1       5.071   2.130  -2.359  1.00  0.00     0.198 C 
HETATM   32  C20 UNL     1       4.263   0.832  -2.325  1.00  0.00     0.298 C 
ENDBRANCH  26  27
ENDBRANCH  25  26
ENDBRANCH  22  25
ENDBRANCH  10  21
TORSDOF 7
