REMARK  0 active torsions:
REMARK  status: ('A' for Active; 'I' for Inactive)
ROOT
HETATM    1  C1  UNL     1      -3.728  -3.172  -1.001  1.00  0.00     0.012 C 
HETATM    2  C2  UNL     1      -2.474  -2.356  -0.777  1.00  0.00     0.016 C 
HETATM    3  C3  UNL     1      -1.680  -3.095   0.287  1.00  0.00     0.035 C 
HETATM    4  C4  UNL     1      -0.400  -2.394   0.567  1.00  0.00    -0.009 C 
HETATM    5  C5  UNL     1       0.909  -2.531   0.536  1.00  0.00     0.082 C 
HETATM    6  N1  UNL     1       2.225  -2.049   0.735  1.00  0.00    -0.378 N 
HETATM    7  P1  UNL     1       2.813  -0.531   0.036  1.00  0.00    -0.041 P 
HETATM    8  C6  UNL     1       2.710   0.647   1.126  1.00  0.00     0.049 C 
HETATM    9  C7  UNL     1       2.911   2.021   0.675  1.00  0.00     0.036 C 
HETATM   10  C8  UNL     1       4.008   2.524   0.088  1.00  0.00     0.029 C 
HETATM   11  C9  UNL     1       5.254   1.817  -0.202  1.00  0.00    -0.001 C 
HETATM   12  C10 UNL     1       5.337   0.515  -0.426  1.00  0.00    -0.021 C 
HETATM   13  C11 UNL     1       4.450  -0.625  -0.616  1.00  0.00     0.078 C 
HETATM   14  N2  UNL     1       2.009   3.150   0.744  1.00  0.00    -0.327 N 
HETATM   15  C12 UNL     1       0.621   3.198   0.452  1.00  0.00     0.223 C 
HETATM   16  O1  UNL     1       0.960   2.004   0.244  1.00  0.00    -0.273 OA
HETATM   17  C13 UNL     1      -0.828   3.133   0.119  1.00  0.00     0.133 C 
HETATM   18  C14 UNL     1      -1.071   1.688  -0.267  1.00  0.00     0.282 C 
HETATM   19  N3  UNL     1      -2.418   1.400  -0.632  1.00  0.00     0.093 N 
HETATM   20  C15 UNL     1      -3.297   1.431   0.492  1.00  0.00     0.298 C 
HETATM   21  C16 UNL     1      -2.967   0.390   1.525  1.00  0.00     0.198 C 
HETATM   22  O2  UNL     1      -2.489  -0.785   0.963  1.00  0.00    -0.382 OA
HETATM   23  C17 UNL     1      -2.920  -0.983  -0.323  1.00  0.00     0.153 C 
HETATM   24  C18 UNL     1      -2.469   0.101  -1.270  1.00  0.00     0.304 C 
HETATM   25  H9  UNL     1       2.813  -2.673   1.331  1.00  0.00     0.163 HD
HETATM   26  H10 UNL     1       1.903  -0.243  -1.020  1.00  0.00     0.079 HD
HETATM   27  H17 UNL     1       2.389   4.075   1.044  1.00  0.00     0.169 HD
ENDROOT
TORSDOF 0
