REMARK  6 active torsions:
REMARK  status: ('A' for Active; 'I' for Inactive)
REMARK    1  A    between atoms: C4_6  and  N3_7 
REMARK    2  A    between atoms: N3_7  and  C5_8 
REMARK    3  A    between atoms: C13_17  and  N4_18 
REMARK       I    between atoms: N4_18  and  C14_19 
REMARK    4  A    between atoms: C14_19  and  C15_21 
REMARK    5  A    between atoms: C15_21  and  C16_22 
REMARK    6  A    between atoms: C16_22  and  N5_23 
ROOT
HETATM    1  N1  UNL     1      -2.743  -5.671   2.042  1.00  0.00    -0.191 NA
HETATM    2  C1  UNL     1      -2.843  -4.597   1.614  1.00  0.00     0.102 C 
HETATM    3  C2  UNL     1      -2.972  -3.250   1.084  1.00  0.00     0.073 A 
HETATM    4  C3  UNL     1      -4.215  -2.631   1.099  1.00  0.00     0.142 A 
HETATM    5  N2  UNL     1      -4.314  -1.388   0.605  1.00  0.00    -0.241 NA
HETATM    6  C4  UNL     1      -3.250  -0.743   0.107  1.00  0.00     0.139 A 
HETATM    7  C11 UNL     1      -2.011  -1.329   0.081  1.00  0.00     0.024 A 
HETATM    8  C12 UNL     1      -0.890  -0.707  -0.422  1.00  0.00     0.045 A 
HETATM    9  C13 UNL     1       0.350  -1.304  -0.448  1.00  0.00     0.035 A 
HETATM   10  C20 UNL     1       0.439  -2.603   0.068  1.00  0.00     0.030 A 
HETATM   11  C21 UNL     1      -0.667  -3.283   0.593  1.00  0.00     0.016 A 
HETATM   12  C22 UNL     1      -1.860  -2.622   0.583  1.00  0.00     0.000 A 
ENDROOT
BRANCH   6  13
HETATM   13  N3  UNL     1      -3.427   0.577  -0.425  1.00  0.00    -0.340 N 
HETATM   14  H2  UNL     1      -2.682   1.160  -0.858  1.00  0.00     0.167 HD
BRANCH  13  15
HETATM   15  C5  UNL     1      -4.627   1.335  -0.463  1.00  0.00     0.035 A 
HETATM   16  C6  UNL     1      -4.924   2.312  -1.427  1.00  0.00     0.029 A 
HETATM   17  C7  UNL     1      -6.110   3.009  -1.376  1.00  0.00     0.004 A 
HETATM   18  C8  UNL     1      -7.062   2.807  -0.409  1.00  0.00     0.019 A 
HETATM   19  C9  UNL     1      -6.756   1.849   0.526  1.00  0.00     0.013 A 
HETATM   20 BR1  UNL     1      -8.130   1.611   1.862  1.00  0.00    -0.051 Br
HETATM   21  C10 UNL     1      -5.588   1.123   0.525  1.00  0.00     0.048 A 
ENDBRANCH  13  15
ENDBRANCH   6  13
BRANCH   9  22
HETATM   22  N4  UNL     1       1.570  -0.756  -0.931  1.00  0.00    -0.327 N 
HETATM   23  C14 UNL     1       2.668  -0.037  -0.336  1.00  0.00     0.223 C 
HETATM   24  O1  UNL     1       2.176  -0.019   0.843  1.00  0.00    -0.273 OA
HETATM   25  H8  UNL     1       1.374  -1.083  -1.937  1.00  0.00     0.169 HD
BRANCH  23  26
HETATM   26  C15 UNL     1       3.630   0.214  -1.426  1.00  0.00     0.133 C 
BRANCH  26  27
HETATM   27  C16 UNL     1       4.869   0.939  -1.104  1.00  0.00     0.284 C 
BRANCH  27  28
HETATM   28  N5  UNL     1       5.736   0.332  -0.114  1.00  0.00     0.113 N 
HETATM   29  C17 UNL     1       7.042   0.983  -0.095  1.00  0.00     0.301 C 
HETATM   30  C18 UNL     1       7.042   1.750   1.180  1.00  0.00     0.200 C 
HETATM   31  O2  UNL     1       6.205   1.012   2.026  1.00  0.00    -0.361 OA
HETATM   32  C19 UNL     1       5.142   0.622   1.193  1.00  0.00     0.440 C 
ENDBRANCH  27  28
ENDBRANCH  26  27
ENDBRANCH  23  26
ENDBRANCH   9  22
TORSDOF 6
