REMARK  5 active torsions:
REMARK  status: ('A' for Active; 'I' for Inactive)
REMARK    1  A    between atoms: C6_7  and  N2_8 
REMARK    2  A    between atoms: N2_8  and  C7_9 
REMARK    3  A    between atoms: C7_9  and  C8_10 
REMARK    4  A    between atoms: C9_11  and  C10_13 
REMARK    5  A    between atoms: C10_13  and  O1_14 
ROOT
HETATM    1  C1  UNL     1      -2.584  -3.083  -0.139  1.00  0.00     0.038 C 
HETATM    2  C2  UNL     1      -1.478  -2.136  -0.628  1.00  0.00     0.124 C 
HETATM    3  C3  UNL     1      -0.230  -2.584  -0.019  1.00  0.00     0.043 C 
HETATM    4  C4  UNL     1       0.267  -3.901  -0.200  1.00  0.00     0.097 C 
HETATM    5  N1  UNL     1       0.691  -4.977  -0.348  1.00  0.00    -0.192 NA
HETATM    6  C5  UNL     1       0.413  -1.711   0.699  1.00  0.00     0.035 C 
HETATM    7  C6  UNL     1       0.153  -0.284   1.060  1.00  0.00     0.298 C 
HETATM    8  C11 UNL     1      -1.024   0.242   0.377  1.00  0.00     0.096 C 
HETATM    9  C12 UNL     1      -1.423   1.495   0.274  1.00  0.00     0.166 C 
HETATM   10  O2  UNL     1      -0.855   2.657   0.771  1.00  0.00    -0.333 OA
HETATM   11  C13 UNL     1      -1.713   3.728   0.436  1.00  0.00     0.197 C 
HETATM   12  C14 UNL     1      -2.352   3.209  -0.859  1.00  0.00     0.151 C 
HETATM   13  N3  UNL     1      -2.615   1.829  -0.436  1.00  0.00    -0.357 N 
HETATM   14  C15 UNL     1      -3.690   0.864  -0.562  1.00  0.00     0.145 C 
HETATM   15  C16 UNL     1      -3.216  -0.541  -0.636  1.00  0.00     0.143 C 
HETATM   16  N4  UNL     1      -1.849  -0.767  -0.263  1.00  0.00    -0.368 N 
ENDROOT
BRANCH   7  17
HETATM   17  N2  UNL     1       1.357   0.485   1.035  1.00  0.00     0.101 N 
HETATM   18  H7  UNL     1       1.984   0.107   1.774  1.00  0.00     0.317 HD
BRANCH  17  19
HETATM   19  C7  UNL     1       2.077   0.357  -0.227  1.00  0.00     0.299 C 
BRANCH  19  20
HETATM   20  C8  UNL     1       3.415   0.978  -0.064  1.00  0.00     0.020 C 
HETATM   21  C9  UNL     1       4.396   0.082  -0.246  1.00  0.00     0.010 C 
HETATM   22 BR1  UNL     1       3.875  -1.733  -0.662  1.00  0.00    -0.054 Br
BRANCH  21  23
HETATM   23  C10 UNL     1       5.889   0.064  -0.208  1.00  0.00     0.210 C 
BRANCH  23  24
HETATM   24  O1  UNL     1       6.428   1.310   0.102  1.00  0.00    -0.396 OA
HETATM   25  H13 UNL     1       5.753   2.033  -0.027  1.00  0.00     0.209 HD
ENDBRANCH  23  24
ENDBRANCH  21  23
ENDBRANCH  19  20
ENDBRANCH  17  19
ENDBRANCH   7  17
TORSDOF 5
