REMARK  0 active torsions:
REMARK  status: ('A' for Active; 'I' for Inactive)
ROOT
HETATM    1  N1  UNL     1      -1.397  -4.587  -3.261  1.00  0.00    -0.192 NA
HETATM    2  C1  UNL     1      -1.464  -3.923  -2.314  1.00  0.00     0.086 C 
HETATM    3  P1  UNL     1      -1.559  -2.941  -0.862  1.00  0.00     0.011 P 
HETATM    4  C2  UNL     1      -0.505  -3.474   0.251  1.00  0.00    -0.009 C 
HETATM    5  C3  UNL     1       0.641  -2.856   0.263  1.00  0.00     0.045 C 
HETATM    6  C4  UNL     1       1.253  -2.270  -0.934  1.00  0.00     0.059 C 
HETATM    7  N2  UNL     1       1.027  -2.639  -2.159  1.00  0.00    -0.300 NA
HETATM    8  C5  UNL     1       2.231  -1.175  -0.677  1.00  0.00    -0.006 A 
HETATM    9  C6  UNL     1       3.260  -0.773  -1.496  1.00  0.00     0.014 A 
HETATM   10  C7  UNL     1       4.059   0.285  -1.119  1.00  0.00     0.003 A 
HETATM   11  C8  UNL     1       3.904   0.994   0.050  1.00  0.00     0.029 A 
HETATM   12  C9  UNL     1       2.889   0.631   0.905  1.00  0.00     0.035 A 
HETATM   13  C10 UNL     1       2.099  -0.435   0.507  1.00  0.00     0.043 A 
HETATM   14  N3  UNL     1       2.428   1.155   2.175  1.00  0.00    -0.327 N 
HETATM   15  C11 UNL     1       1.145   1.773   1.996  1.00  0.00     0.223 C 
HETATM   16  O1  UNL     1       0.940   1.620   0.769  1.00  0.00    -0.273 OA
HETATM   17  C12 UNL     1      -0.073   2.491   2.464  1.00  0.00     0.133 C 
HETATM   18  C13 UNL     1      -0.902   2.807   1.255  1.00  0.00     0.281 C 
HETATM   19  N4  UNL     1      -1.289   1.646   0.558  1.00  0.00     0.092 N 
HETATM   20  C14 UNL     1      -1.708   0.511   1.298  1.00  0.00     0.302 C 
HETATM   21  C15 UNL     1      -2.657  -0.315   0.500  1.00  0.00     0.303 C 
HETATM   22  N5  UNL     1      -2.383  -0.499  -0.878  1.00  0.00     0.096 N 
HETATM   23  C16 UNL     1      -2.256   0.795  -1.511  1.00  0.00     0.303 C 
HETATM   24  C17 UNL     1      -2.178   1.933  -0.566  1.00  0.00     0.302 C 
HETATM   25  C18 UNL     1      -1.123  -1.225  -1.163  1.00  0.00     0.317 C 
HETATM   26  H1  UNL     1      -2.830  -3.123  -0.288  1.00  0.00     0.074 HD
HETATM   27  H3  UNL     1       1.521  -2.146  -2.919  1.00  0.00     0.187 HD
HETATM   28  H8  UNL     1       2.974   1.079   3.077  1.00  0.00     0.169 HD
ENDROOT
TORSDOF 0
