REMARK  6 active torsions:
REMARK  status: ('A' for Active; 'I' for Inactive)
REMARK    1  A    between atoms: N2_5  and  C4_6 
REMARK    2  A    between atoms: C4_6  and  C5_7 
REMARK    3  A    between atoms: C5_7  and  C6_8 
REMARK       I    between atoms: C6_8  and  N3_10 
REMARK    4  A    between atoms: N3_10  and  C7_11 
REMARK    5  A    between atoms: C13_18  and  N5_19 
REMARK    6  A    between atoms: N5_19  and  C14_20 
ROOT
HETATM    1  C7  UNL     1       1.449  -1.834   1.893  1.00  0.00     0.027 A 
HETATM    2  C8  UNL     1       1.356  -2.652   2.991  1.00  0.00     0.023 A 
HETATM    3  C9  UNL     1       2.510  -3.440   3.039  1.00  0.00    -0.011 A 
HETATM    4  C10 UNL     1       3.563  -3.428   2.170  1.00  0.00     0.033 A 
HETATM    5  C11 UNL     1       4.209  -3.091   1.225  1.00  0.00     0.088 A 
HETATM    6  C12 UNL     1       4.729  -2.795   0.435  1.00  0.00    -0.028 A 
HETATM    7  N4  UNL     1       5.364  -2.402  -0.569  1.00  0.00    -0.192 NA
HETATM    8  C13 UNL     1       4.112  -1.307  -0.810  1.00  0.00     0.134 A 
HETATM    9  C20 UNL     1       2.863  -1.311   0.079  1.00  0.00     0.043 A 
HETATM   10  C21 UNL     1       2.746  -2.225   1.331  1.00  0.00     0.060 A 
ENDROOT
BRANCH   1  11
HETATM   11  N3  UNL     1       0.378  -0.955   1.659  1.00  0.00    -0.330 N 
HETATM   12  C6  UNL     1      -0.608  -1.496   0.813  1.00  0.00     0.223 C 
HETATM   13  O1  UNL     1      -0.275  -2.671   0.465  1.00  0.00    -0.273 OA
HETATM   14  H12 UNL     1       0.489  -0.057   2.143  1.00  0.00     0.168 HD
BRANCH  12  15
HETATM   15  C5  UNL     1      -1.766  -0.561   0.551  1.00  0.00     0.122 C 
BRANCH  15  16
HETATM   16  C4  UNL     1      -2.680  -1.239  -0.423  1.00  0.00     0.126 C 
BRANCH  16  17
HETATM   17  N2  UNL     1      -3.842  -0.541  -0.799  1.00  0.00    -0.409 N 
HETATM   18  C3  UNL     1      -3.624   0.620  -1.581  1.00  0.00     0.147 C 
HETATM   19  C2  UNL     1      -4.902   1.350  -1.930  1.00  0.00     0.291 C 
HETATM   20  N1  UNL     1      -5.734   1.552  -0.794  1.00  0.00     0.087 N 
HETATM   21  C1  UNL     1      -5.371   2.623   0.078  1.00  0.00     0.310 C 
HETATM   22  C23 UNL     1      -6.046   0.312  -0.160  1.00  0.00     0.291 C 
HETATM   23  C22 UNL     1      -4.794  -0.452   0.250  1.00  0.00     0.147 C 
ENDBRANCH  16  17
ENDBRANCH  15  16
ENDBRANCH  12  15
ENDBRANCH   1  11
BRANCH   8  24
HETATM   24  N5  UNL     1       3.865  -0.257  -1.711  1.00  0.00    -0.341 N 
HETATM   25  H15 UNL     1       3.312  -0.686  -2.477  1.00  0.00     0.167 HD
BRANCH  24  26
HETATM   26  C14 UNL     1       4.447   0.964  -1.274  1.00  0.00     0.035 A 
HETATM   27  C15 UNL     1       3.760   1.870  -0.520  1.00  0.00     0.029 A 
HETATM   28  C16 UNL     1       4.153   3.082  -0.011  1.00  0.00     0.004 A 
HETATM   29  C17 UNL     1       5.463   3.340  -0.371  1.00  0.00     0.019 A 
HETATM   30  C18 UNL     1       6.257   2.532  -1.115  1.00  0.00     0.013 A 
HETATM   31 BR1  UNL     1       8.068   2.956  -1.583  1.00  0.00    -0.051 Br
HETATM   32  C19 UNL     1       5.767   1.330  -1.582  1.00  0.00     0.048 A 
ENDBRANCH  24  26
ENDBRANCH   8  24
TORSDOF 6
