REMARK  3 active torsions:
REMARK  status: ('A' for Active; 'I' for Inactive)
REMARK    1  A    between atoms: C2_2  and  C3_3 
REMARK       I    between atoms: C3_3  and  N1_5 
REMARK    2  A    between atoms: N1_5  and  C4_6 
REMARK    3  A    between atoms: C11_15  and  C12_16 
ROOT
HETATM    1  C4  UNL     1       1.242  -0.441   0.187  1.00  0.00     0.035 A 
HETATM    2  C5  UNL     1       1.555  -1.761   0.114  1.00  0.00     0.030 A 
HETATM    3  C6  UNL     1       0.579  -2.724  -0.004  1.00  0.00     0.016 A 
HETATM    4  C7  UNL     1      -0.735  -2.327  -0.047  1.00  0.00    -0.001 A 
HETATM    5  C8  UNL     1      -1.695  -3.297  -0.193  1.00  0.00     0.073 A 
HETATM    6  C9  UNL     1      -1.438  -4.703  -0.280  1.00  0.00     0.102 C 
HETATM    7  N2  UNL     1      -1.211  -5.834  -0.350  1.00  0.00    -0.191 NA
HETATM    8  C10 UNL     1      -2.982  -2.853  -0.257  1.00  0.00     0.140 A 
HETATM    9  N3  UNL     1      -3.266  -1.567  -0.180  1.00  0.00    -0.258 NA
HETATM   10  C11 UNL     1      -2.395  -0.557  -0.035  1.00  0.00     0.077 A 
HETATM   11  C17 UNL     1      -1.127  -1.011   0.024  1.00  0.00     0.007 A 
HETATM   12  C18 UNL     1      -0.091  -0.129   0.138  1.00  0.00     0.044 A 
ENDROOT
BRANCH  10  13
HETATM   13  C12 UNL     1      -2.874   0.798   0.016  1.00  0.00    -0.009 A 
HETATM   14  C13 UNL     1      -2.469   1.993   0.333  1.00  0.00    -0.008 A 
HETATM   15  C14 UNL     1      -3.452   3.066   0.166  1.00  0.00     0.074 A 
HETATM   16  C15 UNL     1      -4.653   2.326  -0.366  1.00  0.00    -0.007 A 
HETATM   17 BR1  UNL     1      -6.232   3.252  -0.775  1.00  0.00    -0.055 Br
HETATM   18  C16 UNL     1      -4.249   1.096  -0.414  1.00  0.00     0.028 A 
ENDBRANCH  10  13
BRANCH   1  19
HETATM   19  N1  UNL     1       2.182   0.600   0.307  1.00  0.00    -0.327 N 
HETATM   20  C3  UNL     1       3.584   0.544   0.368  1.00  0.00     0.221 C 
HETATM   21  O1  UNL     1       4.129  -0.569   0.313  1.00  0.00    -0.273 OA
HETATM   22  H6  UNL     1       1.877   1.604   0.365  1.00  0.00     0.169 HD
BRANCH  20  23
HETATM   23  C2  UNL     1       4.513   1.672   0.494  1.00  0.00     0.098 C 
HETATM   24  C1  UNL     1       5.948   1.241   0.529  1.00  0.00     0.014 C 
ENDBRANCH  20  23
ENDBRANCH   1  19
TORSDOF 3
