REMARK  6 active torsions:
REMARK  status: ('A' for Active; 'I' for Inactive)
REMARK    1  A    between atoms: C1_2  and  O2_3 
REMARK    2  A    between atoms: C1_2  and  C2_4 
REMARK    3  A    between atoms: C9_13  and  N3_14 
REMARK    4  A    between atoms: N4_16  and  C11_17 
REMARK    5  A    between atoms: C11_17  and  N5_18 
REMARK    6  A    between atoms: N5_18  and  C12_19 
ROOT
HETATM    1  C2  UNL     1      -5.640   1.121   0.316  1.00  0.00     0.040 A 
HETATM    2  C3  UNL     1      -4.625   1.995   0.620  1.00  0.00     0.021 A 
HETATM    3  C4  UNL     1      -3.329   1.474   0.679  1.00  0.00     0.041 A 
HETATM    4  C5  UNL     1      -3.130   0.132   0.434  1.00  0.00     0.105 A 
HETATM    5  C6  UNL     1      -4.190  -0.721   0.129  1.00  0.00     0.085 A 
HETATM    6  C7  UNL     1      -5.494  -0.227   0.064  1.00  0.00     0.052 A 
HETATM    7  N1  UNL     1      -4.226  -2.115  -0.156  1.00  0.00    -0.276 N 
HETATM    8  N2  UNL     1      -3.142  -3.004   0.048  1.00  0.00    -0.183 NA
HETATM    9  C8  UNL     1      -1.876  -2.743   0.182  1.00  0.00     0.190 C 
HETATM   10  C9  UNL     1      -1.180  -1.445   0.162  1.00  0.00     0.168 C 
HETATM   11  O3  UNL     1      -1.782  -0.228   0.532  1.00  0.00    -0.293 OA
HETATM   12  H5  UNL     1      -5.131  -2.462  -0.539  1.00  0.00     0.189 HD
ENDROOT
BRANCH  10  13
HETATM   13  N3  UNL     1       0.048  -1.519  -0.230  1.00  0.00    -0.127 NA
HETATM   14  C10 UNL     1       0.769  -0.293  -0.268  1.00  0.00     0.198 A 
HETATM   15  N4  UNL     1       1.553  -1.296  -0.441  1.00  0.00    -0.280 N 
BRANCH  15  16
HETATM   16  C11 UNL     1       2.969  -1.121  -0.642  1.00  0.00     0.266 C 
BRANCH  16  17
HETATM   17  N5  UNL     1       3.453  -0.087   0.259  1.00  0.00    -0.372 N 
HETATM   18  H10 UNL     1       2.810   0.406   0.919  1.00  0.00     0.161 HD
BRANCH  17  19
HETATM   19  C12 UNL     1       4.831   0.262   0.241  1.00  0.00     0.031 A 
HETATM   20  C13 UNL     1       5.359   1.244   1.078  1.00  0.00     0.032 A 
HETATM   21  C14 UNL     1       6.714   1.540   1.014  1.00  0.00     0.046 A 
HETATM   22  C15 UNL     1       7.524   0.871   0.134  1.00  0.00     0.138 A 
HETATM   23  F1  UNL     1       8.864   1.161   0.068  1.00  0.00    -0.204 F 
HETATM   24  C16 UNL     1       7.069  -0.116  -0.727  1.00  0.00     0.074 A 
HETATM   25 CL1  UNL     1       8.062  -0.985  -1.854  1.00  0.00    -0.081 Cl
HETATM   26  C17 UNL     1       5.707  -0.365  -0.614  1.00  0.00     0.056 A 
ENDBRANCH  17  19
ENDBRANCH  16  17
ENDBRANCH  15  16
ENDBRANCH  10  13
BRANCH   1  27
HETATM   27  C1  UNL     1      -6.962   1.718   0.269  1.00  0.00     0.176 C 
HETATM   28  O1  UNL     1      -7.133   2.944   0.494  1.00  0.00    -0.646 OA
BRANCH  27  29
HETATM   29  O2  UNL     1      -8.209   1.218   0.011  1.00  0.00    -0.773 OA
HETATM   30  H1  UNL     1      -8.938   1.251   0.712  1.00  0.00     0.167 HD
ENDBRANCH  27  29
ENDBRANCH   1  27
TORSDOF 6
