REMARK  7 active torsions:
REMARK  status: ('A' for Active; 'I' for Inactive)
REMARK    1  A    between atoms: N2_5  and  C4_6 
REMARK    2  A    between atoms: C4_6  and  C5_7 
REMARK    3  A    between atoms: C5_7  and  C6_8 
REMARK       I    between atoms: C6_8  and  N3_10 
REMARK    4  A    between atoms: N3_10  and  C7_11 
REMARK    5  A    between atoms: C12_16  and  N4_17 
REMARK    6  A    between atoms: N6_20  and  N7_21 
REMARK    7  A    between atoms: N7_21  and  C14_22 
ROOT
HETATM    1  C7  UNL     1       0.971  -0.808   1.439  1.00  0.00     0.046 A 
HETATM    2  C8  UNL     1       1.396   0.033   2.365  1.00  0.00     0.010 A 
HETATM    3  C9  UNL     1       2.412   0.889   1.744  1.00  0.00     0.089 A 
HETATM    4  C10 UNL     1       2.536   0.427   0.341  1.00  0.00     0.052 A 
HETATM    5  C11 UNL     1       1.657  -0.594   0.167  1.00  0.00     0.047 A 
HETATM    6  C12 UNL     1       1.812  -0.988  -1.154  1.00  0.00     0.110 A 
HETATM    7  C13 UNL     1       2.773  -0.197  -1.727  1.00  0.00     0.150 A 
HETATM    8  N6  UNL     1       3.213   0.674  -0.793  1.00  0.00    -0.268 N 
ENDROOT
BRANCH   1   9
HETATM    9  N3  UNL     1      -0.018  -1.857   1.517  1.00  0.00    -0.326 N 
HETATM   10  C6  UNL     1      -1.118  -1.664   0.651  1.00  0.00     0.223 C 
HETATM   11  O1  UNL     1      -1.291  -0.677  -0.149  1.00  0.00    -0.273 OA
HETATM   12  H12 UNL     1      -0.232  -2.749   1.996  1.00  0.00     0.169 HD
BRANCH  10  13
HETATM   13  C5  UNL     1      -2.377  -2.305   0.259  1.00  0.00     0.133 C 
BRANCH  13  14
HETATM   14  C4  UNL     1      -3.154  -1.460  -0.728  1.00  0.00     0.281 C 
BRANCH  14  15
HETATM   15  N2  UNL     1      -3.437  -0.196  -0.052  1.00  0.00     0.092 N 
HETATM   16  C3  UNL     1      -4.155   0.683  -0.929  1.00  0.00     0.302 C 
HETATM   17  C2  UNL     1      -5.604   0.285  -1.018  1.00  0.00     0.302 C 
HETATM   18  N1  UNL     1      -6.223   0.272   0.294  1.00  0.00     0.087 N 
HETATM   19  C1  UNL     1      -7.299   1.217   0.350  1.00  0.00     0.310 C 
HETATM   20  C21 UNL     1      -5.281   0.560   1.338  1.00  0.00     0.302 C 
HETATM   21  C20 UNL     1      -4.101  -0.411   1.215  1.00  0.00     0.302 C 
ENDBRANCH  14  15
ENDBRANCH  13  14
ENDBRANCH  10  13
ENDBRANCH   1   9
BRANCH   6  22
HETATM   22  N4  UNL     1       1.099  -2.026  -1.795  1.00  0.00    -0.156 NA
HETATM   23  N5  UNL     1       1.329  -2.420  -2.969  1.00  0.00    -0.203 NA
HETATM   24  H16 UNL     1       2.101  -1.933  -3.483  1.00  0.00     0.212 HD
ENDBRANCH   6  22
BRANCH   8  25
HETATM   25  N7  UNL     1       4.206   1.623  -1.106  1.00  0.00    -0.294 N 
HETATM   26  H18 UNL     1       3.989   2.513  -1.611  1.00  0.00     0.187 HD
BRANCH  25  27
HETATM   27  C14 UNL     1       5.572   1.363  -0.723  1.00  0.00     0.050 A 
HETATM   28  C15 UNL     1       6.642   2.135  -1.112  1.00  0.00     0.031 A 
HETATM   29  C16 UNL     1       7.939   1.885  -0.722  1.00  0.00     0.004 A 
HETATM   30  C17 UNL     1       8.160   0.785   0.112  1.00  0.00     0.019 A 
HETATM   31  C18 UNL     1       7.107  -0.006   0.519  1.00  0.00     0.013 A 
HETATM   32 BR1  UNL     1       7.296  -1.536   1.667  1.00  0.00    -0.051 Br
HETATM   33  C19 UNL     1       5.819   0.266   0.115  1.00  0.00     0.050 A 
ENDBRANCH  25  27
ENDBRANCH   8  25
TORSDOF 7
