REMARK  3 active torsions:
REMARK  status: ('A' for Active; 'I' for Inactive)
REMARK    1  A    between atoms: C2_2  and  C3_3 
REMARK       I    between atoms: C3_3  and  N1_5 
REMARK    2  A    between atoms: N1_5  and  C4_6 
REMARK    3  A    between atoms: C4_6  and  C5_7 
ROOT
HETATM    1  C4  UNL     1       1.480  -1.305  -0.125  1.00  0.00     0.017 C 
HETATM    2  C7  UNL     1       0.265  -0.961  -0.634  1.00  0.00    -0.022 C 
HETATM    3  C8  UNL     1      -0.146   0.342  -1.216  1.00  0.00     0.157 C 
HETATM    4  N2  UNL     1      -1.138   1.047  -0.439  1.00  0.00    -0.389 N 
HETATM    5  C9  UNL     1      -1.642   2.158  -1.240  1.00  0.00     0.007 C 
HETATM    6  C10 UNL     1      -0.590   3.186  -1.374  1.00  0.00     0.068 C 
HETATM    7  C11 UNL     1      -2.839   2.395  -1.839  1.00  0.00     0.074 C 
HETATM    8  S1  UNL     1      -4.396   1.432  -1.923  1.00  0.00    -0.100 SA
HETATM    9  C12 UNL     1      -4.343   0.251  -0.556  1.00  0.00     0.007 A 
HETATM   10  C13 UNL     1      -5.114   0.360   0.570  1.00  0.00     0.019 A 
HETATM   11  C14 UNL     1      -4.723  -0.526   1.550  1.00  0.00     0.004 A 
HETATM   12  C15 UNL     1      -3.662  -1.413   1.383  1.00  0.00     0.029 A 
HETATM   13  C16 UNL     1      -2.999  -1.382   0.179  1.00  0.00     0.029 A 
HETATM   14  C17 UNL     1      -3.287  -0.560  -0.877  1.00  0.00     0.048 A 
HETATM   15  N3  UNL     1      -1.839  -2.160  -0.033  1.00  0.00    -0.386 N 
HETATM   16  C18 UNL     1      -0.662  -2.107  -0.818  1.00  0.00     0.157 C 
HETATM   17  H14 UNL     1      -1.793   1.380   0.300  1.00  0.00     0.159 HD
HETATM   18  H23 UNL     1      -1.859  -3.039   0.571  1.00  0.00     0.160 HD
ENDROOT
BRANCH   1  19
HETATM   19  N1  UNL     1       2.791  -0.840   0.129  1.00  0.00    -0.331 N 
HETATM   20  C3  UNL     1       3.497   0.334  -0.053  1.00  0.00     0.221 C 
HETATM   21  O1  UNL     1       2.986   1.353  -0.557  1.00  0.00    -0.273 OA
HETATM   22  H6  UNL     1       3.608  -1.371   0.559  1.00  0.00     0.168 HD
BRANCH  20  23
HETATM   23  C2  UNL     1       4.818   0.896   0.163  1.00  0.00     0.098 C 
HETATM   24  C1  UNL     1       4.969   2.312  -0.274  1.00  0.00     0.014 C 
ENDBRANCH  20  23
ENDBRANCH   1  19
BRANCH   1  25
HETATM   25  C5  UNL     1       1.549  -2.652   0.563  1.00  0.00     0.053 C 
HETATM   26  C6  UNL     1       2.102  -2.458   1.993  1.00  0.00     0.011 C 
ENDBRANCH   1  25
TORSDOF 3
