REMARK  5 active torsions:
REMARK  status: ('A' for Active; 'I' for Inactive)
REMARK    1  A    between atoms: C2_2  and  C3_4 
REMARK    2  A    between atoms: C4_5  and  C5_6 
REMARK    3  A    between atoms: C5_6  and  N1_7 
REMARK    4  A    between atoms: N1_7  and  C6_8 
REMARK    5  A    between atoms: N5_22  and  C17_23 
ROOT
HETATM    1  C6  UNL     1       1.848  -0.481   0.008  1.00  0.00     0.069 C 
HETATM    2  C7  UNL     1       1.287   0.391   0.804  1.00  0.00     0.037 C 
HETATM    3  C8  UNL     1      -0.057   0.059   0.330  1.00  0.00     0.172 C 
HETATM    4  C9  UNL     1       0.030   0.639  -1.077  1.00  0.00     0.188 C 
HETATM    5  C10 UNL     1       0.958  -0.306  -1.232  1.00  0.00     0.050 C 
HETATM    6  C11 UNL     1       1.366  -1.465  -2.184  1.00  0.00     0.076 C 
HETATM    7  C12 UNL     1       2.732  -1.462  -2.489  1.00  0.00     0.102 C 
HETATM    8  N2  UNL     1       3.803  -1.479  -2.724  1.00  0.00    -0.191 NA
HETATM    9  C13 UNL     1       0.422  -2.450  -2.612  1.00  0.00     0.141 C 
HETATM   10  N3  UNL     1      -0.826  -2.777  -1.827  1.00  0.00    -0.255 NA
HETATM   11  C14 UNL     1      -0.945  -2.437  -0.497  1.00  0.00     0.205 C 
HETATM   12  N4  UNL     1      -0.728  -1.175   0.281  1.00  0.00    -0.360 N 
HETATM   13  C15 UNL     1      -1.760  -1.507   1.305  1.00  0.00     0.155 C 
HETATM   14  C16 UNL     1      -2.672  -0.303   1.482  1.00  0.00     0.292 C 
HETATM   15  N5  UNL     1      -3.162   0.161   0.189  1.00  0.00     0.089 N 
HETATM   16  C19 UNL     1      -3.476   1.520   0.285  1.00  0.00     0.277 C 
HETATM   17  C20 UNL     1      -3.443   2.315  -1.026  1.00  0.00     0.111 C 
HETATM   18  C21 UNL     1      -2.013   2.159  -1.486  1.00  0.00     0.359 A 
HETATM   19  O1  UNL     1      -1.693   1.189  -0.813  1.00  0.00    -0.146 OA
HETATM   20  N6  UNL     1      -0.693   1.740  -1.680  1.00  0.00     0.118 N 
HETATM   21  H23 UNL     1      -0.149   2.313  -2.353  1.00  0.00     0.329 HD
ENDROOT
BRANCH   1  22
HETATM   22  N1  UNL     1       2.987  -1.317   0.159  1.00  0.00    -0.261 NA
BRANCH  22  23
HETATM   23  C5  UNL     1       4.053  -0.886   0.718  1.00  0.00     0.117 C 
BRANCH  23  24
HETATM   24  C4  UNL     1       4.975  -0.007   1.375  1.00  0.00     0.016 C 
HETATM   25  C3  UNL     1       6.143   0.175   1.883  1.00  0.00    -0.009 C 
BRANCH  25  26
HETATM   26  C2  UNL     1       6.248   1.600   2.418  1.00  0.00     0.021 A 
HETATM   27  C1  UNL     1       6.416   2.895   2.932  1.00  0.00     0.149 A 
HETATM   28 BR1  UNL     1       4.797   2.854   2.316  1.00  0.00    -0.157 Br
ENDBRANCH  25  26
ENDBRANCH  23  24
ENDBRANCH  22  23
ENDBRANCH   1  22
BRANCH  15  29
HETATM   29  C17 UNL     1      -4.094  -0.781  -0.282  1.00  0.00     0.268 C 
HETATM   30  C18 UNL     1      -4.697  -0.572  -1.629  1.00  0.00     0.037 C 
ENDBRANCH  15  29
TORSDOF 5
