REMARK  2 active torsions:
REMARK  status: ('A' for Active; 'I' for Inactive)
REMARK    1  A    between atoms: C4_6  and  N3_7 
REMARK    2  A    between atoms: N3_7  and  C5_8 
ROOT
HETATM    1  N1  UNL     1      -4.579   3.084   1.218  1.00  0.00    -0.191 NA
HETATM    2  C1  UNL     1      -3.656   2.449   0.925  1.00  0.00     0.102 C 
HETATM    3  C2  UNL     1      -2.513   1.657   0.571  1.00  0.00     0.073 A 
HETATM    4  C3  UNL     1      -1.231   2.152   0.674  1.00  0.00     0.142 A 
HETATM    5  N2  UNL     1      -0.199   1.381   0.333  1.00  0.00    -0.241 NA
HETATM    6  C4  UNL     1      -0.229   0.134  -0.116  1.00  0.00     0.139 A 
HETATM    7  C11 UNL     1      -1.506  -0.364  -0.221  1.00  0.00     0.022 A 
HETATM    8  C12 UNL     1      -1.804  -1.635  -0.662  1.00  0.00     0.016 A 
HETATM    9  C13 UNL     1      -3.060  -2.190  -0.786  1.00  0.00     0.001 A 
HETATM   10  C14 UNL     1      -4.146  -1.394  -0.434  1.00  0.00     0.001 A 
HETATM   11  C15 UNL     1      -3.922  -0.111   0.016  1.00  0.00     0.014 A 
HETATM   12  C16 UNL     1      -2.629   0.364   0.110  1.00  0.00     0.000 A 
ENDROOT
BRANCH   6  13
HETATM   13  N3  UNL     1       0.863  -0.661  -0.469  1.00  0.00    -0.340 N 
HETATM   14  H2  UNL     1       0.751  -1.625  -0.831  1.00  0.00     0.167 HD
BRANCH  13  15
HETATM   15  C5  UNL     1       2.232  -0.328  -0.405  1.00  0.00     0.035 A 
HETATM   16  C6  UNL     1       2.691   0.833   0.173  1.00  0.00     0.029 A 
HETATM   17  C7  UNL     1       4.019   1.188   0.244  1.00  0.00     0.004 A 
HETATM   18  C8  UNL     1       4.995   0.367  -0.279  1.00  0.00     0.019 A 
HETATM   19  C9  UNL     1       4.586  -0.808  -0.868  1.00  0.00     0.013 A 
HETATM   20 BR1  UNL     1       5.869  -2.000  -1.615  1.00  0.00    -0.051 Br
HETATM   21  C10 UNL     1       3.252  -1.106  -0.908  1.00  0.00     0.048 A 
ENDBRANCH  13  15
ENDBRANCH   6  13
TORSDOF 2
