REMARK  5 active torsions:
REMARK  status: ('A' for Active; 'I' for Inactive)
REMARK    1  A    between atoms: C2_2  and  C3_3 
REMARK       I    between atoms: C3_3  and  N1_5 
REMARK    2  A    between atoms: N1_5  and  C4_6 
REMARK    3  A    between atoms: C8_10  and  O2_11 
REMARK    4  A    between atoms: O2_11  and  N2_12 
REMARK    5  A    between atoms: N4_15  and  C10_16 
ROOT
HETATM    1  C4  UNL     1       2.243  -0.376   0.081  1.00  0.00    -0.003 C 
HETATM    2  C5  UNL     1       2.238   0.510   1.158  1.00  0.00     0.079 C 
HETATM    3  C6  UNL     1       1.058   1.395   1.189  1.00  0.00    -0.017 C 
HETATM    4  C7  UNL     1       0.191   2.348   1.580  1.00  0.00     0.036 C 
HETATM    5  C8  UNL     1      -1.081   3.063   1.322  1.00  0.00     0.108 C 
HETATM    6  C9  UNL     1      -1.780   2.704   0.269  1.00  0.00     0.146 C 
HETATM    7  N3  UNL     1      -1.646   1.770  -0.742  1.00  0.00    -0.306 N 
HETATM    8  N4  UNL     1      -1.614   0.405  -1.139  1.00  0.00    -0.289 N 
HETATM    9  C16 UNL     1      -0.404  -0.361  -1.420  1.00  0.00     0.176 C 
HETATM   10  C17 UNL     1       0.440   0.278  -2.428  1.00  0.00    -0.011 C 
HETATM   11  C18 UNL     1       1.468  -0.464  -2.726  1.00  0.00    -0.112 C 
HETATM   12  B1  UNL     1       2.078  -1.493  -1.434  1.00  0.00     0.212 B 
HETATM   13  H13 UNL     1      -1.499   2.160  -1.696  1.00  0.00     0.186 HD
ENDROOT
BRANCH   8  14
HETATM   14  C10 UNL     1      -2.945  -0.097  -1.191  1.00  0.00     0.052 A 
HETATM   15  C11 UNL     1      -3.373  -1.139  -1.950  1.00  0.00     0.031 A 
HETATM   16  C12 UNL     1      -4.636  -1.676  -2.018  1.00  0.00     0.004 A 
HETATM   17  C13 UNL     1      -5.610  -1.109  -1.231  1.00  0.00     0.019 A 
HETATM   18  C14 UNL     1      -5.287  -0.047  -0.423  1.00  0.00     0.013 A 
HETATM   19 BR1  UNL     1      -6.618   0.755   0.675  1.00  0.00    -0.051 Br
HETATM   20  C15 UNL     1      -3.994   0.421  -0.423  1.00  0.00     0.050 A 
ENDBRANCH   8  14
BRANCH   5  21
HETATM   21  O2  UNL     1      -1.293   4.006   2.277  1.00  0.00    -0.265 OA
BRANCH  21  22
HETATM   22  N2  UNL     1      -0.929   5.319   2.215  1.00  0.00    -0.209 NA
HETATM   23  H10 UNL     1      -0.199   5.467   2.970  1.00  0.00     0.150 HD
HETATM   24  H11 UNL     1      -1.774   5.903   2.475  1.00  0.00     0.150 HD
ENDBRANCH  21  22
ENDBRANCH   5  21
BRANCH   1  25
HETATM   25  N1  UNL     1       3.493  -1.054   0.371  1.00  0.00    -0.365 N 
HETATM   26  C3  UNL     1       3.944  -2.351   0.724  1.00  0.00     0.216 C 
HETATM   27  O1  UNL     1       3.128  -3.318   0.860  1.00  0.00    -0.274 OA
HETATM   28  H6  UNL     1       4.346  -0.422   0.280  1.00  0.00     0.161 HD
BRANCH  26  29
HETATM   29  C2  UNL     1       5.382  -2.714   0.969  1.00  0.00     0.098 C 
HETATM   30  C1  UNL     1       5.369  -4.180   1.309  1.00  0.00     0.014 C 
ENDBRANCH  26  29
ENDBRANCH   1  25
TORSDOF 5
