REMARK  6 active torsions:
REMARK  status: ('A' for Active; 'I' for Inactive)
REMARK    1  A    between atoms: C2_2  and  C3_3 
REMARK       I    between atoms: C3_3  and  N1_5 
REMARK    2  A    between atoms: N1_5  and  C4_6 
REMARK    3  A    between atoms: C11_15  and  N4_16 
REMARK    4  A    between atoms: N4_16  and  C12_17 
REMARK    5  A    between atoms: C12_17  and  C13_18 
REMARK    6  A    between atoms: C14_19  and  C15_21 
ROOT
HETATM    1  C4  UNL     1      -2.513  -0.408   0.409  1.00  0.00     0.035 A 
HETATM    2  C5  UNL     1      -2.522  -1.749   0.741  1.00  0.00     0.030 A 
HETATM    3  C6  UNL     1      -1.321  -2.410   0.954  1.00  0.00     0.016 A 
HETATM    4  C7  UNL     1      -0.118  -1.714   0.831  1.00  0.00     0.000 A 
HETATM    5  C8  UNL     1       1.077  -2.371   1.044  1.00  0.00     0.073 A 
HETATM    6  C9  UNL     1       1.095  -3.768   1.391  1.00  0.00     0.102 C 
HETATM    7  N2  UNL     1       1.111  -4.895   1.687  1.00  0.00    -0.191 NA
HETATM    8  C10 UNL     1       2.227  -1.620   0.905  1.00  0.00     0.142 A 
HETATM    9  N3  UNL     1       2.183  -0.332   0.584  1.00  0.00    -0.241 NA
HETATM   10  C11 UNL     1       1.059   0.359   0.366  1.00  0.00     0.134 A 
HETATM   11  C17 UNL     1      -0.099  -0.375   0.500  1.00  0.00     0.024 A 
HETATM   12  C18 UNL     1      -1.309   0.252   0.295  1.00  0.00     0.045 A 
ENDROOT
BRANCH  10  13
HETATM   13  N4  UNL     1       1.112   1.735   0.027  1.00  0.00    -0.371 N 
HETATM   14  H10 UNL     1       0.314   2.372  -0.163  1.00  0.00     0.161 HD
BRANCH  13  15
HETATM   15  C12 UNL     1       2.410   2.382  -0.080  1.00  0.00     0.149 C 
BRANCH  15  16
HETATM   16  C13 UNL     1       3.161   1.658  -1.154  1.00  0.00     0.007 C 
HETATM   17  C14 UNL     1       4.281   0.947  -1.370  1.00  0.00    -0.014 C 
HETATM   18 BR1  UNL     1       4.810   0.192  -3.047  1.00  0.00    -0.056 Br
BRANCH  17  19
HETATM   19  C15 UNL     1       5.299   0.628  -0.338  1.00  0.00     0.041 C 
HETATM   20  C16 UNL     1       5.407  -0.867  -0.213  1.00  0.00     0.010 C 
ENDBRANCH  17  19
ENDBRANCH  15  16
ENDBRANCH  13  15
ENDBRANCH  10  13
BRANCH   1  21
HETATM   21  N1  UNL     1      -3.739   0.263   0.192  1.00  0.00    -0.327 N 
HETATM   22  C3  UNL     1      -4.462   0.416  -1.023  1.00  0.00     0.221 C 
HETATM   23  O1  UNL     1      -3.984  -0.099  -2.071  1.00  0.00    -0.273 OA
HETATM   24  H6  UNL     1      -3.905   0.580   1.172  1.00  0.00     0.169 HD
BRANCH  22  25
HETATM   25  C2  UNL     1      -5.709   1.213  -0.737  1.00  0.00     0.098 C 
HETATM   26  C1  UNL     1      -6.491   1.389  -2.005  1.00  0.00     0.014 C 
ENDBRANCH  22  25
ENDBRANCH   1  21
TORSDOF 6
