REMARK  5 active torsions:
REMARK  status: ('A' for Active; 'I' for Inactive)
REMARK    1  A    between atoms: C2_2  and  C3_3 
REMARK    2  A    between atoms: C3_3  and  N1_4 
REMARK    3  A    between atoms: N1_4  and  C4_5 
REMARK    4  A    between atoms: C11_14  and  N4_15 
REMARK    5  A    between atoms: N4_15  and  C12_16 
ROOT
HETATM    1  C4  UNL     1       1.752   0.734   0.440  1.00  0.00     0.028 A 
HETATM    2  C5  UNL     1       1.935   1.966   1.066  1.00  0.00     0.030 A 
HETATM    3  C6  UNL     1       0.966   2.946   1.005  1.00  0.00     0.016 A 
HETATM    4  C7  UNL     1      -0.197   2.705   0.319  1.00  0.00     0.000 A 
HETATM    5  C8  UNL     1      -1.202   3.643   0.213  1.00  0.00     0.073 A 
HETATM    6  C9  UNL     1      -1.022   4.921   0.859  1.00  0.00     0.102 C 
HETATM    7  N2  UNL     1      -0.872   5.942   1.382  1.00  0.00    -0.191 NA
HETATM    8  C10 UNL     1      -2.364   3.377  -0.493  1.00  0.00     0.142 A 
HETATM    9  N3  UNL     1      -2.481   2.155  -1.080  1.00  0.00    -0.241 NA
HETATM   10  C11 UNL     1      -1.490   1.236  -0.974  1.00  0.00     0.139 A 
HETATM   11  C18 UNL     1      -0.320   1.473  -0.277  1.00  0.00     0.024 A 
HETATM   12  C19 UNL     1       0.583   0.445  -0.271  1.00  0.00     0.045 A 
ENDROOT
BRANCH  10  13
HETATM   13  N4  UNL     1      -1.867   0.056  -1.677  1.00  0.00    -0.340 N 
HETATM   14  H12 UNL     1      -1.665  -0.264  -2.649  1.00  0.00     0.167 HD
BRANCH  13  15
HETATM   15  C12 UNL     1      -2.662  -0.834  -0.888  1.00  0.00     0.035 A 
HETATM   16  C13 UNL     1      -2.963  -0.579   0.447  1.00  0.00     0.029 A 
HETATM   17  C14 UNL     1      -3.739  -1.431   1.213  1.00  0.00     0.004 A 
HETATM   18  C15 UNL     1      -4.245  -2.583   0.654  1.00  0.00     0.019 A 
HETATM   19  C16 UNL     1      -3.976  -2.883  -0.663  1.00  0.00     0.013 A 
HETATM   20 BR1  UNL     1      -4.702  -4.486  -1.391  1.00  0.00    -0.051 Br
HETATM   21  C17 UNL     1      -3.202  -2.010  -1.386  1.00  0.00     0.048 A 
ENDBRANCH  13  15
ENDBRANCH  10  13
BRANCH   1  22
HETATM   22  N1  UNL     1       2.778  -0.246   0.509  1.00  0.00    -0.390 N 
HETATM   23  H8  UNL     1       3.661  -0.037   1.021  1.00  0.00     0.159 HD
BRANCH  22  24
HETATM   24  C3  UNL     1       2.692  -1.559  -0.095  1.00  0.00     0.119 C 
BRANCH  24  25
HETATM   25  C2  UNL     1       3.961  -2.363   0.071  1.00  0.00     0.015 C 
HETATM   26  C1  UNL     1       5.145  -1.685  -0.564  1.00  0.00     0.006 C 
ENDBRANCH  24  25
ENDBRANCH  22  24
ENDBRANCH   1  22
TORSDOF 5
