REMARK  0 active torsions:
REMARK  status: ('A' for Active; 'I' for Inactive)
REMARK       I    between atoms: C2_2  and  N1_4 
ROOT
HETATM    1  C1  UNL     1       3.934   0.804   0.822  1.00  0.00     0.119 C 
HETATM    2  C2  UNL     1       3.516  -0.623   0.627  1.00  0.00     0.239 C 
HETATM    3  O1  UNL     1       3.973  -1.468   1.460  1.00  0.00    -0.272 OA
HETATM    4  N1  UNL     1       2.632  -0.900  -0.494  1.00  0.00    -0.223 N 
HETATM    5  C3  UNL     1       2.206   0.171  -1.343  1.00  0.00     0.186 C 
HETATM    6  C4  UNL     1       0.976   0.804  -0.856  1.00  0.00    -0.005 C 
HETATM    7  C5  UNL     1       0.343   1.878  -0.420  1.00  0.00    -0.002 C 
HETATM    8  C6  UNL     1      -0.250   3.105   0.042  1.00  0.00     0.001 C 
HETATM    9  C7  UNL     1      -1.519   3.104   0.382  1.00  0.00     0.024 C 
HETATM   10  C8  UNL     1      -2.852   2.577   0.610  1.00  0.00     0.062 C 
HETATM   11  C9  UNL     1      -3.974   3.368   1.106  1.00  0.00     0.101 C 
HETATM   12  N2  UNL     1      -4.872   4.027   1.507  1.00  0.00    -0.191 NA
HETATM   13  C10 UNL     1      -3.246   1.331   0.409  1.00  0.00     0.142 C 
HETATM   14  N3  UNL     1      -2.204   0.541  -0.065  1.00  0.00    -0.235 NA
HETATM   15  C11 UNL     1      -2.466  -0.627  -0.533  1.00  0.00     0.175 C 
HETATM   16 BR1  UNL     1      -4.362  -0.976  -0.440  1.00  0.00    -0.009 Br
HETATM   17  N4  UNL     1      -2.224  -1.904  -1.110  1.00  0.00    -0.345 N 
HETATM   18  C12 UNL     1      -2.004  -2.968  -0.149  1.00  0.00     0.086 C 
HETATM   19  C13 UNL     1      -0.985  -3.597   0.472  1.00  0.00    -0.002 C 
HETATM   20  C14 UNL     1       0.109  -2.819  -0.157  1.00  0.00     0.117 C 
HETATM   21  C15 UNL     1       1.431  -2.974   0.059  1.00  0.00     0.138 C 
HETATM   22  O2  UNL     1       2.387  -2.232  -0.548  1.00  0.00    -0.274 OA
HETATM   23  H11 UNL     1      -2.218  -1.997  -2.154  1.00  0.00     0.167 HD
ENDROOT
TORSDOF 0
