REMARK  6 active torsions:
REMARK  status: ('A' for Active; 'I' for Inactive)
REMARK    1  A    between atoms: N1_2  and  C2_3 
REMARK    2  A    between atoms: N1_2  and  C4_7 
REMARK    3  A    between atoms: C2_3  and  C3_4 
REMARK       I    between atoms: C3_4  and  N2_5 
REMARK    4  A    between atoms: C4_7  and  C5_8 
REMARK    5  A    between atoms: C12_17  and  N5_18 
REMARK    6  A    between atoms: N5_18  and  C13_19 
ROOT
HETATM    1  C5  UNL     1       1.000  -0.256   0.976  1.00  0.00    -0.029 A 
HETATM    2  C6  UNL     1       1.436  -1.484   1.433  1.00  0.00     0.010 A 
HETATM    3  C7  UNL     1       0.756  -2.616   1.021  1.00  0.00     0.014 A 
HETATM    4  C8  UNL     1      -0.347  -2.510   0.161  1.00  0.00     0.000 A 
HETATM    5  C9  UNL     1      -1.003  -3.666  -0.240  1.00  0.00     0.073 A 
HETATM    6  C10 UNL     1      -0.610  -4.985   0.194  1.00  0.00     0.102 C 
HETATM    7  N3  UNL     1      -0.291  -6.029   0.554  1.00  0.00    -0.191 NA
HETATM    8  C11 UNL     1      -2.069  -3.477  -1.091  1.00  0.00     0.142 A 
HETATM    9  N4  UNL     1      -2.475  -2.279  -1.521  1.00  0.00    -0.241 NA
HETATM   10  C12 UNL     1      -1.855  -1.136  -1.145  1.00  0.00     0.139 A 
HETATM   11  C19 UNL     1      -0.766  -1.250  -0.284  1.00  0.00     0.022 A 
HETATM   12  C20 UNL     1      -0.080  -0.148   0.135  1.00  0.00     0.025 A 
ENDROOT
BRANCH  10  13
HETATM   13  N5  UNL     1      -2.180   0.189  -1.544  1.00  0.00    -0.340 N 
HETATM   14  H13 UNL     1      -1.578   0.603  -2.287  1.00  0.00     0.167 HD
BRANCH  13  15
HETATM   15  C13 UNL     1      -3.268   0.875  -0.941  1.00  0.00     0.035 A 
HETATM   16  C14 UNL     1      -4.121   0.180  -0.101  1.00  0.00     0.029 A 
HETATM   17  C15 UNL     1      -5.196   0.810   0.500  1.00  0.00     0.004 A 
HETATM   18  C16 UNL     1      -5.390   2.146   0.237  1.00  0.00     0.019 A 
HETATM   19  C17 UNL     1      -4.533   2.860  -0.611  1.00  0.00     0.013 A 
HETATM   20 BR1  UNL     1      -4.872   4.731  -0.927  1.00  0.00    -0.051 Br
HETATM   21  C18 UNL     1      -3.459   2.235  -1.213  1.00  0.00     0.048 A 
ENDBRANCH  13  15
ENDBRANCH  10  13
BRANCH   1  22
HETATM   22  C4  UNL     1       1.703   0.995   1.370  1.00  0.00     0.311 C 
BRANCH  22  23
HETATM   23  N1  UNL     1       2.700   1.394   0.443  1.00  0.00     0.097 N 
HETATM   24  C1  UNL     1       3.340   2.594   0.913  1.00  0.00     0.310 C 
BRANCH  23  25
HETATM   25  C2  UNL     1       3.682   0.424   0.078  1.00  0.00     0.374 C 
BRANCH  25  26
HETATM   26  C3  UNL     1       4.399   0.927  -1.152  1.00  0.00     0.243 C 
HETATM   27  N2  UNL     1       5.394   0.006  -1.578  1.00  0.00    -0.369 N 
HETATM   28  H6  UNL     1       6.144  -0.648  -1.889  1.00  0.00     0.159 HD
HETATM   29  H7  UNL     1       6.395   0.331  -1.682  1.00  0.00     0.159 HD
HETATM   30  O1  UNL     1       4.226   1.993  -1.797  1.00  0.00    -0.272 OA
ENDBRANCH  25  26
ENDBRANCH  23  25
ENDBRANCH  22  23
ENDBRANCH   1  22
TORSDOF 6
