REMARK  7 active torsions:
REMARK  status: ('A' for Active; 'I' for Inactive)
REMARK    1  A    between atoms: N1_2  and  C3_4 
REMARK    2  A    between atoms: C3_4  and  C4_5 
REMARK    3  A    between atoms: C4_5  and  C5_6 
REMARK    4  A    between atoms: C5_6  and  C6_7 
REMARK       I    between atoms: C6_7  and  N2_9 
REMARK    5  A    between atoms: N2_9  and  C7_10 
REMARK    6  A    between atoms: C13_17  and  N4_18 
REMARK    7  A    between atoms: N4_18  and  C14_19 
ROOT
HETATM    1  C7  UNL     1       0.054   0.575  -1.120  1.00  0.00     0.035 A 
HETATM    2  C8  UNL     1       0.201   1.586  -2.074  1.00  0.00     0.030 A 
HETATM    3  C9  UNL     1      -0.917   2.240  -2.602  1.00  0.00     0.014 A 
HETATM    4  C10 UNL     1      -2.144   1.856  -2.152  1.00  0.00    -0.021 A 
HETATM    5  C11 UNL     1      -3.266   2.478  -2.653  1.00  0.00     0.031 A 
HETATM    6  C12 UNL     1      -4.483   2.057  -2.173  1.00  0.00     0.120 A 
HETATM    7  N3  UNL     1      -4.612   1.074  -1.247  1.00  0.00    -0.242 NA
HETATM    8  C13 UNL     1      -3.537   0.453  -0.744  1.00  0.00     0.139 A 
HETATM    9  C20 UNL     1      -2.315   0.864  -1.214  1.00  0.00     0.022 A 
HETATM   10  C21 UNL     1      -1.209   0.225  -0.699  1.00  0.00     0.045 A 
ENDROOT
BRANCH   1  11
HETATM   11  N2  UNL     1       1.325   0.066  -0.747  1.00  0.00    -0.327 N 
HETATM   12  C6  UNL     1       2.192   0.522   0.280  1.00  0.00     0.222 C 
HETATM   13  O1  UNL     1       1.940   1.477   1.027  1.00  0.00    -0.273 OA
HETATM   14  H13 UNL     1       1.460  -0.727  -1.415  1.00  0.00     0.169 HD
BRANCH  12  15
HETATM   15  C5  UNL     1       3.415  -0.303   0.314  1.00  0.00     0.105 C 
BRANCH  15  16
HETATM   16  C4  UNL     1       4.390   0.194   1.377  1.00  0.00     0.039 C 
BRANCH  16  17
HETATM   17  C3  UNL     1       5.602  -0.727   1.320  1.00  0.00     0.271 C 
BRANCH  17  18
HETATM   18  N1  UNL     1       6.213  -0.685   0.029  1.00  0.00     0.080 N 
HETATM   19  C1  UNL     1       6.850   0.556  -0.310  1.00  0.00     0.309 C 
HETATM   20  C2  UNL     1       7.114  -1.807  -0.132  1.00  0.00     0.309 C 
ENDBRANCH  17  18
ENDBRANCH  16  17
ENDBRANCH  15  16
ENDBRANCH  12  15
ENDBRANCH   1  11
BRANCH   8  21
HETATM   21  N4  UNL     1      -3.741  -0.572   0.220  1.00  0.00    -0.339 N 
HETATM   22  H18 UNL     1      -3.038  -1.154   0.713  1.00  0.00     0.167 HD
BRANCH  21  23
HETATM   23  C14 UNL     1      -5.086  -0.868   0.584  1.00  0.00     0.051 A 
HETATM   24  C15 UNL     1      -5.537  -2.158   0.335  1.00  0.00     0.031 A 
HETATM   25  C16 UNL     1      -6.819  -2.620   0.626  1.00  0.00     0.002 A 
HETATM   26  C17 UNL     1      -7.670  -1.700   1.201  1.00  0.00     0.002 A 
HETATM   27  C18 UNL     1      -7.286  -0.394   1.478  1.00  0.00     0.021 A 
HETATM   28  C19 UNL     1      -5.989  -0.002   1.161  1.00  0.00     0.037 A 
HETATM   29 BR1  UNL     1      -5.391   1.771   1.520  1.00  0.00    -0.049 Br
ENDBRANCH  21  23
ENDBRANCH   8  21
TORSDOF 7
