REMARK  6 active torsions:
REMARK  status: ('A' for Active; 'I' for Inactive)
REMARK    1  A    between atoms: N1_2  and  C3_4 
REMARK    2  A    between atoms: C3_4  and  C4_5 
REMARK    3  A    between atoms: C5_6  and  C6_7 
REMARK       I    between atoms: C6_7  and  N2_9 
REMARK    4  A    between atoms: N2_9  and  C7_10 
REMARK    5  A    between atoms: C14_19  and  N5_20 
REMARK    6  A    between atoms: N5_20  and  C15_21 
ROOT
HETATM    1  C7  UNL     1      -0.258  -0.912  -0.424  1.00  0.00     0.035 A 
HETATM    2  C8  UNL     1      -0.334  -2.264  -0.637  1.00  0.00     0.030 A 
HETATM    3  C9  UNL     1       0.742  -3.121  -0.639  1.00  0.00     0.016 A 
HETATM    4  C10 UNL     1       1.998  -2.551  -0.404  1.00  0.00     0.000 A 
HETATM    5  C11 UNL     1       3.047  -3.444  -0.415  1.00  0.00     0.073 A 
HETATM    6  C12 UNL     1       2.906  -4.835  -0.641  1.00  0.00     0.102 C 
HETATM    7  N3  UNL     1       2.801  -5.987  -0.817  1.00  0.00    -0.191 NA
HETATM    8  C13 UNL     1       4.294  -2.912  -0.186  1.00  0.00     0.142 A 
HETATM    9  N4  UNL     1       4.401  -1.608   0.024  1.00  0.00    -0.241 NA
HETATM   10  C14 UNL     1       3.409  -0.726   0.039  1.00  0.00     0.139 A 
HETATM   11  C21 UNL     1       2.141  -1.189  -0.181  1.00  0.00     0.024 A 
HETATM   12  C22 UNL     1       1.013  -0.433  -0.201  1.00  0.00     0.045 A 
ENDROOT
BRANCH  10  13
HETATM   13  N5  UNL     1       3.612   0.649   0.275  1.00  0.00    -0.340 N 
HETATM   14  H15 UNL     1       2.824   1.326   0.273  1.00  0.00     0.167 HD
BRANCH  13  15
HETATM   15  C15 UNL     1       4.803   1.370   0.543  1.00  0.00     0.035 A 
HETATM   16  C16 UNL     1       4.894   2.738   0.758  1.00  0.00     0.029 A 
HETATM   17  C17 UNL     1       6.047   3.417   1.016  1.00  0.00     0.004 A 
HETATM   18  C18 UNL     1       7.231   2.757   1.079  1.00  0.00     0.019 A 
HETATM   19  C19 UNL     1       7.230   1.395   0.877  1.00  0.00     0.013 A 
HETATM   20 BR1  UNL     1       8.915   0.519   0.976  1.00  0.00    -0.051 Br
HETATM   21  C20 UNL     1       6.036   0.760   0.620  1.00  0.00     0.048 A 
ENDBRANCH  13  15
ENDBRANCH  10  13
BRANCH   1  22
HETATM   22  N2  UNL     1      -1.342  -0.001  -0.416  1.00  0.00    -0.324 N 
HETATM   23  C6  UNL     1      -2.705  -0.230  -0.602  1.00  0.00     0.245 C 
HETATM   24  O1  UNL     1      -3.085  -1.386  -0.807  1.00  0.00    -0.268 OA
HETATM   25  H11 UNL     1      -1.154   1.022  -0.250  1.00  0.00     0.169 HD
BRANCH  23  26
HETATM   26  C5  UNL     1      -3.739   0.783  -0.577  1.00  0.00     0.072 C 
HETATM   27  C4  UNL     1      -5.011   0.475  -0.763  1.00  0.00     0.008 C 
BRANCH  27  28
HETATM   28  C3  UNL     1      -6.027   1.568  -0.725  1.00  0.00     0.299 C 
BRANCH  28  29
HETATM   29  N1  UNL     1      -6.999   1.349   0.305  1.00  0.00     0.083 N 
HETATM   30  C1  UNL     1      -7.819   0.219  -0.007  1.00  0.00     0.309 C 
HETATM   31  C2  UNL     1      -6.339   1.240   1.575  1.00  0.00     0.309 C 
ENDBRANCH  28  29
ENDBRANCH  27  28
ENDBRANCH  23  26
ENDBRANCH   1  22
TORSDOF 6
