REMARK  4 active torsions:
REMARK  status: ('A' for Active; 'I' for Inactive)
REMARK    1  A    between atoms: N1_2  and  C3_4 
REMARK    2  A    between atoms: C3_4  and  C4_5 
REMARK    3  A    between atoms: C4_5  and  C5_6 
REMARK    4  A    between atoms: C5_6  and  C6_7 
REMARK       I    between atoms: C6_7  and  N2_9 
ROOT
HETATM    1  C6  UNL     1       1.564   0.126   1.305  1.00  0.00     0.223 C 
HETATM    2  O1  UNL     1       2.154   1.173   0.936  1.00  0.00    -0.273 OA
HETATM    3  N2  UNL     1       0.181   0.046   1.801  1.00  0.00    -0.328 N 
HETATM    4  C7  UNL     1      -0.272  -1.250   2.180  1.00  0.00     0.078 C 
HETATM    5  C8  UNL     1      -1.587  -1.471   1.941  1.00  0.00     0.083 C 
HETATM    6  C9  UNL     1      -2.812  -2.257   1.943  1.00  0.00     0.050 C 
HETATM    7  C10 UNL     1      -3.189  -3.606   2.398  1.00  0.00     0.097 C 
HETATM    8  N3  UNL     1      -3.469  -4.686   2.757  1.00  0.00    -0.192 NA
HETATM    9  C11 UNL     1      -3.751  -1.529   1.397  1.00  0.00     0.137 C 
HETATM   10  N4  UNL     1      -4.828  -0.787   0.810  1.00  0.00    -0.255 NA
HETATM   11  C12 UNL     1      -4.854  -0.533  -0.479  1.00  0.00     0.202 C 
HETATM   12  N5  UNL     1      -5.171  -0.100  -1.818  1.00  0.00    -0.381 N 
HETATM   13  C13 UNL     1      -5.136   1.340  -1.716  1.00  0.00     0.147 C 
HETATM   14  C14 UNL     1      -3.806   1.915  -1.473  1.00  0.00    -0.007 C 
HETATM   15  C15 UNL     1      -2.635   2.465  -1.318  1.00  0.00    -0.003 C 
HETATM   16  C16 UNL     1      -1.506   2.442  -0.425  1.00  0.00    -0.003 C 
HETATM   17  C17 UNL     1      -1.115   1.826   0.659  1.00  0.00    -0.007 C 
HETATM   18  C18 UNL     1      -0.331   1.400   1.812  1.00  0.00     0.158 C 
HETATM   19  H17 UNL     1      -5.379  -0.733  -2.617  1.00  0.00     0.160 HD
ENDROOT
BRANCH   1  20
HETATM   20  C5  UNL     1       2.407  -1.086   1.200  1.00  0.00     0.105 C 
BRANCH  20  21
HETATM   21  C4  UNL     1       3.688  -0.879   0.486  1.00  0.00     0.039 C 
BRANCH  21  22
HETATM   22  C3  UNL     1       3.560  -0.443  -0.941  1.00  0.00     0.271 C 
BRANCH  22  23
HETATM   23  N1  UNL     1       4.932  -0.309  -1.456  1.00  0.00     0.080 N 
HETATM   24  C1  UNL     1       5.536   0.810  -0.785  1.00  0.00     0.309 C 
HETATM   25  C2  UNL     1       4.912  -0.035  -2.888  1.00  0.00     0.309 C 
ENDBRANCH  22  23
ENDBRANCH  21  22
ENDBRANCH  20  21
ENDBRANCH   1  20
TORSDOF 4
