REMARK  5 active torsions:
REMARK  status: ('A' for Active; 'I' for Inactive)
REMARK    1  A    between atoms: C1_2  and  O2_3 
REMARK    2  A    between atoms: C1_2  and  C2_4 
REMARK    3  A    between atoms: C10_13  and  N2_14 
REMARK    4  A    between atoms: N2_14  and  C11_15 
REMARK    5  A    between atoms: C11_15  and  C12_16 
ROOT
HETATM    1  C2  UNL     1      -4.458  -0.075   0.490  1.00  0.00     0.038 A 
HETATM    2  C3  UNL     1      -4.388   1.302   0.531  1.00  0.00     0.021 A 
HETATM    3  C4  UNL     1      -3.178   1.866   0.174  1.00  0.00     0.039 A 
HETATM    4  C5  UNL     1      -2.091   1.099  -0.206  1.00  0.00     0.086 A 
HETATM    5  C6  UNL     1      -2.169  -0.275  -0.245  1.00  0.00    -0.006 A 
HETATM    6  C7  UNL     1      -3.388  -0.861   0.114  1.00  0.00     0.029 A 
HETATM    7  C8  UNL     1      -1.172  -1.311  -0.608  1.00  0.00     0.161 C 
HETATM    8  N1  UNL     1       0.184  -0.949  -0.177  1.00  0.00    -0.379 N 
HETATM    9  C9  UNL     1       0.881   0.268  -0.478  1.00  0.00     0.128 A 
HETATM   10  C10 UNL     1       2.229   0.029  -0.612  1.00  0.00     0.156 A 
HETATM   11  N3  UNL     1       2.993   1.098  -0.886  1.00  0.00    -0.222 NA
HETATM   12  C14 UNL     1       2.485   2.325  -1.022  1.00  0.00     0.238 A 
HETATM   13  N4  UNL     1       1.149   2.573  -0.891  1.00  0.00    -0.215 NA
HETATM   14  C15 UNL     1       0.308   1.538  -0.613  1.00  0.00     0.202 A 
HETATM   15  O3  UNL     1      -1.021   1.931  -0.507  1.00  0.00    -0.289 OA
HETATM   16  H7  UNL     1       0.804  -1.567   0.422  1.00  0.00     0.160 HD
ENDROOT
BRANCH  10  17
HETATM   17  N2  UNL     1       2.838  -1.257  -0.496  1.00  0.00    -0.369 N 
HETATM   18  H8  UNL     1       2.453  -2.203  -0.314  1.00  0.00     0.161 HD
BRANCH  17  19
HETATM   19  C11 UNL     1       4.277  -1.323  -0.661  1.00  0.00     0.150 C 
BRANCH  19  20
HETATM   20  C12 UNL     1       4.975  -0.487   0.370  1.00  0.00     0.024 C 
HETATM   21  C13 UNL     1       5.813   0.568   0.401  1.00  0.00     0.078 C 
HETATM   22 CL1  UNL     1       6.452   1.310   1.881  1.00  0.00    -0.076 Cl
HETATM   23 BR1  UNL     1       6.471   1.463  -1.151  1.00  0.00    -0.038 Br
ENDBRANCH  19  20
ENDBRANCH  17  19
ENDBRANCH  10  17
BRANCH   1  24
HETATM   24  C1  UNL     1      -5.716  -0.722   0.858  1.00  0.00     0.176 C 
HETATM   25  O1  UNL     1      -6.698  -0.006   1.202  1.00  0.00    -0.646 OA
BRANCH  24  26
HETATM   26  O2  UNL     1      -5.838  -2.107   0.833  1.00  0.00    -0.773 OA
HETATM   27  H1  UNL     1      -6.763  -2.561   0.780  1.00  0.00     0.167 HD
ENDBRANCH  24  26
ENDBRANCH   1  24
TORSDOF 5
