REMARK  4 active torsions:
REMARK  status: ('A' for Active; 'I' for Inactive)
REMARK    1  A    between atoms: C2_2  and  C3_3 
REMARK       I    between atoms: C3_3  and  N1_5 
REMARK    2  A    between atoms: N1_5  and  C4_6 
REMARK    3  A    between atoms: C11_15  and  N4_16 
REMARK    4  A    between atoms: N4_16  and  C12_17 
ROOT
HETATM    1  C4  UNL     1       1.864  -0.077  -0.104  1.00  0.00     0.035 A 
HETATM    2  C5  UNL     1       2.159  -0.160  -1.429  1.00  0.00     0.030 A 
HETATM    3  C6  UNL     1       1.252  -0.171  -2.458  1.00  0.00     0.016 A 
HETATM    4  C7  UNL     1      -0.105  -0.089  -2.123  1.00  0.00     0.000 A 
HETATM    5  C8  UNL     1      -1.040  -0.099  -3.150  1.00  0.00     0.073 A 
HETATM    6  C9  UNL     1      -0.640  -0.189  -4.525  1.00  0.00     0.102 C 
HETATM    7  N2  UNL     1      -0.302  -0.252  -5.643  1.00  0.00    -0.191 NA
HETATM    8  C10 UNL     1      -2.339  -0.016  -2.743  1.00  0.00     0.142 A 
HETATM    9  N3  UNL     1      -2.646   0.066  -1.439  1.00  0.00    -0.241 NA
HETATM   10  C11 UNL     1      -1.763   0.077  -0.431  1.00  0.00     0.138 A 
HETATM   11  C17 UNL     1      -0.435  -0.003  -0.772  1.00  0.00     0.024 A 
HETATM   12  C18 UNL     1       0.530   0.002   0.196  1.00  0.00     0.045 A 
ENDROOT
BRANCH  10  13
HETATM   13  N4  UNL     1      -2.232   0.169   0.906  1.00  0.00    -0.342 N 
HETATM   14  H10 UNL     1      -1.640   0.180   1.761  1.00  0.00     0.167 HD
BRANCH  13  15
HETATM   15  C12 UNL     1      -3.640   0.255   1.109  1.00  0.00     0.029 A 
HETATM   16  C13 UNL     1      -4.215   0.642   2.263  1.00  0.00     0.026 A 
HETATM   17  C14 UNL     1      -5.666   0.637   2.193  1.00  0.00    -0.001 A 
HETATM   18  C15 UNL     1      -5.939   0.236   0.965  1.00  0.00    -0.005 A 
HETATM   19  C16 UNL     1      -4.736  -0.049   0.141  1.00  0.00     0.130 A 
HETATM   20 BR1  UNL     1      -4.703  -1.859  -0.497  1.00  0.00    -0.080 Br
ENDBRANCH  13  15
ENDBRANCH  10  13
BRANCH   1  21
HETATM   21  N1  UNL     1       2.797  -0.065   0.957  1.00  0.00    -0.327 N 
HETATM   22  C3  UNL     1       4.196  -0.131   0.955  1.00  0.00     0.221 C 
HETATM   23  O1  UNL     1       4.767  -0.215  -0.150  1.00  0.00    -0.273 OA
HETATM   24  H6  UNL     1       2.454   0.003   1.958  1.00  0.00     0.169 HD
BRANCH  22  25
HETATM   25  C2  UNL     1       5.089  -0.113   2.113  1.00  0.00     0.098 C 
HETATM   26  C1  UNL     1       6.519  -0.207   1.577  1.00  0.00     0.014 C 
ENDBRANCH  22  25
ENDBRANCH   1  21
TORSDOF 4
