REMARK  7 active torsions:
REMARK  status: ('A' for Active; 'I' for Inactive)
REMARK    1  A    between atoms: C7_7  and  N1_8 
REMARK       I    between atoms: N1_8  and  C8_9 
REMARK    2  A    between atoms: C8_9  and  C9_11 
REMARK    3  A    between atoms: C9_11  and  C10_12 
REMARK    4  A    between atoms: C10_12  and  C11_13 
REMARK    5  A    between atoms: C11_13  and  N2_14 
REMARK    6  A    between atoms: C15_18  and  N3_19 
REMARK    7  A    between atoms: C16_20  and  N4_21 
ROOT
HETATM    1  C1  UNL     1      -4.882   1.067  -1.963  1.00  0.00     0.046 C 
HETATM    2  C2  UNL     1      -3.541   1.458  -1.407  1.00  0.00    -0.056 C 
HETATM    3  C3  UNL     1      -2.703   2.362  -0.917  1.00  0.00    -0.040 C 
HETATM    4  C4  UNL     1      -1.634   2.861  -1.910  1.00  0.00     0.038 C 
HETATM    5  C5  UNL     1      -0.796   1.612  -2.177  1.00  0.00     0.017 C 
HETATM    6  C6  UNL     1      -1.183   0.579  -1.130  1.00  0.00     0.063 C 
HETATM    7  C7  UNL     1      -0.845   0.983   0.268  1.00  0.00     0.017 C 
HETATM    8  C14 UNL     1      -1.413   1.988   0.998  1.00  0.00     0.038 C 
HETATM    9  C15 UNL     1      -2.533   2.918   0.502  1.00  0.00     0.272 C 
HETATM   10  C16 UNL     1      -2.626   0.258  -1.323  1.00  0.00     0.123 C 
ENDROOT
BRANCH   7  11
HETATM   11  N1  UNL     1       0.188   0.255   0.959  1.00  0.00    -0.331 N 
HETATM   12  C8  UNL     1       1.512   0.198   0.467  1.00  0.00     0.222 C 
HETATM   13  O1  UNL     1       2.105   0.672  -0.540  1.00  0.00    -0.273 OA
HETATM   14  H9  UNL     1       0.007  -0.261   1.850  1.00  0.00     0.168 HD
BRANCH  12  15
HETATM   15  C9  UNL     1       2.597  -0.537   1.146  1.00  0.00     0.105 C 
BRANCH  15  16
HETATM   16  C10 UNL     1       3.869  -0.376   0.333  1.00  0.00     0.039 C 
BRANCH  16  17
HETATM   17  C11 UNL     1       5.031  -1.100   0.962  1.00  0.00     0.271 C 
BRANCH  17  18
HETATM   18  N2  UNL     1       6.266  -0.955   0.190  1.00  0.00     0.080 N 
HETATM   19  C12 UNL     1       7.272  -1.717   0.947  1.00  0.00     0.309 C 
HETATM   20  C13 UNL     1       6.141  -1.657  -1.073  1.00  0.00     0.309 C 
ENDBRANCH  17  18
ENDBRANCH  16  17
ENDBRANCH  15  16
ENDBRANCH  12  15
ENDBRANCH   7  11
BRANCH  10  21
HETATM   21  N4  UNL     1      -3.027  -0.680  -0.298  1.00  0.00    -0.377 N 
HETATM   22  C17 UNL     1      -2.216  -1.858  -0.348  1.00  0.00     0.088 A 
HETATM   23  C18 UNL     1      -2.371  -2.880   0.481  1.00  0.00     0.035 A 
HETATM   24  C19 UNL     1      -3.417  -2.858   1.527  1.00  0.00     0.010 A 
HETATM   25 BR1  UNL     1      -3.731  -4.267   2.768  1.00  0.00    -0.051 Br
HETATM   26  C20 UNL     1      -4.134  -1.747   1.527  1.00  0.00     0.012 A 
HETATM   27  C21 UNL     1      -4.062  -0.553   0.673  1.00  0.00     0.151 A 
ENDBRANCH  10  21
BRANCH   9  28
HETATM   28  N3  UNL     1      -3.614   3.032   1.349  1.00  0.00     0.090 N 
HETATM   29  H24 UNL     1      -3.433   2.502   2.246  1.00  0.00     0.314 HD
HETATM   30  H25 UNL     1      -3.941   4.004   1.570  1.00  0.00     0.314 HD
ENDBRANCH   9  28
TORSDOF 7
