REMARK  9 active torsions:
REMARK  status: ('A' for Active; 'I' for Inactive)
REMARK    1  A    between atoms: N1_2  and  C3_4 
REMARK    2  A    between atoms: C3_4  and  C4_5 
REMARK    3  A    between atoms: C4_5  and  C5_6 
REMARK    4  A    between atoms: C5_6  and  C6_7 
REMARK       I    between atoms: C6_7  and  N2_9 
REMARK    5  A    between atoms: N2_9  and  C7_10 
REMARK    6  A    between atoms: C14_19  and  C15_20 
REMARK    7  A    between atoms: C15_20  and  C16_21 
REMARK    8  A    between atoms: C18_24  and  C19_25 
REMARK    9  A    between atoms: C19_25  and  N5_26 
ROOT
HETATM    1  C7  UNL     1      -0.146   0.186   0.498  1.00  0.00     0.035 A 
HETATM    2  C8  UNL     1      -0.091   1.158   1.468  1.00  0.00     0.030 A 
HETATM    3  C9  UNL     1      -1.140   1.577   2.250  1.00  0.00     0.016 A 
HETATM    4  C10 UNL     1      -2.351   0.957   2.033  1.00  0.00    -0.001 A 
HETATM    5  C11 UNL     1      -3.482   1.246   2.750  1.00  0.00     0.073 A 
HETATM    6  C12 UNL     1      -3.392   2.249   3.744  1.00  0.00     0.102 C 
HETATM    7  N3  UNL     1      -3.301   3.068   4.547  1.00  0.00    -0.191 NA
HETATM    8  C13 UNL     1      -4.678   0.612   2.549  1.00  0.00     0.140 A 
HETATM    9  N4  UNL     1      -4.688  -0.317   1.600  1.00  0.00    -0.258 NA
HETATM   10  C14 UNL     1      -3.651  -0.676   0.843  1.00  0.00     0.077 A 
HETATM   11  C20 UNL     1      -2.481  -0.022   1.079  1.00  0.00     0.007 A 
HETATM   12  C21 UNL     1      -1.389  -0.382   0.343  1.00  0.00     0.044 A 
ENDROOT
BRANCH  10  13
HETATM   13  C15 UNL     1      -3.936  -1.702  -0.078  1.00  0.00    -0.011 C 
HETATM   14  C18 UNL     1      -5.058  -2.454   0.049  1.00  0.00     0.016 C 
BRANCH  13  15
HETATM   15  C16 UNL     1      -3.543  -2.363  -1.275  1.00  0.00     0.040 C 
HETATM   16  C17 UNL     1      -2.674  -2.525  -2.320  1.00  0.00     0.177 C 
HETATM   17 BR1  UNL     1      -1.055  -2.017  -3.269  1.00  0.00    -0.200 Br
ENDBRANCH  13  15
BRANCH  14  18
HETATM   18  C19 UNL     1      -6.229  -2.589   0.927  1.00  0.00     0.295 C 
BRANCH  18  19
HETATM   19  N5  UNL     1      -7.507  -2.380   0.247  1.00  0.00     0.081 N 
HETATM   20  H22 UNL     1      -7.967  -1.524   0.652  1.00  0.00     0.313 HD
HETATM   21  H23 UNL     1      -7.338  -2.170  -0.769  1.00  0.00     0.313 HD
ENDBRANCH  18  19
ENDBRANCH  14  18
ENDBRANCH  10  13
BRANCH   1  22
HETATM   22  N2  UNL     1       0.920  -0.253  -0.299  1.00  0.00    -0.327 N 
HETATM   23  C6  UNL     1       2.264   0.162  -0.291  1.00  0.00     0.222 C 
HETATM   24  O1  UNL     1       2.598   1.046   0.530  1.00  0.00    -0.273 OA
HETATM   25  H13 UNL     1       0.740  -0.992  -1.010  1.00  0.00     0.169 HD
BRANCH  23  26
HETATM   26  C5  UNL     1       3.275  -0.386  -1.188  1.00  0.00     0.105 C 
BRANCH  26  27
HETATM   27  C4  UNL     1       4.626   0.233  -1.058  1.00  0.00     0.039 C 
BRANCH  27  28
HETATM   28  C3  UNL     1       4.715   1.690  -1.340  1.00  0.00     0.271 C 
BRANCH  28  29
HETATM   29  N1  UNL     1       6.072   2.161  -1.174  1.00  0.00     0.080 N 
HETATM   30  C1  UNL     1       6.544   2.148   0.183  1.00  0.00     0.309 C 
HETATM   31  C2  UNL     1       7.032   1.518  -2.014  1.00  0.00     0.309 C 
ENDBRANCH  28  29
ENDBRANCH  27  28
ENDBRANCH  26  27
ENDBRANCH  23  26
ENDBRANCH   1  22
TORSDOF 9
