REMARK  2 active torsions:
REMARK  status: ('A' for Active; 'I' for Inactive)
REMARK    1  A    between atoms: C2_2  and  N2_5 
REMARK    2  A    between atoms: N2_5  and  C4_6 
ROOT
HETATM    1  C1  UNL     1       4.508   0.008   0.247  1.00  0.00     0.048 C 
HETATM    2  C2  UNL     1       3.888  -0.286  -1.102  1.00  0.00     0.186 C 
HETATM    3  C3  UNL     1       4.835  -1.153  -1.830  1.00  0.00     0.084 C 
HETATM    4  N1  UNL     1       5.589  -1.839  -2.401  1.00  0.00    -0.195 NA
ENDROOT
BRANCH   2   5
HETATM    5  N2  UNL     1       2.631  -0.995  -1.003  1.00  0.00    -0.357 N 
HETATM    6  H5  UNL     1       2.488  -1.948  -1.438  1.00  0.00     0.162 HD
BRANCH   5   7
HETATM    7  C4  UNL     1       1.524  -0.424  -0.305  1.00  0.00     0.124 C 
HETATM    8  C5  UNL     1       1.069   0.260  -1.416  1.00  0.00     0.107 C 
HETATM    9  C6  UNL     1      -0.093   1.185  -1.690  1.00  0.00    -0.035 C 
HETATM   10  C7  UNL     1      -0.170   2.436  -1.207  1.00  0.00     0.084 C 
HETATM   11  C10 UNL     1      -1.138   0.561  -2.559  1.00  0.00     0.059 C 
HETATM   12  N3  UNL     1      -1.261   2.721  -0.638  1.00  0.00    -0.272 NA
HETATM   13  C8  UNL     1      -2.164   2.465   0.430  1.00  0.00     0.259 C 
HETATM   14  N4  UNL     1      -3.276   1.566   0.071  1.00  0.00    -0.218 NA
HETATM   15  N5  UNL     1      -2.635   0.483  -0.554  1.00  0.00    -0.310 N 
HETATM   16  H9  UNL     1      -3.752   2.083  -0.721  1.00  0.00     0.148 HD
HETATM   17  C9  UNL     1      -2.272  -0.064  -1.808  1.00  0.00     0.148 C 
HETATM   18  C11 UNL     1      -2.344  -0.071   0.697  1.00  0.00     0.063 A 
HETATM   19  C12 UNL     1      -1.223  -0.825   0.962  1.00  0.00     0.041 A 
HETATM   20  C16 UNL     1      -2.960   0.046   1.922  1.00  0.00     0.038 A 
HETATM   21  C13 UNL     1      -0.597  -1.435   2.031  1.00  0.00    -0.032 A 
HETATM   22  C14 UNL     1      -1.326  -1.232   3.170  1.00  0.00     0.011 A 
HETATM   23  C17 UNL     1       0.659  -1.978   1.459  1.00  0.00     0.215 C 
HETATM   24  C15 UNL     1      -2.489  -0.498   3.093  1.00  0.00     0.022 A 
HETATM   25  O1  UNL     1       1.459  -0.821   1.064  1.00  0.00    -0.334 OA
HETATM   26 BR1  UNL     1      -4.570   1.064   1.854  1.00  0.00    -0.049 Br
ENDBRANCH   5   7
ENDBRANCH   2   5
TORSDOF 2
