REMARK  7 active torsions:
REMARK  status: ('A' for Active; 'I' for Inactive)
REMARK    1  A    between atoms: C4_6  and  N3_7 
REMARK    2  A    between atoms: N3_7  and  C5_8 
REMARK    3  A    between atoms: C13_17  and  N4_18 
REMARK       I    between atoms: N4_18  and  C14_19 
REMARK    4  A    between atoms: C14_19  and  C15_21 
REMARK    5  A    between atoms: C15_21  and  C16_22 
REMARK    6  A    between atoms: C16_22  and  C17_23 
REMARK    7  A    between atoms: C17_23  and  N5_24 
ROOT
HETATM    1  C1  UNL     1      -2.407  -4.056   2.587  1.00  0.00     0.071 C 
HETATM    2  C2  UNL     1      -2.999  -3.089   1.594  1.00  0.00     0.038 C 
HETATM    3  N1  UNL     1      -4.228  -3.034   1.190  1.00  0.00    -0.272 NA
HETATM    4  C3  UNL     1      -4.946  -2.192   0.265  1.00  0.00     0.299 C 
HETATM    5  N2  UNL     1      -4.588  -0.812   0.286  1.00  0.00    -0.250 NA
HETATM    6  C4  UNL     1      -3.446  -0.181   0.411  1.00  0.00     0.136 C 
HETATM    7  C11 UNL     1      -2.157  -0.887   0.577  1.00  0.00     0.024 A 
HETATM    8  C12 UNL     1      -1.146  -0.070   0.132  1.00  0.00     0.045 A 
HETATM    9  C13 UNL     1       0.173  -0.533   0.207  1.00  0.00     0.035 A 
HETATM   10  C20 UNL     1       0.332  -1.794   0.731  1.00  0.00     0.030 A 
HETATM   11  C21 UNL     1      -0.673  -2.621   1.180  1.00  0.00     0.017 A 
HETATM   12  C22 UNL     1      -1.975  -2.171   1.109  1.00  0.00     0.002 A 
ENDROOT
BRANCH   9  13
HETATM   13  N4  UNL     1       1.231   0.293  -0.245  1.00  0.00    -0.327 N 
HETATM   14  C14 UNL     1       2.637   0.096  -0.294  1.00  0.00     0.222 C 
HETATM   15  O1  UNL     1       3.024  -1.013   0.142  1.00  0.00    -0.273 OA
HETATM   16  H12 UNL     1       0.936   1.240  -0.621  1.00  0.00     0.169 HD
BRANCH  14  17
HETATM   17  C15 UNL     1       3.497   1.149  -0.823  1.00  0.00     0.105 C 
BRANCH  17  18
HETATM   18  C16 UNL     1       4.944   0.841  -0.734  1.00  0.00     0.039 C 
BRANCH  18  19
HETATM   19  C17 UNL     1       5.386   0.665   0.689  1.00  0.00     0.271 C 
BRANCH  19  20
HETATM   20  N5  UNL     1       6.817   0.369   0.758  1.00  0.00     0.080 N 
HETATM   21  C18 UNL     1       7.598   1.497   0.356  1.00  0.00     0.309 C 
HETATM   22  C19 UNL     1       7.156  -0.781  -0.036  1.00  0.00     0.309 C 
ENDBRANCH  19  20
ENDBRANCH  18  19
ENDBRANCH  17  18
ENDBRANCH  14  17
ENDBRANCH   9  13
BRANCH   6  23
HETATM   23  N3  UNL     1      -3.406   1.263   0.394  1.00  0.00    -0.341 N 
HETATM   24  H6  UNL     1      -2.590   1.627   0.976  1.00  0.00     0.167 HD
BRANCH  23  25
HETATM   25  C5  UNL     1      -4.466   1.863  -0.391  1.00  0.00     0.035 A 
HETATM   26  C6  UNL     1      -5.605   2.130   0.341  1.00  0.00     0.029 A 
HETATM   27  C7  UNL     1      -6.739   2.702  -0.207  1.00  0.00     0.004 A 
HETATM   28  C8  UNL     1      -6.673   3.002  -1.569  1.00  0.00     0.019 A 
HETATM   29  C9  UNL     1      -5.538   2.737  -2.304  1.00  0.00     0.013 A 
HETATM   30 BR1  UNL     1      -5.456   3.149  -4.161  1.00  0.00    -0.051 Br
HETATM   31  C10 UNL     1      -4.414   2.166  -1.743  1.00  0.00     0.048 A 
ENDBRANCH  23  25
ENDBRANCH   6  23
TORSDOF 7
