REMARK  10 active torsions:
REMARK  status: ('A' for Active; 'I' for Inactive)
REMARK    1  A    between atoms: N1_2  and  C3_4 
REMARK    2  A    between atoms: C3_4  and  C4_5 
REMARK    3  A    between atoms: C4_5  and  C5_6 
REMARK    4  A    between atoms: C5_6  and  C6_7 
REMARK    5  A    between atoms: C6_7  and  C7_9 
REMARK    6  A    between atoms: C13_16  and  N3_17 
REMARK    7  A    between atoms: N3_17  and  C14_18 
REMARK    8  A    between atoms: C14_18  and  C15_19 
REMARK    9  A    between atoms: C16_20  and  C17_22 
REMARK   10  A    between atoms: C21_26  and  N4_27 
ROOT
HETATM    1  C7  UNL     1      -0.992  -1.479  -0.593  1.00  0.00     0.128 C 
HETATM    2  C8  UNL     1       0.041  -0.558  -1.224  1.00  0.00     0.003 C 
HETATM    3  C9  UNL     1       1.225  -1.099  -1.392  1.00  0.00    -0.011 C 
HETATM    4  C10 UNL     1       1.588  -2.597  -1.692  1.00  0.00     0.082 C 
HETATM    5  C11 UNL     1       1.885  -2.611  -0.128  1.00  0.00    -0.034 C 
HETATM    6  C12 UNL     1       3.160  -2.218   0.135  1.00  0.00     0.126 C 
HETATM    7  N2  UNL     1       3.567  -0.878  -0.437  1.00  0.00    -0.243 NA
HETATM    8  C13 UNL     1       2.497  -0.358  -1.086  1.00  0.00     0.129 C 
HETATM    9  C20 UNL     1       0.788  -2.853   0.848  1.00  0.00     0.034 C 
HETATM   10  C21 UNL     1      -0.456  -2.308   0.545  1.00  0.00     0.018 C 
ENDROOT
BRANCH   8  11
HETATM   11  N3  UNL     1       2.367   1.003  -1.438  1.00  0.00    -0.371 N 
HETATM   12  H18 UNL     1       1.492   1.471  -1.728  1.00  0.00     0.161 HD
BRANCH  11  13
HETATM   13  C14 UNL     1       3.604   1.751  -1.354  1.00  0.00     0.150 C 
BRANCH  13  14
HETATM   14  C15 UNL     1       4.164   1.913  -0.020  1.00  0.00     0.012 C 
HETATM   15  C16 UNL     1       5.426   1.513   0.231  1.00  0.00     0.015 C 
HETATM   16 BR1  UNL     1       6.463   0.740  -1.200  1.00  0.00    -0.051 Br
BRANCH  15  17
HETATM   17  C17 UNL     1       6.159   1.582   1.514  1.00  0.00    -0.041 A 
HETATM   18  C18 UNL     1       7.181   1.442   2.405  1.00  0.00    -0.013 A 
HETATM   19  C19 UNL     1       5.931   2.031   2.912  1.00  0.00     0.067 A 
ENDBRANCH  15  17
ENDBRANCH  13  14
ENDBRANCH  11  13
ENDBRANCH   8  11
BRANCH   1  20
HETATM   20  C6  UNL     1      -1.964  -0.563   0.065  1.00  0.00     0.140 C 
HETATM   21  O1  UNL     1      -2.208  -0.506   1.276  1.00  0.00    -0.297 OA
BRANCH  20  22
HETATM   22  C5  UNL     1      -2.708   0.360  -0.792  1.00  0.00     0.081 C 
BRANCH  22  23
HETATM   23  C4  UNL     1      -4.144  -0.074  -1.021  1.00  0.00     0.038 C 
BRANCH  23  24
HETATM   24  C3  UNL     1      -4.889  -0.137   0.275  1.00  0.00     0.271 C 
BRANCH  24  25
HETATM   25  N1  UNL     1      -4.887   1.177   0.874  1.00  0.00     0.080 N 
HETATM   26  C1  UNL     1      -5.684   2.142   0.140  1.00  0.00     0.309 C 
HETATM   27  C2  UNL     1      -5.253   1.162   2.262  1.00  0.00     0.309 C 
ENDBRANCH  24  25
ENDBRANCH  23  24
ENDBRANCH  22  23
ENDBRANCH  20  22
ENDBRANCH   1  20
BRANCH  10  28
HETATM   28  N4  UNL     1      -1.176  -2.746   1.717  1.00  0.00    -0.401 N 
HETATM   29  H26 UNL     1      -1.625  -3.655   1.410  1.00  0.00     0.156 HD
HETATM   30  H27 UNL     1      -1.180  -2.208   2.604  1.00  0.00     0.156 HD
ENDBRANCH  10  28
TORSDOF 10
