REMARK  3 active torsions:
REMARK  status: ('A' for Active; 'I' for Inactive)
REMARK    1  A    between atoms: C3_3  and  N1_4 
REMARK    2  A    between atoms: N1_4  and  C4_5 
REMARK    3  A    between atoms: C13_19  and  C14_20 
ROOT
HETATM    1  C1  UNL     1      -0.778  -2.192  -1.146  1.00  0.00     0.072 C 
HETATM    2  C2  UNL     1      -0.891  -1.496   0.142  1.00  0.00     0.047 C 
HETATM    3  C3  UNL     1      -2.026  -0.843   0.165  1.00  0.00     0.147 C 
HETATM    4  N2  UNL     1      -2.889  -0.733  -1.006  1.00  0.00    -0.230 NA
HETATM    5  C8  UNL     1      -2.523   0.383  -1.707  1.00  0.00     0.813 C 
HETATM    6  N3  UNL     1      -1.743   1.554  -1.951  1.00  0.00     0.076 NA
HETATM    7  C9  UNL     1      -0.442   1.495  -2.203  1.00  0.00     0.405 C 
HETATM    8  O1  UNL     1       0.704   0.836  -2.377  1.00  0.00    -0.317 OA
HETATM    9  C10 UNL     1       1.626   0.336  -1.498  1.00  0.00     0.059 A 
HETATM   10  C11 UNL     1       2.826   0.901  -1.796  1.00  0.00     0.034 A 
HETATM   11  C12 UNL     1       3.878   0.421  -0.912  1.00  0.00     0.013 A 
HETATM   12  C13 UNL     1       3.261  -0.421  -0.110  1.00  0.00    -0.007 A 
HETATM   13  C15 UNL     1       1.767  -0.586  -0.366  1.00  0.00     0.096 A 
HETATM   14  C16 UNL     1       0.999  -0.329   0.869  1.00  0.00     0.136 C 
HETATM   15  N4  UNL     1       0.130  -1.497   1.122  1.00  0.00    -0.389 N 
HETATM   16  H14 UNL     1      -0.245  -2.362   1.566  1.00  0.00     0.159 HD
ENDROOT
BRANCH   3  17
HETATM   17  N1  UNL     1      -2.119  -0.210   1.399  1.00  0.00    -0.338 N 
HETATM   18  H4  UNL     1      -1.885  -0.644   2.309  1.00  0.00     0.167 HD
BRANCH  17  19
HETATM   19  C4  UNL     1      -2.586   1.093   1.247  1.00  0.00     0.061 A 
HETATM   20  C5  UNL     1      -3.877   1.424   1.052  1.00  0.00     0.099 A 
HETATM   21 CL1  UNL     1      -5.443   0.624   0.896  1.00  0.00    -0.079 Cl
HETATM   22  C6  UNL     1      -3.615   2.869   0.995  1.00  0.00     0.142 A 
HETATM   23  F1  UNL     1      -4.212   4.062   0.828  1.00  0.00    -0.204 F 
HETATM   24  C7  UNL     1      -2.330   2.537   1.190  1.00  0.00     0.075 A 
ENDBRANCH  17  19
ENDBRANCH   3  17
BRANCH  12  25
HETATM   25  C14 UNL     1       3.873  -1.159   0.941  1.00  0.00     0.151 A 
HETATM   26  O2  UNL     1       3.157  -1.948   1.657  1.00  0.00    -0.188 OA
HETATM   27  O3  UNL     1       4.406  -1.893   1.964  1.00  0.00     0.000 OA
HETATM   28  H10 UNL     1       5.440  -2.076   1.994  1.00  0.00     0.000 HD
ENDBRANCH  12  25
TORSDOF 3
