REMARK  4 active torsions:
REMARK  status: ('A' for Active; 'I' for Inactive)
REMARK    1  A    between atoms: N1_1  and  C1_2 
REMARK    2  A    between atoms: C4_5  and  O1_6 
REMARK    3  A    between atoms: C9_12  and  N3_13 
REMARK    4  A    between atoms: N3_13  and  C10_14 
ROOT
HETATM    1  C1  UNL     1      -0.438  -1.826   0.970  1.00  0.00     0.453 C 
HETATM    2  C2  UNL     1      -1.802  -2.074   0.344  1.00  0.00     0.106 C 
HETATM    3  C3  UNL     1      -1.976  -1.274  -0.917  1.00  0.00    -0.028 C 
HETATM    4  C4  UNL     1      -1.988  -1.344  -2.234  1.00  0.00     0.059 C 
HETATM    5  C5  UNL     1      -0.785  -0.492  -2.479  1.00  0.00     0.097 C 
HETATM    6  C6  UNL     1       0.429  -1.295  -2.061  1.00  0.00     0.000 C 
HETATM    7  C7  UNL     1       1.113  -0.667  -1.072  1.00  0.00    -0.005 C 
HETATM    8  C8  UNL     1       1.711  -1.543  -0.044  1.00  0.00     0.313 C 
HETATM    9  N2  UNL     1       0.634  -2.520   0.251  1.00  0.00     0.121 N 
HETATM   10  C9  UNL     1       1.205   0.793  -1.062  1.00  0.00     0.052 C 
HETATM   11  C16 UNL     1       0.199   1.311  -1.774  1.00  0.00     0.009 C 
HETATM   12  C17 UNL     1      -0.924   0.636  -1.510  1.00  0.00    -0.035 C 
HETATM   13  C18 UNL     1      -2.228   0.169  -0.942  1.00  0.00     0.043 A 
HETATM   14  C19 UNL     1      -3.396   0.729  -1.657  1.00  0.00     0.063 A 
HETATM   15  C20 UNL     1      -3.655   1.449  -0.369  1.00  0.00    -0.049 A 
HETATM   16  C21 UNL     1      -4.544   2.357   0.209  1.00  0.00     0.007 A 
HETATM   17  C22 UNL     1      -4.292   2.591   1.575  1.00  0.00     0.001 A 
HETATM   18  C23 UNL     1      -3.259   1.968   2.259  1.00  0.00     0.001 A 
HETATM   19  C24 UNL     1      -2.428   1.089   1.621  1.00  0.00     0.009 A 
HETATM   20  C25 UNL     1      -2.631   0.831   0.291  1.00  0.00    -0.034 A 
HETATM   21  H11 UNL     1       1.124  -3.221   0.867  1.00  0.00     0.319 HD
ENDROOT
BRANCH  10  22
HETATM   22  N3  UNL     1       2.198   1.501  -0.383  1.00  0.00    -0.355 N 
HETATM   23  H12 UNL     1       1.832   2.459  -0.097  1.00  0.00     0.166 HD
BRANCH  22  24
HETATM   24  C10 UNL     1       3.516   1.223  -0.031  1.00  0.00     0.033 A 
HETATM   25  C11 UNL     1       4.453   0.692  -0.890  1.00  0.00     0.029 A 
HETATM   26  C12 UNL     1       5.701   0.452  -0.392  1.00  0.00     0.004 A 
HETATM   27  C13 UNL     1       5.999   0.735   0.920  1.00  0.00     0.019 A 
HETATM   28  C14 UNL     1       5.105   1.267   1.819  1.00  0.00     0.013 A 
HETATM   29 BR1  UNL     1       5.549   1.655   3.630  1.00  0.00    -0.051 Br
HETATM   30  C15 UNL     1       3.845   1.502   1.302  1.00  0.00     0.048 A 
ENDBRANCH  22  24
ENDBRANCH  10  22
BRANCH   4  31
HETATM   31  O1  UNL     1      -2.848  -2.003  -3.129  1.00  0.00    -0.364 OA
HETATM   32  H6  UNL     1      -3.803  -2.212  -2.870  1.00  0.00     0.217 HD
ENDBRANCH   4  31
BRANCH   1  33
HETATM   33  N1  UNL     1      -0.522  -2.541   2.272  1.00  0.00     0.112 N 
HETATM   34  H1  UNL     1      -1.334  -2.109   2.791  1.00  0.00     0.315 HD
HETATM   35  H2  UNL     1       0.378  -2.406   2.756  1.00  0.00     0.315 HD
ENDBRANCH   1  33
TORSDOF 4
