REMARK  4 active torsions:
REMARK  status: ('A' for Active; 'I' for Inactive)
REMARK    1  A    between atoms: C1_2  and  O2_3 
REMARK    2  A    between atoms: C1_2  and  C2_4 
REMARK    3  A    between atoms: C10_13  and  N2_14 
REMARK    4  A    between atoms: N2_14  and  C11_15 
ROOT
HETATM    1  C2  UNL     1      -4.445   0.549   0.361  1.00  0.00     0.038 A 
HETATM    2  C3  UNL     1      -4.739  -0.654  -0.242  1.00  0.00     0.021 A 
HETATM    3  C4  UNL     1      -3.705  -1.537  -0.517  1.00  0.00     0.038 A 
HETATM    4  C5  UNL     1      -2.403  -1.194  -0.180  1.00  0.00     0.080 A 
HETATM    5  C6  UNL     1      -2.080   0.003   0.425  1.00  0.00    -0.006 A 
HETATM    6  C7  UNL     1      -3.138   0.851   0.680  1.00  0.00     0.029 A 
HETATM    7  C8  UNL     1      -0.747   0.510   0.843  1.00  0.00     0.161 C 
HETATM    8  N1  UNL     1       0.215   0.129  -0.175  1.00  0.00    -0.382 N 
HETATM    9  C9  UNL     1       0.539  -1.204  -0.549  1.00  0.00     0.103 C 
HETATM   10  C10 UNL     1       1.675  -1.251  -1.256  1.00  0.00     0.157 C 
HETATM   11  N3  UNL     1       2.171  -2.499  -1.725  1.00  0.00    -0.206 NA
HETATM   12  C17 UNL     1       1.546  -3.548  -1.368  1.00  0.00     0.198 C 
HETATM   13  N4  UNL     1       0.334  -3.526  -1.037  1.00  0.00    -0.229 NA
HETATM   14  C18 UNL     1      -0.228  -2.450  -0.239  1.00  0.00     0.307 C 
HETATM   15  O3  UNL     1      -1.608  -2.264  -0.574  1.00  0.00    -0.318 OA
HETATM   16  H7  UNL     1       0.764   0.846  -0.730  1.00  0.00     0.160 HD
ENDROOT
BRANCH  10  17
HETATM   17  N2  UNL     1       2.444  -0.106  -1.580  1.00  0.00    -0.339 N 
HETATM   18  H8  UNL     1       2.223   0.290  -2.518  1.00  0.00     0.167 HD
BRANCH  17  19
HETATM   19  C11 UNL     1       3.420   0.450  -0.717  1.00  0.00     0.035 A 
HETATM   20  C12 UNL     1       3.636  -0.153   0.505  1.00  0.00     0.032 A 
HETATM   21  C13 UNL     1       4.595   0.410   1.331  1.00  0.00     0.046 A 
HETATM   22  C14 UNL     1       5.291   1.528   0.921  1.00  0.00     0.138 A 
HETATM   23  F1  UNL     1       6.235   2.069   1.750  1.00  0.00    -0.204 F 
HETATM   24  C15 UNL     1       5.062   2.126  -0.317  1.00  0.00     0.074 A 
HETATM   25 CL1  UNL     1       5.976   3.544  -0.785  1.00  0.00    -0.081 Cl
HETATM   26  C16 UNL     1       4.100   1.568  -1.153  1.00  0.00     0.056 A 
ENDBRANCH  17  19
ENDBRANCH  10  17
BRANCH   1  27
HETATM   27  C1  UNL     1      -5.433   1.557   0.701  1.00  0.00     0.176 C 
HETATM   28  O1  UNL     1      -5.228   2.676   1.253  1.00  0.00    -0.646 OA
BRANCH  27  29
HETATM   29  O2  UNL     1      -6.794   1.345   0.418  1.00  0.00    -0.773 OA
HETATM   30  H1  UNL     1      -7.522   1.576   1.102  1.00  0.00     0.167 HD
ENDBRANCH  27  29
ENDBRANCH   1  27
TORSDOF 4
