REMARK  4 active torsions:
REMARK  status: ('A' for Active; 'I' for Inactive)
REMARK    1  A    between atoms: C3_3  and  N1_4 
REMARK       I    between atoms: N1_4  and  C4_5 
REMARK    2  A    between atoms: C4_5  and  C5_7 
REMARK    3  A    between atoms: C11_14  and  N2_15 
REMARK    4  A    between atoms: N2_15  and  C12_16 
ROOT
HETATM    1  C1  UNL     1       2.400   2.638   0.051  1.00  0.00     0.046 C 
HETATM    2  C2  UNL     1       1.467   1.711  -0.073  1.00  0.00    -0.018 A 
HETATM    3  C3  UNL     1       1.645   0.301  -0.400  1.00  0.00     0.043 A 
HETATM    4  C9  UNL     1       0.428  -0.221  -0.410  1.00  0.00     0.046 A 
HETATM    5  C10 UNL     1      -0.609   0.764  -0.102  1.00  0.00     0.024 A 
HETATM    6  C11 UNL     1      -1.980   0.645  -0.009  1.00  0.00     0.139 A 
HETATM    7  N3  UNL     1      -2.608   1.787   0.298  1.00  0.00    -0.241 NA
HETATM    8  C18 UNL     1      -2.042   2.969   0.510  1.00  0.00     0.142 A 
HETATM    9  C19 UNL     1      -0.677   3.096   0.420  1.00  0.00     0.074 A 
HETATM   10  C20 UNL     1      -0.044   4.364   0.646  1.00  0.00     0.102 C 
HETATM   11  N4  UNL     1       0.482   5.385   0.837  1.00  0.00    -0.191 NA
HETATM   12  C21 UNL     1       0.037   1.960   0.106  1.00  0.00     0.009 A 
ENDROOT
BRANCH   6  13
HETATM   13  N2  UNL     1      -2.604  -0.609  -0.233  1.00  0.00    -0.340 N 
HETATM   14  H8  UNL     1      -1.962  -1.412  -0.467  1.00  0.00     0.167 HD
BRANCH  13  15
HETATM   15  C12 UNL     1      -3.980  -0.945  -0.187  1.00  0.00     0.035 A 
HETATM   16  C13 UNL     1      -4.420  -2.228  -0.433  1.00  0.00     0.029 A 
HETATM   17  C14 UNL     1      -5.737  -2.590  -0.399  1.00  0.00     0.004 A 
HETATM   18  C15 UNL     1      -6.701  -1.676  -0.112  1.00  0.00     0.019 A 
HETATM   19  C16 UNL     1      -6.342  -0.379   0.144  1.00  0.00     0.013 A 
HETATM   20 BR1  UNL     1      -7.678   0.921   0.548  1.00  0.00    -0.051 Br
HETATM   21  C17 UNL     1      -5.004  -0.068   0.096  1.00  0.00     0.048 A 
ENDBRANCH  13  15
ENDBRANCH   6  13
BRANCH   3  22
HETATM   22  N1  UNL     1       2.869  -0.377  -0.657  1.00  0.00    -0.322 N 
HETATM   23  C4  UNL     1       3.928  -0.476   0.266  1.00  0.00     0.258 C 
HETATM   24  O1  UNL     1       3.989  -0.005   1.436  1.00  0.00    -0.267 OA
HETATM   25  H3  UNL     1       2.975  -0.827  -1.596  1.00  0.00     0.169 HD
BRANCH  23  26
HETATM   26  C5  UNL     1       5.141  -1.201  -0.112  1.00  0.00     0.056 A 
HETATM   27  C6  UNL     1       6.283  -1.417   0.627  1.00  0.00     0.043 A 
HETATM   28  C7  UNL     1       7.156  -2.158  -0.161  1.00  0.00     0.142 A 
HETATM   29  O2  UNL     1       6.587  -2.387  -1.318  1.00  0.00    -0.334 OA
HETATM   30  C8  UNL     1       5.414  -1.839  -1.310  1.00  0.00     0.158 A 
ENDBRANCH  23  26
ENDBRANCH   3  22
TORSDOF 4
