REMARK  6 active torsions:
REMARK  status: ('A' for Active; 'I' for Inactive)
REMARK    1  A    between atoms: C7_9  and  C8_10 
REMARK    2  A    between atoms: C9_11  and  C10_12 
REMARK    3  A    between atoms: C10_12  and  C11_14 
REMARK    4  A    between atoms: C11_14  and  C12_15 
REMARK    5  A    between atoms: C16_19  and  C17_20 
REMARK    6  A    between atoms: C18_21  and  N3_22 
ROOT
HETATM    1  N1  UNL     1      -5.040  -2.076   0.685  1.00  0.00    -0.191 NA
HETATM    2  C1  UNL     1      -5.809  -1.193   0.558  1.00  0.00     0.101 C 
HETATM    3  C2  UNL     1      -6.743  -0.122   0.403  1.00  0.00     0.068 A 
HETATM    4  C3  UNL     1      -8.002  -0.498   0.407  1.00  0.00     0.139 A 
HETATM    5  N2  UNL     1      -8.948   0.549   0.257  1.00  0.00    -0.275 NA
HETATM    6  C4  UNL     1      -8.612   1.784   0.129  1.00  0.00     0.093 A 
HETATM    7  C5  UNL     1      -7.277   2.363   0.109  1.00  0.00     0.087 A 
HETATM    8  C6  UNL     1      -6.268   1.258   0.239  1.00  0.00    -0.031 A 
HETATM    9  C7  UNL     1      -5.017   1.600   0.186  1.00  0.00     0.009 C 
ENDROOT
BRANCH   9  10
HETATM   10  C8  UNL     1      -3.614   1.344   0.200  1.00  0.00     0.004 C 
HETATM   11  C9  UNL     1      -2.436   1.910   0.122  1.00  0.00     0.050 C 
BRANCH  11  12
HETATM   12  C10 UNL     1      -1.316   1.030   0.210  1.00  0.00     0.149 C 
HETATM   13  O1  UNL     1      -0.205   1.602   0.132  1.00  0.00    -0.293 OA
BRANCH  12  14
HETATM   14  C11 UNL     1      -0.562  -0.200   0.343  1.00  0.00     0.092 C 
BRANCH  14  15
HETATM   15  C12 UNL     1       0.922  -0.026   0.242  1.00  0.00     0.023 C 
HETATM   16  C13 UNL     1       1.337   0.541  -1.074  1.00  0.00    -0.025 C 
HETATM   17  C14 UNL     1       1.657  -0.458  -1.924  1.00  0.00    -0.029 C 
HETATM   18  C15 UNL     1       1.475  -1.753  -1.229  1.00  0.00     0.036 C 
HETATM   19  C16 UNL     1       1.650  -1.349   0.225  1.00  0.00     0.021 C 
BRANCH  19  20
HETATM   20  C17 UNL     1       3.088  -1.057   0.515  1.00  0.00    -0.004 C 
HETATM   21  C18 UNL     1       4.174  -1.286  -0.207  1.00  0.00     0.087 C 
BRANCH  21  22
HETATM   22  N3  UNL     1       5.522  -0.986   0.121  1.00  0.00    -0.363 N 
HETATM   23  C19 UNL     1       5.852   0.395   0.136  1.00  0.00     0.090 A 
HETATM   24  C20 UNL     1       7.085   0.767   0.433  1.00  0.00     0.017 A 
HETATM   25  C21 UNL     1       8.148  -0.203   0.755  1.00  0.00    -0.001 A 
HETATM   26  C22 UNL     1       7.812  -1.483   0.733  1.00  0.00    -0.007 A 
HETATM   27  C23 UNL     1       6.492  -2.042   0.422  1.00  0.00     0.155 A 
ENDBRANCH  21  22
ENDBRANCH  19  20
ENDBRANCH  14  15
ENDBRANCH  12  14
ENDBRANCH  11  12
ENDBRANCH   9  10
TORSDOF 6
