REMARK  3 active torsions:
REMARK  status: ('A' for Active; 'I' for Inactive)
REMARK    1  A    between atoms: C4_6  and  N3_7 
REMARK    2  A    between atoms: C12_16  and  N4_17 
REMARK       I    between atoms: N4_17  and  C13_18 
REMARK    3  A    between atoms: C13_18  and  C14_20 
ROOT
HETATM    1  N1  UNL     1       1.204  -6.089   1.292  1.00  0.00    -0.191 NA
HETATM    2  C1  UNL     1       1.475  -4.965   1.111  1.00  0.00     0.102 C 
HETATM    3  C2  UNL     1       1.823  -3.604   0.906  1.00  0.00     0.073 A 
HETATM    4  C3  UNL     1       3.094  -3.086   0.967  1.00  0.00     0.142 A 
HETATM    5  N2  UNL     1       3.337  -1.759   0.756  1.00  0.00    -0.240 NA
HETATM    6  C4  UNL     1       2.305  -0.930   0.480  1.00  0.00     0.144 A 
HETATM    7  C10 UNL     1       1.013  -1.399   0.408  1.00  0.00     0.024 A 
HETATM    8  C11 UNL     1       0.019  -0.495   0.133  1.00  0.00     0.045 A 
HETATM    9  C12 UNL     1      -1.302  -0.893   0.056  1.00  0.00     0.035 A 
HETATM   10  C18 UNL     1      -1.529  -2.229   0.271  1.00  0.00     0.030 A 
HETATM   11  C19 UNL     1      -0.522  -3.147   0.550  1.00  0.00     0.016 A 
HETATM   12  C20 UNL     1       0.789  -2.739   0.624  1.00  0.00     0.000 A 
ENDROOT
BRANCH   6  13
HETATM   13  N3  UNL     1       2.698   0.421   0.294  1.00  0.00    -0.316 N 
HETATM   14  C5  UNL     1       2.364   1.575   1.052  1.00  0.00     0.094 A 
HETATM   15  C6  UNL     1       2.835   2.772   0.758  1.00  0.00    -0.004 A 
HETATM   16  C7  UNL     1       3.748   3.020  -0.380  1.00  0.00     0.076 A 
HETATM   17  C8  UNL     1       4.076   1.789  -1.151  1.00  0.00     0.008 A 
HETATM   18 BR1  UNL     1       5.262   2.060  -2.632  1.00  0.00    -0.054 Br
HETATM   19  C9  UNL     1       3.576   0.584  -0.822  1.00  0.00     0.113 A 
ENDBRANCH   6  13
BRANCH   9  20
HETATM   20  N4  UNL     1      -2.278   0.069  -0.224  1.00  0.00    -0.323 N 
HETATM   21  C13 UNL     1      -3.687  -0.022  -0.314  1.00  0.00     0.258 C 
HETATM   22  O1  UNL     1      -4.197  -1.141  -0.114  1.00  0.00    -0.267 OA
HETATM   23  H8  UNL     1      -1.958   1.063  -0.413  1.00  0.00     0.169 HD
BRANCH  21  24
HETATM   24  C14 UNL     1      -4.535   1.115  -0.625  1.00  0.00     0.056 A 
HETATM   25  C15 UNL     1      -4.139   2.433  -0.891  1.00  0.00     0.043 A 
HETATM   26  C16 UNL     1      -5.334   3.115  -1.117  1.00  0.00     0.142 A 
HETATM   27  O2  UNL     1      -6.349   2.298  -1.000  1.00  0.00    -0.334 OA
HETATM   28  C17 UNL     1      -5.912   1.097  -0.707  1.00  0.00     0.158 A 
ENDBRANCH  21  24
ENDBRANCH   9  20
TORSDOF 3
