REMARK  5 active torsions:
REMARK  status: ('A' for Active; 'I' for Inactive)
REMARK    1  A    between atoms: C3_5  and  C4_6 
REMARK    2  A    between atoms: C11_14  and  C12_15 
REMARK    3  A    between atoms: C12_15  and  N3_16 
REMARK    4  A    between atoms: C14_19  and  C15_20 
REMARK    5  A    between atoms: C15_20  and  N5_21 
ROOT
HETATM    1  N1  UNL     1      -1.128  -2.674  -2.577  1.00  0.00    -0.195 NA
HETATM    2  C1  UNL     1      -0.926  -2.180  -1.546  1.00  0.00     0.091 C 
HETATM    3  C2  UNL     1      -0.682  -1.568  -0.220  1.00  0.00     0.248 A 
HETATM    4  N2  UNL     1       0.724  -1.286  -0.169  1.00  0.00    -0.265 NA
HETATM    5  C3  UNL     1       1.172  -0.089  -0.118  1.00  0.00     0.064 A 
HETATM    6  C10 UNL     1       0.414   1.155  -0.097  1.00  0.00     0.041 A 
HETATM    7  C11 UNL     1      -0.909   1.078  -0.133  1.00  0.00    -0.025 A 
HETATM    8  C13 UNL     1      -1.421  -0.286  -0.187  1.00  0.00    -0.014 A 
HETATM    9  C14 UNL     1      -2.763  -0.392  -0.207  1.00  0.00     0.013 C 
ENDROOT
BRANCH   5  10
HETATM   10  C4  UNL     1       2.628  -0.018  -0.072  1.00  0.00    -0.006 A 
HETATM   11  C5  UNL     1       3.339   1.163  -0.014  1.00  0.00     0.014 A 
HETATM   12  C6  UNL     1       4.713   1.263   0.030  1.00  0.00     0.002 A 
HETATM   13  C7  UNL     1       5.460   0.112   0.016  1.00  0.00     0.019 A 
HETATM   14  C8  UNL     1       4.835  -1.115  -0.041  1.00  0.00     0.011 A 
HETATM   15 BR1  UNL     1       5.846  -2.730  -0.061  1.00  0.00    -0.051 Br
HETATM   16  C9  UNL     1       3.465  -1.119  -0.082  1.00  0.00     0.032 A 
ENDBRANCH   5  10
BRANCH   7  17
HETATM   17  C12 UNL     1      -1.750   2.274  -0.115  1.00  0.00     0.212 C 
BRANCH  17  18
HETATM   18  N3  UNL     1      -2.653   2.368   0.985  1.00  0.00    -0.196 NA
HETATM   19  N4  UNL     1      -3.123   3.480   1.277  1.00  0.00    -0.208 NA
HETATM   20  H9  UNL     1      -3.773   3.619   2.049  1.00  0.00     0.211 HD
ENDBRANCH  17  18
ENDBRANCH   7  17
BRANCH   9  21
HETATM   21  C15 UNL     1      -3.619  -1.603  -0.258  1.00  0.00     0.294 C 
BRANCH  21  22
HETATM   22  N5  UNL     1      -4.496  -1.660   0.924  1.00  0.00     0.081 N 
HETATM   23  H13 UNL     1      -3.909  -1.299   1.714  1.00  0.00     0.313 HD
HETATM   24  H14 UNL     1      -4.767  -2.653   1.118  1.00  0.00     0.313 HD
ENDBRANCH  21  22
ENDBRANCH   9  21
TORSDOF 5
