REMARK  1 active torsions:
REMARK  status: ('A' for Active; 'I' for Inactive)
REMARK    1  A    between atoms: N3_7  and  C5_8 
ROOT
HETATM    1  N1  UNL     1      -1.640  -4.166  -3.321  1.00  0.00    -0.191 NA
HETATM    2  C1  UNL     1      -1.386  -3.384  -2.465  1.00  0.00     0.101 C 
HETATM    3  C2  UNL     1      -1.063  -2.406  -1.410  1.00  0.00     0.061 C 
HETATM    4  C3  UNL     1       0.015  -1.675  -1.493  1.00  0.00     0.140 C 
HETATM    5  N2  UNL     1       0.691  -0.674  -0.773  1.00  0.00    -0.254 NA
HETATM    6  C4  UNL     1       1.594   0.051  -1.329  1.00  0.00     0.210 C 
HETATM    7  N3  UNL     1       2.468   1.101  -0.987  1.00  0.00    -0.325 N 
HETATM    8  C10 UNL     1       2.553   2.421  -1.543  1.00  0.00     0.092 C 
HETATM    9  C11 UNL     1       1.882   3.533  -1.193  1.00  0.00     0.016 C 
HETATM   10  C12 UNL     1       0.945   3.315  -0.080  1.00  0.00     0.197 C 
HETATM   11  O1  UNL     1      -0.357   3.637  -0.598  1.00  0.00    -0.379 OA
HETATM   12  C13 UNL     1      -1.377   2.679  -0.409  1.00  0.00     0.161 C 
HETATM   13  C14 UNL     1      -2.073   1.877   0.344  1.00  0.00     0.106 C 
HETATM   14  C15 UNL     1      -2.261   1.388   1.709  1.00  0.00     0.379 A 
HETATM   15  O2  UNL     1      -2.477   0.914   2.888  1.00  0.00    -0.133 OA
HETATM   16  N4  UNL     1      -3.274   0.386   1.765  1.00  0.00     0.158 N 
HETATM   17  N5  UNL     1      -4.284  -0.621   1.859  1.00  0.00    -0.120 NA
HETATM   18  C16 UNL     1      -3.647  -1.948   1.819  1.00  0.00     0.148 C 
HETATM   19  C17 UNL     1      -2.652  -2.015   0.722  1.00  0.00    -0.009 C 
HETATM   20  C18 UNL     1      -2.092  -2.422  -0.393  1.00  0.00     0.021 C 
HETATM   21  H13 UNL     1      -3.822   0.128   0.878  1.00  0.00     0.346 HD
HETATM   22  H14 UNL     1      -4.582  -0.544   2.877  1.00  0.00     0.156 HD
ENDROOT
BRANCH   7  23
HETATM   23  C5  UNL     1       3.188   0.385   0.045  1.00  0.00     0.132 A 
HETATM   24 BR1  UNL     1       4.590   1.621   0.625  1.00  0.00    -0.052 Br
HETATM   25  C6  UNL     1       3.868  -0.826  -0.474  1.00  0.00     0.021 A 
HETATM   26  C7  UNL     1       3.502  -1.866   0.268  1.00  0.00    -0.001 A 
HETATM   27  C8  UNL     1       2.575  -1.372   1.291  1.00  0.00    -0.001 A 
HETATM   28  C9  UNL     1       2.382  -0.064   1.174  1.00  0.00     0.021 A 
ENDBRANCH   7  23
TORSDOF 1
