REMARK  5 active torsions:
REMARK  status: ('A' for Active; 'I' for Inactive)
REMARK    1  A    between atoms: C6_7  and  N2_8 
REMARK       I    between atoms: N2_8  and  C7_9 
REMARK    2  A    between atoms: C7_9  and  C8_11 
REMARK    3  A    between atoms: C14_18  and  N3_19 
REMARK    4  A    between atoms: N3_19  and  C15_20 
REMARK    5  A    between atoms: C16_21  and  C17_22 
ROOT
HETATM    1  N1  UNL     1      -3.448  -5.415   0.021  1.00  0.00    -0.191 NA
HETATM    2  C1  UNL     1      -2.976  -4.376   0.206  1.00  0.00     0.101 C 
HETATM    3  C2  UNL     1      -2.395  -3.095   0.453  1.00  0.00     0.062 C 
HETATM    4  C3  UNL     1      -1.153  -3.094   1.077  1.00  0.00     0.024 C 
HETATM    5  C4  UNL     1       0.169  -2.752   0.885  1.00  0.00     0.004 C 
HETATM    6  C5  UNL     1       0.821  -1.552   0.675  1.00  0.00     0.029 C 
HETATM    7  C6  UNL     1       1.092  -0.543  -0.226  1.00  0.00     0.035 C 
HETATM    8  C12 UNL     1       0.183   0.353  -0.750  1.00  0.00     0.033 C 
HETATM    9  C13 UNL     1      -1.003   0.515  -1.409  1.00  0.00     0.052 C 
HETATM   10  C14 UNL     1      -2.012   0.166  -0.535  1.00  0.00     0.127 C 
HETATM   11  N4  UNL     1      -2.147  -1.152  -0.582  1.00  0.00    -0.242 NA
HETATM   12  C18 UNL     1      -3.007  -1.891   0.104  1.00  0.00     0.141 C 
ENDROOT
BRANCH  10  13
HETATM   13  N3  UNL     1      -2.281   1.511  -0.117  1.00  0.00    -0.351 N 
HETATM   14  H10 UNL     1      -1.751   1.893   0.723  1.00  0.00     0.166 HD
BRANCH  13  15
HETATM   15  C15 UNL     1      -3.218   2.372  -0.759  1.00  0.00     0.088 C 
HETATM   16  C16 UNL     1      -4.257   2.279   0.074  1.00  0.00     0.027 C 
BRANCH  16  17
HETATM   17  C17 UNL     1      -5.612   2.786   0.233  1.00  0.00     0.420 C 
HETATM   18  O3  UNL     1      -6.714   3.373   0.104  1.00  0.00    -0.426 OA
ENDBRANCH  16  17
ENDBRANCH  13  15
ENDBRANCH  10  13
BRANCH   7  19
HETATM   19  N2  UNL     1       2.461  -0.462  -0.623  1.00  0.00    -0.323 N 
HETATM   20  C7  UNL     1       3.178   0.394   0.237  1.00  0.00     0.258 C 
HETATM   21  O1  UNL     1       2.539   0.930   1.177  1.00  0.00    -0.267 OA
HETATM   22  H4  UNL     1       2.979  -0.923  -1.419  1.00  0.00     0.169 HD
BRANCH  20  23
HETATM   23  C8  UNL     1       4.601   0.690   0.104  1.00  0.00     0.056 A 
HETATM   24  C9  UNL     1       5.269   1.535   0.968  1.00  0.00     0.043 A 
HETATM   25  C10 UNL     1       6.583   1.537   0.487  1.00  0.00     0.142 A 
HETATM   26  O2  UNL     1       6.653   0.757  -0.562  1.00  0.00    -0.334 OA
HETATM   27  C11 UNL     1       5.484   0.215  -0.844  1.00  0.00     0.158 A 
ENDBRANCH  20  23
ENDBRANCH   7  19
TORSDOF 5
