REMARK  5 active torsions:
REMARK  status: ('A' for Active; 'I' for Inactive)
REMARK    1  A    between atoms: C1_2  and  O2_3 
REMARK    2  A    between atoms: C1_2  and  C2_4 
REMARK    3  A    between atoms: C10_13  and  N2_14 
REMARK    4  A    between atoms: N2_14  and  P1_15 
REMARK    5  A    between atoms: P1_15  and  C11_16 
ROOT
HETATM    1  C2  UNL     1       5.471   0.753  -0.268  1.00  0.00     0.038 A 
HETATM    2  C3  UNL     1       5.806  -0.522   0.132  1.00  0.00     0.021 A 
HETATM    3  C4  UNL     1       4.813  -1.298   0.646  1.00  0.00     0.039 A 
HETATM    4  C5  UNL     1       3.531  -0.803   0.752  1.00  0.00     0.086 A 
HETATM    5  C6  UNL     1       3.147   0.476   0.361  1.00  0.00    -0.006 A 
HETATM    6  C7  UNL     1       4.191   1.250  -0.163  1.00  0.00     0.029 A 
HETATM    7  C8  UNL     1       1.905   1.267   0.349  1.00  0.00     0.161 C 
HETATM    8  N1  UNL     1       0.704   0.509   0.154  1.00  0.00    -0.379 N 
HETATM    9  C9  UNL     1       0.480  -0.883   0.296  1.00  0.00     0.129 A 
HETATM   10  C10 UNL     1      -0.770  -1.229  -0.171  1.00  0.00     0.160 A 
HETATM   11  N3  UNL     1      -1.261  -2.501  -0.165  1.00  0.00    -0.222 NA
HETATM   12  C17 UNL     1      -0.429  -3.453   0.344  1.00  0.00     0.238 A 
HETATM   13  N4  UNL     1       0.799  -3.164   0.811  1.00  0.00    -0.215 NA
HETATM   14  C18 UNL     1       1.255  -1.893   0.790  1.00  0.00     0.202 A 
HETATM   15  O3  UNL     1       2.547  -1.657   1.292  1.00  0.00    -0.289 OA
HETATM   16  H7  UNL     1      -0.120   1.064  -0.133  1.00  0.00     0.160 HD
ENDROOT
BRANCH  10  17
HETATM   17  N2  UNL     1      -1.708  -0.294  -0.715  1.00  0.00    -0.339 N 
HETATM   18  H8  UNL     1      -1.863   0.111  -1.664  1.00  0.00     0.166 HD
BRANCH  17  19
HETATM   19  P1  UNL     1      -2.849   0.278   0.561  1.00  0.00     0.069 P 
BRANCH  19  20
HETATM   20  C11 UNL     1      -4.482   0.304   0.158  1.00  0.00    -0.022 A 
HETATM   21  C12 UNL     1      -4.914  -0.122  -1.168  1.00  0.00     0.037 A 
HETATM   22  C13 UNL     1      -6.225  -0.064  -1.382  1.00  0.00     0.072 A 
HETATM   23 CL1  UNL     1      -6.915  -0.540  -2.920  1.00  0.00    -0.081 Cl
HETATM   24  C14 UNL     1      -7.160   0.394  -0.358  1.00  0.00     0.134 A 
HETATM   25  F1  UNL     1      -8.510   0.441  -0.618  1.00  0.00    -0.205 F 
HETATM   26  C15 UNL     1      -6.742   0.774   0.833  1.00  0.00     0.022 A 
HETATM   27  C16 UNL     1      -5.322   0.788   1.283  1.00  0.00     0.072 A 
ENDBRANCH  19  20
ENDBRANCH  17  19
ENDBRANCH  10  17
BRANCH   1  28
HETATM   28  C1  UNL     1       6.542   1.585  -0.824  1.00  0.00     0.176 C 
HETATM   29  O1  UNL     1       7.711   1.101  -0.910  1.00  0.00    -0.646 OA
BRANCH  28  30
HETATM   30  O2  UNL     1       6.432   2.870  -1.279  1.00  0.00    -0.773 OA
HETATM   31  H1  UNL     1       7.092   3.618  -1.022  1.00  0.00     0.167 HD
ENDBRANCH  28  30
ENDBRANCH   1  28
TORSDOF 5
