REMARK  2 active torsions:
REMARK  status: ('A' for Active; 'I' for Inactive)
REMARK    1  A    between atoms: C3_4  and  N2_5 
REMARK       I    between atoms: N2_5  and  C4_6 
REMARK    2  A    between atoms: C4_6  and  C5_8 
ROOT
HETATM    1  N1  UNL     1       0.731  -3.448  -1.706  1.00  0.00    -0.193 NA
HETATM    2  C1  UNL     1       0.041  -2.515  -1.419  1.00  0.00     0.084 C 
HETATM    3  C2  UNL     1      -0.832  -1.377  -1.053  1.00  0.00    -0.003 C 
HETATM    4  C3  UNL     1      -0.123  -0.440  -0.534  1.00  0.00     0.019 C 
HETATM    5  C9  UNL     1      -0.877   0.684   0.103  1.00  0.00     0.088 C 
HETATM    6  C10 UNL     1      -1.671   1.588   0.620  1.00  0.00     0.120 A 
HETATM    7  C11 UNL     1      -2.905   2.299   1.045  1.00  0.00     0.079 A 
HETATM    8 BR1  UNL     1      -1.416   3.409   1.499  1.00  0.00    -0.105 Br
HETATM    9  N3  UNL     1      -4.190   1.832   0.895  1.00  0.00    -0.258 NA
HETATM   10  C12 UNL     1      -3.963   0.521   0.245  1.00  0.00     0.112 C 
HETATM   11  C13 UNL     1      -3.688  -0.812   0.231  1.00  0.00    -0.017 C 
HETATM   12  C14 UNL     1      -3.653  -1.363  -1.118  1.00  0.00    -0.019 C 
HETATM   13  B1  UNL     1      -2.199  -1.885  -1.535  1.00  0.00     0.214 B 
HETATM   14  H11 UNL     1      -2.232  -2.115  -2.754  1.00  0.00    -0.020 HD
ENDROOT
BRANCH   4  15
HETATM   15  N2  UNL     1       1.189  -0.155  -0.217  1.00  0.00    -0.326 N 
HETATM   16  C4  UNL     1       2.522  -0.521  -0.179  1.00  0.00     0.257 C 
HETATM   17  O1  UNL     1       2.503  -1.657  -0.663  1.00  0.00    -0.267 OA
HETATM   18  H1  UNL     1       1.467   0.789   0.199  1.00  0.00     0.169 HD
BRANCH  16  19
HETATM   19  C5  UNL     1       3.770   0.046   0.242  1.00  0.00     0.056 A 
HETATM   20  C6  UNL     1       3.927   1.300   0.797  1.00  0.00     0.043 A 
HETATM   21  C7  UNL     1       5.273   1.388   1.029  1.00  0.00     0.142 A 
HETATM   22  O2  UNL     1       5.831   0.276   0.638  1.00  0.00    -0.334 OA
HETATM   23  C8  UNL     1       4.985  -0.574   0.155  1.00  0.00     0.158 A 
ENDBRANCH  16  19
ENDBRANCH   4  15
TORSDOF 2
