REMARK  5 active torsions:
REMARK  status: ('A' for Active; 'I' for Inactive)
REMARK    1  A    between atoms: O1_1  and  C1_2 
REMARK    2  A    between atoms: C1_2  and  C2_3 
REMARK    3  A    between atoms: C2_3  and  N1_4 
REMARK    4  A    between atoms: C2_3  and  C13_18 
REMARK    5  A    between atoms: N1_4  and  C3_5 
ROOT
HETATM    1  C3  UNL     1       0.146  -0.747   0.818  1.00  0.00     0.139 A 
HETATM    2  N2  UNL     1       1.030  -1.695   1.147  1.00  0.00    -0.224 NA
HETATM    3  C4  UNL     1       0.781  -2.979   1.399  1.00  0.00     0.236 A 
HETATM    4  N3  UNL     1      -0.510  -3.330   1.305  1.00  0.00    -0.234 NA
HETATM    5  C5  UNL     1      -1.431  -2.408   0.976  1.00  0.00     0.114 A 
HETATM    6  S1  UNL     1      -3.145  -2.604   0.793  1.00  0.00    -0.073 SA
HETATM    7  C6  UNL     1      -3.490  -0.864   0.360  1.00  0.00    -0.008 A 
HETATM    8  C7  UNL     1      -2.236  -0.281   0.396  1.00  0.00    -0.028 A 
HETATM    9  C8  UNL     1      -1.180  -1.092   0.717  1.00  0.00     0.053 A 
HETATM   10  C9  UNL     1      -2.559   1.110   0.040  1.00  0.00     0.041 C 
HETATM   11  C10 UNL     1      -3.304   1.126  -1.294  1.00  0.00     0.005 C 
HETATM   12  C11 UNL     1      -4.751   0.796  -0.975  1.00  0.00     0.005 C 
HETATM   13  C12 UNL     1      -4.808  -0.303   0.062  1.00  0.00     0.047 C 
ENDROOT
BRANCH   1  14
HETATM   14  N1  UNL     1       0.701   0.567   0.606  1.00  0.00    -0.363 N 
HETATM   15  H5  UNL     1       0.346   1.486   0.362  1.00  0.00     0.162 HD
BRANCH  14  16
HETATM   16  C2  UNL     1       2.110   0.774   0.747  1.00  0.00     0.141 C 
BRANCH  16  17
HETATM   17  C1  UNL     1       2.565   2.178   0.497  1.00  0.00     0.194 C 
BRANCH  17  18
HETATM   18  O1  UNL     1       2.263   2.615  -0.791  1.00  0.00    -0.399 OA
HETATM   19  H1  UNL     1       1.562   2.046  -1.177  1.00  0.00     0.209 HD
ENDBRANCH  17  18
ENDBRANCH  16  17
BRANCH  16  20
HETATM   20  C13 UNL     1       2.889  -0.074  -0.228  1.00  0.00    -0.021 C 
HETATM   21  C14 UNL     1       2.428  -0.852  -1.182  1.00  0.00    -0.005 C 
HETATM   22  C15 UNL     1       3.134  -0.895  -2.253  1.00  0.00    -0.013 C 
HETATM   23  C16 UNL     1       4.402  -1.221  -2.112  1.00  0.00     0.013 C 
HETATM   24  C17 UNL     1       5.092  -0.554  -0.988  1.00  0.00     0.002 C 
HETATM   25  C18 UNL     1       4.332   0.022  -0.042  1.00  0.00     0.010 C 
ENDBRANCH  16  20
ENDBRANCH  14  16
ENDBRANCH   1  14
TORSDOF 5
