REMARK  3 active torsions:
REMARK  status: ('A' for Active; 'I' for Inactive)
REMARK    1  A    between atoms: C2_2  and  C3_3 
REMARK    2  A    between atoms: C4_4  and  C5_5 
REMARK    3  A    between atoms: C15_20  and  C16_21 
ROOT
HETATM    1  C5  UNL     1      -2.256  -0.064  -0.174  1.00  0.00     0.161 C 
HETATM    2  N1  UNL     1      -1.620   1.221   0.047  1.00  0.00    -0.383 N 
HETATM    3  C6  UNL     1      -0.213   1.039   0.139  1.00  0.00     0.118 C 
HETATM    4  C7  UNL     1       1.023   0.829  -0.270  1.00  0.00     0.106 C 
HETATM    5  N2  UNL     1       2.171   0.761   0.601  1.00  0.00    -0.238 NA
HETATM    6  C8  UNL     1       2.204  -0.072   1.591  1.00  0.00     0.232 C 
HETATM    7  N3  UNL     1       0.999  -0.791   1.594  1.00  0.00    -0.256 NA
HETATM    8  C9  UNL     1       0.872  -1.925   2.169  1.00  0.00     0.117 C 
HETATM    9  C10 UNL     1      -0.572  -2.239   1.877  1.00  0.00     0.222 C 
HETATM   10  O1  UNL     1      -0.737  -2.254   0.455  1.00  0.00    -0.348 OA
HETATM   11  C11 UNL     1      -1.271  -1.137  -0.194  1.00  0.00     0.071 C 
HETATM   12  C12 UNL     1      -0.516  -1.032  -1.320  1.00  0.00     0.034 C 
HETATM   13  C13 UNL     1      -0.602  -0.039  -2.389  1.00  0.00     0.206 C 
HETATM   14  O2  UNL     1       0.589   0.669  -2.517  1.00  0.00    -0.345 OA
HETATM   15  C14 UNL     1       1.594   0.619  -1.587  1.00  0.00     0.096 C 
HETATM   16  C15 UNL     1       2.734   0.399  -2.217  1.00  0.00     0.021 C 
HETATM   17  H7  UNL     1      -2.093   2.146   0.120  1.00  0.00     0.160 HD
ENDROOT
BRANCH  16  18
HETATM   18  C16 UNL     1       3.830   0.342  -1.253  1.00  0.00     0.150 C 
HETATM   19  C17 UNL     1       5.141   0.184  -1.065  1.00  0.00     0.134 C 
HETATM   20  F1  UNL     1       6.459   0.031  -0.806  1.00  0.00    -0.243 F 
HETATM   21  C18 UNL     1       5.513   0.240   0.382  1.00  0.00     0.300 C 
HETATM   22  F2  UNL     1       6.795   0.746   0.446  1.00  0.00    -0.231 F 
HETATM   23 CL1  UNL     1       5.449  -1.404   1.046  1.00  0.00    -0.087 Cl
ENDBRANCH  16  18
BRANCH   1  24
HETATM   24  C4  UNL     1      -3.456  -0.294   0.667  1.00  0.00     0.005 C 
HETATM   25  C3  UNL     1      -4.598   0.321   0.403  1.00  0.00    -0.002 C 
BRANCH  25  26
HETATM   26  C2  UNL     1      -4.981   1.269  -0.630  1.00  0.00    -0.010 C 
HETATM   27  C1  UNL     1      -6.109   1.891  -0.909  1.00  0.00     0.011 C 
ENDBRANCH  25  26
ENDBRANCH   1  24
TORSDOF 3
