REMARK  5 active torsions:
REMARK  status: ('A' for Active; 'I' for Inactive)
REMARK    1  A    between atoms: S1_1  and  O1_2 
REMARK    2  A    between atoms: O1_2  and  C1_3 
REMARK    3  A    between atoms: C1_3  and  C2_4 
REMARK    4  A    between atoms: C2_4  and  C3_5 
REMARK    5  A    between atoms: C2_4  and  C13_17 
ROOT
HETATM    1  C3  UNL     1      -0.428  -0.129   0.012  1.00  0.00     0.029 C 
HETATM    2  N1  UNL     1      -0.355  -0.351   1.379  1.00  0.00    -0.250 NA
HETATM    3  C4  UNL     1      -1.265   0.429   2.315  1.00  0.00     0.227 C 
HETATM    4  N2  UNL     1      -2.561   0.811   1.882  1.00  0.00    -0.270 NA
HETATM    5  C5  UNL     1      -2.813   0.935   0.362  1.00  0.00     0.077 A 
HETATM    6  C6  UNL     1      -2.950   2.292  -0.144  1.00  0.00     0.025 C 
HETATM    7  C7  UNL     1      -3.679   1.600  -1.354  1.00  0.00     0.021 C 
HETATM    8  C8  UNL     1      -2.733   0.452  -0.954  1.00  0.00     0.009 A 
HETATM    9  C9  UNL     1      -2.670  -0.522  -0.226  1.00  0.00     0.010 A 
HETATM   10  C10 UNL     1      -2.597  -1.683  -1.250  1.00  0.00     0.014 C 
HETATM   11  C11 UNL     1      -1.418  -1.097  -2.062  1.00  0.00     0.012 C 
HETATM   12  C12 UNL     1      -1.251   0.172  -1.177  1.00  0.00     0.046 C 
ENDROOT
BRANCH   1  13
HETATM   13  C2  UNL     1       1.023  -0.278  -0.415  1.00  0.00     0.092 C 
BRANCH  13  14
HETATM   14  C1  UNL     1       1.489   1.084  -0.877  1.00  0.00     0.200 C 
BRANCH  14  15
HETATM   15  O1  UNL     1       1.390   2.065   0.107  1.00  0.00    -0.322 OA
BRANCH  15  16
HETATM   16  S1  UNL     1       1.946   3.575  -0.523  1.00  0.00    -0.025 SA
HETATM   17  H1  UNL     1       3.322   3.699  -0.165  1.00  0.00     0.133 HD
ENDBRANCH  15  16
ENDBRANCH  14  15
ENDBRANCH  13  14
BRANCH  13  18
HETATM   18  C13 UNL     1       1.873  -0.739   0.725  1.00  0.00    -0.046 A 
HETATM   19  C14 UNL     1       2.101  -0.126   1.939  1.00  0.00     0.008 A 
HETATM   20  C15 UNL     1       2.914  -0.701   2.873  1.00  0.00     0.001 A 
HETATM   21  C16 UNL     1       3.553  -1.907   2.678  1.00  0.00     0.000 A 
HETATM   22  C17 UNL     1       3.361  -2.562   1.482  1.00  0.00     0.001 A 
HETATM   23  C18 UNL     1       2.536  -1.961   0.558  1.00  0.00     0.008 A 
ENDBRANCH  13  18
ENDBRANCH   1  13
TORSDOF 5
