REMARK  0 active torsions:
REMARK  status: ('A' for Active; 'I' for Inactive)
ROOT
HETATM    1  C1  UNL     1      -2.037  -1.778  -1.834  1.00  0.00     0.057 C 
HETATM    2  C2  UNL     1      -1.118  -1.481  -0.706  1.00  0.00    -0.005 C 
HETATM    3  C3  UNL     1      -1.558  -0.789   0.345  1.00  0.00    -0.060 C 
HETATM    4  C4  UNL     1      -3.003  -0.359   0.320  1.00  0.00     0.064 C 
HETATM    5  C5  UNL     1      -3.182   1.095   0.289  1.00  0.00    -0.003 C 
HETATM    6  C6  UNL     1      -2.388   2.149   0.253  1.00  0.00     0.114 C 
HETATM    7  N1  UNL     1      -1.277   3.013   0.218  1.00  0.00    -0.255 NA
HETATM    8  C7  UNL     1      -0.097   2.589  -0.163  1.00  0.00     0.223 C 
HETATM    9  N2  UNL     1       0.490   1.375  -0.611  1.00  0.00    -0.291 N 
HETATM   10  N3  UNL     1       1.093   0.435   0.177  1.00  0.00    -0.285 N 
HETATM   11  C8  UNL     1       2.419  -0.039  -0.186  1.00  0.00     0.055 C 
HETATM   12  C9  UNL     1       3.205   0.411   0.819  1.00  0.00     0.029 C 
HETATM   13  C10 UNL     1       2.657   0.719   2.168  1.00  0.00     0.000 C 
HETATM   14  C11 UNL     1       1.344   0.568   2.470  1.00  0.00     0.000 C 
HETATM   15  C12 UNL     1       0.640  -0.242   1.407  1.00  0.00     0.135 C 
HETATM   16  C13 UNL     1      -0.841  -0.241   1.526  1.00  0.00     0.067 C 
HETATM   17  C14 UNL     1       2.983  -0.852  -1.313  1.00  0.00     0.253 C 
HETATM   18  O1  UNL     1       2.061  -0.776  -2.363  1.00  0.00    -0.289 OA
HETATM   19  N4  UNL     1       1.270  -1.918  -2.345  1.00  0.00    -0.140 NA
HETATM   20  S1  UNL     1       0.556  -2.022  -0.732  1.00  0.00    -0.023 SA
HETATM   21  H9  UNL     1       0.465   1.171  -1.632  1.00  0.00     0.188 HD
HETATM   22  H18 UNL     1       1.811  -2.761  -2.602  1.00  0.00     0.168 HD
ENDROOT
TORSDOF 0
