REMARK  5 active torsions:
REMARK  status: ('A' for Active; 'I' for Inactive)
REMARK    1  A    between atoms: O1_1  and  C1_2 
REMARK    2  A    between atoms: C1_2  and  C2_3 
REMARK    3  A    between atoms: C2_3  and  N1_4 
REMARK    4  A    between atoms: C2_3  and  C13_18 
REMARK    5  A    between atoms: N1_4  and  C3_5 
ROOT
HETATM    1  C3  UNL     1      -0.352  -1.675  -0.182  1.00  0.00     0.139 A 
HETATM    2  N2  UNL     1       0.155  -2.911  -0.188  1.00  0.00    -0.224 NA
HETATM    3  C4  UNL     1      -0.515  -4.026  -0.372  1.00  0.00     0.236 A 
HETATM    4  N3  UNL     1      -1.833  -3.882  -0.570  1.00  0.00    -0.234 NA
HETATM    5  C5  UNL     1      -2.367  -2.598  -0.564  1.00  0.00     0.114 A 
HETATM    6  S1  UNL     1      -4.034  -2.221  -0.804  1.00  0.00    -0.073 SA
HETATM    7  C6  UNL     1      -3.740  -0.404  -0.630  1.00  0.00    -0.008 A 
HETATM    8  C7  UNL     1      -2.439  -0.336  -0.417  1.00  0.00    -0.028 A 
HETATM    9  C8  UNL     1      -1.705  -1.461  -0.380  1.00  0.00     0.053 A 
HETATM   10  C9  UNL     1      -2.004   1.082  -0.232  1.00  0.00     0.041 C 
HETATM   11  C10 UNL     1      -3.131   2.051  -0.157  1.00  0.00     0.005 C 
HETATM   12  C11 UNL     1      -4.188   1.877  -1.189  1.00  0.00     0.005 C 
HETATM   13  C12 UNL     1      -4.852   0.564  -0.744  1.00  0.00     0.047 C 
ENDROOT
BRANCH   1  14
HETATM   14  N1  UNL     1       0.626  -0.636   0.035  1.00  0.00    -0.363 N 
HETATM   15  H5  UNL     1       0.470   0.389   0.067  1.00  0.00     0.162 HD
BRANCH  14  16
HETATM   16  C2  UNL     1       2.031  -0.924   0.237  1.00  0.00     0.140 C 
BRANCH  16  17
HETATM   17  C1  UNL     1       2.700  -1.574  -0.950  1.00  0.00     0.194 C 
BRANCH  17  18
HETATM   18  O1  UNL     1       4.048  -1.764  -0.555  1.00  0.00    -0.399 OA
HETATM   19  H1  UNL     1       3.999  -2.275   0.303  1.00  0.00     0.209 HD
ENDBRANCH  17  18
ENDBRANCH  16  17
BRANCH  16  20
HETATM   20  C13 UNL     1       2.752   0.262   0.720  1.00  0.00    -0.034 A 
HETATM   21  C14 UNL     1       3.674   0.228   1.771  1.00  0.00     0.009 A 
HETATM   22  C15 UNL     1       4.323   1.355   2.190  1.00  0.00     0.001 A 
HETATM   23  C16 UNL     1       4.119   2.589   1.615  1.00  0.00     0.000 A 
HETATM   24  C17 UNL     1       3.208   2.652   0.567  1.00  0.00     0.001 A 
HETATM   25  C18 UNL     1       2.568   1.522   0.159  1.00  0.00     0.009 A 
ENDBRANCH  16  20
ENDBRANCH  14  16
ENDBRANCH   1  14
TORSDOF 5
