REMARK  4 active torsions:
REMARK  status: ('A' for Active; 'I' for Inactive)
REMARK    1  A    between atoms: O1_1  and  C1_2 
REMARK    2  A    between atoms: C1_2  and  C2_3 
REMARK    3  A    between atoms: C7_8  and  C8_9 
REMARK    4  A    between atoms: C8_9  and  P1_10 
ROOT
HETATM    1  P1  UNL     1      -0.169  -0.124   0.163  1.00  0.00    -0.071 P 
HETATM    2  C9  UNL     1       0.355   1.490  -0.170  1.00  0.00     0.121 C 
HETATM    3  N1  UNL     1       1.296   1.399   0.613  1.00  0.00    -0.269 NA
HETATM    4  P2  UNL     1       2.504   2.680   0.954  1.00  0.00     0.059 P 
HETATM    5  C10 UNL     1       4.104   1.692   0.975  1.00  0.00     0.120 C 
HETATM    6  N2  UNL     1       5.382   1.509   0.754  1.00  0.00    -0.252 NA
HETATM    7  C11 UNL     1       5.883   0.896  -0.464  1.00  0.00     0.118 C 
HETATM    8  C12 UNL     1       5.552  -0.298  -0.994  1.00  0.00     0.020 C 
HETATM    9  C13 UNL     1       4.258  -1.010  -0.695  1.00  0.00     0.016 C 
HETATM   10  C14 UNL     1       3.207  -0.868   0.172  1.00  0.00    -0.015 C 
HETATM   11  C15 UNL     1       2.170  -1.577  -0.590  1.00  0.00     0.051 C 
HETATM   12  C16 UNL     1       0.833  -1.591   0.034  1.00  0.00     0.045 C 
HETATM   13  S1  UNL     1       3.736   0.036   1.673  1.00  0.00    -0.073 SA
HETATM   14  H11 UNL     1       2.311   3.143   2.319  1.00  0.00     0.089 HD
ENDROOT
BRANCH   1  15
HETATM   15  C8  UNL     1      -1.567  -0.282   1.319  1.00  0.00     0.079 C 
BRANCH  15  16
HETATM   16  C7  UNL     1      -2.806  -0.454   0.515  1.00  0.00    -0.045 A 
HETATM   17  C2  UNL     1      -3.623   0.486  -0.062  1.00  0.00    -0.028 A 
HETATM   18  C3  UNL     1      -4.710   0.164  -0.838  1.00  0.00     0.010 A 
HETATM   19  C4  UNL     1      -5.050  -1.165  -1.086  1.00  0.00     0.001 A 
HETATM   20  C5  UNL     1      -4.241  -2.123  -0.513  1.00  0.00     0.001 A 
HETATM   21  C6  UNL     1      -3.160  -1.773   0.258  1.00  0.00     0.008 A 
BRANCH  17  22
HETATM   22  C1  UNL     1      -3.282   1.912   0.227  1.00  0.00     0.203 C 
BRANCH  22  23
HETATM   23  O1  UNL     1      -4.410   2.683  -0.064  1.00  0.00    -0.396 OA
HETATM   24  H1  UNL     1      -4.444   2.832  -1.021  1.00  0.00     0.209 HD
ENDBRANCH  22  23
ENDBRANCH  17  22
ENDBRANCH  15  16
ENDBRANCH   1  15
TORSDOF 4
