REMARK  4 active torsions:
REMARK  status: ('A' for Active; 'I' for Inactive)
REMARK    1  A    between atoms: C1_2  and  C2_3 
REMARK    2  A    between atoms: C2_3  and  N1_4 
REMARK    3  A    between atoms: C2_3  and  C13_18 
REMARK    4  A    between atoms: N1_4  and  C3_5 
ROOT
HETATM    1  C3  UNL     1       0.193  -1.340   1.044  1.00  0.00     0.139 A 
HETATM    2  N2  UNL     1      -0.271  -2.349   1.772  1.00  0.00    -0.224 NA
HETATM    3  C4  UNL     1       0.373  -3.155   2.575  1.00  0.00     0.236 A 
HETATM    4  N3  UNL     1       1.665  -2.903   2.652  1.00  0.00    -0.234 NA
HETATM    5  C5  UNL     1       2.249  -1.905   1.959  1.00  0.00     0.114 A 
HETATM    6  S1  UNL     1       3.971  -1.252   1.807  1.00  0.00    -0.073 SA
HETATM    7  C6  UNL     1       3.574   0.092   0.615  1.00  0.00    -0.008 A 
HETATM    8  C7  UNL     1       2.184  -0.053   0.425  1.00  0.00    -0.028 A 
HETATM    9  C8  UNL     1       1.528  -1.042   1.092  1.00  0.00     0.053 A 
HETATM   10  C9  UNL     1       1.947   1.034  -0.540  1.00  0.00     0.041 C 
HETATM   11  C10 UNL     1       3.049   1.069  -1.606  1.00  0.00     0.005 C 
HETATM   12  C11 UNL     1       4.228   1.780  -0.975  1.00  0.00     0.005 C 
HETATM   13  C12 UNL     1       4.644   0.911   0.185  1.00  0.00     0.047 C 
ENDROOT
BRANCH   1  14
HETATM   14  N1  UNL     1      -0.790  -0.640   0.282  1.00  0.00    -0.359 N 
HETATM   15  H3  UNL     1      -0.826   0.162  -0.356  1.00  0.00     0.162 HD
BRANCH  14  16
HETATM   16  C2  UNL     1      -2.174  -1.054   0.311  1.00  0.00     0.178 C 
BRANCH  16  17
HETATM   17  C1  UNL     1      -2.353  -2.431  -0.226  1.00  0.00     0.261 C 
HETATM   18  O1  UNL     1      -1.455  -3.163  -0.653  1.00  0.00    -0.304 OA
ENDBRANCH  16  17
BRANCH  16  19
HETATM   19  C13 UNL     1      -3.102  -0.063  -0.221  1.00  0.00    -0.029 A 
HETATM   20  C14 UNL     1      -2.890   1.232   0.207  1.00  0.00     0.009 A 
HETATM   21  C15 UNL     1      -3.692   2.268  -0.217  1.00  0.00     0.001 A 
HETATM   22  C16 UNL     1      -4.730   2.023  -1.084  1.00  0.00     0.000 A 
HETATM   23  C17 UNL     1      -4.956   0.741  -1.520  1.00  0.00     0.001 A 
HETATM   24  C18 UNL     1      -4.149  -0.290  -1.091  1.00  0.00     0.009 A 
ENDBRANCH  16  19
ENDBRANCH  14  16
ENDBRANCH   1  14
TORSDOF 4
