REMARK  2 active torsions:
REMARK  status: ('A' for Active; 'I' for Inactive)
REMARK    1  A    between atoms: C6_6  and  N1_8 
REMARK    2  A    between atoms: N1_8  and  C8_9 
ROOT
HETATM    1  C8  UNL     1      -0.301   1.233   0.259  1.00  0.00     0.139 A 
HETATM    2  N2  UNL     1      -1.085   2.288   0.348  1.00  0.00    -0.224 NA
HETATM    3  C9  UNL     1      -0.672   3.529   0.430  1.00  0.00     0.236 A 
HETATM    4  N3  UNL     1       0.610   3.804   0.429  1.00  0.00    -0.234 NA
HETATM    5  C10 UNL     1       1.499   2.644   0.331  1.00  0.00     0.114 A 
HETATM    6  S1  UNL     1       3.374   2.549   0.295  1.00  0.00    -0.073 SA
HETATM    7  C11 UNL     1       3.413   0.837   0.172  1.00  0.00    -0.008 A 
HETATM    8  C12 UNL     1       2.073   0.395   0.161  1.00  0.00    -0.028 A 
HETATM    9  C13 UNL     1       1.055   1.276   0.240  1.00  0.00     0.053 A 
HETATM   10  C14 UNL     1       2.192  -1.066   0.050  1.00  0.00     0.041 C 
HETATM   11  C15 UNL     1       2.903  -1.291  -1.305  1.00  0.00     0.005 C 
HETATM   12  C16 UNL     1       4.381  -1.142  -1.016  1.00  0.00     0.005 C 
HETATM   13  C17 UNL     1       4.527  -0.131   0.091  1.00  0.00     0.047 C 
ENDROOT
BRANCH   1  14
HETATM   14  N1  UNL     1      -0.962  -0.020   0.181  1.00  0.00    -0.358 N 
HETATM   15  H10 UNL     1      -0.742  -1.019   0.106  1.00  0.00     0.162 HD
BRANCH  14  16
HETATM   16  C6  UNL     1      -2.410  -0.008   0.206  1.00  0.00     0.069 A 
HETATM   17  C2  UNL     1      -3.044  -1.315   0.123  1.00  0.00    -0.052 A 
HETATM   18  C1  UNL     1      -2.842  -2.107  -1.120  1.00  0.00     0.046 C 
HETATM   19  C3  UNL     1      -3.727  -1.597   1.217  1.00  0.00     0.005 A 
HETATM   20  C4  UNL     1      -3.588  -0.469   2.117  1.00  0.00    -0.001 A 
HETATM   21  C5  UNL     1      -2.832   0.475   1.572  1.00  0.00     0.008 A 
HETATM   22  C7  UNL     1      -2.978   0.915  -0.855  1.00  0.00     0.048 C 
ENDBRANCH  14  16
ENDBRANCH   1  14
TORSDOF 2
