REMARK  0 active torsions:
REMARK  status: ('A' for Active; 'I' for Inactive)
ROOT
HETATM    1  C1  UNL     1       3.948   1.277   0.163  1.00  0.00     0.069 C 
HETATM    2  C2  UNL     1       3.071   0.088   0.297  1.00  0.00     0.018 C 
HETATM    3  C3  UNL     1       3.423  -1.116  -0.046  1.00  0.00    -0.002 C 
HETATM    4  C4  UNL     1       2.685  -2.107   0.363  1.00  0.00     0.015 C 
HETATM    5  C5  UNL     1       1.410  -1.814  -0.282  1.00  0.00     0.008 C 
HETATM    6  C6  UNL     1       0.257  -2.435  -0.093  1.00  0.00     0.140 C 
HETATM    7  S1  UNL     1      -1.318  -3.205   0.097  1.00  0.00    -0.210 SA
HETATM    8  C7  UNL     1      -2.681  -2.081  -0.304  1.00  0.00     0.037 C 
HETATM    9  C8  UNL     1      -2.952  -1.251   0.934  1.00  0.00     0.041 C 
HETATM   10  C9  UNL     1      -1.706  -0.430   1.142  1.00  0.00    -0.018 C 
HETATM   11  C10 UNL     1      -1.452   0.418   0.142  1.00  0.00    -0.046 C 
HETATM   12  C11 UNL     1      -2.329   0.299  -1.052  1.00  0.00     0.040 C 
HETATM   13  C12 UNL     1      -2.328  -1.162  -1.450  1.00  0.00     0.019 C 
HETATM   14  C13 UNL     1      -0.406   1.433   0.134  1.00  0.00     0.033 A 
HETATM   15  C14 UNL     1      -0.853   2.684  -0.238  1.00  0.00     0.134 A 
HETATM   16  N1  UNL     1      -0.118   3.819  -0.336  1.00  0.00    -0.253 NA
HETATM   17  C15 UNL     1       1.187   3.693  -0.034  1.00  0.00     0.234 A 
HETATM   18  N2  UNL     1       1.661   2.492   0.332  1.00  0.00    -0.224 NA
HETATM   19  C16 UNL     1       0.936   1.368   0.430  1.00  0.00     0.141 A 
HETATM   20  N3  UNL     1       1.746   0.274   0.843  1.00  0.00    -0.343 N 
HETATM   21  H17 UNL     1       1.128  -0.204   1.535  1.00  0.00     0.167 HD
ENDROOT
TORSDOF 0
