REMARK  3 active torsions:
REMARK  status: ('A' for Active; 'I' for Inactive)
REMARK    1  A    between atoms: C1_2  and  O2_3 
REMARK    2  A    between atoms: C1_2  and  S1_4 
REMARK    3  A    between atoms: C7_13  and  N3_14 
ROOT
HETATM    1  S1  UNL     1       3.159  -0.693   0.617  1.00  0.00    -0.064 SA
HETATM    2  C2  UNL     1       2.608  -2.105  -0.004  1.00  0.00     0.020 C 
HETATM    3  C3  UNL     1       1.292  -2.023  -0.145  1.00  0.00     0.030 C 
HETATM    4  C4  UNL     1       0.685  -1.037  -1.082  1.00  0.00     0.186 C 
HETATM    5  O3  UNL     1      -0.624  -1.344  -1.397  1.00  0.00    -0.319 OA
HETATM    6  C5  UNL     1      -1.808  -1.067  -0.712  1.00  0.00     0.197 A 
HETATM    7  N1  UNL     1      -2.727  -2.054  -0.604  1.00  0.00    -0.216 NA
HETATM    8  C6  UNL     1      -3.874  -1.806   0.052  1.00  0.00     0.238 A 
HETATM    9  N2  UNL     1      -4.151  -0.596   0.616  1.00  0.00    -0.221 NA
HETATM   10  C7  UNL     1      -3.219   0.390   0.501  1.00  0.00     0.166 A 
HETATM   11  C8  UNL     1      -2.009   0.185  -0.171  1.00  0.00     0.129 A 
HETATM   12  N4  UNL     1      -1.237   1.384  -0.131  1.00  0.00    -0.379 N 
HETATM   13  C9  UNL     1       0.043   1.445  -0.792  1.00  0.00     0.157 C 
HETATM   14  C10 UNL     1       0.919   0.308  -0.547  1.00  0.00    -0.023 C 
HETATM   15  C11 UNL     1       1.962   0.631   0.218  1.00  0.00     0.057 C 
HETATM   16  H6  UNL     1      -1.672   2.180   0.401  1.00  0.00     0.160 HD
ENDROOT
BRANCH   1  17
HETATM   17  C1  UNL     1       4.897  -0.273   0.826  1.00  0.00     0.206 C 
HETATM   18  O1  UNL     1       5.781  -0.769   0.061  1.00  0.00    -0.641 OA
BRANCH  17  19
HETATM   19  O2  UNL     1       5.230   0.602   1.841  1.00  0.00    -0.768 OA
HETATM   20  H1  UNL     1       6.119   1.118   1.803  1.00  0.00     0.168 HD
ENDBRANCH  17  19
ENDBRANCH   1  17
BRANCH  10  21
HETATM   21  N3  UNL     1      -3.503   1.656   1.089  1.00  0.00    -0.305 N 
HETATM   22 BR1  UNL     1      -4.352   2.504  -0.358  1.00  0.00     0.048 Br
HETATM   23  H5  UNL     1      -3.344   2.093   2.010  1.00  0.00     0.175 HD
ENDBRANCH  10  21
TORSDOF 3
