REMARK  5 active torsions:
REMARK  status: ('A' for Active; 'I' for Inactive)
REMARK    1  A    between atoms: C7_8  and  N1_9 
REMARK    2  A    between atoms: C8_10  and  N2_11 
REMARK    3  A    between atoms: C9_12  and  N3_13 
REMARK    4  A    between atoms: N3_13  and  C10_14 
REMARK    5  A    between atoms: C10_14  and  C12_16 
ROOT
HETATM    1  C1  UNL     1       0.664  -2.215   0.336  1.00  0.00     0.021 C 
HETATM    2  C2  UNL     1       1.490  -1.182   0.339  1.00  0.00    -0.038 C 
HETATM    3  C3  UNL     1       2.817  -1.489   0.965  1.00  0.00     0.040 C 
HETATM    4  C4  UNL     1       3.878  -1.154  -0.050  1.00  0.00     0.005 C 
HETATM    5  C5  UNL     1       4.632   0.109   0.263  1.00  0.00     0.011 C 
HETATM    6  C6  UNL     1       4.185   1.292  -0.559  1.00  0.00     0.081 C 
HETATM    7  S1  UNL     1       2.727   2.112   0.105  1.00  0.00    -0.108 SA
HETATM    8  C7  UNL     1       1.269   1.203  -0.382  1.00  0.00     0.121 C 
HETATM    9  C9  UNL     1       0.803  -0.044  -0.293  1.00  0.00     0.070 C 
ENDROOT
BRANCH   9  10
HETATM   10  N3  UNL     1      -0.474  -0.311  -0.844  1.00  0.00    -0.379 N 
HETATM   11  H14 UNL     1       0.134  -0.505  -1.701  1.00  0.00     0.160 HD
BRANCH  10  12
HETATM   12  C10 UNL     1      -1.763  -0.581  -1.401  1.00  0.00     0.111 C 
HETATM   13  C11 UNL     1      -1.882  -1.969  -2.019  1.00  0.00     0.037 C 
BRANCH  12  14
HETATM   14  C12 UNL     1      -2.801  -0.398  -0.343  1.00  0.00    -0.036 A 
HETATM   15  C13 UNL     1      -3.835  -1.292  -0.139  1.00  0.00     0.009 A 
HETATM   16  C14 UNL     1      -4.795  -1.127   0.839  1.00  0.00     0.001 A 
HETATM   17  C15 UNL     1      -4.750  -0.026   1.670  1.00  0.00     0.000 A 
HETATM   18  C16 UNL     1      -3.719   0.867   1.468  1.00  0.00     0.001 A 
HETATM   19  C17 UNL     1      -2.772   0.695   0.496  1.00  0.00     0.009 A 
ENDBRANCH  12  14
ENDBRANCH  10  12
ENDBRANCH   9  10
BRANCH   8  20
HETATM   20  N1  UNL     1       0.261   1.965  -1.077  1.00  0.00    -0.235 NA
HETATM   21  C8  UNL     1       0.124   3.229  -0.855  1.00  0.00     0.201 C 
BRANCH  21  22
HETATM   22  N2  UNL     1      -0.631   4.376  -1.217  1.00  0.00    -0.394 N 
HETATM   23  H12 UNL     1      -1.536   4.679  -0.753  1.00  0.00     0.156 HD
HETATM   24  H13 UNL     1      -0.329   5.016  -1.992  1.00  0.00     0.156 HD
ENDBRANCH  21  22
ENDBRANCH   8  20
TORSDOF 5
