REMARK  0 active torsions:
REMARK  status: ('A' for Active; 'I' for Inactive)
ROOT
HETATM    1  C1  UNL     1      -1.679   1.786   2.733  1.00  0.00     0.032 C 
HETATM    2  C2  UNL     1      -1.176   2.334   1.413  1.00  0.00     0.084 C 
HETATM    3  C3  UNL     1       0.271   2.481   1.380  1.00  0.00     0.023 C 
HETATM    4  C4  UNL     1       1.527   2.214   1.143  1.00  0.00     0.022 C 
HETATM    5  C5  UNL     1       2.627   1.447   0.656  1.00  0.00    -0.021 C 
HETATM    6  C6  UNL     1       3.328   0.512   0.118  1.00  0.00    -0.004 C 
HETATM    7  C7  UNL     1       3.383  -0.771  -0.541  1.00  0.00    -0.004 C 
HETATM    8  C8  UNL     1       2.641  -1.832  -0.998  1.00  0.00    -0.021 C 
HETATM    9  C9  UNL     1       1.224  -2.272  -1.057  1.00  0.00     0.018 C 
HETATM   10  C10 UNL     1       0.482  -1.241  -0.297  1.00  0.00     0.014 C 
HETATM   11  C11 UNL     1      -0.044  -0.188  -1.230  1.00  0.00     0.046 C 
HETATM   12  C12 UNL     1      -1.558  -0.379  -1.079  1.00  0.00     0.023 A 
HETATM   13  C13 UNL     1      -2.262   0.570  -0.366  1.00  0.00     0.134 A 
HETATM   14  N1  UNL     1      -3.527   0.166  -0.306  1.00  0.00    -0.224 NA
HETATM   15  C14 UNL     1      -4.077  -0.921  -0.804  1.00  0.00     0.236 A 
HETATM   16  N2  UNL     1      -3.348  -1.841  -1.503  1.00  0.00    -0.234 NA
HETATM   17  C15 UNL     1      -2.032  -1.541  -1.636  1.00  0.00     0.104 A 
HETATM   18  S1  UNL     1      -1.119  -2.817  -2.528  1.00  0.00    -0.109 SA
HETATM   19  C16 UNL     1       0.665  -2.547  -2.391  1.00  0.00     0.089 C 
HETATM   20  N3  UNL     1      -1.850   1.768   0.272  1.00  0.00    -0.370 N 
HETATM   21  H19 UNL     1      -2.240   2.404  -0.495  1.00  0.00     0.161 HD
ENDROOT
TORSDOF 0
