REMARK  1 active torsions:
REMARK  status: ('A' for Active; 'I' for Inactive)
REMARK    1  A    between atoms: S1_1  and  C1_2 
ROOT
HETATM    1  C1  UNL     1      -1.738  -0.130   1.766  1.00  0.00     0.082 C 
HETATM    2  C2  UNL     1      -1.933   1.327   1.377  1.00  0.00     0.020 C 
HETATM    3  C3  UNL     1      -0.876   1.832   0.439  1.00  0.00     0.005 C 
HETATM    4  C4  UNL     1      -1.132   3.244  -0.028  1.00  0.00     0.027 C 
HETATM    5  C5  UNL     1      -0.031   3.808  -0.838  1.00  0.00    -0.030 C 
HETATM    6  C6  UNL     1       1.164   3.436  -1.251  1.00  0.00    -0.021 C 
HETATM    7  C7  UNL     1       2.353   2.651  -1.468  1.00  0.00     0.041 C 
HETATM    8  C8  UNL     1       3.181   1.647  -1.397  1.00  0.00    -0.018 C 
HETATM    9  C9  UNL     1       3.447   0.326  -0.891  1.00  0.00    -0.007 C 
HETATM   10  C10 UNL     1       2.867  -0.591  -0.164  1.00  0.00    -0.027 C 
HETATM   11  C11 UNL     1       3.103  -1.938   0.371  1.00  0.00     0.029 C 
HETATM   12  C12 UNL     1       2.191  -3.010  -0.062  1.00  0.00     0.023 C 
HETATM   13  C13 UNL     1       0.733  -2.839   0.186  1.00  0.00     0.121 C 
HETATM   14  N1  UNL     1       0.177  -1.737  -0.530  1.00  0.00    -0.374 N 
HETATM   15  C14 UNL     1      -1.252  -1.681  -0.307  1.00  0.00     0.133 A 
HETATM   16  N2  UNL     1      -1.804  -2.450  -1.253  1.00  0.00    -0.224 NA
HETATM   17  C15 UNL     1      -3.119  -2.671  -1.408  1.00  0.00     0.234 A 
HETATM   18  N3  UNL     1      -3.939  -2.062  -0.535  1.00  0.00    -0.253 NA
HETATM   19  C16 UNL     1      -3.379  -1.274   0.434  1.00  0.00     0.130 A 
HETATM   20  C17 UNL     1      -2.032  -1.029   0.620  1.00  0.00     0.019 A 
HETATM   21  H21 UNL     1       0.248  -0.911  -1.163  1.00  0.00     0.161 HD
ENDROOT
BRANCH   1  22
HETATM   22  S1  UNL     1      -2.965  -0.488   3.061  1.00  0.00    -0.172 SA
HETATM   23  H1  UNL     1      -4.104   0.289   2.779  1.00  0.00     0.102 HD
ENDBRANCH   1  22
TORSDOF 1
