REMARK  5 active torsions:
REMARK  status: ('A' for Active; 'I' for Inactive)
REMARK    1  A    between atoms: O1_1  and  C1_2 
REMARK    2  A    between atoms: C1_2  and  C2_3 
REMARK    3  A    between atoms: C2_3  and  N1_4 
REMARK    4  A    between atoms: C2_3  and  C13_18 
REMARK    5  A    between atoms: N1_4  and  C3_5 
ROOT
HETATM    1  C3  UNL     1       0.220  -1.144  -0.027  1.00  0.00     0.139 A 
HETATM    2  N2  UNL     1      -0.475  -2.279   0.021  1.00  0.00    -0.224 NA
HETATM    3  C4  UNL     1      -0.092  -3.438   0.547  1.00  0.00     0.236 A 
HETATM    4  N3  UNL     1       1.138  -3.418   1.078  1.00  0.00    -0.234 NA
HETATM    5  C5  UNL     1       1.867  -2.326   1.058  1.00  0.00     0.114 A 
HETATM    6  S1  UNL     1       3.511  -2.021   1.673  1.00  0.00    -0.073 SA
HETATM    7  C6  UNL     1       3.595  -0.315   1.179  1.00  0.00    -0.008 A 
HETATM    8  C7  UNL     1       2.341  -0.045   0.554  1.00  0.00    -0.028 A 
HETATM    9  C8  UNL     1       1.481  -1.104   0.511  1.00  0.00     0.053 A 
HETATM   10  C9  UNL     1       2.462   1.365   0.175  1.00  0.00     0.041 C 
HETATM   11  C10 UNL     1       3.671   1.455  -0.785  1.00  0.00     0.005 C 
HETATM   12  C11 UNL     1       4.928   1.457   0.081  1.00  0.00     0.005 C 
HETATM   13  C12 UNL     1       4.692   0.652   1.346  1.00  0.00     0.047 C 
ENDROOT
BRANCH   1  14
HETATM   14  N1  UNL     1      -0.467  -0.115  -0.681  1.00  0.00    -0.363 N 
HETATM   15  H5  UNL     1      -0.022   0.796  -0.805  1.00  0.00     0.162 HD
BRANCH  14  16
HETATM   16  C2  UNL     1      -1.757  -0.048  -1.258  1.00  0.00     0.140 C 
BRANCH  16  17
HETATM   17  C1  UNL     1      -2.085  -1.209  -2.168  1.00  0.00     0.194 C 
BRANCH  17  18
HETATM   18  O1  UNL     1      -3.388  -0.998  -2.682  1.00  0.00    -0.399 OA
HETATM   19  H1  UNL     1      -3.285  -0.455  -3.504  1.00  0.00     0.209 HD
ENDBRANCH  17  18
ENDBRANCH  16  17
BRANCH  16  20
HETATM   20  C13 UNL     1      -2.794   0.277  -0.272  1.00  0.00    -0.034 A 
HETATM   21  C14 UNL     1      -2.968  -0.144   1.024  1.00  0.00     0.009 A 
HETATM   22  C15 UNL     1      -4.000   0.230   1.852  1.00  0.00     0.001 A 
HETATM   23  C16 UNL     1      -4.957   1.086   1.411  1.00  0.00     0.000 A 
HETATM   24  C17 UNL     1      -4.883   1.574   0.124  1.00  0.00     0.001 A 
HETATM   25  C18 UNL     1      -3.819   1.151  -0.644  1.00  0.00     0.009 A 
ENDBRANCH  16  20
ENDBRANCH  14  16
ENDBRANCH   1  14
TORSDOF 5
