REMARK  2 active torsions:
REMARK  status: ('A' for Active; 'I' for Inactive)
REMARK    1  A    between atoms: C5_6  and  C6_7 
REMARK    2  A    between atoms: C6_7  and  O1_8 
ROOT
HETATM    1  C1  UNL     1       1.472  -0.384   3.196  1.00  0.00     0.150 C 
HETATM    2  N1  UNL     1       0.339  -0.293   2.289  1.00  0.00    -0.379 N 
HETATM    3  C2  UNL     1      -1.089  -0.080   2.433  1.00  0.00     0.150 C 
HETATM    4  C3  UNL     1      -1.715   0.398   1.206  1.00  0.00    -0.005 C 
HETATM    5  C4  UNL     1      -2.406   0.475   0.102  1.00  0.00     0.027 C 
HETATM    6  C5  UNL     1      -3.207  -0.434  -0.669  1.00  0.00     0.059 C 
HETATM    7  N2  UNL     1      -3.274  -1.677  -0.416  1.00  0.00    -0.244 NA
HETATM    8  C7  UNL     1      -2.590  -2.323   0.604  1.00  0.00     0.234 C 
HETATM    9  N3  UNL     1      -1.366  -2.284   0.915  1.00  0.00    -0.232 NA
HETATM   10  C8  UNL     1      -0.305  -1.561   0.324  1.00  0.00     0.126 A 
HETATM   11  S1  UNL     1       0.315  -1.666  -1.441  1.00  0.00    -0.072 SA
HETATM   12  C9  UNL     1       1.572  -0.508  -1.239  1.00  0.00    -0.007 A 
HETATM   13  C10 UNL     1       1.504  -0.095   0.053  1.00  0.00    -0.015 A 
HETATM   14  C11 UNL     1       0.584  -0.587   0.885  1.00  0.00     0.073 A 
HETATM   15  C12 UNL     1       2.553   0.908   0.364  1.00  0.00     0.042 C 
HETATM   16  C13 UNL     1       2.676   1.931  -0.763  1.00  0.00     0.005 C 
HETATM   17  C14 UNL     1       3.056   1.336  -2.075  1.00  0.00     0.005 C 
HETATM   18  C15 UNL     1       2.561  -0.056  -2.282  1.00  0.00     0.047 C 
ENDROOT
BRANCH   6  19
HETATM   19  C6  UNL     1      -4.041  -0.068  -1.807  1.00  0.00     0.223 C 
BRANCH  19  20
HETATM   20  O1  UNL     1      -3.210   0.547  -2.760  1.00  0.00    -0.395 OA
HETATM   21  H10 UNL     1      -3.802   0.871  -3.481  1.00  0.00     0.209 HD
ENDBRANCH  19  20
ENDBRANCH   6  19
TORSDOF 2
