REMARK  5 active torsions:
REMARK  status: ('A' for Active; 'I' for Inactive)
REMARK    1  A    between atoms: O1_1  and  C1_2 
REMARK    2  A    between atoms: C1_2  and  C2_3 
REMARK    3  A    between atoms: C2_3  and  N1_4 
REMARK    4  A    between atoms: C2_3  and  C11_16 
REMARK    5  A    between atoms: N1_4  and  C3_5 
ROOT
HETATM    1  C3  UNL     1       0.405   0.877  -0.013  1.00  0.00     0.125 C 
HETATM    2  N2  UNL     1       0.446   1.640   1.028  1.00  0.00    -0.155 NA
HETATM    3  N3  UNL     1       1.470   2.466   1.488  1.00  0.00    -0.245 N 
HETATM    4  S1  UNL     1       3.191   2.155   1.419  1.00  0.00    -0.001 SA
HETATM    5  C4  UNL     1       3.539   0.673   0.503  1.00  0.00     0.003 C 
HETATM    6  C5  UNL     1       2.749   0.190  -0.471  1.00  0.00    -0.058 C 
HETATM    7  C6  UNL     1       3.228  -1.083  -1.123  1.00  0.00     0.036 C 
HETATM    8  C7  UNL     1       3.466  -2.049   0.024  1.00  0.00     0.005 C 
HETATM    9  C8  UNL     1       4.593  -1.560   0.907  1.00  0.00     0.005 C 
HETATM   10  C9  UNL     1       4.783  -0.061   0.851  1.00  0.00     0.048 C 
HETATM   11  C10 UNL     1       1.487   0.685  -1.022  1.00  0.00     0.115 C 
HETATM   12  H6  UNL     1       1.317   3.412   1.949  1.00  0.00     0.198 HD
ENDROOT
BRANCH   1  13
HETATM   13  N1  UNL     1      -0.813   0.157  -0.192  1.00  0.00    -0.366 N 
HETATM   14  H5  UNL     1      -0.755  -0.754  -0.703  1.00  0.00     0.161 HD
BRANCH  13  15
HETATM   15  C2  UNL     1      -2.012   0.765   0.356  1.00  0.00     0.139 C 
BRANCH  15  16
HETATM   16  C1  UNL     1      -2.255   2.130  -0.281  1.00  0.00     0.194 C 
BRANCH  16  17
HETATM   17  O1  UNL     1      -2.408   1.952  -1.658  1.00  0.00    -0.399 OA
HETATM   18  H1  UNL     1      -3.372   1.938  -1.901  1.00  0.00     0.209 HD
ENDBRANCH  16  17
ENDBRANCH  15  16
BRANCH  15  19
HETATM   19  C11 UNL     1      -3.199  -0.111   0.192  1.00  0.00    -0.034 A 
HETATM   20  C12 UNL     1      -3.364  -0.711  -1.054  1.00  0.00     0.009 A 
HETATM   21  C13 UNL     1      -4.450  -1.535  -1.261  1.00  0.00     0.001 A 
HETATM   22  C14 UNL     1      -5.346  -1.741  -0.225  1.00  0.00     0.000 A 
HETATM   23  C15 UNL     1      -5.205  -1.158   1.017  1.00  0.00     0.001 A 
HETATM   24  C16 UNL     1      -4.118  -0.335   1.221  1.00  0.00     0.009 A 
ENDBRANCH  15  19
ENDBRANCH  13  15
ENDBRANCH   1  13
TORSDOF 5
