REMARK  6 active torsions:
REMARK  status: ('A' for Active; 'I' for Inactive)
REMARK    1  A    between atoms: O1_1  and  C1_2 
REMARK    2  A    between atoms: C1_2  and  N1_3 
REMARK    3  A    between atoms: N1_3  and  C2_4 
REMARK    4  A    between atoms: N1_3  and  N2_10 
REMARK    5  A    between atoms: C10_15  and  C11_16 
REMARK    6  A    between atoms: C12_17  and  S1_18 
ROOT
HETATM    1  N2  UNL     1       0.460  -1.250  -0.410  1.00  0.00    -0.252 N 
HETATM    2  C8  UNL     1       1.084  -1.598  -1.672  1.00  0.00     0.230 A 
HETATM    3  N3  UNL     1       0.390  -2.220  -2.605  1.00  0.00    -0.236 NA
HETATM    4  C9  UNL     1      -0.971  -2.469  -2.186  1.00  0.00     0.230 A 
HETATM    5  N4  UNL     1      -1.568  -2.190  -1.106  1.00  0.00    -0.251 NA
HETATM    6  C10 UNL     1      -0.894  -1.508  -0.025  1.00  0.00     0.262 A 
ENDROOT
BRANCH   1   7
HETATM    7  N1  UNL     1       1.542  -0.671   0.294  1.00  0.00    -0.264 N 
BRANCH   7   8
HETATM    8  C1  UNL     1       1.655  -1.242   1.610  1.00  0.00     0.314 C 
BRANCH   8   9
HETATM    9  O1  UNL     1       2.841  -1.963   1.806  1.00  0.00    -0.380 OA
HETATM   10  H1  UNL     1       3.375  -2.083   0.998  1.00  0.00     0.211 HD
ENDBRANCH   8   9
ENDBRANCH   7   8
BRANCH   7  11
HETATM   11  C2  UNL     1       2.480   0.290  -0.085  1.00  0.00     0.053 A 
HETATM   12  C3  UNL     1       3.470   0.607   0.816  1.00  0.00     0.031 A 
HETATM   13  C4  UNL     1       4.435   1.558   0.507  1.00  0.00     0.002 A 
HETATM   14  C5  UNL     1       4.457   2.225  -0.689  1.00  0.00     0.000 A 
HETATM   15  C6  UNL     1       3.471   1.925  -1.614  1.00  0.00     0.002 A 
HETATM   16  C7  UNL     1       2.534   0.980  -1.275  1.00  0.00     0.031 A 
ENDBRANCH   7  11
ENDBRANCH   1   7
BRANCH   6  17
HETATM   17  C11 UNL     1      -1.758  -0.350   0.302  1.00  0.00    -0.022 C 
HETATM   18  C12 UNL     1      -1.839   0.947   0.430  1.00  0.00    -0.018 C 
HETATM   19  C13 UNL     1      -3.072   1.660   0.808  1.00  0.00     0.046 C 
HETATM   20  C14 UNL     1      -4.268   1.187  -0.008  1.00  0.00     0.005 C 
HETATM   21  C15 UNL     1      -4.089  -0.279  -0.369  1.00  0.00     0.005 C 
HETATM   22  C16 UNL     1      -3.131  -0.880   0.648  1.00  0.00     0.039 C 
BRANCH  18  23
HETATM   23  S1  UNL     1      -0.433   2.008   0.143  1.00  0.00    -0.147 SA
HETATM   24  H12 UNL     1      -0.029   2.470   1.431  1.00  0.00     0.107 HD
ENDBRANCH  18  23
ENDBRANCH   6  17
TORSDOF 6
