REMARK  5 active torsions:
REMARK  status: ('A' for Active; 'I' for Inactive)
REMARK    1  A    between atoms: O1_1  and  C1_2 
REMARK    2  A    between atoms: C1_2  and  C2_3 
REMARK    3  A    between atoms: C2_3  and  B1_4 
REMARK    4  A    between atoms: C2_3  and  C11_17 
REMARK    5  A    between atoms: B1_4  and  P1_5 
ROOT
HETATM    1  P1  UNL     1       0.232   1.238   0.415  1.00  0.00    -0.046 P 
HETATM    2  N1  UNL     1       0.563   2.237   1.604  1.00  0.00    -0.270 NA
HETATM    3  C3  UNL     1      -0.416   2.849   2.428  1.00  0.00     0.231 A 
HETATM    4  N2  UNL     1      -1.664   2.626   2.257  1.00  0.00    -0.235 NA
HETATM    5  C4  UNL     1      -2.192   1.757   1.241  1.00  0.00     0.102 A 
HETATM    6  C5  UNL     1      -1.543   1.053   0.332  1.00  0.00     0.020 A 
HETATM    7  C6  UNL     1      -2.679   0.430  -0.334  1.00  0.00    -0.011 A 
HETATM    8  S1  UNL     1      -3.779   1.174   0.659  1.00  0.00    -0.136 SA
HETATM    9  C7  UNL     1      -5.306   0.186   1.005  1.00  0.00     0.075 C 
HETATM   10  C8  UNL     1      -5.544  -0.666  -0.236  1.00  0.00     0.010 C 
HETATM   11  C9  UNL     1      -4.768  -0.094  -1.419  1.00  0.00     0.006 C 
HETATM   12  C10 UNL     1      -3.301  -0.456  -1.355  1.00  0.00     0.046 C 
HETATM   13  H6  UNL     1       0.734   1.800  -0.786  1.00  0.00     0.069 HD
ENDROOT
BRANCH   1  14
HETATM   14  B1  UNL     1       1.103  -0.403   0.768  1.00  0.00     0.226 B 
HETATM   15  H5  UNL     1       1.387  -0.675   1.902  1.00  0.00    -0.018 HD
BRANCH  14  16
HETATM   16  C2  UNL     1       2.002  -1.081  -0.349  1.00  0.00     0.006 C 
BRANCH  16  17
HETATM   17  C1  UNL     1       2.308  -2.502   0.118  1.00  0.00     0.163 C 
BRANCH  17  18
HETATM   18  O1  UNL     1       1.155  -3.246   0.296  1.00  0.00    -0.401 OA
HETATM   19  H1  UNL     1       1.443  -4.141   0.587  1.00  0.00     0.209 HD
ENDBRANCH  17  18
ENDBRANCH  16  17
BRANCH  16  20
HETATM   20  C11 UNL     1       3.324  -0.373  -0.370  1.00  0.00    -0.061 A 
HETATM   21  C12 UNL     1       3.815   0.192  -1.527  1.00  0.00     0.007 A 
HETATM   22  C13 UNL     1       5.036   0.840  -1.521  1.00  0.00     0.001 A 
HETATM   23  C14 UNL     1       5.788   0.933  -0.358  1.00  0.00     0.000 A 
HETATM   24  C15 UNL     1       5.236   0.343   0.768  1.00  0.00     0.001 A 
HETATM   25  C16 UNL     1       4.038  -0.304   0.809  1.00  0.00     0.007 A 
ENDBRANCH  16  20
ENDBRANCH  14  16
ENDBRANCH   1  14
TORSDOF 5
