REMARK  1 active torsions:
REMARK  status: ('A' for Active; 'I' for Inactive)
REMARK    1  A    between atoms: C8_9  and  C9_10 
ROOT
HETATM    1  C1  UNL     1      -2.290   2.132   0.886  1.00  0.00     0.019 C 
HETATM    2  C2  UNL     1      -2.859   0.766   1.203  1.00  0.00     0.061 C 
HETATM    3  C3  UNL     1      -4.331   0.854   1.010  1.00  0.00    -0.022 C 
HETATM    4  C4  UNL     1      -5.019   0.577  -0.110  1.00  0.00    -0.030 C 
HETATM    5  C5  UNL     1      -4.086   0.142  -1.217  1.00  0.00     0.032 C 
HETATM    6  C6  UNL     1      -3.183  -0.905  -0.600  1.00  0.00     0.068 C 
HETATM    7  C7  UNL     1      -2.203  -0.326   0.399  1.00  0.00     0.166 C 
HETATM    8  N1  UNL     1      -1.080   0.143  -0.315  1.00  0.00    -0.376 N 
HETATM    9  C8  UNL     1       0.186  -0.367   0.024  1.00  0.00     0.156 C 
HETATM   10  C17 UNL     1       0.303  -1.728  -0.559  1.00  0.00     0.143 C 
HETATM   11  N2  UNL     1      -0.595  -2.626  -0.248  1.00  0.00    -0.168 NA
HETATM   12  N3  UNL     1      -1.728  -2.519   0.601  1.00  0.00    -0.182 N 
HETATM   13  O1  UNL     1      -1.974  -1.365   1.312  1.00  0.00    -0.230 OA
HETATM   14  H11 UNL     1      -1.233   0.379  -1.307  1.00  0.00     0.157 HD
HETATM   15  H23 UNL     1      -2.379  -3.344   0.674  1.00  0.00     0.218 HD
ENDROOT
BRANCH   9  16
HETATM   16  C9  UNL     1       1.261   0.551  -0.349  1.00  0.00    -0.017 A 
HETATM   17  C10 UNL     1       1.021   1.902  -0.783  1.00  0.00     0.060 A 
HETATM   18  S1  UNL     1       2.707   2.552  -1.121  1.00  0.00    -0.105 SA
HETATM   19  C11 UNL     1       3.540   1.054  -0.680  1.00  0.00    -0.011 A 
HETATM   20  C12 UNL     1       2.541   0.117  -0.295  1.00  0.00    -0.036 A 
HETATM   21  C16 UNL     1       4.986   0.610  -0.633  1.00  0.00     0.046 C 
HETATM   22  C13 UNL     1       3.255  -1.123   0.082  1.00  0.00     0.040 C 
HETATM   23  C14 UNL     1       4.279  -0.869   1.162  1.00  0.00     0.005 C 
HETATM   24  C15 UNL     1       5.355   0.079   0.740  1.00  0.00     0.005 C 
ENDBRANCH   9  16
TORSDOF 1
