REMARK  8 active torsions:
REMARK  status: ('A' for Active; 'I' for Inactive)
REMARK    1  A    between atoms: N1_1  and  C1_2 
REMARK    2  A    between atoms: C2_3  and  C3_4 
REMARK    3  A    between atoms: C4_5  and  C5_6 
REMARK    4  A    between atoms: C6_7  and  C7_8 
REMARK    5  A    between atoms: C7_8  and  C8_9 
REMARK    6  A    between atoms: C7_8  and  N2_11 
REMARK    7  A    between atoms: C8_9  and  O1_10 
REMARK    8  A    between atoms: N2_11  and  C9_12 
ROOT
HETATM    1  N2  UNL     1      -0.765  -0.859   0.118  1.00  0.00    -0.364 N 
HETATM    2  H13 UNL     1      -0.361   0.068  -0.019  1.00  0.00     0.162 HD
ENDROOT
BRANCH   1   3
HETATM    3  C7  UNL     1      -0.269  -1.603  -1.036  1.00  0.00     0.129 C 
BRANCH   3   4
HETATM    4  C6  UNL     1       0.443  -0.781  -2.007  1.00  0.00     0.000 C 
HETATM    5  C5  UNL     1       1.562  -0.424  -2.606  1.00  0.00    -0.002 C 
BRANCH   5   6
HETATM    6  C4  UNL     1       2.965  -0.773  -2.565  1.00  0.00    -0.000 C 
HETATM    7  C3  UNL     1       4.058  -0.388  -3.185  1.00  0.00     0.001 C 
BRANCH   7   8
HETATM    8  C2  UNL     1       4.065   0.658  -4.220  1.00  0.00     0.011 C 
HETATM    9  C1  UNL     1       5.158   1.041  -4.843  1.00  0.00     0.054 C 
BRANCH   9  10
HETATM   10  N1  UNL     1       5.169   2.047  -5.841  1.00  0.00    -0.312 NA
HETATM   11  H1  UNL     1       4.383   2.664  -6.135  1.00  0.00     0.123 HD
HETATM   12  H2  UNL     1       4.340   2.632  -6.086  1.00  0.00     0.123 HD
ENDBRANCH   9  10
ENDBRANCH   7   8
ENDBRANCH   5   6
ENDBRANCH   3   4
BRANCH   3  13
HETATM   13  C8  UNL     1       0.681  -2.727  -0.586  1.00  0.00     0.193 C 
BRANCH  13  14
HETATM   14  O1  UNL     1       1.070  -3.372  -1.775  1.00  0.00    -0.399 OA
HETATM   15  H12 UNL     1       0.298  -3.486  -2.386  1.00  0.00     0.209 HD
ENDBRANCH  13  14
ENDBRANCH   3  13
ENDBRANCH   1   3
BRANCH   1  16
HETATM   16  C9  UNL     1      -1.601  -1.491   1.080  1.00  0.00     0.139 A 
HETATM   17  N3  UNL     1      -1.897  -2.768   0.837  1.00  0.00    -0.224 NA
HETATM   18  C10 UNL     1      -2.655  -3.547   1.570  1.00  0.00     0.236 A 
HETATM   19  N4  UNL     1      -3.212  -3.061   2.680  1.00  0.00    -0.234 NA
HETATM   20  C11 UNL     1      -2.844  -1.614   2.905  1.00  0.00     0.114 A 
HETATM   21  S1  UNL     1      -3.471  -0.637   4.377  1.00  0.00    -0.073 SA
HETATM   22  C14 UNL     1      -2.066  -0.803   2.161  1.00  0.00     0.053 A 
HETATM   23  C12 UNL     1      -2.598   0.766   3.806  1.00  0.00    -0.008 A 
HETATM   24  C13 UNL     1      -1.958   0.419   2.653  1.00  0.00    -0.028 A 
HETATM   25  C18 UNL     1      -2.530   2.171   4.437  1.00  0.00     0.047 C 
HETATM   26  C15 UNL     1      -1.257   1.654   2.256  1.00  0.00     0.041 C 
HETATM   27  C16 UNL     1      -2.217   2.831   2.132  1.00  0.00     0.005 C 
HETATM   28  C17 UNL     1      -3.087   3.048   3.315  1.00  0.00     0.005 C 
ENDBRANCH   1  16
TORSDOF 8
