REMARK  3 active torsions:
REMARK  status: ('A' for Active; 'I' for Inactive)
REMARK    1  A    between atoms: N1_1  and  C1_2 
REMARK    2  A    between atoms: C6_7  and  N2_8 
REMARK    3  A    between atoms: N2_8  and  C7_9 
ROOT
HETATM    1  N2  UNL     1       0.286  -0.154   1.595  1.00  0.00    -0.402 N 
HETATM    2  H11 UNL     1       0.457   0.492   2.373  1.00  0.00     0.154 HD
ENDROOT
BRANCH   1   3
HETATM    3  C6  UNL     1       0.704   0.184   0.312  1.00  0.00     0.105 C 
HETATM    4  C5  UNL     1       1.373  -0.910  -0.480  1.00  0.00     0.053 C 
HETATM    5  C4  UNL     1       2.667  -1.310   0.174  1.00  0.00    -0.028 C 
HETATM    6  C3  UNL     1       3.860  -0.793   0.437  1.00  0.00    -0.026 C 
HETATM    7  C2  UNL     1       4.499   0.516   0.182  1.00  0.00     0.090 C 
HETATM    8  C1  UNL     1       3.772   1.345  -0.825  1.00  0.00     0.356 C 
HETATM    9  O1  UNL     1       2.416   1.330  -0.758  1.00  0.00    -0.355 OA
HETATM   10  C17 UNL     1       1.833   1.242   0.471  1.00  0.00     0.195 C 
BRANCH   8  11
HETATM   11  N1  UNL     1       4.308   2.683  -0.814  1.00  0.00     0.107 N 
HETATM   12  H1  UNL     1       4.195   3.073  -1.775  1.00  0.00     0.316 HD
HETATM   13  H2  UNL     1       5.308   2.650  -0.541  1.00  0.00     0.316 HD
ENDBRANCH   8  11
ENDBRANCH   1   3
BRANCH   1  14
HETATM   14  C7  UNL     1      -0.608  -1.219   1.846  1.00  0.00     0.155 A 
HETATM   15  C8  UNL     1      -0.822  -1.350   3.356  1.00  0.00     0.120 A 
HETATM   16  N3  UNL     1      -2.046  -1.215   3.730  1.00  0.00    -0.255 NA
HETATM   17  C9  UNL     1      -2.837  -0.984   2.570  1.00  0.00     0.106 A 
HETATM   18  S1  UNL     1      -4.475  -0.703   2.013  1.00  0.00    -0.074 SA
HETATM   19  C12 UNL     1      -2.012  -0.988   1.407  1.00  0.00     0.012 A 
HETATM   20  C10 UNL     1      -4.064  -0.595   0.258  1.00  0.00    -0.008 A 
HETATM   21  C11 UNL     1      -2.687  -0.785   0.226  1.00  0.00    -0.033 A 
HETATM   22  C16 UNL     1      -4.877  -0.368  -0.928  1.00  0.00     0.046 C 
HETATM   23  C13 UNL     1      -2.394  -0.718  -1.225  1.00  0.00     0.040 C 
HETATM   24  C14 UNL     1      -2.767   0.680  -1.676  1.00  0.00     0.005 C 
HETATM   25  C15 UNL     1      -4.282   0.655  -1.831  1.00  0.00     0.005 C 
ENDBRANCH   1  14
TORSDOF 3
