REMARK  9 active torsions:
REMARK  status: ('A' for Active; 'I' for Inactive)
REMARK    1  A    between atoms: C2_2  and  C3_3 
REMARK    2  A    between atoms: C3_3  and  C4_4 
REMARK    3  A    between atoms: C4_4  and  C5_5 
REMARK    4  A    between atoms: C5_5  and  C6_6 
REMARK    5  A    between atoms: C6_6  and  C7_7 
REMARK    6  A    between atoms: C7_7  and  C8_8 
REMARK    7  A    between atoms: C7_7  and  N1_10 
REMARK    8  A    between atoms: C8_8  and  O1_9 
REMARK    9  A    between atoms: N1_10  and  C9_11 
ROOT
HETATM    1  C9  UNL     1      -0.463   0.156   1.229  1.00  0.00     0.139 A 
HETATM    2  N2  UNL     1       0.331   0.095   2.290  1.00  0.00    -0.224 NA
HETATM    3  C10 UNL     1       0.171   0.717   3.440  1.00  0.00     0.236 A 
HETATM    4  N3  UNL     1      -0.915   1.490   3.528  1.00  0.00    -0.234 NA
HETATM    5  C11 UNL     1      -1.718   1.572   2.497  1.00  0.00     0.114 A 
HETATM    6  S1  UNL     1      -3.302   2.533   2.259  1.00  0.00    -0.073 SA
HETATM    7  C12 UNL     1      -3.621   2.001   0.587  1.00  0.00    -0.008 A 
HETATM    8  C13 UNL     1      -2.493   1.096   0.264  1.00  0.00    -0.028 A 
HETATM    9  C14 UNL     1      -1.590   0.930   1.256  1.00  0.00     0.053 A 
HETATM   10  C15 UNL     1      -2.845   0.727  -1.104  1.00  0.00     0.041 C 
HETATM   11  C16 UNL     1      -4.217   0.061  -1.142  1.00  0.00     0.005 C 
HETATM   12  C17 UNL     1      -5.315   1.091  -0.971  1.00  0.00     0.005 C 
HETATM   13  C18 UNL     1      -4.718   2.341  -0.313  1.00  0.00     0.047 C 
ENDROOT
BRANCH   1  14
HETATM   14  N1  UNL     1      -0.052  -0.645   0.110  1.00  0.00    -0.367 N 
HETATM   15  H12 UNL     1      -0.418  -0.839  -0.829  1.00  0.00     0.161 HD
BRANCH  14  16
HETATM   16  C7  UNL     1       1.159  -1.430   0.158  1.00  0.00     0.110 C 
BRANCH  16  17
HETATM   17  C6  UNL     1       2.418  -0.579   0.209  1.00  0.00     0.054 C 
BRANCH  17  18
HETATM   18  C5  UNL     1       3.569  -1.475   0.452  1.00  0.00    -0.024 C 
BRANCH  18  19
HETATM   19  C4  UNL     1       4.621  -1.623  -0.359  1.00  0.00     0.004 C 
BRANCH  19  20
HETATM   20  C3  UNL     1       4.501  -0.785  -1.530  1.00  0.00     0.050 C 
BRANCH  20  21
HETATM   21  C2  UNL     1       5.167   0.340  -1.593  1.00  0.00    -0.155 C 
HETATM   22  C1  UNL     1       5.917   1.419  -1.426  1.00  0.00     0.096 C 
ENDBRANCH  20  21
ENDBRANCH  19  20
ENDBRANCH  18  19
ENDBRANCH  17  18
ENDBRANCH  16  17
BRANCH  16  23
HETATM   23  C8  UNL     1       1.235  -2.441  -0.935  1.00  0.00     0.189 C 
BRANCH  23  24
HETATM   24  O1  UNL     1       2.395  -3.166  -0.853  1.00  0.00    -0.399 OA
HETATM   25  H11 UNL     1       2.177  -4.120  -1.007  1.00  0.00     0.209 HD
ENDBRANCH  23  24
ENDBRANCH  16  23
ENDBRANCH  14  16
ENDBRANCH   1  14
TORSDOF 9
