REMARK  5 active torsions:
REMARK  status: ('A' for Active; 'I' for Inactive)
REMARK    1  A    between atoms: C2_2  and  C3_3 
REMARK    2  A    between atoms: C4_4  and  C5_5 
REMARK    3  A    between atoms: C6_6  and  O1_7 
REMARK    4  A    between atoms: O1_7  and  N1_8 
REMARK    5  A    between atoms: N1_8  and  C7_9 
ROOT
HETATM    1  C7  UNL     1       0.494  -1.181   0.251  1.00  0.00     0.162 A 
HETATM    2  N2  UNL     1      -0.442  -2.011  -0.188  1.00  0.00    -0.222 NA
HETATM    3  C8  UNL     1      -0.290  -2.840  -1.204  1.00  0.00     0.236 A 
HETATM    4  N3  UNL     1       0.900  -2.803  -1.796  1.00  0.00    -0.234 NA
HETATM    5  C9  UNL     1       1.881  -1.971  -1.378  1.00  0.00     0.114 A 
HETATM    6  S1  UNL     1       3.540  -1.730  -1.989  1.00  0.00    -0.073 SA
HETATM    7  C10 UNL     1       3.950  -0.410  -0.717  1.00  0.00    -0.008 A 
HETATM    8  C11 UNL     1       2.817  -0.318  -0.010  1.00  0.00    -0.028 A 
HETATM    9  C12 UNL     1       1.735  -1.101  -0.318  1.00  0.00     0.055 A 
HETATM   10  C13 UNL     1       3.003   0.708   1.047  1.00  0.00     0.041 C 
HETATM   11  C14 UNL     1       3.463   1.987   0.393  1.00  0.00     0.005 C 
HETATM   12  C15 UNL     1       4.755   1.815  -0.362  1.00  0.00     0.005 C 
HETATM   13  C16 UNL     1       5.143   0.358  -0.485  1.00  0.00     0.047 C 
ENDROOT
BRANCH   1  14
HETATM   14  N1  UNL     1       0.108  -0.386   1.354  1.00  0.00    -0.243 N 
HETATM   15  H8  UNL     1      -0.136   0.213   2.160  1.00  0.00     0.196 HD
BRANCH  14  16
HETATM   16  O1  UNL     1      -1.120  -0.449   1.937  1.00  0.00    -0.248 OA
BRANCH  16  17
HETATM   17  C6  UNL     1      -2.219  -1.126   1.370  1.00  0.00     0.167 C 
HETATM   18  C5  UNL     1      -3.268  -0.426   0.904  1.00  0.00     0.026 C 
BRANCH  18  19
HETATM   19  C4  UNL     1      -4.492  -0.912   0.288  1.00  0.00     0.002 C 
HETATM   20  C3  UNL     1      -5.492  -0.188  -0.153  1.00  0.00    -0.001 C 
BRANCH  20  21
HETATM   21  C2  UNL     1      -5.515   1.266  -0.082  1.00  0.00    -0.010 C 
HETATM   22  C1  UNL     1      -6.574   1.935  -0.554  1.00  0.00     0.011 C 
ENDBRANCH  20  21
ENDBRANCH  18  19
ENDBRANCH  16  17
ENDBRANCH  14  16
ENDBRANCH   1  14
TORSDOF 5
