REMARK  5 active torsions:
REMARK  status: ('A' for Active; 'I' for Inactive)
REMARK    1  A    between atoms: O1_1  and  C1_2 
REMARK    2  A    between atoms: C1_2  and  C2_3 
REMARK    3  A    between atoms: C2_3  and  N1_4 
REMARK    4  A    between atoms: C2_3  and  C12_16 
REMARK    5  A    between atoms: N1_4  and  C3_5 
ROOT
HETATM    1  N1  UNL     1      -0.386   0.175  -0.447  1.00  0.00    -0.363 N 
HETATM    2  H5  UNL     1      -0.283   0.783   0.421  1.00  0.00     0.162 HD
ENDROOT
BRANCH   1   3
HETATM    3  C2  UNL     1      -1.681  -0.082  -1.045  1.00  0.00     0.140 C 
BRANCH   3   4
HETATM    4  C1  UNL     1      -2.016  -1.557  -1.071  1.00  0.00     0.194 C 
BRANCH   4   5
HETATM    5  O1  UNL     1      -2.047  -2.100   0.209  1.00  0.00    -0.399 OA
HETATM    6  H1  UNL     1      -1.436  -2.888   0.298  1.00  0.00     0.209 HD
ENDBRANCH   4   5
ENDBRANCH   3   4
BRANCH   3   7
HETATM    7  C12 UNL     1      -2.772   0.617  -0.359  1.00  0.00    -0.034 A 
HETATM    8  C13 UNL     1      -3.801   1.318  -0.961  1.00  0.00     0.009 A 
HETATM    9  C14 UNL     1      -4.755   1.922  -0.161  1.00  0.00     0.001 A 
HETATM   10  C15 UNL     1      -4.681   1.828   1.209  1.00  0.00     0.000 A 
HETATM   11  C16 UNL     1      -3.667   1.136   1.841  1.00  0.00     0.001 A 
HETATM   12  C17 UNL     1      -2.702   0.524   1.033  1.00  0.00     0.009 A 
ENDBRANCH   3   7
ENDBRANCH   1   3
BRANCH   1  13
HETATM   13  C3  UNL     1       0.773  -0.405  -1.043  1.00  0.00     0.140 A 
HETATM   14  N2  UNL     1       0.672  -1.007  -2.157  1.00  0.00    -0.242 NA
HETATM   15  C4  UNL     1       1.657  -1.644  -2.922  1.00  0.00     0.125 A 
HETATM   16  C5  UNL     1       2.943  -1.772  -2.661  1.00  0.00     0.059 A 
HETATM   17  S1  UNL     1       3.478  -0.977  -1.036  1.00  0.00    -0.153 SA
HETATM   18  C6  UNL     1       2.000  -0.267  -0.329  1.00  0.00     0.047 A 
HETATM   19  C11 UNL     1       4.659  -0.571   0.144  1.00  0.00     0.108 A 
HETATM   20  C7  UNL     1       2.555   0.305   0.904  1.00  0.00    -0.035 A 
HETATM   21  C8  UNL     1       3.824   0.179   1.162  1.00  0.00    -0.063 A 
HETATM   22  C10 UNL     1       2.310   1.046   2.139  1.00  0.00     0.044 A 
HETATM   23  C9  UNL     1       3.767   0.894   2.418  1.00  0.00     0.040 A 
ENDBRANCH   1  13
TORSDOF 5
