REMARK  1 active torsions:
REMARK  status: ('A' for Active; 'I' for Inactive)
REMARK    1  A    between atoms: C10_12  and  C11_13 
ROOT
HETATM    1  C1  UNL     1      -3.016   1.133  -0.975  1.00  0.00     0.019 C 
HETATM    2  C2  UNL     1      -2.382   0.904   0.308  1.00  0.00    -0.020 A 
HETATM    3  C3  UNL     1      -2.252   0.067   1.488  1.00  0.00     0.019 C 
HETATM    4  C4  UNL     1      -3.250   1.764   0.951  1.00  0.00     0.014 A 
HETATM    5  C5  UNL     1      -4.494   0.812   0.908  1.00  0.00     0.012 A 
HETATM    6  C6  UNL     1      -4.379  -0.534   0.355  1.00  0.00     0.081 A 
HETATM    7  S1  UNL     1      -3.260  -1.537  -0.474  1.00  0.00    -0.110 SA
HETATM    8  C7  UNL     1      -1.546  -1.037  -0.780  1.00  0.00     0.099 A 
HETATM    9  C8  UNL     1      -1.303   0.279  -0.291  1.00  0.00    -0.009 A 
HETATM   10  C9  UNL     1       0.114   0.815  -0.516  1.00  0.00     0.308 C 
HETATM   11  N1  UNL     1       0.953  -0.329  -0.685  1.00  0.00     0.098 N 
HETATM   12  C10 UNL     1       2.280  -0.207  -1.132  1.00  0.00     0.279 C 
HETATM   13  C17 UNL     1       2.752  -1.642  -1.560  1.00  0.00     0.241 C 
HETATM   14  O1  UNL     1       1.894  -2.060  -2.581  1.00  0.00    -0.277 OA
HETATM   15  N2  UNL     1       1.164  -3.088  -2.159  1.00  0.00    -0.260 N 
HETATM   16  C18 UNL     1      -0.050  -2.844  -1.404  1.00  0.00     0.231 C 
HETATM   17  N3  UNL     1      -0.493  -1.679  -1.351  1.00  0.00    -0.235 NA
HETATM   18  H15 UNL     1       0.960  -0.802   0.280  1.00  0.00     0.317 HD
HETATM   19  H24 UNL     1       1.342  -4.100  -2.295  1.00  0.00     0.195 HD
ENDROOT
BRANCH  12  20
HETATM   20  C11 UNL     1       3.276   0.247  -0.140  1.00  0.00    -0.023 A 
HETATM   21  C12 UNL     1       3.361  -0.192   1.150  1.00  0.00     0.009 A 
HETATM   22  C13 UNL     1       4.342   0.315   1.975  1.00  0.00     0.001 A 
HETATM   23  C14 UNL     1       5.251   1.258   1.542  1.00  0.00     0.000 A 
HETATM   24  C15 UNL     1       5.213   1.733   0.260  1.00  0.00     0.001 A 
HETATM   25  C16 UNL     1       4.216   1.204  -0.542  1.00  0.00     0.009 A 
ENDBRANCH  12  20
TORSDOF 1
