REMARK  2 active torsions:
REMARK  status: ('A' for Active; 'I' for Inactive)
REMARK    1  A    between atoms: O1_1  and  C1_2 
REMARK    2  A    between atoms: C1_2  and  C2_3 
ROOT
HETATM    1  C2  UNL     1      -0.164   1.338  -0.697  1.00  0.00     0.054 C 
HETATM    2  C3  UNL     1       1.140   1.268  -0.067  1.00  0.00     0.025 C 
HETATM    3  C4  UNL     1       2.242   1.447   0.659  1.00  0.00    -0.021 C 
HETATM    4  C5  UNL     1       3.114   0.350   0.252  1.00  0.00    -0.007 C 
HETATM    5  C6  UNL     1       3.074  -0.750  -0.558  1.00  0.00    -0.016 C 
HETATM    6  C7  UNL     1       1.771  -0.899  -1.178  1.00  0.00     0.059 C 
HETATM    7  C8  UNL     1       0.938  -1.593  -2.000  1.00  0.00     0.075 C 
HETATM    8  N1  UNL     1      -0.182  -0.697  -1.780  1.00  0.00    -0.338 N 
HETATM    9  C9  UNL     1      -0.990  -0.176  -2.860  1.00  0.00     0.205 C 
HETATM   10  N2  UNL     1      -2.181   0.231  -2.480  1.00  0.00    -0.266 NA
HETATM   11  C10 UNL     1      -2.235  -0.014  -1.082  1.00  0.00     0.208 C 
HETATM   12  S1  UNL     1      -2.497  -1.832  -0.771  1.00  0.00    -0.103 SA
HETATM   13  C11 UNL     1      -1.568  -1.756   0.798  1.00  0.00    -0.015 C 
HETATM   14  C12 UNL     1      -0.712  -0.686   0.644  1.00  0.00    -0.035 C 
HETATM   15  C13 UNL     1       0.090  -0.587   1.937  1.00  0.00     0.038 C 
HETATM   16  C14 UNL     1      -0.788  -1.289   2.965  1.00  0.00     0.009 C 
HETATM   17  C15 UNL     1      -1.381  -2.415   2.134  1.00  0.00     0.046 C 
HETATM   18  C16 UNL     1      -0.807  -0.008  -0.632  1.00  0.00     0.100 C 
ENDROOT
BRANCH   1  19
HETATM   19  C1  UNL     1      -1.080   2.482  -0.460  1.00  0.00     0.172 C 
BRANCH  19  20
HETATM   20  O1  UNL     1      -0.572   3.726  -0.846  1.00  0.00    -0.400 OA
HETATM   21  H1  UNL     1      -1.337   4.383  -0.953  1.00  0.00     0.209 HD
ENDBRANCH  19  20
ENDBRANCH   1  19
TORSDOF 2
