REMARK  5 active torsions:
REMARK  status: ('A' for Active; 'I' for Inactive)
REMARK    1  A    between atoms: C2_2  and  C3_4 
REMARK    2  A    between atoms: C3_4  and  N1_6 
REMARK    3  A    between atoms: N1_6  and  C4_7 
REMARK    4  A    between atoms: C11_17  and  C12_18 
REMARK    5  A    between atoms: C12_18  and  O2_20 
ROOT
HETATM    1  C4  UNL     1      -2.115  -0.082   0.266  1.00  0.00     0.156 A 
HETATM    2  N2  UNL     1      -2.549  -1.084  -0.517  1.00  0.00    -0.222 NA
HETATM    3  C5  UNL     1      -1.697  -1.879  -1.211  1.00  0.00     0.236 A 
HETATM    4  N3  UNL     1      -0.363  -1.714  -1.158  1.00  0.00    -0.239 NA
HETATM    5  C6  UNL     1       0.128  -0.725  -0.389  1.00  0.00     0.099 A 
HETATM    6  C7  UNL     1      -0.746   0.080   0.314  1.00  0.00     0.104 A 
HETATM    7  N4  UNL     1      -0.209   1.105   1.109  1.00  0.00    -0.381 N 
HETATM    8  C8  UNL     1       1.199   1.415   1.274  1.00  0.00     0.159 A 
HETATM    9  C9  UNL     1       2.033   0.483   0.471  1.00  0.00    -0.027 A 
HETATM   10  C10 UNL     1       3.391   0.735   0.592  1.00  0.00     0.028 A 
HETATM   11  C11 UNL     1       4.286  -0.070  -0.113  1.00  0.00     0.038 A 
HETATM   12  C13 UNL     1       3.780  -1.086  -0.903  1.00  0.00     0.019 A 
HETATM   13  C14 UNL     1       2.441  -1.350  -1.034  1.00  0.00     0.015 A 
HETATM   14  C15 UNL     1       1.573  -0.542  -0.329  1.00  0.00     0.003 A 
HETATM   15  H6  UNL     1      -0.811   1.732   1.652  1.00  0.00     0.160 HD
ENDROOT
BRANCH   1  16
HETATM   16  N1  UNL     1      -3.050   0.721   0.971  1.00  0.00    -0.338 N 
HETATM   17  H4  UNL     1      -2.819   1.517   1.599  1.00  0.00     0.164 HD
BRANCH  16  18
HETATM   18  C3  UNL     1      -4.469   0.450   0.838  1.00  0.00     0.315 C 
HETATM   19  F1  UNL     1      -4.641  -0.896   1.189  1.00  0.00    -0.221 F 
BRANCH  18  20
HETATM   20  C2  UNL     1      -4.964   0.566  -0.547  1.00  0.00     0.055 C 
HETATM   21  C1  UNL     1      -5.460  -0.443  -1.257  1.00  0.00     0.037 C 
HETATM   22 CL1  UNL     1      -4.941   2.077  -1.399  1.00  0.00    -0.085 Cl
ENDBRANCH  18  20
ENDBRANCH  16  18
ENDBRANCH   1  16
BRANCH  11  23
HETATM   23  C12 UNL     1       5.728   0.144  -0.027  1.00  0.00     0.176 C 
HETATM   24  O1  UNL     1       6.568  -0.572  -0.657  1.00  0.00    -0.646 OA
BRANCH  23  25
HETATM   25  O2  UNL     1       6.211   1.171   0.773  1.00  0.00    -0.773 OA
HETATM   26  H10 UNL     1       7.190   1.436   0.659  1.00  0.00     0.167 HD
ENDBRANCH  23  25
ENDBRANCH  11  23
TORSDOF 5
