REMARK  5 active torsions:
REMARK  status: ('A' for Active; 'I' for Inactive)
REMARK    1  A    between atoms: O1_1  and  B1_2 
REMARK    2  A    between atoms: B1_2  and  C1_3 
REMARK    3  A    between atoms: C1_3  and  N1_4 
REMARK    4  A    between atoms: C1_3  and  C11_17 
REMARK    5  A    between atoms: N1_4  and  C2_5 
ROOT
HETATM    1  N1  UNL     1       0.230  -0.142  -0.930  1.00  0.00    -0.372 N 
HETATM    2  H4  UNL     1      -0.233  -1.054  -1.016  1.00  0.00     0.161 HD
ENDROOT
BRANCH   1   3
HETATM    3  C1  UNL     1       1.512  -0.129  -1.546  1.00  0.00     0.103 C 
BRANCH   3   4
HETATM    4  B1  UNL     1       1.900  -1.505  -2.217  1.00  0.00     0.334 B 
HETATM    5  H2  UNL     1       1.563  -2.488  -1.624  1.00  0.00     0.009 HD
BRANCH   4   6
HETATM    6  O1  UNL     1       2.148  -1.580  -3.652  1.00  0.00    -0.464 OA
HETATM    7  H1  UNL     1       1.864  -2.476  -3.988  1.00  0.00     0.182 HD
ENDBRANCH   4   6
ENDBRANCH   3   4
BRANCH   3   8
HETATM    8  C11 UNL     1       2.508   0.073  -0.434  1.00  0.00    -0.042 A 
HETATM    9  C12 UNL     1       3.559   0.965  -0.533  1.00  0.00     0.008 A 
HETATM   10  C13 UNL     1       4.476   1.161   0.471  1.00  0.00     0.001 A 
HETATM   11  C14 UNL     1       4.330   0.426   1.630  1.00  0.00     0.000 A 
HETATM   12  C15 UNL     1       3.288  -0.469   1.746  1.00  0.00     0.001 A 
HETATM   13  C16 UNL     1       2.370  -0.657   0.725  1.00  0.00     0.008 A 
ENDBRANCH   3   8
ENDBRANCH   1   3
BRANCH   1  14
HETATM   14  C2  UNL     1      -0.385   0.948  -0.249  1.00  0.00     0.138 A 
HETATM   15  N2  UNL     1       0.395   2.028  -0.213  1.00  0.00    -0.224 NA
HETATM   16  C3  UNL     1       0.107   3.176   0.362  1.00  0.00     0.236 A 
HETATM   17  N3  UNL     1      -1.093   3.224   0.957  1.00  0.00    -0.234 NA
HETATM   18  C4  UNL     1      -1.882   2.169   0.934  1.00  0.00     0.114 A 
HETATM   19  S1  UNL     1      -3.509   1.946   1.636  1.00  0.00    -0.073 SA
HETATM   20  C7  UNL     1      -1.627   0.941   0.343  1.00  0.00     0.053 A 
HETATM   21  C5  UNL     1      -3.746   0.295   1.123  1.00  0.00    -0.008 A 
HETATM   22  C6  UNL     1      -2.565  -0.055   0.416  1.00  0.00    -0.028 A 
HETATM   23  C10 UNL     1      -4.728  -0.812   1.183  1.00  0.00     0.047 C 
HETATM   24  C8  UNL     1      -2.811  -1.451  -0.013  1.00  0.00     0.041 C 
HETATM   25  C9  UNL     1      -4.323  -1.606  -0.034  1.00  0.00     0.010 C 
ENDBRANCH   1  14
TORSDOF 5
