REMARK  7 active torsions:
REMARK  status: ('A' for Active; 'I' for Inactive)
REMARK    1  A    between atoms: O1_1  and  C1_2 
REMARK    2  A    between atoms: C1_2  and  C2_3 
REMARK    3  A    between atoms: C2_3  and  C3_4 
REMARK    4  A    between atoms: C2_3  and  N1_10 
REMARK    5  A    between atoms: C3_4  and  C4_5 
REMARK    6  A    between atoms: C5_6  and  C6_7 
REMARK    7  A    between atoms: N1_10  and  C8_11 
ROOT
HETATM    1  C8  UNL     1      -0.775   0.801   1.186  1.00  0.00     0.139 A 
HETATM    2  N2  UNL     1      -0.048   1.451   2.098  1.00  0.00    -0.224 NA
HETATM    3  C9  UNL     1      -0.392   2.598   2.635  1.00  0.00     0.236 A 
HETATM    4  N3  UNL     1      -1.555   3.115   2.213  1.00  0.00    -0.234 NA
HETATM    5  C10 UNL     1      -2.317   2.478   1.288  1.00  0.00     0.114 A 
HETATM    6  S1  UNL     1      -3.817   2.967   0.620  1.00  0.00    -0.073 SA
HETATM    7  C11 UNL     1      -3.961   1.449  -0.485  1.00  0.00    -0.008 A 
HETATM    8  C12 UNL     1      -2.839   0.746  -0.210  1.00  0.00    -0.028 A 
HETATM    9  C13 UNL     1      -1.983   1.268   0.702  1.00  0.00     0.053 A 
HETATM   10  C14 UNL     1      -2.968  -0.463  -1.074  1.00  0.00     0.041 C 
HETATM   11  C15 UNL     1      -4.348  -0.546  -1.585  1.00  0.00     0.010 C 
HETATM   12  C16 UNL     1      -4.858   0.855  -1.488  1.00  0.00     0.047 C 
ENDROOT
BRANCH   1  13
HETATM   13  N1  UNL     1      -0.121  -0.411   0.776  1.00  0.00    -0.367 N 
HETATM   14  H11 UNL     1      -0.586  -0.985   0.045  1.00  0.00     0.161 HD
BRANCH  13  15
HETATM   15  C2  UNL     1       1.130  -0.933   1.258  1.00  0.00     0.110 C 
BRANCH  15  16
HETATM   16  C1  UNL     1       1.461  -2.256   0.585  1.00  0.00     0.189 C 
BRANCH  16  17
HETATM   17  O1  UNL     1       0.429  -3.159   0.882  1.00  0.00    -0.399 OA
HETATM   18  H1  UNL     1      -0.075  -2.831   1.655  1.00  0.00     0.209 HD
ENDBRANCH  16  17
ENDBRANCH  15  16
BRANCH  15  19
HETATM   19  C3  UNL     1       2.304  -0.004   1.051  1.00  0.00     0.054 C 
BRANCH  19  20
HETATM   20  C4  UNL     1       2.607   0.263  -0.356  1.00  0.00    -0.025 C 
HETATM   21  C5  UNL     1       3.655   0.072  -1.130  1.00  0.00    -0.003 C 
BRANCH  21  22
HETATM   22  C6  UNL     1       4.870  -0.535  -0.609  1.00  0.00     0.007 C 
HETATM   23  C7  UNL     1       5.900  -0.712  -1.413  1.00  0.00     0.056 C 
HETATM   24 BR1  UNL     1       5.805  -0.179  -3.237  1.00  0.00    -0.064 Br
ENDBRANCH  21  22
ENDBRANCH  19  20
ENDBRANCH  15  19
ENDBRANCH  13  15
ENDBRANCH   1  13
TORSDOF 7
