REMARK  4 active torsions:
REMARK  status: ('A' for Active; 'I' for Inactive)
REMARK    1  A    between atoms: N1_1  and  C1_2 
REMARK    2  A    between atoms: C3_4  and  C4_5 
REMARK    3  A    between atoms: C4_5  and  O2_7 
REMARK    4  A    between atoms: C8_11  and  C9_12 
ROOT
HETATM    1  C1  UNL     1      -2.922   2.208  -0.232  1.00  0.00     0.317 C 
HETATM    2  C2  UNL     1      -3.486   0.853  -0.659  1.00  0.00     0.031 C 
HETATM    3  C3  UNL     1      -2.872  -0.360  -0.827  1.00  0.00     0.021 C 
HETATM    4  C5  UNL     1      -1.494  -0.543  -0.382  1.00  0.00     0.053 C 
HETATM    5  C6  UNL     1      -0.677  -1.694  -0.682  1.00  0.00     0.041 C 
HETATM    6  C7  UNL     1       0.737  -1.296  -0.424  1.00  0.00     0.007 C 
HETATM    7  C8  UNL     1       1.536  -0.270  -0.065  1.00  0.00     0.064 C 
HETATM    8  N2  UNL     1       0.815   0.889   0.149  1.00  0.00    -0.242 NA
HETATM    9  C15 UNL     1       0.799   1.845   0.966  1.00  0.00     0.236 C 
HETATM   10  N3  UNL     1      -0.309   2.322   0.162  1.00  0.00    -0.220 NA
HETATM   11  C16 UNL     1      -1.537   1.987   0.321  1.00  0.00     0.178 C 
HETATM   12  O3  UNL     1      -1.600   1.076   1.420  1.00  0.00    -0.335 OA
HETATM   13  C17 UNL     1      -1.510  -0.328   1.112  1.00  0.00     0.186 C 
ENDROOT
BRANCH   7  14
HETATM   14  C9  UNL     1       2.983  -0.408   0.056  1.00  0.00    -0.006 A 
HETATM   15  C10 UNL     1       3.729  -1.542  -0.134  1.00  0.00     0.017 A 
HETATM   16  C11 UNL     1       5.097  -1.599  -0.011  1.00  0.00     0.045 A 
HETATM   17  C12 UNL     1       5.736  -0.424   0.327  1.00  0.00     0.138 A 
HETATM   18  F1  UNL     1       7.090  -0.407   0.466  1.00  0.00    -0.204 F 
HETATM   19  C13 UNL     1       4.990   0.719   0.519  1.00  0.00     0.073 A 
HETATM   20 CL1  UNL     1       5.861   2.175   0.946  1.00  0.00    -0.081 Cl
HETATM   21  C14 UNL     1       3.621   0.733   0.386  1.00  0.00     0.040 A 
ENDBRANCH   7  14
BRANCH   3  22
HETATM   22  C4  UNL     1      -3.664  -1.380  -1.444  1.00  0.00     0.172 C 
HETATM   23  O1  UNL     1      -4.837  -1.058  -1.769  1.00  0.00    -0.646 OA
BRANCH  22  24
HETATM   24  O2  UNL     1      -3.131  -2.621  -1.649  1.00  0.00    -0.773 OA
HETATM   25  H5  UNL     1      -3.764  -3.417  -1.825  1.00  0.00     0.167 HD
ENDBRANCH  22  24
ENDBRANCH   3  22
BRANCH   1  26
HETATM   26  N1  UNL     1      -3.755   2.675   0.840  1.00  0.00     0.094 N 
HETATM   27  H1  UNL     1      -4.525   3.312   0.529  1.00  0.00     0.314 HD
HETATM   28  H2  UNL     1      -4.109   1.845   1.367  1.00  0.00     0.314 HD
ENDBRANCH   1  26
TORSDOF 4
