REMARK  2 active torsions:
REMARK  status: ('A' for Active; 'I' for Inactive)
REMARK    1  A    between atoms: C4_4  and  C5_5 
REMARK    2  A    between atoms: C5_5  and  C6_6 
ROOT
HETATM    1  C6  UNL     1       0.328  -0.884   1.383  1.00  0.00     0.053 A 
HETATM    2  N1  UNL     1       0.966  -1.096   2.545  1.00  0.00    -0.245 NA
HETATM    3  C7  UNL     1       0.700  -0.524   3.720  1.00  0.00     0.234 A 
HETATM    4  N2  UNL     1      -0.317   0.350   3.704  1.00  0.00    -0.234 NA
HETATM    5  C8  UNL     1      -0.966   0.582   2.581  1.00  0.00     0.112 A 
HETATM    6  S1  UNL     1      -2.332   1.645   2.263  1.00  0.00    -0.072 SA
HETATM    7  C9  UNL     1      -2.499   1.273   0.532  1.00  0.00     0.020 A 
HETATM    8  C10 UNL     1      -1.466   0.320   0.270  1.00  0.00    -0.026 A 
HETATM    9  C11 UNL     1      -0.715   0.008   1.361  1.00  0.00     0.032 A 
HETATM   10  C12 UNL     1      -1.661   0.039  -1.156  1.00  0.00     0.070 C 
HETATM   11  C13 UNL     1      -3.141  -0.396  -1.285  1.00  0.00     0.274 C 
HETATM   12  N3  UNL     1      -3.993   0.776  -1.311  1.00  0.00     0.088 N 
HETATM   13  C14 UNL     1      -3.480   1.815  -0.437  1.00  0.00     0.316 C 
HETATM   14  H11 UNL     1      -4.966   0.508  -0.980  1.00  0.00     0.316 HD
ENDROOT
BRANCH   1  15
HETATM   15  C5  UNL     1       0.934  -1.648   0.264  1.00  0.00     0.099 C 
BRANCH  15  16
HETATM   16  C4  UNL     1       1.926  -0.848  -0.492  1.00  0.00    -0.052 A 
HETATM   17  C3  UNL     1       1.968  -0.107  -1.635  1.00  0.00     0.007 A 
HETATM   18  C2  UNL     1       3.045   0.569  -2.138  1.00  0.00     0.001 A 
HETATM   19  C1  UNL     1       4.244   0.512  -1.426  1.00  0.00     0.000 A 
HETATM   20  C16 UNL     1       4.351  -0.209  -0.239  1.00  0.00     0.001 A 
HETATM   21  C15 UNL     1       3.175  -0.839   0.140  1.00  0.00     0.007 A 
ENDBRANCH  15  16
ENDBRANCH   1  15
TORSDOF 2
