REMARK  7 active torsions:
REMARK  status: ('A' for Active; 'I' for Inactive)
REMARK    1  A    between atoms: C2_2  and  N1_9 
REMARK    2  A    between atoms: C3_3  and  C4_4 
REMARK    3  A    between atoms: C4_4  and  C5_5 
REMARK    4  A    between atoms: C5_5  and  C6_6 
REMARK    5  A    between atoms: C6_6  and  C7_7 
REMARK    6  A    between atoms: C7_7  and  O1_8 
REMARK    7  A    between atoms: N1_9  and  C8_10 
ROOT
HETATM    1  C8  UNL     1      -1.165  -1.969  -0.204  1.00  0.00     0.142 A 
HETATM    2  N2  UNL     1      -1.091  -3.174  -0.774  1.00  0.00    -0.223 NA
HETATM    3  C9  UNL     1      -2.013  -3.776  -1.508  1.00  0.00     0.236 A 
HETATM    4  N3  UNL     1      -3.160  -3.113  -1.712  1.00  0.00    -0.234 NA
HETATM    5  C10 UNL     1      -3.290  -1.883  -1.156  1.00  0.00     0.114 A 
HETATM    6  S1  UNL     1      -4.700  -0.634  -1.181  1.00  0.00    -0.072 SA
HETATM    7  C11 UNL     1      -3.921   0.537  -0.226  1.00  0.00     0.020 A 
HETATM    8  C12 UNL     1      -2.626   0.020   0.116  1.00  0.00    -0.025 A 
HETATM    9  C13 UNL     1      -2.294  -1.214  -0.354  1.00  0.00     0.053 A 
HETATM   10  C14 UNL     1      -1.880   0.963   0.943  1.00  0.00     0.070 C 
HETATM   11  C15 UNL     1      -1.987   2.336   0.369  1.00  0.00     0.274 C 
HETATM   12  N4  UNL     1      -3.324   2.820   0.340  1.00  0.00     0.088 N 
HETATM   13  C16 UNL     1      -4.361   1.846   0.233  1.00  0.00     0.316 C 
HETATM   14  H16 UNL     1      -3.412   3.630  -0.293  1.00  0.00     0.316 HD
ENDROOT
BRANCH   1  15
HETATM   15  N1  UNL     1      -0.045  -1.509   0.547  1.00  0.00    -0.343 N 
HETATM   16  H10 UNL     1       0.179  -1.454   1.539  1.00  0.00     0.167 HD
BRANCH  15  17
HETATM   17  C2  UNL     1       0.846  -1.069  -0.461  1.00  0.00     0.018 C 
HETATM   18  C1  UNL     1       0.678  -0.555  -1.827  1.00  0.00     0.069 C 
HETATM   19  C3  UNL     1       2.129  -1.134  -0.110  1.00  0.00    -0.002 C 
BRANCH  19  20
HETATM   20  C4  UNL     1       3.321  -1.673   0.097  1.00  0.00     0.014 C 
BRANCH  20  21
HETATM   21  C5  UNL     1       4.098  -0.585   0.543  1.00  0.00    -0.001 C 
BRANCH  21  22
HETATM   22  C6  UNL     1       4.162   0.446   1.358  1.00  0.00    -0.001 C 
BRANCH  22  23
HETATM   23  C7  UNL     1       5.165   1.502   1.646  1.00  0.00     0.191 C 
BRANCH  23  24
HETATM   24  O1  UNL     1       6.284   1.322   0.842  1.00  0.00    -0.397 OA
HETATM   25  H9  UNL     1       6.510   2.130   0.292  1.00  0.00     0.209 HD
ENDBRANCH  23  24
ENDBRANCH  22  23
ENDBRANCH  21  22
ENDBRANCH  20  21
ENDBRANCH  19  20
ENDBRANCH  15  17
ENDBRANCH   1  15
TORSDOF 7
