REMARK  4 active torsions:
REMARK  status: ('A' for Active; 'I' for Inactive)
REMARK    1  A    between atoms: N1_1  and  C1_2 
REMARK    2  A    between atoms: C6_7  and  O1_8 
REMARK    3  A    between atoms: O1_8  and  C7_9 
REMARK    4  A    between atoms: N2_10  and  C8_11 
ROOT
HETATM    1  C8  UNL     1      -0.510  -0.527  -0.240  1.00  0.00     0.169 C 
HETATM    2  C9  UNL     1      -0.504  -0.900   1.322  1.00  0.00     0.113 C 
HETATM    3  N3  UNL     1      -1.707  -0.573   1.827  1.00  0.00    -0.290 NA
HETATM    4  C10 UNL     1      -2.458   0.592   1.568  1.00  0.00     0.165 A 
HETATM    5  C11 UNL     1      -1.684   1.396   0.627  1.00  0.00    -0.002 A 
HETATM    6  C12 UNL     1      -1.795   0.244   0.005  1.00  0.00     0.057 A 
HETATM    7  C13 UNL     1      -3.068  -0.480  -0.091  1.00  0.00    -0.036 C 
HETATM    8  C14 UNL     1      -3.699   0.424   0.643  1.00  0.00     0.036 C 
HETATM    9  N4  UNL     1      -5.051   0.694   0.259  1.00  0.00    -0.391 N 
HETATM   10  C15 UNL     1      -5.305  -0.394  -0.682  1.00  0.00     0.124 C 
HETATM   11  C16 UNL     1      -4.211  -1.433  -0.393  1.00  0.00     0.057 C 
HETATM   12  H12 UNL     1      -5.642   1.478   0.613  1.00  0.00     0.159 HD
ENDROOT
BRANCH   1  13
HETATM   13  N2  UNL     1       0.632   0.191  -0.572  1.00  0.00    -0.266 NA
HETATM   14  C7  UNL     1       1.239   0.020  -1.710  1.00  0.00     0.253 C 
BRANCH  14  15
HETATM   15  O1  UNL     1       2.224   0.959  -1.439  1.00  0.00    -0.302 OA
BRANCH  15  16
HETATM   16  C6  UNL     1       3.294   0.704  -0.614  1.00  0.00     0.102 A 
HETATM   17  C1  UNL     1       3.641  -0.443   0.097  1.00  0.00     0.060 A 
HETATM   18  C2  UNL     1       4.786  -0.441   0.865  1.00  0.00     0.032 A 
HETATM   19  C3  UNL     1       5.592   0.653   0.952  1.00  0.00     0.002 A 
HETATM   20  C4  UNL     1       5.277   1.814   0.258  1.00  0.00     0.003 A 
HETATM   21  C5  UNL     1       4.131   1.807  -0.510  1.00  0.00     0.039 A 
BRANCH  17  22
HETATM   22  N1  UNL     1       2.705  -1.502  -0.093  1.00  0.00    -0.397 N 
HETATM   23  H1  UNL     1       2.064  -2.009   0.554  1.00  0.00     0.156 HD
HETATM   24  H2  UNL     1       2.442  -2.028  -0.959  1.00  0.00     0.156 HD
ENDBRANCH  17  22
ENDBRANCH  15  16
ENDBRANCH  14  15
ENDBRANCH   1  13
TORSDOF 4
