REMARK  5 active torsions:
REMARK  status: ('A' for Active; 'I' for Inactive)
REMARK    1  A    between atoms: C3_3  and  C4_4 
REMARK    2  A    between atoms: C5_5  and  N1_6 
REMARK    3  A    between atoms: N1_6  and  C6_7 
REMARK    4  A    between atoms: C13_17  and  C14_18 
REMARK    5  A    between atoms: C14_18  and  O2_20 
ROOT
HETATM    1  C6  UNL     1       1.432   0.894   0.995  1.00  0.00     0.159 A 
HETATM    2  N2  UNL     1       2.092   2.058   0.898  1.00  0.00    -0.222 NA
HETATM    3  C7  UNL     1       1.426   3.181   0.514  1.00  0.00     0.238 A 
HETATM    4  N3  UNL     1       0.113   3.077   0.243  1.00  0.00    -0.215 NA
HETATM    5  C8  UNL     1      -0.542   1.907   0.341  1.00  0.00     0.202 A 
HETATM    6  C9  UNL     1       0.091   0.742   0.727  1.00  0.00     0.129 A 
HETATM    7  N4  UNL     1      -0.336  -0.597   0.911  1.00  0.00    -0.379 N 
HETATM    8  C10 UNL     1      -1.694  -0.988   1.264  1.00  0.00     0.161 C 
HETATM    9  C11 UNL     1      -2.724  -0.298   0.449  1.00  0.00    -0.006 A 
HETATM   10  C12 UNL     1      -3.782  -1.175   0.214  1.00  0.00     0.029 A 
HETATM   11  C13 UNL     1      -4.877  -0.775  -0.525  1.00  0.00     0.038 A 
HETATM   12  C15 UNL     1      -4.988   0.490  -1.064  1.00  0.00     0.021 A 
HETATM   13  C16 UNL     1      -3.939   1.371  -0.835  1.00  0.00     0.039 A 
HETATM   14  C17 UNL     1      -2.848   0.963  -0.095  1.00  0.00     0.086 A 
HETATM   15  O3  UNL     1      -1.915   1.987   0.018  1.00  0.00    -0.289 OA
HETATM   16  H10 UNL     1       0.475  -1.245   0.754  1.00  0.00     0.160 HD
ENDROOT
BRANCH   1  17
HETATM   17  N1  UNL     1       2.261  -0.180   1.406  1.00  0.00    -0.349 N 
HETATM   18  H8  UNL     1       2.300  -1.193   1.630  1.00  0.00     0.167 HD
BRANCH  17  19
HETATM   19  C5  UNL     1       3.636  -0.019   1.675  1.00  0.00     0.090 C 
HETATM   20  C4  UNL     1       4.454  -0.117   0.614  1.00  0.00     0.017 C 
BRANCH  20  21
HETATM   21  C3  UNL     1       3.872  -0.376  -0.692  1.00  0.00    -0.003 C 
HETATM   22  C2  UNL     1       4.631  -0.482  -1.771  1.00  0.00    -0.031 C 
HETATM   23  C1  UNL     1       6.106  -0.328  -1.603  1.00  0.00     0.036 C 
ENDBRANCH  20  21
ENDBRANCH  17  19
ENDBRANCH   1  17
BRANCH  11  24
HETATM   24  C14 UNL     1      -5.998  -1.669  -0.788  1.00  0.00     0.176 C 
HETATM   25  O1  UNL     1      -7.026  -1.356  -1.458  1.00  0.00    -0.646 OA
BRANCH  24  26
HETATM   26  O2  UNL     1      -6.091  -2.973  -0.343  1.00  0.00    -0.773 OA
HETATM   27  H14 UNL     1      -6.944  -3.363  -0.017  1.00  0.00     0.167 HD
ENDBRANCH  24  26
ENDBRANCH  11  24
TORSDOF 5
