REMARK  5 active torsions:
REMARK  status: ('A' for Active; 'I' for Inactive)
REMARK    1  A    between atoms: O1_1  and  C1_2 
REMARK    2  A    between atoms: C1_2  and  C2_3 
REMARK    3  A    between atoms: C2_3  and  N1_4 
REMARK    4  A    between atoms: C2_3  and  C11_17 
REMARK    5  A    between atoms: N1_4  and  C3_5 
ROOT
HETATM    1  C3  UNL     1      -0.379   0.867  -0.812  1.00  0.00     0.160 A 
HETATM    2  N2  UNL     1       0.165   2.035  -0.888  1.00  0.00    -0.160 NA
HETATM    3  N3  UNL     1      -0.251   3.152  -0.223  1.00  0.00    -0.303 N 
HETATM    4  C4  UNL     1      -1.290   3.508   0.714  1.00  0.00     0.210 A 
HETATM    5  S1  UNL     1      -2.225   1.966   0.983  1.00  0.00    -0.157 SA
HETATM    6  C5  UNL     1      -1.535   0.670   0.043  1.00  0.00     0.048 A 
HETATM    7  C6  UNL     1      -2.373  -0.504   0.349  1.00  0.00    -0.014 A 
HETATM    8  C7  UNL     1      -3.359  -0.265   1.203  1.00  0.00     0.021 A 
HETATM    9  C8  UNL     1      -3.548   1.096   1.765  1.00  0.00     0.127 A 
HETATM   10  N4  UNL     1      -4.079  -1.475   1.401  1.00  0.00    -0.392 N 
HETATM   11  C9  UNL     1      -3.232  -2.581   1.003  1.00  0.00     0.124 C 
HETATM   12  C10 UNL     1      -2.399  -1.934  -0.072  1.00  0.00     0.061 C 
HETATM   13  H6  UNL     1       0.318   4.016  -0.423  1.00  0.00     0.183 HD
HETATM   14  H11 UNL     1      -5.019  -1.690   1.747  1.00  0.00     0.159 HD
ENDROOT
BRANCH   1  15
HETATM   15  N1  UNL     1       0.177  -0.197  -1.572  1.00  0.00    -0.362 N 
HETATM   16  H5  UNL     1      -0.525  -0.943  -1.857  1.00  0.00     0.162 HD
BRANCH  15  17
HETATM   17  C2  UNL     1       1.591  -0.157  -1.870  1.00  0.00     0.140 C 
BRANCH  17  18
HETATM   18  C1  UNL     1       2.019  -1.362  -2.682  1.00  0.00     0.194 C 
BRANCH  18  19
HETATM   19  O1  UNL     1       1.746  -2.510  -1.956  1.00  0.00    -0.399 OA
HETATM   20  H1  UNL     1       1.765  -3.312  -2.552  1.00  0.00     0.209 HD
ENDBRANCH  18  19
ENDBRANCH  17  18
BRANCH  17  21
HETATM   21  C11 UNL     1       2.427  -0.060  -0.645  1.00  0.00    -0.034 A 
HETATM   22  C12 UNL     1       3.481   0.825  -0.584  1.00  0.00     0.009 A 
HETATM   23  C13 UNL     1       4.345   1.031   0.480  1.00  0.00     0.001 A 
HETATM   24  C14 UNL     1       4.097   0.249   1.585  1.00  0.00     0.000 A 
HETATM   25  C15 UNL     1       3.055  -0.666   1.601  1.00  0.00     0.001 A 
HETATM   26  C16 UNL     1       2.229  -0.815   0.493  1.00  0.00     0.009 A 
ENDBRANCH  17  21
ENDBRANCH  15  17
ENDBRANCH   1  15
TORSDOF 5
