REMARK  1 active torsions:
REMARK  status: ('A' for Active; 'I' for Inactive)
REMARK    1  A    between atoms: O1_1  and  C1_2 
ROOT
HETATM    1  C1  UNL     1      -0.311   0.139   1.106  1.00  0.00     0.259 C 
HETATM    2  C2  UNL     1      -1.683  -0.369   0.739  1.00  0.00     0.017 A 
HETATM    3  C3  UNL     1      -1.770  -1.744   0.764  1.00  0.00     0.014 A 
HETATM    4  C4  UNL     1      -2.986  -2.288   0.444  1.00  0.00     0.001 A 
HETATM    5  C5  UNL     1      -4.092  -1.535   0.109  1.00  0.00     0.002 A 
HETATM    6  C6  UNL     1      -4.002  -0.158   0.085  1.00  0.00     0.030 A 
HETATM    7  C7  UNL     1      -2.791   0.428   0.402  1.00  0.00     0.043 A 
HETATM    8  N1  UNL     1      -3.052   1.849   0.279  1.00  0.00    -0.350 N 
HETATM    9  C8  UNL     1      -2.084   2.926   0.234  1.00  0.00     0.204 C 
HETATM   10  N2  UNL     1      -0.855   3.010  -0.160  1.00  0.00    -0.248 NA
HETATM   11  C9  UNL     1       0.060   2.086  -0.713  1.00  0.00     0.282 C 
HETATM   12  S1  UNL     1       1.779   2.744  -0.611  1.00  0.00    -0.062 SA
HETATM   13  C10 UNL     1       2.448   1.076  -0.890  1.00  0.00     0.092 C 
HETATM   14  C11 UNL     1       1.458   0.276  -0.470  1.00  0.00     0.046 C 
HETATM   15  C12 UNL     1       1.985  -1.099  -0.691  1.00  0.00     0.061 C 
HETATM   16  C13 UNL     1       3.313  -1.287  -0.008  1.00  0.00     0.026 C 
HETATM   17  C14 UNL     1       4.370  -0.492  -0.733  1.00  0.00     0.120 C 
HETATM   18  N3  UNL     1       3.683   0.591  -1.406  1.00  0.00    -0.383 N 
HETATM   19  N4  UNL     1       0.309   0.873   0.021  1.00  0.00    -0.319 N 
HETATM   20  H7  UNL     1      -4.058   2.114   0.216  1.00  0.00     0.166 HD
HETATM   21  H16 UNL     1       4.015   1.079  -2.269  1.00  0.00     0.160 HD
ENDROOT
BRANCH   1  22
HETATM   22  O1  UNL     1       0.427  -0.877   1.628  1.00  0.00    -0.372 OA
HETATM   23  H1  UNL     1       0.335  -0.935   2.601  1.00  0.00     0.212 HD
ENDBRANCH   1  22
TORSDOF 1
