REMARK  2 active torsions:
REMARK  status: ('A' for Active; 'I' for Inactive)
REMARK    1  A    between atoms: C4_5  and  N1_6 
REMARK    2  A    between atoms: N1_6  and  C5_7 
ROOT
HETATM    1  C5  UNL     1       0.249  -0.434   0.905  1.00  0.00     0.139 A 
HETATM    2  N2  UNL     1       1.171  -1.168   1.530  1.00  0.00    -0.224 NA
HETATM    3  C6  UNL     1       1.000  -1.884   2.645  1.00  0.00     0.236 A 
HETATM    4  N3  UNL     1      -0.211  -1.868   3.194  1.00  0.00    -0.234 NA
HETATM    5  C7  UNL     1      -1.157  -1.108   2.545  1.00  0.00     0.114 A 
HETATM    6  S1  UNL     1      -2.927  -0.880   3.059  1.00  0.00    -0.072 SA
HETATM    7  C8  UNL     1      -3.308   0.190   1.694  1.00  0.00     0.020 A 
HETATM    8  C9  UNL     1      -2.129   0.305   0.966  1.00  0.00    -0.025 A 
HETATM    9  C10 UNL     1      -1.032  -0.345   1.384  1.00  0.00     0.053 A 
HETATM   10  C11 UNL     1      -2.524   1.194  -0.137  1.00  0.00     0.070 C 
HETATM   11  C12 UNL     1      -3.698   0.470  -0.838  1.00  0.00     0.274 C 
HETATM   12  N4  UNL     1      -4.900   0.722  -0.062  1.00  0.00     0.088 N 
HETATM   13  C13 UNL     1      -4.588   0.851   1.351  1.00  0.00     0.316 C 
HETATM   14  H12 UNL     1      -5.393   1.563  -0.445  1.00  0.00     0.316 HD
ENDROOT
BRANCH   1  15
HETATM   15  N1  UNL     1       0.668   0.250  -0.266  1.00  0.00    -0.364 N 
HETATM   16  H6  UNL     1       0.300   0.870  -0.973  1.00  0.00     0.162 HD
BRANCH  15  17
HETATM   17  C4  UNL     1       2.044   0.073  -0.671  1.00  0.00     0.130 C 
HETATM   18  C3  UNL     1       2.376  -1.349  -1.079  1.00  0.00     0.203 C 
HETATM   19  O1  UNL     1       3.702  -1.662  -0.695  1.00  0.00    -0.361 OA
HETATM   20  C2  UNL     1       4.884  -1.039  -1.141  1.00  0.00     0.134 C 
HETATM   21  C1  UNL     1       4.936   0.141  -1.779  1.00  0.00     0.024 C 
HETATM   22  C15 UNL     1       3.778   0.988  -2.124  1.00  0.00    -0.000 C 
HETATM   23  C14 UNL     1       2.529   1.010  -1.692  1.00  0.00     0.000 C 
ENDBRANCH  15  17
ENDBRANCH   1  15
TORSDOF 2
