REMARK  4 active torsions:
REMARK  status: ('A' for Active; 'I' for Inactive)
REMARK    1  A    between atoms: C1_2  and  N1_3 
REMARK    2  A    between atoms: N2_10  and  C7_11 
REMARK    3  A    between atoms: C7_11  and  O2_12 
REMARK    4  A    between atoms: C7_11  and  C8_13 
ROOT
HETATM    1  N1  UNL     1      -3.311   1.606  -1.185  1.00  0.00    -0.354 N 
HETATM    2  C2  UNL     1      -4.399   0.687  -1.050  1.00  0.00     0.135 C 
HETATM    3  C3  UNL     1      -3.923  -0.633  -0.526  1.00  0.00     0.093 C 
HETATM    4  S1  UNL     1      -2.644  -0.389   0.673  1.00  0.00    -0.148 SA
HETATM    5  C4  UNL     1      -1.526   0.619   0.126  1.00  0.00    -0.013 C 
HETATM    6  C5  UNL     1      -1.993   0.993  -1.237  1.00  0.00     0.167 C 
HETATM    7  C6  UNL     1      -0.352   1.001   0.929  1.00  0.00     0.163 C 
HETATM    8  N2  UNL     1       0.847   0.292   0.732  1.00  0.00    -0.368 N 
HETATM    9  C14 UNL     1       0.892  -1.070   1.179  1.00  0.00     0.207 C 
HETATM   10  N3  UNL     1       0.652  -1.184   2.590  1.00  0.00    -0.284 NA
HETATM   11  C15 UNL     1      -0.355  -1.864   2.980  1.00  0.00     0.327 C 
HETATM   12  N4  UNL     1      -1.276  -2.528   2.134  1.00  0.00    -0.254 NA
HETATM   13  C16 UNL     1      -2.043  -1.873   1.351  1.00  0.00     0.156 C 
ENDROOT
BRANCH   8  14
HETATM   14  C7  UNL     1       1.472   0.504  -0.530  1.00  0.00     0.251 C 
BRANCH  14  15
HETATM   15  O2  UNL     1       0.750   0.073  -1.633  1.00  0.00    -0.373 OA
HETATM   16  H11 UNL     1       0.987   0.587  -2.445  1.00  0.00     0.212 HD
ENDBRANCH  14  15
BRANCH  14  17
HETATM   17  C8  UNL     1       2.886   0.001  -0.532  1.00  0.00    -0.010 A 
HETATM   18  C9  UNL     1       3.326  -0.751  -1.587  1.00  0.00     0.011 A 
HETATM   19  C10 UNL     1       4.622  -1.191  -1.554  1.00  0.00     0.001 A 
HETATM   20  C11 UNL     1       5.418  -0.860  -0.470  1.00  0.00     0.000 A 
HETATM   21  C12 UNL     1       4.948  -0.107   0.569  1.00  0.00     0.001 A 
HETATM   22  C13 UNL     1       3.638   0.360   0.575  1.00  0.00     0.011 A 
ENDBRANCH  14  17
ENDBRANCH   8  14
BRANCH   1  23
HETATM   23  C1  UNL     1      -3.523   3.007  -1.261  1.00  0.00     0.351 C 
HETATM   24  O1  UNL     1      -2.604   3.877  -1.381  1.00  0.00    -0.284 OA
ENDBRANCH   1  23
TORSDOF 4
