REMARK  8 active torsions:
REMARK  status: ('A' for Active; 'I' for Inactive)
REMARK    1  A    between atoms: C3_4  and  C4_5 
REMARK    2  A    between atoms: N1_6  and  C5_7 
REMARK    3  A    between atoms: C5_7  and  N2_8 
REMARK    4  A    between atoms: N2_8  and  C6_9 
REMARK    5  A    between atoms: C6_9  and  C7_10 
REMARK    6  A    between atoms: C6_9  and  C8_12 
REMARK    7  A    between atoms: C7_10  and  O1_11 
REMARK    8  A    between atoms: N3_18  and  C14_19 
ROOT
HETATM    1  N2  UNL     1      -1.086   0.256  -0.521  1.00  0.00     0.113 N 
HETATM    2  H9  UNL     1      -1.366   1.085  -1.076  1.00  0.00     0.319 HD
ENDROOT
BRANCH   1   3
HETATM    3  C5  UNL     1       0.313   0.352  -0.244  1.00  0.00     0.418 C 
BRANCH   3   4
HETATM    4  N1  UNL     1       0.860  -0.795   0.380  1.00  0.00    -0.273 NA
HETATM    5  C4  UNL     1       2.057  -1.134   0.176  1.00  0.00     0.121 C 
BRANCH   5   6
HETATM    6  C3  UNL     1       3.005  -0.387  -0.719  1.00  0.00     0.192 C 
HETATM    7  S1  UNL     1       3.150   1.362  -0.338  1.00  0.00    -0.113 SA
HETATM    8  C2  UNL     1       4.862   0.772  -0.233  1.00  0.00     0.148 C 
HETATM    9  C1  UNL     1       5.414   1.076   1.152  1.00  0.00     0.044 C 
HETATM   10  N3  UNL     1       4.395  -0.602  -0.352  1.00  0.00    -0.328 N 
BRANCH  10  11
HETATM   11  C14 UNL     1       4.986  -1.880  -0.191  1.00  0.00     0.353 C 
HETATM   12  O2  UNL     1       4.154  -2.810  -0.408  1.00  0.00    -0.283 OA
ENDBRANCH  10  11
ENDBRANCH   5   6
ENDBRANCH   3   4
ENDBRANCH   1   3
BRANCH   1  13
HETATM   13  C6  UNL     1      -1.890   0.056   0.661  1.00  0.00     0.278 C 
BRANCH  13  14
HETATM   14  C7  UNL     1      -1.738   1.191   1.652  1.00  0.00     0.204 C 
BRANCH  14  15
HETATM   15  O1  UNL     1      -2.111   2.414   1.136  1.00  0.00    -0.398 OA
HETATM   16  H13 UNL     1      -2.352   2.405   0.183  1.00  0.00     0.209 HD
ENDBRANCH  14  15
ENDBRANCH  13  14
BRANCH  13  17
HETATM   17  C8  UNL     1      -3.320  -0.163   0.325  1.00  0.00    -0.023 A 
HETATM   18  C9  UNL     1      -3.459  -1.060  -0.736  1.00  0.00     0.009 A 
HETATM   19  C10 UNL     1      -4.704  -1.420  -1.227  1.00  0.00     0.001 A 
HETATM   20  C11 UNL     1      -5.835  -0.865  -0.637  1.00  0.00     0.000 A 
HETATM   21  C12 UNL     1      -5.692   0.018   0.407  1.00  0.00     0.001 A 
HETATM   22  C13 UNL     1      -4.456   0.375   0.894  1.00  0.00     0.009 A 
ENDBRANCH  13  17
ENDBRANCH   1  13
TORSDOF 8
