REMARK  3 active torsions:
REMARK  status: ('A' for Active; 'I' for Inactive)
REMARK    1  A    between atoms: O1_2  and  C2_3 
REMARK    2  A    between atoms: C2_3  and  N1_4 
REMARK    3  A    between atoms: N1_4  and  C3_5 
ROOT
HETATM    1  C3  UNL     1       0.321   1.053   0.729  1.00  0.00     0.141 A 
HETATM    2  N2  UNL     1      -0.411   1.926   1.407  1.00  0.00    -0.224 NA
HETATM    3  C4  UNL     1      -0.051   3.018   2.031  1.00  0.00     0.236 A 
HETATM    4  N3  UNL     1       1.264   3.231   1.935  1.00  0.00    -0.234 NA
HETATM    5  C5  UNL     1       2.050   2.414   1.283  1.00  0.00     0.114 A 
HETATM    6  S1  UNL     1       3.841   2.480   1.014  1.00  0.00    -0.072 SA
HETATM    7  C6  UNL     1       3.925   0.924   0.018  1.00  0.00     0.011 A 
HETATM    8  C7  UNL     1       2.610   0.475  -0.037  1.00  0.00    -0.014 A 
HETATM    9  C8  UNL     1       1.666   1.227   0.603  1.00  0.00     0.054 A 
HETATM   10  C9  UNL     1       2.496  -0.775  -0.822  1.00  0.00     0.109 C 
HETATM   11  C10 UNL     1       2.381  -1.996   0.075  1.00  0.00     0.025 C 
HETATM   12  C11 UNL     1       3.785  -0.994  -1.576  1.00  0.00     0.226 C 
HETATM   13  O2  UNL     1       3.599  -2.071  -2.252  1.00  0.00    -0.273 OA
HETATM   14  N4  UNL     1       5.042  -0.354  -1.706  1.00  0.00    -0.356 N 
HETATM   15  C12 UNL     1       5.171   0.467  -0.495  1.00  0.00     0.169 C 
HETATM   16  H10 UNL     1       5.585  -0.564  -2.554  1.00  0.00     0.162 HD
ENDROOT
BRANCH   1  17
HETATM   17  N1  UNL     1      -0.446  -0.009   0.209  1.00  0.00    -0.342 N 
HETATM   18  H4  UNL     1      -0.123  -0.808  -0.350  1.00  0.00     0.164 HD
BRANCH  17  19
HETATM   19  C2  UNL     1      -1.855  -0.218   0.367  1.00  0.00     0.141 C 
HETATM   20  C13 UNL     1      -2.615   1.070  -0.010  1.00  0.00     0.088 C 
HETATM   21  C14 UNL     1      -3.915   0.708  -0.583  1.00  0.00    -0.026 C 
HETATM   22  C15 UNL     1      -4.622  -0.408  -0.861  1.00  0.00    -0.030 C 
HETATM   23  C16 UNL     1      -3.783  -1.590  -0.440  1.00  0.00     0.036 C 
HETATM   24  C17 UNL     1      -2.332  -1.254  -0.670  1.00  0.00     0.041 C 
HETATM   25  C18 UNL     1      -2.047  -0.808  -2.061  1.00  0.00     0.015 C 
BRANCH  19  26
HETATM   26  O1  UNL     1      -2.303  -0.677   1.554  1.00  0.00    -0.365 OA
HETATM   27  C1  UNL     1      -2.132  -0.020   2.710  1.00  0.00     0.204 C 
ENDBRANCH  19  26
ENDBRANCH  17  19
ENDBRANCH   1  17
TORSDOF 3
