REMARK  7 active torsions:
REMARK  status: ('A' for Active; 'I' for Inactive)
REMARK    1  A    between atoms: C2_2  and  C3_3 
REMARK    2  A    between atoms: C3_3  and  C4_5 
REMARK    3  A    between atoms: C4_5  and  N1_6 
REMARK    4  A    between atoms: N1_6  and  C5_7 
REMARK    5  A    between atoms: C5_7  and  C6_8 
REMARK    6  A    between atoms: N4_26  and  C20_27 
REMARK    7  A    between atoms: C20_27  and  O2_28 
ROOT
HETATM    1  C6  UNL     1       1.545   0.103  -1.946  1.00  0.00     0.020 A 
HETATM    2  S1  UNL     1       1.744   1.786  -2.691  1.00  0.00    -0.072 SA
HETATM    3  C7  UNL     1       0.170   2.434  -2.179  1.00  0.00     0.114 A 
HETATM    4  N2  UNL     1      -0.266   3.625  -2.432  1.00  0.00    -0.234 NA
HETATM    5  C8  UNL     1      -1.489   3.961  -1.977  1.00  0.00     0.236 A 
HETATM    6  N3  UNL     1      -2.120   2.985  -1.296  1.00  0.00    -0.224 NA
HETATM    7  C9  UNL     1      -1.649   1.756  -1.045  1.00  0.00     0.142 A 
HETATM    8  C10 UNL     1      -0.412   1.367  -1.486  1.00  0.00     0.053 A 
HETATM    9  C11 UNL     1       0.302   0.212  -1.387  1.00  0.00    -0.026 A 
HETATM   10  C12 UNL     1      -0.576  -0.613  -0.655  1.00  0.00     0.044 C 
HETATM   11  C13 UNL     1      -0.212  -2.080  -0.411  1.00  0.00     0.026 C 
HETATM   12  C14 UNL     1      -1.365  -2.588   0.450  1.00  0.00    -0.121 C 
HETATM   13  B1  UNL     1      -2.892  -2.198  -0.833  1.00  0.00     0.215 B 
HETATM   14  C15 UNL     1      -3.772  -0.969   0.242  1.00  0.00    -0.104 C 
HETATM   15  C16 UNL     1      -3.974  -1.691   1.384  1.00  0.00    -0.008 C 
HETATM   16  C17 UNL     1      -3.170  -2.628   1.977  1.00  0.00    -0.001 C 
HETATM   17  C18 UNL     1      -1.938  -3.090   1.583  1.00  0.00    -0.010 C 
HETATM   18  C19 UNL     1      -3.937   0.287  -0.428  1.00  0.00     0.148 C 
HETATM   19  N4  UNL     1      -2.758   1.181  -0.281  1.00  0.00    -0.341 N 
ENDROOT
BRANCH   1  20
HETATM   20  C5  UNL     1       2.476  -0.967  -1.977  1.00  0.00     0.316 C 
BRANCH  20  21
HETATM   21  N1  UNL     1       3.182  -1.043  -0.709  1.00  0.00     0.095 NA
HETATM   22  H6  UNL     1       3.781  -1.892  -0.692  1.00  0.00     0.316 HD
BRANCH  21  23
HETATM   23  C4  UNL     1       3.929   0.174  -0.449  1.00  0.00     0.352 C 
BRANCH  23  24
HETATM   24  C3  UNL     1       4.654   0.093   0.817  1.00  0.00     0.176 C 
HETATM   25  O1  UNL     1       5.269   1.190   0.953  1.00  0.00    -0.291 OA
BRANCH  24  26
HETATM   26  C2  UNL     1       5.042  -0.593   2.013  1.00  0.00     0.042 C 
HETATM   27  C1  UNL     1       5.848   0.104   2.787  1.00  0.00     0.015 C 
ENDBRANCH  24  26
ENDBRANCH  23  24
ENDBRANCH  21  23
ENDBRANCH  20  21
ENDBRANCH   1  20
BRANCH  19  28
HETATM   28  C20 UNL     1      -2.764   1.586   1.142  1.00  0.00     0.291 C 
BRANCH  28  29
HETATM   29  O2  UNL     1      -3.975   2.259   1.422  1.00  0.00    -0.382 OA
HETATM   30  H21 UNL     1      -3.953   2.648   2.309  1.00  0.00     0.211 HD
ENDBRANCH  28  29
ENDBRANCH  19  28
TORSDOF 7
