REMARK  5 active torsions:
REMARK  status: ('A' for Active; 'I' for Inactive)
REMARK    1  A    between atoms: C2_2  and  C3_3 
REMARK       I    between atoms: C3_3  and  N1_5 
REMARK    2  A    between atoms: C10_15  and  C11_16 
REMARK    3  A    between atoms: C11_16  and  C12_17 
REMARK    4  A    between atoms: C11_16  and  C13_19 
REMARK    5  A    between atoms: C12_17  and  N4_18 
ROOT
HETATM    1  C3  UNL     1       3.534   2.355   0.392  1.00  0.00     0.242 C 
HETATM    2  O1  UNL     1       2.811   3.361   0.599  1.00  0.00    -0.268 OA
HETATM    3  N1  UNL     1       2.760   1.224   0.032  1.00  0.00    -0.344 N 
HETATM    4  C4  UNL     1       1.316   1.406  -0.036  1.00  0.00     0.131 C 
HETATM    5  C5  UNL     1       0.712   0.379  -1.024  1.00  0.00     0.060 C 
HETATM    6  C6  UNL     1       0.702  -0.904  -0.301  1.00  0.00    -0.027 A 
HETATM    7  C7  UNL     1       2.058  -1.095   0.027  1.00  0.00     0.010 A 
HETATM    8  S1  UNL     1       2.089  -2.655   0.884  1.00  0.00    -0.072 SA
HETATM    9  C8  UNL     1       0.364  -2.956   0.765  1.00  0.00     0.112 A 
HETATM   10  N2  UNL     1      -0.317  -4.014   1.230  1.00  0.00    -0.234 NA
HETATM   11  C9  UNL     1      -1.645  -4.073   1.043  1.00  0.00     0.234 A 
HETATM   12  N3  UNL     1      -2.134  -3.044   0.402  1.00  0.00    -0.245 NA
HETATM   13  C10 UNL     1      -1.541  -1.944  -0.099  1.00  0.00     0.059 A 
HETATM   14  C19 UNL     1      -0.148  -1.883   0.095  1.00  0.00     0.033 A 
HETATM   15  C20 UNL     1       3.183  -0.149  -0.292  1.00  0.00     0.172 C 
ENDROOT
BRANCH  13  16
HETATM   16  C11 UNL     1      -2.364  -0.909  -0.768  1.00  0.00     0.099 C 
BRANCH  16  17
HETATM   17  C12 UNL     1      -2.299  -0.853  -2.256  1.00  0.00     0.282 C 
BRANCH  17  18
HETATM   18  N4  UNL     1      -2.763  -2.136  -2.851  1.00  0.00     0.079 N 
HETATM   19  H12 UNL     1      -2.657  -1.972  -3.888  1.00  0.00     0.312 HD
HETATM   20  H13 UNL     1      -2.103  -2.858  -2.494  1.00  0.00     0.312 HD
ENDBRANCH  17  18
ENDBRANCH  16  17
BRANCH  16  21
HETATM   21  C13 UNL     1      -2.600   0.323  -0.021  1.00  0.00    -0.046 A 
HETATM   22  C14 UNL     1      -2.665   1.683  -0.341  1.00  0.00     0.008 A 
HETATM   23  C15 UNL     1      -2.902   2.657   0.597  1.00  0.00     0.001 A 
HETATM   24  C16 UNL     1      -3.091   2.335   1.922  1.00  0.00     0.000 A 
HETATM   25  C17 UNL     1      -3.036   1.006   2.281  1.00  0.00     0.001 A 
HETATM   26  C18 UNL     1      -2.796   0.018   1.337  1.00  0.00     0.008 A 
ENDBRANCH  16  21
ENDBRANCH  13  16
BRANCH   1  27
HETATM   27  C2  UNL     1       4.973   2.405   0.520  1.00  0.00     0.064 C 
HETATM   28  C1  UNL     1       5.883   1.464   0.345  1.00  0.00     0.017 C 
ENDBRANCH   1  27
TORSDOF 5
