REMARK  3 active torsions:
REMARK  status: ('A' for Active; 'I' for Inactive)
REMARK    1  A    between atoms: C2_2  and  C3_3 
REMARK       I    between atoms: C3_3  and  N1_5 
REMARK    2  A    between atoms: C15_19  and  C16_20 
REMARK    3  A    between atoms: C16_20  and  O2_21 
ROOT
HETATM    1  C3  UNL     1       1.503   0.752   0.989  1.00  0.00     0.238 C 
HETATM    2  O1  UNL     1       0.878   0.894   2.094  1.00  0.00    -0.272 OA
HETATM    3  N1  UNL     1       1.344   0.041  -0.283  1.00  0.00    -0.255 N 
HETATM    4  C4  UNL     1       2.274   0.125  -1.435  1.00  0.00     0.157 C 
HETATM    5  C5  UNL     1       1.655  -0.017  -2.758  1.00  0.00     0.061 C 
HETATM    6  C6  UNL     1       0.255   0.462  -2.904  1.00  0.00    -0.041 C 
HETATM    7  C7  UNL     1      -0.006   1.548  -3.661  1.00  0.00     0.053 C 
HETATM    8  S1  UNL     1      -1.775   1.833  -3.612  1.00  0.00    -0.126 SA
HETATM    9  C8  UNL     1      -2.225   0.190  -2.984  1.00  0.00     0.126 C 
HETATM   10  C9  UNL     1      -3.357   0.203  -2.073  1.00  0.00     0.104 C 
HETATM   11  N2  UNL     1      -2.936   0.670  -0.910  1.00  0.00    -0.293 NA
HETATM   12  C10 UNL     1      -3.935   0.745   0.112  1.00  0.00     0.158 C 
HETATM   13  C11 UNL     1      -3.847   0.334   1.376  1.00  0.00     0.002 C 
HETATM   14  C12 UNL     1      -3.353  -0.241   2.671  1.00  0.00    -0.005 C 
HETATM   15  C13 UNL     1      -2.139  -0.761   2.890  1.00  0.00    -0.015 C 
HETATM   16  C14 UNL     1      -1.269  -0.711   1.670  1.00  0.00     0.071 C 
HETATM   17  C15 UNL     1      -0.038  -1.085   1.332  1.00  0.00     0.043 C 
HETATM   18  N3  UNL     1       0.118  -0.683  -0.060  1.00  0.00    -0.268 N 
HETATM   19  C17 UNL     1      -0.799  -0.930  -1.180  1.00  0.00     0.125 C 
HETATM   20  C18 UNL     1      -0.934  -0.150  -2.290  1.00  0.00    -0.015 C 
ENDROOT
BRANCH   1  21
HETATM   21  C2  UNL     1       2.711   1.600   1.176  1.00  0.00     0.100 C 
HETATM   22  C1  UNL     1       3.960   0.883   1.555  1.00  0.00     0.014 C 
ENDBRANCH   1  21
BRANCH  17  23
HETATM   23  C16 UNL     1       1.265  -1.682   1.586  1.00  0.00     0.219 C 
BRANCH  23  24
HETATM   24  O2  UNL     1       1.059  -2.064   2.959  1.00  0.00    -0.395 OA
HETATM   25  H20 UNL     1       0.366  -2.735   2.984  1.00  0.00     0.209 HD
ENDBRANCH  23  24
ENDBRANCH  17  23
TORSDOF 3
