REMARK  9 active torsions:
REMARK  status: ('A' for Active; 'I' for Inactive)
REMARK    1  A    between atoms: N1_3  and  C2_4 
REMARK    2  A    between atoms: C3_5  and  C18_24 
REMARK    3  A    between atoms: C4_6  and  C18_24 
REMARK    4  A    between atoms: C7_9  and  N2_10 
REMARK    5  A    between atoms: N2_10  and  C8_11 
REMARK    6  A    between atoms: C8_11  and  C9_12 
REMARK    7  A    between atoms: C8_11  and  C10_14 
REMARK    8  A    between atoms: C9_12  and  O2_13 
REMARK    9  A    between atoms: C17_23  and  C18_24 
ROOT
HETATM    1  C2  UNL     1       4.380   1.560   1.442  1.00  0.00     0.116 A 
HETATM    2  C3  UNL     1       4.166   1.445   0.051  1.00  0.00     0.046 A 
HETATM    3  C4  UNL     1       2.949   1.210   0.864  1.00  0.00     0.037 A 
HETATM    4  C5  UNL     1       1.743   1.122   1.688  1.00  0.00     0.047 C 
HETATM    5  C6  UNL     1       0.771   0.121   1.119  1.00  0.00     0.024 C 
HETATM    6  C7  UNL     1       0.561  -0.760   0.139  1.00  0.00     0.121 C 
HETATM    7  N3  UNL     1       1.034  -1.405  -1.031  1.00  0.00    -0.226 NA
HETATM    8  C16 UNL     1       1.931  -0.819  -1.735  1.00  0.00     0.230 C 
HETATM    9  N4  UNL     1       2.702   0.373  -1.763  1.00  0.00    -0.267 NA
HETATM   10  C17 UNL     1       3.357   0.744  -0.783  1.00  0.00     0.107 A 
ENDROOT
BRANCH   6  11
HETATM   11  N2  UNL     1      -0.660  -1.541   0.040  1.00  0.00    -0.364 N 
HETATM   12  H6  UNL     1      -0.668  -2.336   0.753  1.00  0.00     0.162 HD
BRANCH  11  13
HETATM   13  C8  UNL     1      -1.785  -1.356  -0.862  1.00  0.00     0.140 C 
BRANCH  13  14
HETATM   14  C9  UNL     1      -2.804  -2.435  -0.566  1.00  0.00     0.194 C 
BRANCH  14  15
HETATM   15  O2  UNL     1      -3.252  -2.362   0.751  1.00  0.00    -0.399 OA
HETATM   16  H10 UNL     1      -3.083  -3.225   1.245  1.00  0.00     0.209 HD
ENDBRANCH  14  15
ENDBRANCH  13  14
BRANCH  13  17
HETATM   17  C10 UNL     1      -2.417  -0.012  -0.734  1.00  0.00    -0.034 A 
HETATM   18  C11 UNL     1      -2.662   0.481   0.535  1.00  0.00     0.009 A 
HETATM   19  C12 UNL     1      -3.257   1.747   0.593  1.00  0.00     0.001 A 
HETATM   20  C13 UNL     1      -3.595   2.496  -0.515  1.00  0.00     0.000 A 
HETATM   21  C14 UNL     1      -3.331   1.962  -1.781  1.00  0.00     0.001 A 
HETATM   22  C15 UNL     1      -2.743   0.712  -1.875  1.00  0.00     0.009 A 
ENDBRANCH  13  17
ENDBRANCH  11  13
ENDBRANCH   6  11
BRANCH   3  23
HETATM   23  C18 UNL     1       3.341  -0.087   0.424  1.00  0.00     0.120 A 
HETATM   24  C1  UNL     1       3.990  -1.208   0.734  1.00  0.00     0.226 A 
HETATM   25  O1  UNL     1       3.965  -2.449   0.550  1.00  0.00    -0.277 OA
HETATM   26  N1  UNL     1       4.555  -0.058   1.291  1.00  0.00    -0.231 NA
ENDBRANCH   3  23
TORSDOF 9
