REMARK  0 active torsions:
REMARK  status: ('A' for Active; 'I' for Inactive)
ROOT
HETATM    1  C1  UNL     1       3.751  -3.536   0.121  1.00  0.00     0.014 C 
HETATM    2  C2  UNL     1       2.757  -2.719  -0.145  1.00  0.00    -0.001 C 
HETATM    3  C3  UNL     1       1.568  -1.931  -0.419  1.00  0.00    -0.036 C 
HETATM    4  C4  UNL     1       2.201  -0.817  -0.630  1.00  0.00     0.001 C 
HETATM    5  C5  UNL     1       3.608  -0.417  -0.619  1.00  0.00     0.145 C 
HETATM    6  N1  UNL     1       3.691   0.636   0.426  1.00  0.00    -0.381 N 
HETATM    7  C6  UNL     1       3.765   1.614   1.390  1.00  0.00     0.234 A 
HETATM    8  O1  UNL     1       3.582   2.589   1.916  1.00  0.00    -0.320 OA
HETATM    9  C7  UNL     1       2.956   2.770   0.976  1.00  0.00     0.217 A 
HETATM   10  C8  UNL     1       2.298   3.705   0.618  1.00  0.00    -0.126 C 
HETATM   11  C9  UNL     1       1.549   4.811   0.206  1.00  0.00     0.163 C 
HETATM   12  S1  UNL     1       0.117   5.093   1.293  1.00  0.00    -0.111 SA
HETATM   13  C10 UNL     1      -1.047   3.779   1.202  1.00  0.00     0.163 C 
HETATM   14  N2  UNL     1      -1.890   2.985   1.827  1.00  0.00    -0.247 NA
HETATM   15  C11 UNL     1      -2.601   2.010   1.029  1.00  0.00     0.233 C 
HETATM   16  N3  UNL     1      -2.899   0.785   1.300  1.00  0.00    -0.242 NA
HETATM   17  C12 UNL     1      -3.618   0.003   0.332  1.00  0.00     0.066 A 
HETATM   18  C13 UNL     1      -4.872   0.347  -0.123  1.00  0.00     0.032 A 
HETATM   19  C14 UNL     1      -5.410  -0.472  -1.080  1.00  0.00     0.002 A 
HETATM   20  C15 UNL     1      -4.668  -1.575  -1.518  1.00  0.00     0.001 A 
HETATM   21  C16 UNL     1      -3.415  -1.839  -1.005  1.00  0.00     0.011 A 
HETATM   22  C17 UNL     1      -2.830  -1.031  -0.036  1.00  0.00    -0.002 A 
HETATM   23  C18 UNL     1      -1.426  -1.324   0.329  1.00  0.00     0.310 C 
HETATM   24  N4  UNL     1      -0.883  -2.264  -0.612  1.00  0.00     0.091 NA
HETATM   25  C19 UNL     1       0.386  -2.796  -0.331  1.00  0.00     0.308 C 
HETATM   26  H7  UNL     1       4.330   0.398   1.250  1.00  0.00     0.156 HD
HETATM   27  H18 UNL     1      -1.012  -1.967  -1.599  1.00  0.00     0.316 HD
ENDROOT
TORSDOF 0
