REMARK  4 active torsions:
REMARK  status: ('A' for Active; 'I' for Inactive)
REMARK    1  A    between atoms: C3_3  and  C4_4 
REMARK       I    between atoms: C4_4  and  N1_6 
REMARK    2  A    between atoms: C8_10  and  S1_11 
REMARK    3  A    between atoms: C11_17  and  N4_18 
REMARK    4  A    between atoms: N4_18  and  C12_19 
ROOT
HETATM    1  C1  UNL     1       7.881   2.302  -1.637  1.00  0.00     0.112 C 
HETATM    2  C2  UNL     1       6.691   1.514  -1.958  1.00  0.00    -0.101 C 
HETATM    3  C3  UNL     1       5.710   0.844  -2.230  1.00  0.00    -0.006 C 
ENDROOT
BRANCH   3   4
HETATM    4  C4  UNL     1       4.558   0.029  -2.551  1.00  0.00     0.298 C 
HETATM    5  O1  UNL     1       4.245   0.062  -3.790  1.00  0.00    -0.258 OA
HETATM    6  N1  UNL     1       3.979  -0.661  -1.444  1.00  0.00    -0.336 N 
HETATM    7  C5  UNL     1       4.474  -0.588  -0.065  1.00  0.00     0.131 C 
HETATM    8  C20 UNL     1       2.805  -1.526  -1.607  1.00  0.00     0.173 C 
HETATM    9  C6  UNL     1       3.429   0.165   0.743  1.00  0.00     0.048 C 
HETATM   10  C7  UNL     1       2.160  -0.597   0.587  1.00  0.00    -0.008 C 
HETATM   11  C8  UNL     1       1.879  -1.354  -0.464  1.00  0.00     0.009 C 
BRANCH  11  12
HETATM   12  S1  UNL     1       0.316  -2.215  -0.523  1.00  0.00    -0.027 SA
HETATM   13  C9  UNL     1      -0.670  -1.884   0.936  1.00  0.00     0.125 A 
HETATM   14  N2  UNL     1      -0.903  -2.603  -0.091  1.00  0.00    -0.247 N 
HETATM   15  C11 UNL     1      -1.453  -1.595   2.141  1.00  0.00     0.262 C 
HETATM   16  S2  UNL     1      -2.442  -3.427  -0.122  1.00  0.00     0.007 SA
HETATM   17  C10 UNL     1      -3.185  -3.125   1.477  1.00  0.00     0.182 C 
HETATM   18  N3  UNL     1      -2.638  -2.328   2.304  1.00  0.00    -0.261 NA
BRANCH  15  19
HETATM   19  N4  UNL     1      -1.546  -0.200   2.332  1.00  0.00    -0.385 N 
HETATM   20  H11 UNL     1      -0.951   0.225   3.051  1.00  0.00     0.156 HD
BRANCH  19  21
HETATM   21  C12 UNL     1      -2.139   0.616   1.366  1.00  0.00     0.126 C 
HETATM   22  C13 UNL     1      -1.495   0.595   0.024  1.00  0.00    -0.000 C 
HETATM   23  C14 UNL     1      -1.917   0.544  -1.254  1.00  0.00    -0.002 C 
HETATM   24  C15 UNL     1      -3.276   0.486  -1.841  1.00  0.00    -0.002 C 
HETATM   25  C16 UNL     1      -4.415   1.017  -1.375  1.00  0.00     0.004 C 
HETATM   26  C17 UNL     1      -4.923   1.810  -0.250  1.00  0.00     0.140 C 
HETATM   27  C18 UNL     1      -6.413   1.515  -0.039  1.00  0.00     0.044 C 
HETATM   28  O2  UNL     1      -4.287   1.666   0.944  1.00  0.00    -0.380 OA
HETATM   29  C19 UNL     1      -3.639   0.493   1.196  1.00  0.00     0.197 C 
ENDBRANCH  19  21
ENDBRANCH  15  19
ENDBRANCH  11  12
ENDBRANCH   3   4
TORSDOF 4
