REMARK  5 active torsions:
REMARK  status: ('A' for Active; 'I' for Inactive)
REMARK    1  A    between atoms: C3_3  and  C4_4 
REMARK       I    between atoms: C4_4  and  N1_6 
REMARK    2  A    between atoms: C6_8  and  S1_23 
REMARK    3  A    between atoms: C9_11  and  C10_12 
REMARK    4  A    between atoms: C10_12  and  N2_13 
REMARK    5  A    between atoms: N2_13  and  C11_14 
ROOT
HETATM    1  C1  UNL     1      -5.883  -0.351   3.752  1.00  0.00     0.112 C 
HETATM    2  C2  UNL     1      -4.747   0.006   2.873  1.00  0.00    -0.101 C 
HETATM    3  C3  UNL     1      -3.795   0.308   2.160  1.00  0.00    -0.006 C 
ENDROOT
BRANCH   3   4
HETATM    4  C4  UNL     1      -2.687   0.664   1.358  1.00  0.00     0.299 C 
HETATM    5  O1  UNL     1      -1.781   1.378   1.897  1.00  0.00    -0.258 OA
HETATM    6  N1  UNL     1      -2.724   0.171   0.022  1.00  0.00    -0.327 N 
HETATM    7  C5  UNL     1      -3.879  -0.714  -0.595  1.00  0.00     0.173 C 
HETATM    8  C9  UNL     1      -1.655   0.426  -1.001  1.00  0.00     0.154 C 
HETATM    9  C6  UNL     1      -2.924  -1.090  -1.773  1.00  0.00     0.004 C 
HETATM   10  C7  UNL     1      -3.335  -0.343  -2.856  1.00  0.00    -0.008 C 
HETATM   11  C8  UNL     1      -2.397   0.730  -2.253  1.00  0.00     0.058 C 
BRANCH   9  12
HETATM   12  S1  UNL     1      -1.295  -1.991  -2.066  1.00  0.00    -0.065 SA
HETATM   13  C18 UNL     1       0.182  -0.715  -2.283  1.00  0.00     0.160 C 
HETATM   14  C10 UNL     1      -0.291  -0.141  -0.895  1.00  0.00     0.281 C 
HETATM   15  N4  UNL     1       0.156  -1.209  -0.108  1.00  0.00    -0.238 NA
HETATM   16  C19 UNL     1       0.354  -2.525  -0.241  1.00  0.00     0.238 C 
HETATM   17  N3  UNL     1      -0.462  -3.137  -1.374  1.00  0.00    -0.216 NA
BRANCH  14  18
HETATM   18  N2  UNL     1       0.728   0.916  -0.712  1.00  0.00     0.124 N 
HETATM   19  H10 UNL     1       0.457   1.549   0.073  1.00  0.00     0.320 HD
BRANCH  18  20
HETATM   20  C11 UNL     1       2.045   0.463  -0.456  1.00  0.00     0.247 C 
HETATM   21  C12 UNL     1       2.948   1.721  -0.497  1.00  0.00     0.041 C 
HETATM   22  C13 UNL     1       4.317   1.351  -1.009  1.00  0.00     0.029 C 
HETATM   23  C14 UNL     1       5.318   1.597   0.063  1.00  0.00    -0.028 C 
HETATM   24  C15 UNL     1       5.346   1.073   1.301  1.00  0.00    -0.005 C 
HETATM   25  C16 UNL     1       4.312   0.105   1.817  1.00  0.00     0.194 C 
HETATM   26  O2  UNL     1       3.079   0.721   1.730  1.00  0.00    -0.385 OA
HETATM   27  C17 UNL     1       2.153  -0.055   0.986  1.00  0.00     0.203 C 
ENDBRANCH  18  20
ENDBRANCH  14  18
ENDBRANCH   9  12
ENDBRANCH   3   4
TORSDOF 5
