REMARK  4 active torsions:
REMARK  status: ('A' for Active; 'I' for Inactive)
REMARK    1  A    between atoms: C3_3  and  C4_4 
REMARK       I    between atoms: C4_4  and  N1_6 
REMARK    2  A    between atoms: C11_16  and  N4_17 
REMARK    3  A    between atoms: N4_17  and  C12_18 
REMARK    4  A    between atoms: C12_18  and  C14_20 
ROOT
HETATM    1  C1  UNL     1       8.364  -1.227  -0.050  1.00  0.00     0.112 C 
HETATM    2  C2  UNL     1       7.083  -0.886   0.590  1.00  0.00    -0.101 C 
HETATM    3  C3  UNL     1       6.026  -0.593   1.102  1.00  0.00    -0.006 C 
ENDROOT
BRANCH   3   4
HETATM    4  C4  UNL     1       4.781  -0.223   1.712  1.00  0.00     0.298 C 
HETATM    5  O1  UNL     1       4.656   0.077   2.927  1.00  0.00    -0.258 OA
HETATM    6  N1  UNL     1       3.599  -0.176   0.953  1.00  0.00    -0.336 N 
HETATM    7  C5  UNL     1       2.327   0.189   1.515  1.00  0.00     0.132 C 
HETATM    8  C21 UNL     1       3.531  -0.488  -0.473  1.00  0.00     0.173 C 
HETATM    9  C6  UNL     1       1.595   1.038   0.451  1.00  0.00     0.060 C 
HETATM   10  C7  UNL     1       1.010   0.090  -0.509  1.00  0.00    -0.025 A 
HETATM   11  C8  UNL     1       2.155  -0.660  -0.922  1.00  0.00     0.010 A 
HETATM   12  C20 UNL     1      -0.180  -0.271  -1.082  1.00  0.00     0.053 A 
HETATM   13  S1  UNL     1       1.468  -1.837  -2.105  1.00  0.00    -0.072 SA
HETATM   14  C9  UNL     1      -0.198  -1.300  -1.990  1.00  0.00     0.114 A 
HETATM   15  N2  UNL     1      -1.261  -1.760  -2.625  1.00  0.00    -0.234 NA
HETATM   16  C10 UNL     1      -2.466  -1.214  -2.405  1.00  0.00     0.236 A 
HETATM   17  N3  UNL     1      -2.457  -0.219  -1.529  1.00  0.00    -0.224 NA
HETATM   18  C11 UNL     1      -1.417   0.286  -0.861  1.00  0.00     0.139 A 
BRANCH  18  19
HETATM   19  N4  UNL     1      -1.708   1.365   0.017  1.00  0.00    -0.366 N 
HETATM   20  H9  UNL     1      -1.174   1.967   0.649  1.00  0.00     0.161 HD
BRANCH  19  21
HETATM   21  C12 UNL     1      -3.051   1.857   0.159  1.00  0.00     0.112 C 
HETATM   22  C13 UNL     1      -3.627   2.419  -1.130  1.00  0.00     0.037 C 
BRANCH  21  23
HETATM   23  C14 UNL     1      -3.992   0.744   0.550  1.00  0.00    -0.036 A 
HETATM   24  C15 UNL     1      -3.420  -0.042   1.555  1.00  0.00     0.009 A 
HETATM   25  C16 UNL     1      -4.117  -1.118   2.060  1.00  0.00     0.001 A 
HETATM   26  C17 UNL     1      -5.361  -1.432   1.595  1.00  0.00     0.000 A 
HETATM   27  C18 UNL     1      -5.903  -0.644   0.605  1.00  0.00     0.001 A 
HETATM   28  C19 UNL     1      -5.241   0.437   0.075  1.00  0.00     0.009 A 
ENDBRANCH  21  23
ENDBRANCH  19  21
ENDBRANCH  18  19
ENDBRANCH   3   4
TORSDOF 4
