REMARK  4 active torsions:
REMARK  status: ('A' for Active; 'I' for Inactive)
REMARK    1  A    between atoms: C3_3  and  C4_4 
REMARK       I    between atoms: C4_4  and  N1_6 
REMARK    2  A    between atoms: C11_16  and  N4_17 
REMARK    3  A    between atoms: N4_17  and  C12_18 
REMARK    4  A    between atoms: C12_18  and  O2_19 
ROOT
HETATM    1  C1  UNL     1       6.928   0.346  -1.970  1.00  0.00     0.112 C 
HETATM    2  C2  UNL     1       6.046  -0.598  -1.318  1.00  0.00    -0.101 C 
HETATM    3  C3  UNL     1       5.323  -1.394  -0.768  1.00  0.00    -0.006 C 
ENDROOT
BRANCH   3   4
HETATM    4  C4  UNL     1       4.449  -2.334  -0.114  1.00  0.00     0.298 C 
HETATM    5  O1  UNL     1       4.954  -3.451   0.218  1.00  0.00    -0.258 OA
HETATM    6  N1  UNL     1       3.088  -1.995   0.136  1.00  0.00    -0.336 N 
HETATM    7  C5  UNL     1       2.367  -0.779  -0.175  1.00  0.00     0.132 C 
HETATM    8  C19 UNL     1       2.270  -3.020   0.810  1.00  0.00     0.173 C 
HETATM    9  C6  UNL     1       0.887  -1.145  -0.428  1.00  0.00     0.060 C 
HETATM   10  C7  UNL     1       0.273  -1.317   0.894  1.00  0.00    -0.025 A 
HETATM   11  C8  UNL     1       1.106  -2.381   1.505  1.00  0.00     0.010 A 
HETATM   12  C18 UNL     1      -0.727  -0.884   1.713  1.00  0.00     0.053 A 
HETATM   13  S1  UNL     1       0.383  -2.619   3.112  1.00  0.00    -0.072 SA
HETATM   14  C9  UNL     1      -0.885  -1.427   2.967  1.00  0.00     0.114 A 
HETATM   15  N2  UNL     1      -1.812  -1.085   3.836  1.00  0.00    -0.234 NA
HETATM   16  C10 UNL     1      -2.712  -0.136   3.544  1.00  0.00     0.236 A 
HETATM   17  N3  UNL     1      -2.564   0.387   2.345  1.00  0.00    -0.224 NA
HETATM   18  C11 UNL     1      -1.648   0.085   1.421  1.00  0.00     0.141 A 
BRANCH  18  19
HETATM   19  N4  UNL     1      -1.727   0.819   0.209  1.00  0.00    -0.339 N 
HETATM   20  H9  UNL     1      -1.215   0.871  -0.681  1.00  0.00     0.164 HD
BRANCH  19  21
HETATM   21  C12 UNL     1      -2.784   1.806   0.042  1.00  0.00     0.155 A 
HETATM   22  C13 UNL     1      -4.118   1.192   0.037  1.00  0.00     0.033 A 
HETATM   23  C14 UNL     1      -5.181   1.240  -0.749  1.00  0.00     0.000 A 
HETATM   24  C15 UNL     1      -5.036   2.118  -1.931  1.00  0.00    -0.004 A 
HETATM   25  C16 UNL     1      -3.846   2.688  -1.959  1.00  0.00    -0.022 A 
HETATM   26  C17 UNL     1      -2.619   2.698  -1.145  1.00  0.00     0.092 A 
BRANCH  21  27
HETATM   27  O2  UNL     1      -2.720   2.677   1.172  1.00  0.00    -0.367 OA
HETATM   28  H10 UNL     1      -3.611   2.800   1.549  1.00  0.00     0.213 HD
ENDBRANCH  21  27
ENDBRANCH  19  21
ENDBRANCH  18  19
ENDBRANCH   3   4
TORSDOF 4
