REMARK  5 active torsions:
REMARK  status: ('A' for Active; 'I' for Inactive)
REMARK    1  A    between atoms: C3_3  and  C4_4 
REMARK       I    between atoms: C4_4  and  N1_6 
REMARK    2  A    between atoms: C14_16  and  C15_17 
REMARK    3  A    between atoms: C15_17  and  O2_18 
REMARK    4  A    between atoms: C19_23  and  N3_24 
REMARK    5  A    between atoms: C20_25  and  S1_26 
ROOT
HETATM    1  C1  UNL     1       4.589   0.184   3.037  1.00  0.00     0.112 C 
HETATM    2  C2  UNL     1       3.172   0.507   2.687  1.00  0.00    -0.101 C 
HETATM    3  C3  UNL     1       2.048   0.767   2.386  1.00  0.00    -0.006 C 
ENDROOT
BRANCH   3   4
HETATM    4  C4  UNL     1       0.646   1.098   1.982  1.00  0.00     0.298 C 
HETATM    5  O1  UNL     1       0.335   2.207   1.472  1.00  0.00    -0.258 OA
HETATM    6  N1  UNL     1      -0.420   0.106   2.196  1.00  0.00    -0.340 N 
HETATM    7  C5  UNL     1      -0.377  -1.294   2.633  1.00  0.00     0.127 C 
HETATM    8  C21 UNL     1      -1.736   0.556   2.018  1.00  0.00     0.146 C 
HETATM    9  C6  UNL     1      -0.451  -2.130   1.488  1.00  0.00     0.025 C 
HETATM   10  C7  UNL     1       0.349  -2.563   0.396  1.00  0.00     0.041 C 
HETATM   11  C8  UNL     1       1.000  -1.432  -0.299  1.00  0.00    -0.051 A 
HETATM   12  C9  UNL     1       2.367  -1.472   0.098  1.00  0.00     0.007 A 
HETATM   13  C13 UNL     1       0.505  -0.514  -1.206  1.00  0.00    -0.041 A 
HETATM   14  C10 UNL     1       3.219  -0.556  -0.447  1.00  0.00     0.001 A 
HETATM   15  C11 UNL     1       2.920   0.429  -1.362  1.00  0.00     0.001 A 
HETATM   16  C12 UNL     1       1.521   0.350  -1.667  1.00  0.00     0.008 A 
HETATM   17  C14 UNL     1      -0.848  -0.429  -1.668  1.00  0.00     0.076 C 
HETATM   18  C16 UNL     1      -1.670   0.781  -1.544  1.00  0.00    -0.007 A 
HETATM   19  C17 UNL     1      -2.384   1.104  -0.404  1.00  0.00    -0.019 A 
HETATM   20  C19 UNL     1      -1.859   1.809  -2.643  1.00  0.00     0.369 A 
HETATM   21  C18 UNL     1      -2.981   2.342  -0.844  1.00  0.00     0.122 A 
HETATM   22  C20 UNL     1      -2.607   0.516   0.871  1.00  0.00     0.097 C 
HETATM   23  N2  UNL     1      -2.733   2.754  -2.013  1.00  0.00    -0.262 NA
BRANCH  17  24
HETATM   24  C15 UNL     1      -0.889  -0.857  -3.162  1.00  0.00     0.178 C 
BRANCH  24  25
HETATM   25  O2  UNL     1      -0.426  -2.204  -3.217  1.00  0.00    -0.400 OA
HETATM   26  H17 UNL     1      -1.177  -2.817  -2.987  1.00  0.00     0.209 HD
ENDBRANCH  24  25
ENDBRANCH  17  24
BRANCH  22  27
HETATM   27  S1  UNL     1      -4.221   1.257   1.549  1.00  0.00    -0.171 SA
HETATM   28  H23 UNL     1      -4.090   2.657   1.481  1.00  0.00     0.102 HD
ENDBRANCH  22  27
BRANCH  20  29
HETATM   29  N3  UNL     1      -0.679   2.400  -3.145  1.00  0.00     0.107 N 
HETATM   30  H20 UNL     1      -0.544   2.413  -4.149  1.00  0.00     0.316 HD
HETATM   31  H21 UNL     1      -0.479   3.332  -2.724  1.00  0.00     0.316 HD
ENDBRANCH  20  29
ENDBRANCH   3   4
TORSDOF 5
