REMARK  6 active torsions:
REMARK  status: ('A' for Active; 'I' for Inactive)
REMARK    1  A    between atoms: C2_2  and  S1_3 
REMARK    2  A    between atoms: S1_3  and  N1_6 
REMARK    3  A    between atoms: N4_17  and  C10_18 
REMARK    4  A    between atoms: C10_18  and  C11_19 
REMARK    5  A    between atoms: C10_18  and  C12_21 
REMARK    6  A    between atoms: C11_19  and  O3_20 
ROOT
HETATM    1  N1  UNL     1       3.370   0.430   0.505  1.00  0.00    -0.202 NA
HETATM    2  C3  UNL     1       2.512  -0.577   1.098  1.00  0.00     0.112 C 
HETATM    3  C4  UNL     1       1.102  -0.086   0.906  1.00  0.00     0.055 C 
HETATM    4  C5  UNL     1       0.777   0.144  -0.534  1.00  0.00    -0.010 C 
HETATM    5  C6  UNL     1       1.827   0.282  -1.336  1.00  0.00     0.020 C 
HETATM    6  C7  UNL     1       3.255   0.228  -0.928  1.00  0.00     0.155 C 
HETATM    7  S2  UNL     1       1.052   0.544  -2.959  1.00  0.00    -0.012 SA
HETATM    8  N2  UNL     1      -0.455   1.182  -2.289  1.00  0.00    -0.275 N 
HETATM    9  C8  UNL     1      -1.439   2.215  -2.525  1.00  0.00     0.214 C 
HETATM   10  N3  UNL     1      -1.884   2.785  -1.426  1.00  0.00    -0.254 NA
HETATM   11  C9  UNL     1      -1.276   2.240  -0.220  1.00  0.00     0.425 C 
HETATM   12  N4  UNL     1      -1.488   0.818  -0.222  1.00  0.00     0.143 N 
HETATM   13  C17 UNL     1      -0.547   0.232  -1.168  1.00  0.00     0.369 C 
ENDROOT
BRANCH  12  14
HETATM   14  C10 UNL     1      -2.828   0.484  -0.469  1.00  0.00     0.262 C 
BRANCH  14  15
HETATM   15  C11 UNL     1      -3.857   0.958   0.517  1.00  0.00     0.201 C 
BRANCH  15  16
HETATM   16  O3  UNL     1      -3.948   2.335   0.638  1.00  0.00    -0.399 OA
HETATM   17  H16 UNL     1      -4.866   2.608   0.886  1.00  0.00     0.209 HD
ENDBRANCH  15  16
ENDBRANCH  14  15
BRANCH  14  18
HETATM   18  C12 UNL     1      -3.068  -1.009  -0.634  1.00  0.00     0.066 A 
HETATM   19  C13 UNL     1      -2.679  -1.782   0.567  1.00  0.00    -0.016 A 
HETATM   20  C14 UNL     1      -3.740  -2.319   1.173  1.00  0.00    -0.004 A 
HETATM   21  C15 UNL     1      -4.934  -1.948   0.424  1.00  0.00    -0.004 A 
HETATM   22  C16 UNL     1      -4.564  -1.203  -0.606  1.00  0.00    -0.016 A 
ENDBRANCH  14  18
ENDBRANCH  12  14
BRANCH   1  23
HETATM   23  S1  UNL     1       5.018   0.215   0.942  1.00  0.00     0.233 S 
HETATM   24  O1  UNL     1       5.795   1.291   0.197  1.00  0.00    -0.207 OA
HETATM   25  O2  UNL     1       5.258   0.408   2.398  1.00  0.00    -0.207 OA
BRANCH  23  26
HETATM   26  C2  UNL     1       5.668  -1.320   0.398  1.00  0.00     0.115 C 
HETATM   27  C1  UNL     1       6.916  -1.419  -0.087  1.00  0.00     0.024 C 
ENDBRANCH  23  26
ENDBRANCH   1  23
TORSDOF 6
