REMARK  4 active torsions:
REMARK  status: ('A' for Active; 'I' for Inactive)
REMARK    1  A    between atoms: C2_2  and  S1_3 
REMARK    2  A    between atoms: S1_3  and  N1_6 
REMARK    3  A    between atoms: C11_19  and  C12_20 
REMARK    4  A    between atoms: C18_26  and  O3_27 
ROOT
HETATM    1  N1  UNL     1       3.428   0.234  -0.016  1.00  0.00    -0.202 NA
HETATM    2  C3  UNL     1       3.058  -1.149  -0.018  1.00  0.00     0.112 C 
HETATM    3  C4  UNL     1       1.570  -1.367  -0.127  1.00  0.00     0.051 C 
HETATM    4  C5  UNL     1       0.820  -0.416   0.770  1.00  0.00    -0.062 C 
HETATM    5  C6  UNL     1       1.244   0.838   0.625  1.00  0.00    -0.004 C 
HETATM    6  C7  UNL     1       2.342   1.120  -0.350  1.00  0.00     0.153 C 
HETATM    7  S2  UNL     1       0.567   2.211   1.552  1.00  0.00    -0.108 SA
HETATM    8  C8  UNL     1       1.094   3.788   0.936  1.00  0.00     0.309 C 
HETATM    9  N2  UNL     1       0.628   3.858  -0.284  1.00  0.00    -0.289 NA
HETATM   10  C9  UNL     1      -0.134   2.749  -0.807  1.00  0.00     0.164 C 
HETATM   11  N3  UNL     1      -1.083   1.934  -0.529  1.00  0.00    -0.272 NA
HETATM   12  C10 UNL     1      -1.527   0.913  -1.444  1.00  0.00     0.266 C 
HETATM   13  N4  UNL     1      -1.363  -0.419  -1.086  1.00  0.00    -0.394 N 
HETATM   14  C11 UNL     1      -2.004  -1.047  -0.025  1.00  0.00     0.140 C 
HETATM   15  C18 UNL     1      -1.640  -0.547   1.320  1.00  0.00     0.149 C 
HETATM   16  C19 UNL     1      -0.222  -0.923   1.679  1.00  0.00     0.069 C 
HETATM   17  H14 UNL     1      -1.171  -1.008  -1.928  1.00  0.00     0.155 HD
ENDROOT
BRANCH  14  18
HETATM   18  C12 UNL     1      -3.473  -1.235  -0.202  1.00  0.00    -0.033 A 
HETATM   19  C13 UNL     1      -3.704  -1.675  -1.515  1.00  0.00     0.009 A 
HETATM   20  C14 UNL     1      -5.005  -1.936  -1.961  1.00  0.00     0.001 A 
HETATM   21  C15 UNL     1      -6.079  -1.763  -1.114  1.00  0.00     0.000 A 
HETATM   22  C16 UNL     1      -5.826  -1.330   0.170  1.00  0.00     0.001 A 
HETATM   23  C17 UNL     1      -4.556  -1.067   0.631  1.00  0.00     0.009 A 
ENDBRANCH  14  18
BRANCH  15  24
HETATM   24  O3  UNL     1      -1.853   0.761   1.618  1.00  0.00    -0.393 OA
HETATM   25  H22 UNL     1      -2.743   1.124   1.567  1.00  0.00     0.210 HD
ENDBRANCH  15  24
BRANCH   1  26
HETATM   26  S1  UNL     1       4.316   0.718   1.351  1.00  0.00     0.233 S 
HETATM   27  O1  UNL     1       4.614   2.185   1.245  1.00  0.00    -0.207 OA
HETATM   28  O2  UNL     1       3.572   0.512   2.637  1.00  0.00    -0.207 OA
BRANCH  26  29
HETATM   29  C2  UNL     1       5.828  -0.147   1.465  1.00  0.00     0.115 C 
HETATM   30  C1  UNL     1       6.882   0.391   0.819  1.00  0.00     0.024 C 
ENDBRANCH  26  29
ENDBRANCH   1  26
TORSDOF 4
