REMARK  7 active torsions:
REMARK  status: ('A' for Active; 'I' for Inactive)
REMARK    1  A    between atoms: C4_4  and  C5_5 
REMARK    2  A    between atoms: C5_5  and  C6_6 
REMARK    3  A    between atoms: C6_6  and  C7_7 
REMARK    4  A    between atoms: C6_6  and  N1_9 
REMARK    5  A    between atoms: C7_7  and  O1_8 
REMARK    6  A    between atoms: N1_9  and  C8_10 
REMARK       I    between atoms: N4_18  and  C14_19 
REMARK    7  A    between atoms: C14_19  and  C15_21 
ROOT
HETATM    1  C1  UNL     1      -8.673   0.870   1.205  1.00  0.00     0.017 C 
HETATM    2  C2  UNL     1      -7.573   0.413   1.035  1.00  0.00    -0.090 C 
HETATM    3  C3  UNL     1      -6.247  -0.113   0.822  1.00  0.00     0.059 C 
HETATM    4  C4  UNL     1      -5.583  -0.097  -0.347  1.00  0.00    -0.016 C 
ENDROOT
BRANCH   4   5
HETATM    5  C5  UNL     1      -4.228  -0.682  -0.387  1.00  0.00     0.065 C 
BRANCH   5   6
HETATM    6  C6  UNL     1      -3.233   0.391  -0.801  1.00  0.00     0.250 C 
BRANCH   6   7
HETATM    7  C7  UNL     1      -3.590   0.898  -2.146  1.00  0.00     0.200 C 
BRANCH   7   8
HETATM    8  O1  UNL     1      -2.870   1.974  -2.611  1.00  0.00    -0.399 OA
HETATM    9  H9  UNL     1      -3.181   2.812  -2.168  1.00  0.00     0.209 HD
ENDBRANCH   7   8
ENDBRANCH   6   7
BRANCH   6  10
HETATM   10  N1  UNL     1      -1.911  -0.098  -0.612  1.00  0.00     0.121 N 
HETATM   11  H10 UNL     1      -1.772  -1.020  -1.079  1.00  0.00     0.319 HD
BRANCH  10  12
HETATM   12  C8  UNL     1      -0.928   0.820  -1.031  1.00  0.00     0.400 A 
HETATM   13  N2  UNL     1      -0.641   0.681  -2.495  1.00  0.00    -0.233 NA
HETATM   14  C9  UNL     1       0.594   0.251  -2.688  1.00  0.00     0.373 A 
HETATM   15  N3  UNL     1       1.399   0.045  -1.564  1.00  0.00     0.081 N 
HETATM   16  S1  UNL     1       2.337  -0.326  -2.476  1.00  0.00     0.099 SA
HETATM   17  C10 UNL     1       0.464   0.416  -0.655  1.00  0.00     0.192 A 
HETATM   18  C12 UNL     1       2.479  -0.218  -0.692  1.00  0.00     0.260 A 
HETATM   19  C11 UNL     1       1.567   0.146   0.215  1.00  0.00     0.009 A 
HETATM   20  C19 UNL     1       1.245   0.370   1.655  1.00  0.00     0.060 C 
HETATM   21  C18 UNL     1       2.552  -0.044   2.350  1.00  0.00     0.131 C 
HETATM   22  N4  UNL     1       3.595  -0.371   1.378  1.00  0.00    -0.337 N 
HETATM   23  C13 UNL     1       3.790  -0.579  -0.073  1.00  0.00     0.185 C 
HETATM   24  C14 UNL     1       4.827  -0.539   2.130  1.00  0.00     0.298 C 
HETATM   25  O2  UNL     1       5.028  -0.435   3.393  1.00  0.00    -0.258 OA
BRANCH  24  26
HETATM   26  C15 UNL     1       6.085  -0.874   1.470  1.00  0.00    -0.006 C 
HETATM   27  C16 UNL     1       7.124  -1.139   0.906  1.00  0.00    -0.101 C 
HETATM   28  C17 UNL     1       8.375  -1.450   0.203  1.00  0.00     0.112 C 
ENDBRANCH  24  26
ENDBRANCH  10  12
ENDBRANCH   6  10
ENDBRANCH   5   6
ENDBRANCH   4   5
TORSDOF 7
