REMARK  5 active torsions:
REMARK  status: ('A' for Active; 'I' for Inactive)
REMARK    1  A    between atoms: C2_2  and  S1_3 
REMARK    2  A    between atoms: S1_3  and  N1_5 
REMARK    3  A    between atoms: C9_15  and  O2_16 
REMARK    4  A    between atoms: O2_16  and  C10_17 
REMARK    5  A    between atoms: C10_17  and  C11_18 
ROOT
HETATM    1  N1  UNL     1       2.746   0.645  -0.811  1.00  0.00    -0.225 NA
HETATM    2  C3  UNL     1       1.657   1.173   0.027  1.00  0.00     0.110 C 
HETATM    3  C4  UNL     1       0.398   0.551  -0.521  1.00  0.00     0.056 C 
HETATM    4  C5  UNL     1       0.407  -0.889  -0.161  1.00  0.00    -0.025 A 
HETATM    5  C6  UNL     1       1.676  -1.345  -0.101  1.00  0.00     0.006 A 
HETATM    6  S2  UNL     1       1.585  -3.097   0.343  1.00  0.00    -0.072 SA
HETATM    7  C7  UNL     1      -0.298  -3.058   0.413  1.00  0.00     0.114 A 
HETATM    8  N2  UNL     1      -1.231  -4.042   0.699  1.00  0.00    -0.234 NA
HETATM    9  C8  UNL     1      -2.521  -3.735   0.677  1.00  0.00     0.237 A 
HETATM   10  N3  UNL     1      -2.857  -2.485   0.377  1.00  0.00    -0.217 NA
HETATM   11  C9  UNL     1      -1.988  -1.535   0.102  1.00  0.00     0.179 A 
HETATM   12  C13 UNL     1      -0.633  -1.733   0.095  1.00  0.00     0.060 A 
HETATM   13  C14 UNL     1       2.957  -0.689  -0.319  1.00  0.00     0.152 C 
ENDROOT
BRANCH  11  14
HETATM   14  O2  UNL     1      -2.489  -0.277  -0.192  1.00  0.00    -0.326 OA
BRANCH  14  15
HETATM   15  C10 UNL     1      -3.849   0.038  -0.213  1.00  0.00     0.255 C 
BRANCH  15  16
HETATM   16  C11 UNL     1      -4.034   1.461  -0.563  1.00  0.00     0.147 C 
HETATM   17  C12 UNL     1      -5.377   2.055  -0.654  1.00  0.00     0.093 C 
HETATM   18  O3  UNL     1      -2.951   2.021  -0.749  1.00  0.00    -0.296 OA
ENDBRANCH  15  16
ENDBRANCH  14  15
ENDBRANCH  11  14
BRANCH   1  19
HETATM   19  S1  UNL     1       4.161   1.637  -0.689  1.00  0.00     0.116 S 
HETATM   20  O1  UNL     1       4.951   1.559  -1.989  1.00  0.00    -0.236 OA
BRANCH  19  21
HETATM   21  C2  UNL     1       5.110   1.110   0.712  1.00  0.00     0.085 C 
HETATM   22  C1  UNL     1       5.186   1.815   1.826  1.00  0.00     0.022 C 
ENDBRANCH  19  21
ENDBRANCH   1  19
TORSDOF 5
