REMARK  2 active torsions:
REMARK  status: ('A' for Active; 'I' for Inactive)
REMARK    1  A    between atoms: N1_5  and  C5_6 
REMARK    2  A    between atoms: C12_16  and  N3_17 
ROOT
HETATM    1  C5  UNL     1      -0.466  -0.116  -0.336  1.00  0.00     0.117 C 
HETATM    2  C6  UNL     1      -0.433  -1.008   0.690  1.00  0.00     0.166 C 
HETATM    3  N2  UNL     1       0.557  -1.752   1.441  1.00  0.00    -0.244 NA
HETATM    4  C7  UNL     1       0.874  -1.349   2.644  1.00  0.00     0.267 C 
HETATM    5  O1  UNL     1       1.857  -2.149   3.283  1.00  0.00    -0.272 OA
HETATM    6  S1  UNL     1       3.138  -1.401   4.203  1.00  0.00    -0.000 SA
HETATM    7  C8  UNL     1       3.987  -0.136   3.185  1.00  0.00     0.132 C 
HETATM    8  C9  UNL     1       4.717  -0.848   2.120  1.00  0.00    -0.014 C 
HETATM    9  C10 UNL     1       4.679  -0.916   0.841  1.00  0.00    -0.001 C 
HETATM   10  C11 UNL     1       4.529  -0.900  -0.580  1.00  0.00     0.024 C 
HETATM   11  C12 UNL     1       3.605  -0.178  -1.168  1.00  0.00     0.004 C 
HETATM   12  C13 UNL     1       2.830   0.359  -2.312  1.00  0.00     0.076 C 
HETATM   13  C14 UNL     1       1.400  -0.209  -2.133  1.00  0.00     0.127 C 
HETATM   14  N4  UNL     1       0.746   0.321  -0.960  1.00  0.00    -0.375 N 
HETATM   15  H20 UNL     1       0.793   1.062  -0.239  1.00  0.00     0.161 HD
ENDROOT
BRANCH   1  16
HETATM   16  N1  UNL     1      -1.793   0.321  -0.695  1.00  0.00    -0.358 N 
HETATM   17  C4  UNL     1      -2.035   1.748  -0.697  1.00  0.00     0.152 C 
HETATM   18  C3  UNL     1      -3.355   2.036  -0.091  1.00  0.00    -0.005 C 
HETATM   19  C2  UNL     1      -4.280   1.117   0.058  1.00  0.00    -0.084 C 
HETATM   20  C1  UNL     1      -5.593   1.502   0.683  1.00  0.00     0.043 C 
HETATM   21  C17 UNL     1      -4.146  -0.325  -0.348  1.00  0.00     0.058 C 
HETATM   22  C15 UNL     1      -2.855  -0.603  -1.043  1.00  0.00     0.086 C 
HETATM   23  C16 UNL     1      -3.094  -0.548  -2.543  1.00  0.00     0.032 C 
ENDBRANCH   1  16
BRANCH  11  24
HETATM   24  N3  UNL     1       3.180   0.277   0.093  1.00  0.00    -0.402 N 
HETATM   25  H14 UNL     1       2.506  -0.025   0.767  1.00  0.00     0.156 HD
HETATM   26  H15 UNL     1       3.548   1.138   0.602  1.00  0.00     0.156 HD
ENDBRANCH  11  24
TORSDOF 2
