REMARK  8 active torsions:
REMARK  status: ('A' for Active; 'I' for Inactive)
REMARK    1  A    between atoms: C2_2  and  S1_3 
REMARK    2  A    between atoms: S1_3  and  N1_6 
REMARK    3  A    between atoms: N1_6  and  C3_7 
REMARK    4  A    between atoms: N1_6  and  C5_10 
REMARK    5  A    between atoms: C3_7  and  C4_8 
REMARK    6  A    between atoms: C4_8  and  O3_9 
REMARK    7  A    between atoms: C5_10  and  C6_11 
REMARK    8  A    between atoms: N2_22  and  C17_23 
ROOT
HETATM    1  C6  UNL     1      -0.500   0.223   0.269  1.00  0.00    -0.000 A 
HETATM    2  C7  UNL     1       0.597  -0.459   0.560  1.00  0.00     0.031 A 
HETATM    3  C8  UNL     1       1.869   0.143   0.210  1.00  0.00     0.013 A 
HETATM    4  C9  UNL     1       3.048  -0.414   0.436  1.00  0.00    -0.001 A 
HETATM    5  C10 UNL     1       3.884  -1.525   0.951  1.00  0.00    -0.013 A 
HETATM    6  C11 UNL     1       4.586  -2.617   1.461  1.00  0.00     0.013 A 
HETATM    7  C12 UNL     1       5.964  -2.582   1.385  1.00  0.00     0.001 A 
HETATM    8  C13 UNL     1       6.621  -1.492   0.818  1.00  0.00     0.001 A 
HETATM    9  C14 UNL     1       5.879  -0.434   0.326  1.00  0.00     0.013 A 
HETATM   10  C15 UNL     1       4.503  -0.451   0.392  1.00  0.00    -0.013 A 
HETATM   11  C16 UNL     1       1.760   1.450  -0.431  1.00  0.00     0.110 A 
HETATM   12  N2  UNL     1       2.666   2.233  -0.858  1.00  0.00    -0.235 NA
HETATM   13  S2  UNL     1      -0.003   1.761  -0.507  1.00  0.00    -0.073 SA
ENDROOT
BRANCH   1  14
HETATM   14  C5  UNL     1      -1.907  -0.224   0.548  1.00  0.00     0.153 C 
BRANCH  14  15
HETATM   15  N1  UNL     1      -2.711  -0.344  -0.627  1.00  0.00    -0.201 NA
BRANCH  15  16
HETATM   16  S1  UNL     1      -3.613   1.097  -0.859  1.00  0.00     0.233 S 
HETATM   17  O1  UNL     1      -2.709   2.312  -1.029  1.00  0.00    -0.207 OA
HETATM   18  O2  UNL     1      -4.445   1.019  -2.082  1.00  0.00    -0.207 OA
BRANCH  16  19
HETATM   19  C2  UNL     1      -4.612   1.442   0.566  1.00  0.00     0.115 C 
HETATM   20  C1  UNL     1      -4.119   2.207   1.523  1.00  0.00     0.024 C 
ENDBRANCH  16  19
ENDBRANCH  15  16
BRANCH  15  21
HETATM   21  C3  UNL     1      -3.606  -1.458  -0.443  1.00  0.00     0.134 C 
BRANCH  21  22
HETATM   22  C4  UNL     1      -3.871  -2.276  -1.656  1.00  0.00     0.179 C 
BRANCH  22  23
HETATM   23  O3  UNL     1      -4.438  -1.493  -2.642  1.00  0.00    -0.400 OA
HETATM   24  H8  UNL     1      -4.873  -2.073  -3.311  1.00  0.00     0.209 HD
ENDBRANCH  22  23
ENDBRANCH  21  22
ENDBRANCH  15  21
ENDBRANCH  14  15
ENDBRANCH   1  14
BRANCH  12  25
HETATM   25  C17 UNL     1       2.337   3.493  -1.466  1.00  0.00     0.224 C 
HETATM   26  N3  UNL     1       1.955   4.176  -0.446  1.00  0.00    -0.293 NA
HETATM   27  H17 UNL     1       1.629   5.171  -0.487  1.00  0.00     0.187 HD
ENDBRANCH  12  25
TORSDOF 8
