REMARK  5 active torsions:
REMARK  status: ('A' for Active; 'I' for Inactive)
REMARK    1  A    between atoms: C2_2  and  C3_3 
REMARK       I    between atoms: C3_3  and  N1_5 
REMARK    2  A    between atoms: N2_12  and  C9_13 
REMARK    3  A    between atoms: C9_13  and  C10_14 
REMARK    4  A    between atoms: C9_13  and  C11_16 
REMARK    5  A    between atoms: C10_14  and  O2_15 
ROOT
HETATM    1  C3  UNL     1       3.106   2.092  -0.503  1.00  0.00     0.242 C 
HETATM    2  O1  UNL     1       2.373   3.111  -0.451  1.00  0.00    -0.268 OA
HETATM    3  N1  UNL     1       2.613   0.779  -0.367  1.00  0.00    -0.344 N 
HETATM    4  C4  UNL     1       3.436  -0.415  -0.421  1.00  0.00     0.136 C 
HETATM    5  C5  UNL     1       3.670  -0.844   1.013  1.00  0.00     0.093 C 
HETATM    6  S1  UNL     1       2.082  -1.395   1.653  1.00  0.00    -0.148 SA
HETATM    7  C6  UNL     1       0.951  -0.525   0.879  1.00  0.00    -0.002 C 
HETATM    8  C7  UNL     1       1.221   0.523  -0.159  1.00  0.00     0.168 C 
HETATM    9  C8  UNL     1      -0.529  -0.585   1.042  1.00  0.00     0.318 C 
HETATM   10  N2  UNL     1      -1.084  -0.908  -0.285  1.00  0.00     0.123 N 
HETATM   11  C17 UNL     1      -0.590  -2.247  -0.569  1.00  0.00     0.423 C 
HETATM   12  N3  UNL     1      -1.068  -3.190   0.419  1.00  0.00    -0.253 NA
HETATM   13  C18 UNL     1      -0.202  -3.932   1.016  1.00  0.00     0.228 C 
HETATM   14  N4  UNL     1       1.203  -4.157   1.033  1.00  0.00    -0.248 NA
HETATM   15  C19 UNL     1       1.930  -3.125   1.282  1.00  0.00     0.157 C 
ENDROOT
BRANCH  10  16
HETATM   16  C9  UNL     1      -2.522  -0.919  -0.079  1.00  0.00     0.281 C 
BRANCH  16  17
HETATM   17  C10 UNL     1      -3.298  -1.231  -1.338  1.00  0.00     0.204 C 
BRANCH  17  18
HETATM   18  O2  UNL     1      -4.660  -1.202  -0.967  1.00  0.00    -0.398 OA
HETATM   19  H15 UNL     1      -4.774  -1.432  -0.013  1.00  0.00     0.209 HD
ENDBRANCH  17  18
ENDBRANCH  16  17
BRANCH  16  20
HETATM   20  C11 UNL     1      -2.894   0.451   0.365  1.00  0.00    -0.023 A 
HETATM   21  C12 UNL     1      -3.752   0.758   1.414  1.00  0.00     0.009 A 
HETATM   22  C13 UNL     1      -4.016   2.074   1.727  1.00  0.00     0.001 A 
HETATM   23  C14 UNL     1      -3.457   3.123   1.033  1.00  0.00     0.000 A 
HETATM   24  C15 UNL     1      -2.593   2.829  -0.023  1.00  0.00     0.001 A 
HETATM   25  C16 UNL     1      -2.321   1.512  -0.346  1.00  0.00     0.009 A 
ENDBRANCH  16  20
ENDBRANCH  10  16
BRANCH   1  26
HETATM   26  C2  UNL     1       4.497   2.423  -0.715  1.00  0.00     0.064 C 
HETATM   27  C1  UNL     1       4.529   3.749  -0.787  1.00  0.00     0.017 C 
ENDBRANCH   1  26
TORSDOF 5
