REMARK  7 active torsions:
REMARK  status: ('A' for Active; 'I' for Inactive)
REMARK    1  A    between atoms: C2_2  and  C3_3 
REMARK       I    between atoms: C3_3  and  N1_5 
REMARK    2  A    between atoms: N1_5  and  C5_7 
REMARK    3  A    between atoms: C5_7  and  C6_8 
REMARK    4  A    between atoms: C6_8  and  C7_9 
REMARK    5  A    between atoms: N4_15  and  O2_16 
REMARK    6  A    between atoms: O2_16  and  C11_17 
REMARK    7  A    between atoms: C11_17  and  C13_19 
ROOT
HETATM    1  C7  UNL     1      -1.210   0.825   0.965  1.00  0.00    -0.052 C 
HETATM    2  C8  UNL     1      -0.894   2.091   1.281  1.00  0.00     0.026 C 
HETATM    3  C9  UNL     1       0.238   2.451   2.101  1.00  0.00     0.138 C 
HETATM    4  N2  UNL     1       1.245   2.698   2.827  1.00  0.00    -0.191 NA
HETATM    5  N3  UNL     1       2.149   1.828   3.410  1.00  0.00    -0.297 N 
HETATM    6  C10 UNL     1       2.084   0.465   3.973  1.00  0.00     0.294 C 
HETATM    7  N4  UNL     1       1.668  -0.352   2.781  1.00  0.00    -0.049 NA
HETATM    8  O3  UNL     1       0.717   0.347   2.172  1.00  0.00    -0.273 OA
HETATM    9  C18 UNL     1      -0.272  -0.252   1.486  1.00  0.00     0.231 C 
HETATM   10  H13 UNL     1       2.828   2.627   3.232  1.00  0.00     0.183 HD
ENDROOT
BRANCH   1  11
HETATM   11  C6  UNL     1      -2.386   0.549   0.125  1.00  0.00     0.056 C 
BRANCH  11  12
HETATM   12  C5  UNL     1      -1.864  -0.173  -1.119  1.00  0.00     0.130 C 
BRANCH  12  13
HETATM   13  N1  UNL     1      -3.002  -0.451  -1.954  1.00  0.00    -0.353 N 
HETATM   14  C3  UNL     1      -3.410   0.501  -2.933  1.00  0.00     0.242 C 
HETATM   15  O1  UNL     1      -2.872   1.609  -3.168  1.00  0.00    -0.268 OA
HETATM   16  C4  UNL     1      -3.703  -1.715  -1.762  1.00  0.00     0.152 C 
BRANCH  14  17
HETATM   17  C2  UNL     1      -4.560   0.227  -3.782  1.00  0.00     0.064 C 
HETATM   18  C1  UNL     1      -4.854   1.193  -4.667  1.00  0.00     0.017 C 
ENDBRANCH  14  17
ENDBRANCH  12  13
ENDBRANCH  11  12
ENDBRANCH   1  11
BRANCH   7  19
HETATM   19  O2  UNL     1       2.784  -0.214   1.975  1.00  0.00    -0.268 OA
BRANCH  19  20
HETATM   20  C11 UNL     1       2.999  -1.286   1.153  1.00  0.00     0.178 C 
HETATM   21  C12 UNL     1       4.173  -2.141   1.608  1.00  0.00     0.047 C 
BRANCH  20  22
HETATM   22  C13 UNL     1       3.176  -0.982  -0.268  1.00  0.00    -0.017 A 
HETATM   23  C14 UNL     1       4.165  -1.388  -1.050  1.00  0.00    -0.016 A 
HETATM   24  C15 UNL     1       4.059  -1.035  -2.303  1.00  0.00     0.013 A 
HETATM   25  C16 UNL     1       2.868  -0.200  -2.429  1.00  0.00     0.002 A 
HETATM   26  C17 UNL     1       2.376  -0.195  -1.202  1.00  0.00     0.011 A 
ENDBRANCH  20  22
ENDBRANCH  19  20
ENDBRANCH   7  19
TORSDOF 7
