REMARK  1 active torsions:
REMARK  status: ('A' for Active; 'I' for Inactive)
REMARK    1  A    between atoms: N1_1  and  C1_2 
ROOT
HETATM    1  C1  UNL     1       3.831  -0.123  -0.706  1.00  0.00     0.022 C 
HETATM    2  C2  UNL     1       3.044   0.901  -0.919  1.00  0.00     0.008 C 
HETATM    3  C3  UNL     1       1.732   1.504  -0.886  1.00  0.00     0.056 C 
HETATM    4  C4  UNL     1       0.782   2.264  -0.987  1.00  0.00     0.076 C 
HETATM    5  C5  UNL     1      -0.069   1.415  -0.465  1.00  0.00    -0.080 C 
HETATM    6  P1  UNL     1      -0.993   0.498   0.128  1.00  0.00    -0.025 P 
HETATM    7  N2  UNL     1      -1.481   0.009   0.428  1.00  0.00    -0.360 N 
HETATM    8  C6  UNL     1      -2.732   0.780   0.302  1.00  0.00     0.103 A 
HETATM    9  C7  UNL     1      -2.899   1.847   1.144  1.00  0.00     0.014 A 
HETATM   10  C8  UNL     1      -4.092   2.600   1.137  1.00  0.00     0.000 A 
HETATM   11  C9  UNL     1      -4.966   2.091   0.204  1.00  0.00     0.019 A 
HETATM   12  C10 UNL     1      -4.922   1.053  -0.683  1.00  0.00     0.010 A 
HETATM   13 BR1  UNL     1      -6.295   0.560  -1.895  1.00  0.00    -0.051 Br
HETATM   14  C11 UNL     1      -3.738   0.397  -0.599  1.00  0.00     0.033 A 
HETATM   15  C12 UNL     1      -0.475  -0.996   0.690  1.00  0.00     0.199 A 
HETATM   16  C13 UNL     1      -0.480  -2.345   0.701  1.00  0.00     0.087 C 
HETATM   17  N3  UNL     1       0.917  -2.599   1.049  1.00  0.00    -0.415 N 
HETATM   18  C14 UNL     1       1.670  -2.338  -0.146  1.00  0.00     0.141 C 
HETATM   19  C15 UNL     1       3.102  -2.534  -0.107  1.00  0.00    -0.006 C 
HETATM   20  C16 UNL     1       3.894  -1.519  -0.366  1.00  0.00     0.026 C 
HETATM   21  H6  UNL     1      -2.543  -1.021   1.165  1.00  0.00     0.077 HD
HETATM   22  H13 UNL     1       1.521  -2.890   1.837  1.00  0.00     0.153 HD
ENDROOT
BRANCH   1  23
HETATM   23  N1  UNL     1       5.220   0.151  -1.043  1.00  0.00    -0.399 N 
HETATM   24  H1  UNL     1       5.945   0.045  -1.782  1.00  0.00     0.156 HD
HETATM   25  H2  UNL     1       5.664   0.647  -0.222  1.00  0.00     0.156 HD
ENDBRANCH   1  23
TORSDOF 1
