REMARK  6 active torsions:
REMARK  status: ('A' for Active; 'I' for Inactive)
REMARK    1  A    between atoms: C2_2  and  C3_3 
REMARK       I    between atoms: C3_3  and  N1_5 
REMARK    2  A    between atoms: C10_15  and  N4_16 
REMARK    3  A    between atoms: N4_16  and  C11_17 
REMARK    4  A    between atoms: C11_17  and  C12_18 
REMARK    5  A    between atoms: C11_17  and  C13_20 
REMARK    6  A    between atoms: C12_18  and  O2_19 
ROOT
HETATM    1  C3  UNL     1       5.284  -0.695  -0.030  1.00  0.00     0.239 C 
HETATM    2  O1  UNL     1       6.300  -0.453  -0.721  1.00  0.00    -0.269 OA
HETATM    3  N1  UNL     1       4.012  -0.194  -0.381  1.00  0.00    -0.344 N 
HETATM    4  C4  UNL     1       2.775  -0.385   0.305  1.00  0.00     0.131 C 
HETATM    5  C5  UNL     1       1.588  -0.391  -0.693  1.00  0.00     0.060 C 
HETATM    6  C6  UNL     1       1.381   1.023  -1.049  1.00  0.00    -0.025 A 
HETATM    7  C7  UNL     1       2.640   1.456  -1.491  1.00  0.00     0.010 A 
HETATM    8  S1  UNL     1       2.410   3.153  -1.916  1.00  0.00    -0.072 SA
HETATM    9  C8  UNL     1       0.675   3.214  -1.493  1.00  0.00     0.114 A 
HETATM   10  N2  UNL     1      -0.213   4.290  -1.577  1.00  0.00    -0.234 NA
HETATM   11  C9  UNL     1      -1.477   4.075  -1.198  1.00  0.00     0.236 A 
HETATM   12  N3  UNL     1      -1.762   2.861  -0.781  1.00  0.00    -0.224 NA
HETATM   13  C10 UNL     1      -0.963   1.797  -0.679  1.00  0.00     0.139 A 
HETATM   14  C19 UNL     1       0.353   1.909  -1.040  1.00  0.00     0.053 A 
HETATM   15  C20 UNL     1       3.857   0.623  -1.566  1.00  0.00     0.172 C 
ENDROOT
BRANCH  13  16
HETATM   16  N4  UNL     1      -1.545   0.596  -0.203  1.00  0.00    -0.363 N 
HETATM   17  H9  UNL     1      -1.257  -0.350  -0.022  1.00  0.00     0.162 HD
BRANCH  16  18
HETATM   18  C11 UNL     1      -2.947   0.568   0.157  1.00  0.00     0.140 C 
BRANCH  18  19
HETATM   19  C12 UNL     1      -3.872   0.842  -1.007  1.00  0.00     0.194 C 
BRANCH  19  20
HETATM   20  O2  UNL     1      -5.178   0.779  -0.507  1.00  0.00    -0.399 OA
HETATM   21  H13 UNL     1      -5.783   1.218  -1.163  1.00  0.00     0.209 HD
ENDBRANCH  19  20
ENDBRANCH  18  19
BRANCH  18  22
HETATM   22  C13 UNL     1      -3.406  -0.684   0.787  1.00  0.00    -0.034 A 
HETATM   23  C14 UNL     1      -2.990  -1.867   0.202  1.00  0.00     0.009 A 
HETATM   24  C15 UNL     1      -3.361  -3.094   0.711  1.00  0.00     0.001 A 
HETATM   25  C16 UNL     1      -4.168  -3.197   1.831  1.00  0.00     0.000 A 
HETATM   26  C17 UNL     1      -4.584  -2.010   2.416  1.00  0.00     0.001 A 
HETATM   27  C18 UNL     1      -4.216  -0.775   1.912  1.00  0.00     0.009 A 
ENDBRANCH  18  22
ENDBRANCH  16  18
ENDBRANCH  13  16
BRANCH   1  28
HETATM   28  C2  UNL     1       5.515  -1.515   1.136  1.00  0.00     0.048 C 
HETATM   29  C1  UNL     1       6.779  -1.532   0.757  1.00  0.00     0.037 C 
ENDBRANCH   1  28
TORSDOF 6
