REMARK  6 active torsions:
REMARK  status: ('A' for Active; 'I' for Inactive)
REMARK    1  A    between atoms: C2_2  and  C3_3 
REMARK    2  A    between atoms: C4_4  and  C5_5 
REMARK    3  A    between atoms: C5_5  and  N1_6 
REMARK       I    between atoms: N1_6  and  C6_7 
REMARK    4  A    between atoms: C10_15  and  N4_16 
REMARK    5  A    between atoms: N4_16  and  C11_17 
REMARK    6  A    between atoms: C11_17  and  C13_19 
ROOT
HETATM    1  C3  UNL     1       1.427  -1.128  -0.288  1.00  0.00    -0.005 A 
HETATM    2  C4  UNL     1       2.658  -1.576  -0.803  1.00  0.00     0.014 A 
HETATM    3  S1  UNL     1       2.696  -3.256  -0.261  1.00  0.00    -0.071 SA
HETATM    4  C8  UNL     1       1.144  -3.285   0.580  1.00  0.00     0.114 A 
HETATM    5  N2  UNL     1       0.277  -4.108   1.258  1.00  0.00    -0.234 NA
HETATM    6  C9  UNL     1      -0.888  -3.576   1.647  1.00  0.00     0.236 A 
HETATM    7  N3  UNL     1      -1.120  -2.335   1.363  1.00  0.00    -0.224 NA
HETATM    8  C10 UNL     1      -0.400  -1.300   0.690  1.00  0.00     0.139 A 
HETATM    9  C19 UNL     1       0.623  -2.069   0.449  1.00  0.00     0.057 A 
ENDROOT
BRANCH   8  10
HETATM   10  N4  UNL     1      -1.465  -0.501   0.942  1.00  0.00    -0.366 N 
HETATM   11  H11 UNL     1      -2.329  -0.420   1.413  1.00  0.00     0.161 HD
BRANCH  10  12
HETATM   12  C11 UNL     1      -2.056   0.774   0.753  1.00  0.00     0.112 C 
HETATM   13  C12 UNL     1      -1.658   1.816   1.771  1.00  0.00     0.037 C 
BRANCH  12  14
HETATM   14  C13 UNL     1      -3.519   0.840   0.538  1.00  0.00    -0.036 A 
HETATM   15  C14 UNL     1      -4.108   1.494  -0.557  1.00  0.00     0.009 A 
HETATM   16  C15 UNL     1      -5.464   1.580  -0.790  1.00  0.00     0.001 A 
HETATM   17  C16 UNL     1      -6.324   0.968   0.136  1.00  0.00     0.000 A 
HETATM   18  C17 UNL     1      -5.813   0.305   1.242  1.00  0.00     0.001 A 
HETATM   19  C18 UNL     1      -4.451   0.286   1.366  1.00  0.00     0.009 A 
ENDBRANCH  12  14
ENDBRANCH  10  12
ENDBRANCH   8  10
BRANCH   1  20
HETATM   20  C2  UNL     1       1.404   0.309  -0.637  1.00  0.00     0.003 C 
HETATM   21  C1  UNL     1       1.016   1.512  -0.331  1.00  0.00     0.012 C 
ENDBRANCH   1  20
BRANCH   2  22
HETATM   22  C5  UNL     1       3.775  -1.065  -1.571  1.00  0.00     0.169 C 
BRANCH  22  23
HETATM   23  N1  UNL     1       4.701  -0.262  -0.835  1.00  0.00    -0.357 N 
HETATM   24  C6  UNL     1       5.846   0.308  -1.410  1.00  0.00     0.213 C 
HETATM   25  C7  UNL     1       6.724   1.128  -0.510  1.00  0.00     0.117 C 
HETATM   26  O1  UNL     1       6.035   0.077  -2.639  1.00  0.00    -0.274 OA
HETATM   27  H6  UNL     1       4.480  -0.126   0.153  1.00  0.00     0.162 HD
ENDBRANCH  22  23
ENDBRANCH   2  22
TORSDOF 6
