REMARK  3 active torsions:
REMARK  status: ('A' for Active; 'I' for Inactive)
REMARK    1  A    between atoms: C4_5  and  N1_6 
REMARK    2  A    between atoms: N1_6  and  C5_7 
REMARK    3  A    between atoms: C12_17  and  N5_18 
ROOT
HETATM    1  C5  UNL     1       0.604  -0.568   0.083  1.00  0.00     0.159 A 
HETATM    2  N2  UNL     1       1.378  -1.643  -0.071  1.00  0.00    -0.222 NA
HETATM    3  C6  UNL     1       0.798  -2.878  -0.135  1.00  0.00     0.238 A 
HETATM    4  N3  UNL     1      -0.540  -2.971  -0.040  1.00  0.00    -0.215 NA
HETATM    5  C7  UNL     1      -1.327  -1.882   0.116  1.00  0.00     0.202 A 
HETATM    6  C8  UNL     1      -0.751  -0.608   0.184  1.00  0.00     0.129 A 
HETATM    7  N4  UNL     1      -1.334   0.659   0.339  1.00  0.00    -0.379 N 
HETATM    8  C9  UNL     1      -2.607   0.983   0.956  1.00  0.00     0.161 C 
HETATM    9  C10 UNL     1      -3.703   0.067   0.512  1.00  0.00    -0.004 A 
HETATM   10  C11 UNL     1      -4.892   0.800   0.439  1.00  0.00     0.040 A 
HETATM   11  C12 UNL     1      -6.101   0.238   0.056  1.00  0.00     0.026 A 
HETATM   12  C13 UNL     1      -6.123  -1.108  -0.267  1.00  0.00     0.032 A 
HETATM   13  C14 UNL     1      -4.958  -1.848  -0.201  1.00  0.00     0.040 A 
HETATM   14  C15 UNL     1      -3.749  -1.271   0.186  1.00  0.00     0.086 A 
HETATM   15  O1  UNL     1      -2.684  -2.162   0.196  1.00  0.00    -0.289 OA
HETATM   16  H8  UNL     1      -0.710   1.392  -0.066  1.00  0.00     0.160 HD
ENDROOT
BRANCH   1  17
HETATM   17  N1  UNL     1       1.337   0.644   0.134  1.00  0.00    -0.353 N 
HETATM   18  H6  UNL     1       1.262   1.676   0.233  1.00  0.00     0.166 HD
BRANCH  17  19
HETATM   19  C4  UNL     1       2.759   0.667   0.025  1.00  0.00    -0.037 A 
HETATM   20  B1  UNL     1       3.543   0.783  -1.312  1.00  0.00     0.240 B 
HETATM   21  C3  UNL     1       5.101   0.793  -1.271  1.00  0.00    -0.073 A 
HETATM   22  H5  UNL     1       2.943   0.609  -2.316  1.00  0.00    -0.015 HD
HETATM   23  C2  UNL     1       5.678   0.700  -0.079  1.00  0.00    -0.094 A 
HETATM   24  C1  UNL     1       7.165   0.709  -0.045  1.00  0.00     0.042 C 
HETATM   25  C17 UNL     1       4.991   0.587   1.231  1.00  0.00     0.060 A 
HETATM   26  C16 UNL     1       3.519   0.583   1.127  1.00  0.00    -0.010 A 
ENDBRANCH  17  19
ENDBRANCH   1  17
BRANCH  11  27
HETATM   27  N5  UNL     1      -7.264   1.088   0.015  1.00  0.00    -0.399 N 
HETATM   28  H12 UNL     1      -7.358   1.990  -0.525  1.00  0.00     0.156 HD
HETATM   29  H13 UNL     1      -8.157   0.872   0.543  1.00  0.00     0.156 HD
ENDBRANCH  11  27
TORSDOF 3
