REMARK  1 active torsions:
REMARK  status: ('A' for Active; 'I' for Inactive)
REMARK    1  A    between atoms: C5_5  and  C6_6 
ROOT
HETATM    1  C1  UNL     1       2.801  -3.797  -0.981  1.00  0.00     0.044 C 
HETATM    2  C2  UNL     1       2.331  -2.581  -0.831  1.00  0.00    -0.012 C 
HETATM    3  C3  UNL     1       1.305  -1.745  -1.484  1.00  0.00     0.042 C 
HETATM    4  C4  UNL     1       0.087  -1.594  -0.555  1.00  0.00     0.034 C 
HETATM    5  C5  UNL     1      -0.969  -0.707  -1.122  1.00  0.00     0.115 C 
HETATM    6  N1  UNL     1      -0.548   0.631  -1.452  1.00  0.00    -0.381 N 
HETATM    7  C12 UNL     1      -0.285   1.876  -0.775  1.00  0.00     0.061 A 
HETATM    8  C13 UNL     1       0.326   2.147   0.367  1.00  0.00     0.122 A 
HETATM    9  N2  UNL     1       0.431   3.505   0.781  1.00  0.00    -0.342 N 
HETATM   10  C14 UNL     1      -0.100   4.574   0.007  1.00  0.00     0.202 A 
HETATM   11  N3  UNL     1      -0.677   4.247  -1.081  1.00  0.00    -0.279 NA
HETATM   12  C15 UNL     1      -0.862   2.941  -1.629  1.00  0.00     0.209 A 
HETATM   13  S1  UNL     1       1.138   1.191   1.677  1.00  0.00     0.051 SA
HETATM   14  O1  UNL     1       2.840   1.580   1.608  1.00  0.00    -0.294 OA
HETATM   15  C16 UNL     1       3.461   0.320   1.838  1.00  0.00     0.311 C 
HETATM   16  N4  UNL     1       2.953  -0.562   0.816  1.00  0.00    -0.335 N 
HETATM   17  C17 UNL     1       2.979  -1.849   0.235  1.00  0.00     0.245 C 
HETATM   18  O2  UNL     1       3.853  -2.132   1.084  1.00  0.00    -0.268 OA
HETATM   19  H13 UNL     1      -0.373   0.659  -2.513  1.00  0.00     0.160 HD
HETATM   20  H14 UNL     1       0.864   3.929   1.628  1.00  0.00     0.167 HD
HETATM   21  H20 UNL     1       2.275  -0.155   0.139  1.00  0.00     0.164 HD
ENDROOT
BRANCH   5  22
HETATM   22  C6  UNL     1      -2.177  -0.656  -0.200  1.00  0.00    -0.036 A 
HETATM   23  C7  UNL     1      -2.156  -1.481   0.930  1.00  0.00     0.009 A 
HETATM   24  C8  UNL     1      -3.251  -1.444   1.772  1.00  0.00     0.001 A 
HETATM   25  C9  UNL     1      -4.343  -0.653   1.562  1.00  0.00     0.000 A 
HETATM   26  C10 UNL     1      -4.300   0.134   0.431  1.00  0.00     0.001 A 
HETATM   27  C11 UNL     1      -3.251   0.164  -0.466  1.00  0.00     0.009 A 
ENDBRANCH   5  22
TORSDOF 1
