REMARK  3 active torsions:
REMARK  status: ('A' for Active; 'I' for Inactive)
REMARK    1  A    between atoms: C2_2  and  C3_3 
REMARK       I    between atoms: C3_3  and  N1_5 
REMARK    2  A    between atoms: C10_15  and  N4_16 
REMARK    3  A    between atoms: N4_16  and  C12_18 
ROOT
HETATM    1  C3  UNL     1      -4.312  -1.471  -0.418  1.00  0.00     0.239 C 
HETATM    2  O1  UNL     1      -5.442  -1.245  -0.929  1.00  0.00    -0.269 OA
HETATM    3  N1  UNL     1      -3.302  -0.611   0.125  1.00  0.00    -0.344 N 
HETATM    4  C4  UNL     1      -2.035  -0.955   0.692  1.00  0.00     0.131 C 
HETATM    5  C5  UNL     1      -0.876  -0.486  -0.193  1.00  0.00     0.060 C 
HETATM    6  C6  UNL     1      -0.929   0.992  -0.295  1.00  0.00    -0.025 A 
HETATM    7  C7  UNL     1      -2.242   1.495  -0.105  1.00  0.00     0.010 A 
HETATM    8  S1  UNL     1      -2.100   3.239  -0.233  1.00  0.00    -0.072 SA
HETATM    9  C8  UNL     1      -0.302   3.290  -0.538  1.00  0.00     0.114 A 
HETATM   10  N2  UNL     1       0.575   4.262  -0.743  1.00  0.00    -0.234 NA
HETATM   11  C9  UNL     1       1.880   4.017  -0.948  1.00  0.00     0.236 A 
HETATM   12  N3  UNL     1       2.227   2.729  -0.930  1.00  0.00    -0.223 NA
HETATM   13  C10 UNL     1       1.385   1.714  -0.729  1.00  0.00     0.145 A 
HETATM   14  C18 UNL     1       0.047   1.909  -0.515  1.00  0.00     0.053 A 
HETATM   15  C19 UNL     1      -3.500   0.821   0.146  1.00  0.00     0.172 C 
ENDROOT
BRANCH  13  16
HETATM   16  N4  UNL     1       2.041   0.456  -0.792  1.00  0.00    -0.335 N 
HETATM   17  C11 UNL     1       1.829  -0.591  -1.809  1.00  0.00     0.158 C 
BRANCH  16  18
HETATM   18  C12 UNL     1       3.004   0.131   0.202  1.00  0.00     0.035 A 
HETATM   19  C13 UNL     1       3.670  -1.082   0.182  1.00  0.00     0.029 A 
HETATM   20  C14 UNL     1       4.616  -1.456   1.119  1.00  0.00     0.002 A 
HETATM   21  C15 UNL     1       4.859  -0.519   2.102  1.00  0.00     0.000 A 
HETATM   22  C16 UNL     1       4.249   0.713   2.208  1.00  0.00     0.002 A 
HETATM   23  C17 UNL     1       3.309   1.017   1.227  1.00  0.00     0.029 A 
ENDBRANCH  16  18
ENDBRANCH  13  16
BRANCH   1  24
HETATM   24  C2  UNL     1      -4.089  -2.911  -0.431  1.00  0.00     0.048 C 
HETATM   25  C1  UNL     1      -5.277  -3.045  -0.999  1.00  0.00     0.037 C 
ENDBRANCH   1  24
TORSDOF 3
