REMARK  1 active torsions:
REMARK  status: ('A' for Active; 'I' for Inactive)
REMARK    1  A    between atoms: C2_2  and  C3_3 
REMARK       I    between atoms: C3_3  and  N1_5 
ROOT
HETATM    1  C3  UNL     1       3.979  -0.434   0.417  1.00  0.00     0.242 C 
HETATM    2  O1  UNL     1       4.925   0.212   0.936  1.00  0.00    -0.268 OA
HETATM    3  N1  UNL     1       2.638   0.032   0.429  1.00  0.00    -0.344 N 
HETATM    4  C4  UNL     1       2.250   1.264   1.026  1.00  0.00     0.131 C 
HETATM    5  C5  UNL     1       1.475   2.148  -0.012  1.00  0.00     0.060 C 
HETATM    6  C6  UNL     1       0.302   1.276  -0.157  1.00  0.00    -0.032 C 
HETATM    7  C7  UNL     1       0.337  -0.070  -0.249  1.00  0.00    -0.022 C 
HETATM    8  C8  UNL     1       1.638  -0.827  -0.215  1.00  0.00     0.166 C 
HETATM    9  C9  UNL     1      -0.646  -1.171  -0.369  1.00  0.00    -0.023 A 
HETATM   10  C10 UNL     1      -1.898  -1.250   0.119  1.00  0.00    -0.043 A 
HETATM   11  C11 UNL     1      -2.424  -2.595  -0.311  1.00  0.00     0.064 A 
HETATM   12  C12 UNL     1      -1.290  -3.146  -1.050  1.00  0.00    -0.021 A 
HETATM   13  C13 UNL     1      -0.234  -2.355  -1.111  1.00  0.00     0.008 A 
HETATM   14  C14 UNL     1      -2.872  -0.489   0.910  1.00  0.00     0.109 C 
HETATM   15  C15 UNL     1      -4.291  -1.013   0.638  1.00  0.00     0.037 C 
HETATM   16  N2  UNL     1      -2.923   0.913   0.695  1.00  0.00    -0.366 N 
HETATM   17  C16 UNL     1      -2.200   2.010   0.155  1.00  0.00     0.137 A 
HETATM   18  N3  UNL     1      -3.001   3.084  -0.040  1.00  0.00    -0.224 NA
HETATM   19  C17 UNL     1      -2.462   4.211  -0.563  1.00  0.00     0.234 A 
HETATM   20  N4  UNL     1      -1.175   4.389  -0.922  1.00  0.00    -0.253 NA
HETATM   21  C18 UNL     1      -0.349   3.332  -0.738  1.00  0.00     0.134 A 
HETATM   22  C19 UNL     1      -0.880   2.167  -0.203  1.00  0.00     0.034 A 
HETATM   23  H18 UNL     1      -3.836   1.299   1.073  1.00  0.00     0.161 HD
ENDROOT
BRANCH   1  24
HETATM   24  C2  UNL     1       4.378  -1.687  -0.189  1.00  0.00     0.064 C 
HETATM   25  C1  UNL     1       5.645  -1.992  -0.127  1.00  0.00     0.017 C 
ENDBRANCH   1  24
TORSDOF 1
