REMARK  5 active torsions:
REMARK  status: ('A' for Active; 'I' for Inactive)
REMARK    1  A    between atoms: C2_2  and  N1_3 
REMARK    2  A    between atoms: N1_3  and  O1_4 
REMARK    3  A    between atoms: N1_3  and  C3_5 
REMARK    4  A    between atoms: C4_6  and  C5_7 
REMARK    5  A    between atoms: C5_7  and  C7_9 
ROOT
HETATM    1  C3  UNL     1       0.754   0.173  -0.966  1.00  0.00     0.081 C 
HETATM    2  C4  UNL     1      -0.341  -0.528  -0.671  1.00  0.00     0.119 C 
HETATM    3  N2  UNL     1      -0.487  -1.793  -0.309  1.00  0.00    -0.401 NA
HETATM    4  C14 UNL     1      -0.357  -2.833   0.281  1.00  0.00     0.300 C 
HETATM    5  N3  UNL     1       0.516  -3.003   1.375  1.00  0.00    -0.227 NA
HETATM    6  C15 UNL     1       1.763  -2.782   1.141  1.00  0.00     0.081 C 
HETATM    7  C16 UNL     1       2.270  -2.374  -0.234  1.00  0.00     0.102 C 
HETATM    8  C17 UNL     1       2.687  -0.972  -0.077  1.00  0.00    -0.055 C 
HETATM    9  C18 UNL     1       3.555  -0.861   0.968  1.00  0.00    -0.016 C 
HETATM   10  C19 UNL     1       4.292   0.340   1.467  1.00  0.00     0.056 C 
HETATM   11  S1  UNL     1       3.519  -2.593   1.591  1.00  0.00    -0.079 SA
HETATM   12  C20 UNL     1       2.222   0.187  -0.929  1.00  0.00     0.098 C 
ENDROOT
BRANCH   2  13
HETATM   13  C5  UNL     1      -1.743  -0.145  -0.709  1.00  0.00     0.081 C 
HETATM   14  C6  UNL     1      -2.085   1.082  -1.523  1.00  0.00     0.023 C 
BRANCH  13  15
HETATM   15  C7  UNL     1      -2.269   0.042   0.702  1.00  0.00    -0.042 A 
HETATM   16  C8  UNL     1      -1.289   0.824   1.372  1.00  0.00     0.008 A 
HETATM   17  C9  UNL     1      -1.470   1.212   2.696  1.00  0.00     0.001 A 
HETATM   18  C10 UNL     1      -2.593   0.854   3.398  1.00  0.00     0.001 A 
HETATM   19  C11 UNL     1      -3.450   0.132   2.720  1.00  0.00     0.007 A 
HETATM   20  C12 UNL     1      -3.446  -0.357   1.382  1.00  0.00    -0.055 A 
HETATM   21  C13 UNL     1      -4.170  -1.129   0.385  1.00  0.00     0.049 C 
ENDBRANCH  13  15
ENDBRANCH   2  13
BRANCH   1  22
HETATM   22  N1  UNL     1       0.676   1.561  -1.424  1.00  0.00    -0.238 N 
BRANCH  22  23
HETATM   23  C2  UNL     1       0.959   1.835  -2.823  1.00  0.00     0.113 C 
HETATM   24  C1  UNL     1       1.991   2.070  -3.647  1.00  0.00     0.032 C 
ENDBRANCH  22  23
BRANCH  22  25
HETATM   25  O1  UNL     1       0.448   2.876  -1.089  1.00  0.00    -0.283 OA
HETATM   26  H4  UNL     1       1.091   3.149  -0.381  1.00  0.00     0.245 HD
ENDBRANCH  22  25
ENDBRANCH   1  22
TORSDOF 5
