REMARK  1 active torsions:
REMARK  status: ('A' for Active; 'I' for Inactive)
REMARK    1  A    between atoms: C2_2  and  C3_3 
REMARK       I    between atoms: C3_3  and  N1_5 
ROOT
HETATM    1  C3  UNL     1       4.779  -0.967  -0.888  1.00  0.00     0.242 C 
HETATM    2  O1  UNL     1       5.033  -2.197  -1.099  1.00  0.00    -0.268 OA
HETATM    3  N1  UNL     1       3.414  -0.620  -0.703  1.00  0.00    -0.344 N 
HETATM    4  C4  UNL     1       2.965   0.709  -0.459  1.00  0.00     0.131 C 
HETATM    5  C5  UNL     1       1.515   0.951  -0.401  1.00  0.00     0.059 C 
HETATM    6  C6  UNL     1       0.695  -0.044   0.342  1.00  0.00    -0.010 C 
HETATM    7  C7  UNL     1       1.222  -1.270   0.130  1.00  0.00     0.009 C 
HETATM    8  C8  UNL     1       2.359  -1.587  -0.743  1.00  0.00     0.172 C 
HETATM    9  S1  UNL     1       0.733  -2.892   0.819  1.00  0.00    -0.073 SA
HETATM   10  C9  UNL     1      -1.012  -2.903   1.153  1.00  0.00     0.100 C 
HETATM   11  N2  UNL     1      -1.618  -2.021   1.981  1.00  0.00    -0.222 NA
HETATM   12  C10 UNL     1      -2.258  -0.984   1.098  1.00  0.00     0.154 C 
HETATM   13  N3  UNL     1      -1.640   0.148   1.168  1.00  0.00    -0.230 NA
HETATM   14  C11 UNL     1      -0.350   0.740   1.002  1.00  0.00     0.375 C 
HETATM   15  N4  UNL     1      -0.531   2.068   0.497  1.00  0.00     0.120 N 
HETATM   16  C12 UNL     1      -1.852   2.557   0.879  1.00  0.00     0.242 C 
HETATM   17  C13 UNL     1      -1.767   4.078   0.625  1.00  0.00     0.047 C 
HETATM   18  C14 UNL     1      -2.964   1.967   0.117  1.00  0.00     0.008 C 
HETATM   19  C15 UNL     1      -3.829   1.117  -0.416  1.00  0.00    -0.001 C 
HETATM   20  C16 UNL     1      -3.981  -0.315  -0.317  1.00  0.00     0.011 C 
HETATM   21  C17 UNL     1      -3.432  -1.359   0.258  1.00  0.00    -0.007 C 
HETATM   22  C18 UNL     1      -3.945  -2.736   0.046  1.00  0.00     0.070 C 
HETATM   23  C19 UNL     1      -2.889  -3.759  -0.095  1.00  0.00    -0.019 C 
HETATM   24  C20 UNL     1      -1.655  -3.937   0.352  1.00  0.00     0.035 C 
HETATM   25  H11 UNL     1      -0.524   2.018  -0.563  1.00  0.00     0.320 HD
ENDROOT
BRANCH   1  26
HETATM   26  C2  UNL     1       5.872  -0.010  -0.850  1.00  0.00     0.064 C 
HETATM   27  C1  UNL     1       5.735   1.278  -0.641  1.00  0.00     0.017 C 
ENDBRANCH   1  26
TORSDOF 1
