REMARK  4 active torsions:
REMARK  status: ('A' for Active; 'I' for Inactive)
REMARK    1  A    between atoms: C2_2  and  C3_3 
REMARK    2  A    between atoms: C6_7  and  C7_8 
REMARK    3  A    between atoms: N2_20  and  O1_21 
REMARK    4  A    between atoms: O1_21  and  S1_22 
ROOT
HETATM    1  C3  UNL     1       2.471  -0.595   0.453  1.00  0.00     0.166 C 
HETATM    2  C4  UNL     1       1.003  -0.639   0.876  1.00  0.00    -0.014 C 
HETATM    3  C5  UNL     1       0.656   0.273   1.843  1.00  0.00     0.093 C 
HETATM    4  N1  UNL     1      -0.550   1.071   1.580  1.00  0.00    -0.386 N 
HETATM    5  C6  UNL     1      -1.530   1.121   0.492  1.00  0.00     0.148 C 
HETATM    6  C13 UNL     1      -0.914   0.560  -0.786  1.00  0.00    -0.027 C 
HETATM    7  C14 UNL     1      -1.149   0.961  -2.021  1.00  0.00    -0.021 C 
HETATM    8  C15 UNL     1      -0.849   0.774  -3.447  1.00  0.00     0.036 C 
HETATM    9  C16 UNL     1       0.108  -0.555  -0.732  1.00  0.00    -0.029 C 
HETATM   10  C17 UNL     1       0.177  -1.650   0.104  1.00  0.00     0.020 C 
HETATM   11  C18 UNL     1       1.278  -0.429  -1.704  1.00  0.00     0.191 C 
HETATM   12  N2  UNL     1       2.527  -0.537  -0.988  1.00  0.00    -0.264 N 
HETATM   13  H6  UNL     1      -0.642   1.707   2.382  1.00  0.00     0.160 HD
ENDROOT
BRANCH   5  14
HETATM   14  C7  UNL     1      -2.809   0.496   0.813  1.00  0.00    -0.031 A 
HETATM   15  C8  UNL     1      -3.967   1.183   0.431  1.00  0.00     0.009 A 
HETATM   16  C9  UNL     1      -5.239   0.698   0.680  1.00  0.00     0.001 A 
HETATM   17  C10 UNL     1      -5.364  -0.511   1.329  1.00  0.00     0.000 A 
HETATM   18  C11 UNL     1      -4.251  -1.237   1.731  1.00  0.00     0.001 A 
HETATM   19  C12 UNL     1      -3.028  -0.689   1.449  1.00  0.00     0.009 A 
ENDBRANCH   5  14
BRANCH   1  20
HETATM   20  C2  UNL     1       3.267  -1.717   0.950  1.00  0.00    -0.005 C 
HETATM   21  C1  UNL     1       2.814  -2.940   0.741  1.00  0.00     0.009 C 
ENDBRANCH   1  20
BRANCH  12  22
HETATM   22  O1  UNL     1       3.535   0.155  -1.500  1.00  0.00    -0.206 OA
BRANCH  22  23
HETATM   23  S1  UNL     1       4.767   0.286  -0.302  1.00  0.00     0.015 SA
HETATM   24  C19 UNL     1       5.013   2.020   0.192  1.00  0.00     0.125 C 
ENDBRANCH  22  23
ENDBRANCH  12  22
TORSDOF 4
