REMARK  5 active torsions:
REMARK  status: ('A' for Active; 'I' for Inactive)
REMARK    1  A    between atoms: C2_2  and  C3_3 
REMARK       I    between atoms: C3_3  and  N1_5 
REMARK    2  A    between atoms: N1_5  and  C4_6 
REMARK    3  A    between atoms: C12_17  and  N4_18 
REMARK    4  A    between atoms: N4_18  and  C13_19 
REMARK    5  A    between atoms: C13_19  and  C15_21 
ROOT
HETATM    1  C4  UNL     1       3.672  -0.986  -0.316  1.00  0.00     0.125 C 
HETATM    2  C5  UNL     1       3.599  -1.876   0.891  1.00  0.00     0.031 C 
HETATM    3  C6  UNL     1       2.385  -1.461   1.641  1.00  0.00     0.007 C 
HETATM    4  C7  UNL     1       1.074  -1.639   0.924  1.00  0.00     0.041 C 
HETATM    5  C8  UNL     1       0.976  -0.834  -0.314  1.00  0.00    -0.026 A 
HETATM    6  C9  UNL     1       2.287  -0.603  -0.735  1.00  0.00     0.015 A 
HETATM    7  S1  UNL     1       2.101   0.424  -2.186  1.00  0.00    -0.071 SA
HETATM    8  C10 UNL     1       0.318   0.481  -2.148  1.00  0.00     0.114 A 
HETATM    9  N2  UNL     1      -0.523   1.095  -2.982  1.00  0.00    -0.234 NA
HETATM   10  C11 UNL     1      -1.834   0.999  -2.782  1.00  0.00     0.236 A 
HETATM   11  N3  UNL     1      -2.148   0.276  -1.738  1.00  0.00    -0.224 NA
HETATM   12  C12 UNL     1      -1.350  -0.359  -0.873  1.00  0.00     0.139 A 
HETATM   13  C21 UNL     1       0.009  -0.269  -1.061  1.00  0.00     0.053 A 
ENDROOT
BRANCH  12  14
HETATM   14  N4  UNL     1      -2.016  -1.153   0.142  1.00  0.00    -0.366 N 
HETATM   15  H13 UNL     1      -1.582  -1.783   0.838  1.00  0.00     0.161 HD
BRANCH  14  16
HETATM   16  C13 UNL     1      -3.482  -1.115   0.226  1.00  0.00     0.112 C 
HETATM   17  C14 UNL     1      -4.159  -1.339  -1.089  1.00  0.00     0.037 C 
BRANCH  16  18
HETATM   18  C15 UNL     1      -4.004   0.012   1.015  1.00  0.00    -0.036 A 
HETATM   19  C16 UNL     1      -3.521   1.283   1.135  1.00  0.00     0.009 A 
HETATM   20  C17 UNL     1      -4.090   2.279   1.889  1.00  0.00     0.001 A 
HETATM   21  C18 UNL     1      -5.236   2.038   2.599  1.00  0.00     0.000 A 
HETATM   22  C19 UNL     1      -5.783   0.774   2.527  1.00  0.00     0.001 A 
HETATM   23  C20 UNL     1      -5.182  -0.227   1.750  1.00  0.00     0.009 A 
ENDBRANCH  16  18
ENDBRANCH  14  16
ENDBRANCH  12  14
BRANCH   1  24
HETATM   24  N1  UNL     1       4.498   0.176  -0.169  1.00  0.00    -0.348 N 
HETATM   25  C3  UNL     1       5.504   0.940  -0.760  1.00  0.00     0.240 C 
HETATM   26  O1  UNL     1       5.937   0.559  -1.854  1.00  0.00    -0.269 OA
HETATM   27  H4  UNL     1       4.163   0.554   0.773  1.00  0.00     0.163 HD
BRANCH  25  28
HETATM   28  C2  UNL     1       6.034   2.130  -0.150  1.00  0.00     0.064 C 
HETATM   29  C1  UNL     1       6.885   2.354  -1.236  1.00  0.00     0.017 C 
ENDBRANCH  25  28
ENDBRANCH   1  24
TORSDOF 5
