REMARK  6 active torsions:
REMARK  status: ('A' for Active; 'I' for Inactive)
REMARK    1  A    between atoms: C2_2  and  C3_3 
REMARK    2  A    between atoms: C3_3  and  C4_5 
REMARK    3  A    between atoms: C11_13  and  N2_14 
REMARK    4  A    between atoms: N2_14  and  C12_15 
REMARK    5  A    between atoms: C12_15  and  C13_16 
REMARK    6  A    between atoms: C12_15  and  C15_18 
ROOT
HETATM    1  C4  UNL     1       4.562   0.111  -0.297  1.00  0.00     0.298 C 
HETATM    2  C5  UNL     1       4.267   1.188   0.741  1.00  0.00     0.090 C 
HETATM    3  C6  UNL     1       3.086   0.671   1.489  1.00  0.00    -0.008 C 
HETATM    4  C7  UNL     1       1.984   0.320   0.835  1.00  0.00    -0.022 C 
HETATM    5  C8  UNL     1       2.211   0.548  -0.642  1.00  0.00     0.307 C 
HETATM    6  N1  UNL     1       3.395  -0.186  -1.059  1.00  0.00     0.099 N 
HETATM    7  C9  UNL     1       0.884  -0.170   1.702  1.00  0.00     0.130 A 
HETATM    8  C10 UNL     1      -0.178  -0.887   0.977  1.00  0.00     0.065 A 
HETATM    9  C11 UNL     1      -0.887  -0.421  -0.033  1.00  0.00     0.112 C 
HETATM   10  N3  UNL     1      -0.533  -2.214   1.350  1.00  0.00    -0.244 NA
HETATM   11  C21 UNL     1       0.051  -2.844   2.312  1.00  0.00     0.234 A 
HETATM   12  N4  UNL     1       1.104  -2.219   3.063  1.00  0.00    -0.238 NA
HETATM   13  C22 UNL     1       1.481  -1.001   2.781  1.00  0.00     0.091 A 
HETATM   14  S1  UNL     1       2.645   0.323   3.226  1.00  0.00    -0.078 SA
HETATM   15  H9  UNL     1       3.483  -0.181  -2.078  1.00  0.00     0.317 HD
ENDROOT
BRANCH   9  16
HETATM   16  N2  UNL     1      -1.905  -1.083  -0.742  1.00  0.00    -0.392 N 
HETATM   17  H12 UNL     1      -1.540  -1.661  -1.555  1.00  0.00     0.159 HD
BRANCH  16  18
HETATM   18  C12 UNL     1      -3.310  -1.017  -0.440  1.00  0.00     0.092 C 
BRANCH  18  19
HETATM   19  C13 UNL     1      -3.635  -1.526   0.963  1.00  0.00     0.021 C 
HETATM   20  C14 UNL     1      -5.145  -1.397   1.140  1.00  0.00     0.007 C 
ENDBRANCH  18  19
BRANCH  18  21
HETATM   21  C15 UNL     1      -3.882   0.356  -0.577  1.00  0.00     0.057 C 
HETATM   22  C16 UNL     1      -3.239   1.341   0.316  1.00  0.00    -0.031 C 
HETATM   23  C17 UNL     1      -3.429   2.637   0.161  1.00  0.00    -0.084 C 
HETATM   24  B1  UNL     1      -4.500   3.263  -1.172  1.00  0.00     0.210 B 
HETATM   25  C18 UNL     1      -3.164   1.679  -2.650  1.00  0.00    -0.103 C 
HETATM   26  C19 UNL     1      -3.921   0.819  -1.989  1.00  0.00    -0.080 C 
HETATM   27  C20 UNL     1      -4.957   0.283  -2.912  1.00  0.00     0.043 C 
ENDBRANCH  18  21
ENDBRANCH  16  18
ENDBRANCH   9  16
BRANCH   1  28
HETATM   28  C3  UNL     1       5.757   0.426  -1.110  1.00  0.00     0.179 C 
HETATM   29  O1  UNL     1       6.048   0.512  -2.325  1.00  0.00    -0.291 OA
BRANCH  28  30
HETATM   30  C2  UNL     1       6.969   0.733  -0.330  1.00  0.00     0.026 C 
HETATM   31  C1  UNL     1       7.737   0.940  -1.396  1.00  0.00     0.035 C 
ENDBRANCH  28  30
ENDBRANCH   1  28
TORSDOF 6
