REMARK  4 active torsions:
REMARK  status: ('A' for Active; 'I' for Inactive)
REMARK    1  A    between atoms: C2_2  and  C3_3 
REMARK    2  A    between atoms: C3_3  and  N1_4 
REMARK    3  A    between atoms: C3_3  and  C16_22 
REMARK    4  A    between atoms: N1_4  and  C4_5 
ROOT
HETATM    1  C4  UNL     1       0.758   0.151   0.510  1.00  0.00     0.138 A 
HETATM    2  N2  UNL     1       1.315   0.006   1.721  1.00  0.00    -0.224 NA
HETATM    3  C5  UNL     1       0.599  -0.590   2.684  1.00  0.00     0.236 A 
HETATM    4  N3  UNL     1      -0.651  -1.070   2.563  1.00  0.00    -0.234 NA
HETATM    5  C6  UNL     1      -1.235  -0.944   1.378  1.00  0.00     0.113 A 
HETATM    6  C7  UNL     1      -0.531  -0.334   0.351  1.00  0.00     0.045 A 
HETATM    7  C8  UNL     1      -0.869  -0.061  -1.047  1.00  0.00     0.022 C 
HETATM    8  C9  UNL     1      -1.971   0.253  -1.681  1.00  0.00     0.056 C 
HETATM    9  C10 UNL     1      -3.368   0.481  -1.332  1.00  0.00     0.179 C 
HETATM   10  O1  UNL     1      -3.929   1.252  -2.151  1.00  0.00    -0.288 OA
HETATM   11  C11 UNL     1      -4.236   0.014  -0.257  1.00  0.00     0.009 C 
HETATM   12  C12 UNL     1      -4.115  -0.750   0.816  1.00  0.00     0.023 C 
HETATM   13  C13 UNL     1      -5.208  -1.061   1.762  1.00  0.00     0.316 C 
HETATM   14  N4  UNL     1      -6.462  -0.858   1.031  1.00  0.00     0.088 N 
HETATM   15  C14 UNL     1      -6.504   0.487   0.507  1.00  0.00     0.275 C 
HETATM   16  C15 UNL     1      -5.522   0.658  -0.632  1.00  0.00     0.074 C 
HETATM   17  S1  UNL     1      -2.842  -1.679   1.618  1.00  0.00    -0.072 SA
HETATM   18  H13 UNL     1      -6.468  -1.553   0.258  1.00  0.00     0.316 HD
ENDROOT
BRANCH   1  19
HETATM   19  N1  UNL     1       1.471   0.813  -0.556  1.00  0.00    -0.365 N 
HETATM   20  H7  UNL     1       1.349   1.110  -1.518  1.00  0.00     0.162 HD
BRANCH  19  21
HETATM   21  C3  UNL     1       2.795   1.233  -0.200  1.00  0.00     0.116 C 
BRANCH  21  22
HETATM   22  C2  UNL     1       3.566   1.926  -1.287  1.00  0.00     0.025 C 
HETATM   23  C1  UNL     1       4.939   2.320  -0.797  1.00  0.00     0.007 C 
ENDBRANCH  21  22
BRANCH  21  24
HETATM   24  C16 UNL     1       3.575  -0.019   0.112  1.00  0.00    -0.036 A 
HETATM   25  C17 UNL     1       4.415  -0.193   1.202  1.00  0.00     0.009 A 
HETATM   26  C18 UNL     1       5.064  -1.398   1.357  1.00  0.00     0.001 A 
HETATM   27  C19 UNL     1       4.883  -2.429   0.437  1.00  0.00     0.000 A 
HETATM   28  C20 UNL     1       4.050  -2.277  -0.656  1.00  0.00     0.001 A 
HETATM   29  C21 UNL     1       3.415  -1.051  -0.778  1.00  0.00     0.009 A 
ENDBRANCH  21  24
ENDBRANCH  19  21
ENDBRANCH   1  19
TORSDOF 4
