REMARK  7 active torsions:
REMARK  status: ('A' for Active; 'I' for Inactive)
REMARK    1  A    between atoms: C2_2  and  C3_3 
REMARK       I    between atoms: C3_3  and  N1_5 
REMARK    2  A    between atoms: N1_5  and  C4_6 
REMARK    3  A    between atoms: C5_7  and  C6_8 
REMARK    4  A    between atoms: C9_11  and  N2_12 
REMARK    5  A    between atoms: N2_12  and  C10_13 
REMARK    6  A    between atoms: C10_13  and  C11_14 
REMARK    7  A    between atoms: C10_13  and  C13_16 
ROOT
HETATM    1  C4  UNL     1       3.056  -0.075  -0.705  1.00  0.00     0.030 A 
HETATM    2  C5  UNL     1       1.779   0.131  -0.478  1.00  0.00    -0.013 A 
HETATM    3  C8  UNL     1       1.053  -1.138  -0.408  1.00  0.00     0.066 A 
HETATM    4  C9  UNL     1      -0.175  -1.596  -0.233  1.00  0.00     0.143 A 
HETATM    5  N3  UNL     1      -0.507  -2.970  -0.248  1.00  0.00    -0.223 NA
HETATM    6  C19 UNL     1       0.238  -3.976  -0.418  1.00  0.00     0.243 A 
HETATM    7  N4  UNL     1       1.642  -3.914  -0.640  1.00  0.00    -0.215 NA
HETATM    8  S1  UNL     1       2.255  -2.449  -0.666  1.00  0.00    -0.056 SA
HETATM    9  C20 UNL     1       3.717  -1.397  -0.853  1.00  0.00     0.150 A 
ENDROOT
BRANCH   4  10
HETATM   10  N2  UNL     1      -1.347  -0.852  -0.027  1.00  0.00    -0.365 N 
HETATM   11  H10 UNL     1      -1.527  -0.455  -0.995  1.00  0.00     0.162 HD
BRANCH  10  12
HETATM   12  C10 UNL     1      -2.347  -0.468   0.919  1.00  0.00     0.116 C 
BRANCH  12  13
HETATM   13  C11 UNL     1      -3.040  -1.665   1.586  1.00  0.00     0.025 C 
HETATM   14  C12 UNL     1      -2.043  -2.517   2.343  1.00  0.00     0.007 C 
ENDBRANCH  12  13
BRANCH  12  15
HETATM   15  C13 UNL     1      -3.423   0.358   0.336  1.00  0.00    -0.036 A 
HETATM   16  C14 UNL     1      -3.232   1.486  -0.426  1.00  0.00     0.009 A 
HETATM   17  C15 UNL     1      -4.210   2.269  -0.993  1.00  0.00     0.001 A 
HETATM   18  C16 UNL     1      -5.525   1.912  -0.794  1.00  0.00     0.000 A 
HETATM   19  C17 UNL     1      -5.807   0.801  -0.046  1.00  0.00     0.001 A 
HETATM   20  C18 UNL     1      -4.778   0.067   0.489  1.00  0.00     0.009 A 
ENDBRANCH  12  15
ENDBRANCH  10  12
ENDBRANCH   4  10
BRANCH   2  21
HETATM   21  C6  UNL     1       0.922   1.325  -0.297  1.00  0.00     0.037 C 
HETATM   22  C7  UNL     1       0.470   1.496   1.124  1.00  0.00     0.010 C 
ENDBRANCH   2  21
BRANCH   1  23
HETATM   23  N1  UNL     1       4.056   0.893  -0.849  1.00  0.00    -0.326 N 
HETATM   24  C3  UNL     1       4.487   2.205  -0.878  1.00  0.00     0.241 C 
HETATM   25  O1  UNL     1       3.591   3.043  -0.677  1.00  0.00    -0.269 OA
HETATM   26  H4  UNL     1       5.033   0.500  -1.040  1.00  0.00     0.169 HD
BRANCH  24  27
HETATM   27  C2  UNL     1       5.800   2.773  -1.101  1.00  0.00     0.048 C 
HETATM   28  C1  UNL     1       6.965   2.185  -1.343  1.00  0.00     0.037 C 
ENDBRANCH  24  27
ENDBRANCH   1  23
TORSDOF 7
