REMARK  5 active torsions:
REMARK  status: ('A' for Active; 'I' for Inactive)
REMARK    1  A    between atoms: O1_1  and  C1_2 
REMARK    2  A    between atoms: C1_2  and  C2_3 
REMARK    3  A    between atoms: N2_8  and  C6_9 
REMARK    4  A    between atoms: C6_9  and  C7_10 
REMARK    5  A    between atoms: C13_16  and  O2_17 
ROOT
HETATM    1  C2  UNL     1      -3.548  -0.249  -0.144  1.00  0.00     0.137 C 
HETATM    2  N1  UNL     1      -2.510  -0.935  -0.828  1.00  0.00    -0.379 N 
HETATM    3  C3  UNL     1      -1.996  -2.134  -0.249  1.00  0.00     0.176 A 
HETATM    4  C4  UNL     1      -0.504  -2.127  -0.640  1.00  0.00     0.082 C 
HETATM    5  C5  UNL     1       0.435  -2.096   0.514  1.00  0.00     0.122 C 
HETATM    6  N2  UNL     1       1.276  -0.961   0.627  1.00  0.00    -0.405 N 
HETATM    7  C14 UNL     1       0.805   0.195   1.295  1.00  0.00     0.163 C 
HETATM    8  C15 UNL     1      -0.653   0.320   1.355  1.00  0.00     0.003 C 
HETATM    9  C16 UNL     1      -1.229   1.229   0.582  1.00  0.00     0.028 C 
HETATM   10  C17 UNL     1      -2.429   1.907   0.097  1.00  0.00    -0.027 A 
HETATM   11  C18 UNL     1      -2.293   3.281   0.046  1.00  0.00     0.012 A 
HETATM   12  C19 UNL     1      -3.327   4.065  -0.415  1.00  0.00     0.001 A 
HETATM   13  C20 UNL     1      -4.439   3.364  -0.794  1.00  0.00     0.001 A 
HETATM   14  C21 UNL     1      -4.586   2.002  -0.749  1.00  0.00     0.010 A 
HETATM   15  C22 UNL     1      -3.562   1.213  -0.290  1.00  0.00    -0.024 A 
HETATM   16  S1  UNL     1      -1.573  -0.817   2.437  1.00  0.00    -0.073 SA
HETATM   17  C23 UNL     1      -2.106  -2.102   1.253  1.00  0.00     0.127 A 
HETATM   18  N3  UNL     1      -2.701  -3.195   1.643  1.00  0.00    -0.235 NA
HETATM   19  C24 UNL     1      -3.008  -3.973   0.469  1.00  0.00     0.231 A 
HETATM   20  N4  UNL     1      -2.609  -3.368  -0.594  1.00  0.00    -0.244 NA
HETATM   21  H5  UNL     1      -2.576  -0.939  -1.847  1.00  0.00     0.157 HD
ENDROOT
BRANCH   6  22
HETATM   22  C6  UNL     1       2.652  -1.280   0.756  1.00  0.00     0.145 C 
BRANCH  22  23
HETATM   23  C7  UNL     1       3.561  -0.126   0.846  1.00  0.00     0.003 C 
HETATM   24  C8  UNL     1       4.589   0.435   0.230  1.00  0.00    -0.024 A 
HETATM   25  C9  UNL     1       5.147   1.684   0.807  1.00  0.00     0.068 A 
HETATM   26  C13 UNL     1       5.161  -0.148  -0.977  1.00  0.00     0.071 A 
HETATM   27  C10 UNL     1       6.267   2.088  -0.064  1.00  0.00    -0.022 A 
HETATM   28  C11 UNL     1       6.820   1.597  -1.160  1.00  0.00    -0.001 A 
HETATM   29  C12 UNL     1       6.194   0.365  -1.643  1.00  0.00     0.037 A 
BRANCH  26  30
HETATM   30  O2  UNL     1       4.687  -1.296  -1.550  1.00  0.00    -0.360 OA
HETATM   31  H18 UNL     1       4.576  -1.466  -2.530  1.00  0.00     0.217 HD
ENDBRANCH  26  30
ENDBRANCH  22  23
ENDBRANCH   6  22
BRANCH   1  32
HETATM   32  C1  UNL     1      -4.865  -0.895  -0.485  1.00  0.00     0.193 C 
BRANCH  32  33
HETATM   33  O1  UNL     1      -5.943  -0.290   0.171  1.00  0.00    -0.399 OA
HETATM   34  H1  UNL     1      -5.675  -0.155   1.105  1.00  0.00     0.209 HD
ENDBRANCH  32  33
ENDBRANCH   1  32
TORSDOF 5
