REMARK  8 active torsions:
REMARK  status: ('A' for Active; 'I' for Inactive)
REMARK       I    between atoms: C2_2  and  N1_4 
REMARK    1  A    between atoms: N1_4  and  C4_6 
REMARK    2  A    between atoms: C4_6  and  C5_7 
REMARK    3  A    between atoms: C5_7  and  O2_8 
REMARK    4  A    between atoms: O2_8  and  C6_9 
REMARK    5  A    between atoms: C10_16  and  N4_17 
REMARK    6  A    between atoms: N4_17  and  C11_18 
REMARK    7  A    between atoms: C11_18  and  C12_19 
REMARK    8  A    between atoms: C12_19  and  C13_20 
ROOT
HETATM    1  C6  UNL     1       1.781  -1.331   0.563  1.00  0.00     0.092 A 
HETATM    2  C7  UNL     1       3.077  -1.801   0.924  1.00  0.00     0.089 A 
HETATM    3  S1  UNL     1       2.820  -2.761   2.405  1.00  0.00    -0.078 SA
HETATM    4  C8  UNL     1       1.007  -2.488   2.466  1.00  0.00     0.115 A 
HETATM    5  N2  UNL     1       0.166  -2.978   3.403  1.00  0.00    -0.234 NA
HETATM    6  C9  UNL     1      -1.132  -2.666   3.276  1.00  0.00     0.236 A 
HETATM    7  N3  UNL     1      -1.469  -1.909   2.246  1.00  0.00    -0.224 NA
HETATM    8  C10 UNL     1      -0.618  -1.440   1.337  1.00  0.00     0.140 A 
HETATM    9  C19 UNL     1       0.730  -1.684   1.352  1.00  0.00     0.079 A 
ENDROOT
BRANCH   8  10
HETATM   10  N4  UNL     1      -1.180  -0.630   0.288  1.00  0.00    -0.374 N 
HETATM   11  H13 UNL     1      -0.686  -0.179  -0.503  1.00  0.00     0.161 HD
BRANCH  10  12
HETATM   12  C11 UNL     1      -2.603  -0.352   0.243  1.00  0.00     0.126 C 
BRANCH  12  13
HETATM   13  C12 UNL     1      -3.033   0.500  -0.902  1.00  0.00     0.058 C 
BRANCH  13  14
HETATM   14  C13 UNL     1      -4.483   0.718  -0.851  1.00  0.00    -0.057 A 
HETATM   15  C14 UNL     1      -5.455  -0.067  -1.438  1.00  0.00     0.007 A 
HETATM   16  C15 UNL     1      -6.789   0.288  -1.289  1.00  0.00     0.001 A 
HETATM   17  C16 UNL     1      -7.144   1.404  -0.567  1.00  0.00     0.000 A 
HETATM   18  C17 UNL     1      -6.170   2.209   0.034  1.00  0.00     0.001 A 
HETATM   19  C18 UNL     1      -4.841   1.843  -0.124  1.00  0.00     0.007 A 
ENDBRANCH  13  14
ENDBRANCH  12  13
ENDBRANCH  10  12
ENDBRANCH   8  10
BRANCH   1  20
HETATM   20  O2  UNL     1       1.558  -0.565  -0.516  1.00  0.00    -0.348 OA
BRANCH  20  21
HETATM   21  C5  UNL     1       2.204   0.022  -1.523  1.00  0.00     0.195 C 
BRANCH  21  22
HETATM   22  C4  UNL     1       3.191   1.107  -1.325  1.00  0.00     0.152 C 
BRANCH  22  23
HETATM   23  N1  UNL     1       4.345   0.894  -0.547  1.00  0.00    -0.355 N 
HETATM   24  C2  UNL     1       4.441   1.181   0.867  1.00  0.00     0.215 C 
HETATM   25  C1  UNL     1       5.687   0.932   1.625  1.00  0.00     0.117 C 
HETATM   26  O1  UNL     1       3.536   1.646   1.570  1.00  0.00    -0.274 OA
HETATM   27  C3  UNL     1       5.546   0.343  -1.194  1.00  0.00     0.152 C 
ENDBRANCH  22  23
ENDBRANCH  21  22
ENDBRANCH  20  21
ENDBRANCH   1  20
TORSDOF 8
