REMARK  2 active torsions:
REMARK  status: ('A' for Active; 'I' for Inactive)
REMARK    1  A    between atoms: C2_2  and  C3_3 
REMARK    2  A    between atoms: C3_3  and  C4_4 
ROOT
HETATM    1  C3  UNL     1      -0.565  -0.610  -0.042  1.00  0.00     0.258 C 
HETATM    2  N1  UNL     1       0.187  -0.862  -1.262  1.00  0.00     0.117 N 
HETATM    3  C10 UNL     1       1.317  -1.670  -0.854  1.00  0.00     0.278 C 
HETATM    4  C11 UNL     1       2.538  -1.036  -1.457  1.00  0.00     0.070 C 
HETATM    5  C12 UNL     1       3.113   0.001  -0.560  1.00  0.00    -0.033 A 
HETATM    6  C13 UNL     1       4.469   0.192  -1.015  1.00  0.00     0.060 A 
HETATM    7  S1  UNL     1       5.148   1.499   0.170  1.00  0.00    -0.081 SA
HETATM    8  C14 UNL     1       3.556   1.651   1.141  1.00  0.00     0.113 A 
HETATM    9  N2  UNL     1       3.221   2.398   2.179  1.00  0.00    -0.234 NA
HETATM   10  C15 UNL     1       2.026   2.375   2.746  1.00  0.00     0.236 A 
HETATM   11  N3  UNL     1       1.216   1.516   2.148  1.00  0.00    -0.224 NA
HETATM   12  C16 UNL     1       1.440   0.726   1.116  1.00  0.00     0.140 A 
HETATM   13  C17 UNL     1       2.652   0.709   0.494  1.00  0.00     0.052 A 
HETATM   14  N4  UNL     1       0.172   0.071   0.971  1.00  0.00    -0.336 N 
HETATM   15  H11 UNL     1       0.448   0.062  -1.653  1.00  0.00     0.319 HD
HETATM   16  H18 UNL     1      -0.418   0.068   1.845  1.00  0.00     0.164 HD
ENDROOT
BRANCH   1  17
HETATM   17  C2  UNL     1      -1.080  -1.959   0.394  1.00  0.00     0.065 C 
HETATM   18  C1  UNL     1      -2.002  -1.875   1.576  1.00  0.00     0.010 C 
ENDBRANCH   1  17
BRANCH   1  19
HETATM   19  C4  UNL     1      -1.759   0.196  -0.402  1.00  0.00     0.000 A 
HETATM   20  C5  UNL     1      -2.230   0.161  -1.707  1.00  0.00     0.011 A 
HETATM   21  C6  UNL     1      -3.319   0.846  -2.206  1.00  0.00     0.001 A 
HETATM   22  C7  UNL     1      -4.004   1.643  -1.309  1.00  0.00     0.000 A 
HETATM   23  C8  UNL     1      -3.584   1.719   0.001  1.00  0.00     0.001 A 
HETATM   24  C9  UNL     1      -2.488   1.012   0.445  1.00  0.00     0.011 A 
ENDBRANCH   1  19
TORSDOF 2
