REMARK  2 active torsions:
REMARK  status: ('A' for Active; 'I' for Inactive)
REMARK    1  A    between atoms: C6_8  and  N2_9 
REMARK    2  A    between atoms: N2_9  and  C7_10 
ROOT
HETATM    1  C1  UNL     1      -6.168  -0.641  -0.138  1.00  0.00     0.033 C 
HETATM    2  C2  UNL     1      -5.120   0.406  -0.412  1.00  0.00     0.109 C 
HETATM    3  S1  UNL     1      -4.060   0.607   1.026  1.00  0.00    -0.141 SA
HETATM    4  C3  UNL     1      -2.343   0.136   0.698  1.00  0.00     0.123 C 
HETATM    5  C4  UNL     1      -2.108  -1.309   1.056  1.00  0.00     0.141 C 
HETATM    6  N1  UNL     1      -1.022  -1.496   2.017  1.00  0.00    -0.394 N 
HETATM    7  C5  UNL     1       0.387  -1.340   1.914  1.00  0.00     0.134 C 
HETATM    8  C6  UNL     1       1.337  -0.543   1.395  1.00  0.00     0.144 C 
HETATM    9  N3  UNL     1       0.876   0.570   0.660  1.00  0.00    -0.223 NA
HETATM   10  C13 UNL     1       1.217   1.789   0.826  1.00  0.00     0.237 C 
HETATM   11  N4  UNL     1       0.592   2.703  -0.060  1.00  0.00    -0.230 NA
HETATM   12  C14 UNL     1      -0.291   2.421  -0.932  1.00  0.00     0.259 C 
HETATM   13  O1  UNL     1      -0.562   1.068  -0.896  1.00  0.00    -0.307 OA
HETATM   14  C15 UNL     1      -1.823   0.550  -0.601  1.00  0.00     0.076 C 
HETATM   15  C16 UNL     1      -2.478   0.504  -1.750  1.00  0.00     0.080 C 
HETATM   16  S2  UNL     1      -4.169  -0.102  -1.864  1.00  0.00    -0.124 SA
HETATM   17  H8  UNL     1      -1.305  -1.802   3.001  1.00  0.00     0.159 HD
ENDROOT
BRANCH   8  18
HETATM   18  N2  UNL     1       2.733  -0.762   1.537  1.00  0.00    -0.340 N 
HETATM   19  H10 UNL     1       3.141  -1.078   2.444  1.00  0.00     0.167 HD
BRANCH  18  20
HETATM   20  C7  UNL     1       3.657  -0.572   0.482  1.00  0.00     0.035 A 
HETATM   21  C8  UNL     1       4.242   0.679   0.449  1.00  0.00     0.029 A 
HETATM   22  C9  UNL     1       5.166   1.027  -0.514  1.00  0.00     0.004 A 
HETATM   23  C10 UNL     1       5.551   0.145  -1.489  1.00  0.00     0.019 A 
HETATM   24  C11 UNL     1       4.965  -1.113  -1.459  1.00  0.00     0.013 A 
HETATM   25 BR1  UNL     1       5.430  -2.417  -2.768  1.00  0.00    -0.051 Br
HETATM   26  C12 UNL     1       4.038  -1.449  -0.486  1.00  0.00     0.048 A 
ENDBRANCH  18  20
ENDBRANCH   8  18
TORSDOF 2
