REMARK  12 active torsions:
REMARK  status: ('A' for Active; 'I' for Inactive)
REMARK    1  A    between atoms: C2_2  and  C3_3 
REMARK    2  A    between atoms: C4_4  and  C5_5 
REMARK    3  A    between atoms: C5_5  and  C6_6 
REMARK    4  A    between atoms: C6_6  and  C7_7 
REMARK    5  A    between atoms: C7_7  and  C8_8 
REMARK    6  A    between atoms: C7_7  and  N1_10 
REMARK    7  A    between atoms: C8_8  and  O1_9 
REMARK    8  A    between atoms: N1_10  and  C9_11 
REMARK       I    between atoms: N4_22  and  C17_23 
REMARK    9  A    between atoms: C17_23  and  C18_25 
REMARK   10  A    between atoms: C18_25  and  C19_26 
REMARK   11  A    between atoms: C19_26  and  C20_27 
REMARK   12  A    between atoms: C20_27  and  N5_28 
ROOT
HETATM    1  C9  UNL     1      -2.324   1.033  -0.927  1.00  0.00     0.139 A 
HETATM    2  N2  UNL     1      -3.439   1.746  -0.856  1.00  0.00    -0.224 NA
HETATM    3  C10 UNL     1      -3.533   3.049  -0.914  1.00  0.00     0.236 A 
HETATM    4  N3  UNL     1      -2.372   3.684  -1.059  1.00  0.00    -0.234 NA
HETATM    5  C11 UNL     1      -1.199   2.994  -1.136  1.00  0.00     0.114 A 
HETATM    6  S1  UNL     1       0.514   3.511  -1.323  1.00  0.00    -0.072 SA
HETATM    7  C12 UNL     1       1.202   1.885  -1.303  1.00  0.00     0.010 A 
HETATM    8  C13 UNL     1       0.080   0.960  -1.150  1.00  0.00    -0.025 A 
HETATM    9  C14 UNL     1      -1.100   1.627  -1.075  1.00  0.00     0.053 A 
HETATM   10  C15 UNL     1       0.796  -0.308  -1.148  1.00  0.00     0.060 C 
HETATM   11  C16 UNL     1       1.852  -0.324  -0.034  1.00  0.00     0.131 C 
HETATM   12  N4  UNL     1       2.979   0.501  -0.403  1.00  0.00    -0.347 N 
HETATM   13  C17 UNL     1       4.209   0.240   0.255  1.00  0.00     0.220 C 
HETATM   14  O2  UNL     1       3.846  -0.709   0.993  1.00  0.00    -0.273 OA
HETATM   15  C23 UNL     1       2.647   1.487  -1.416  1.00  0.00     0.172 C 
ENDROOT
BRANCH   1  16
HETATM   16  N1  UNL     1      -2.653  -0.330  -0.867  1.00  0.00    -0.367 N 
HETATM   17  H16 UNL     1      -1.814  -0.883  -0.975  1.00  0.00     0.161 HD
BRANCH  16  18
HETATM   18  C7  UNL     1      -3.689  -1.296  -0.718  1.00  0.00     0.107 C 
BRANCH  18  19
HETATM   19  C6  UNL     1      -4.301  -1.433   0.623  1.00  0.00     0.031 C 
BRANCH  19  20
HETATM   20  C5  UNL     1      -4.857  -0.226   1.279  1.00  0.00     0.029 C 
BRANCH  20  21
HETATM   21  C4  UNL     1      -5.991   0.381   0.502  1.00  0.00    -0.031 C 
HETATM   22  C3  UNL     1      -7.225   0.532   0.973  1.00  0.00    -0.031 C 
BRANCH  22  23
HETATM   23  C2  UNL     1      -8.512   1.074   0.470  1.00  0.00     0.022 C 
HETATM   24  C1  UNL     1      -9.603   0.026   0.468  1.00  0.00     0.009 C 
ENDBRANCH  22  23
ENDBRANCH  20  21
ENDBRANCH  19  20
ENDBRANCH  18  19
BRANCH  18  25
HETATM   25  C8  UNL     1      -3.233  -2.702  -1.169  1.00  0.00     0.189 C 
BRANCH  25  26
HETATM   26  O1  UNL     1      -2.150  -3.134  -0.418  1.00  0.00    -0.399 OA
HETATM   27  H15 UNL     1      -2.270  -4.061  -0.145  1.00  0.00     0.209 HD
ENDBRANCH  25  26
ENDBRANCH  18  25
ENDBRANCH  16  18
ENDBRANCH   1  16
BRANCH  13  28
HETATM   28  C18 UNL     1       5.403   1.036  -0.060  1.00  0.00     0.105 C 
BRANCH  28  29
HETATM   29  C19 UNL     1       6.625   0.619   0.728  1.00  0.00     0.039 C 
BRANCH  29  30
HETATM   30  C20 UNL     1       6.960  -0.817   0.435  1.00  0.00     0.271 C 
BRANCH  30  31
HETATM   31  N5  UNL     1       8.106  -1.316   1.132  1.00  0.00     0.080 N 
HETATM   32  C21 UNL     1       7.960  -1.451   2.546  1.00  0.00     0.309 C 
HETATM   33  C22 UNL     1       9.341  -0.723   0.725  1.00  0.00     0.309 C 
ENDBRANCH  30  31
ENDBRANCH  29  30
ENDBRANCH  28  29
ENDBRANCH  13  28
TORSDOF 12
