REMARK  5 active torsions:
REMARK  status: ('A' for Active; 'I' for Inactive)
REMARK    1  A    between atoms: C2_2  and  C3_3 
REMARK    2  A    between atoms: C2_2  and  N2_9 
REMARK    3  A    between atoms: C3_3  and  C4_4 
REMARK    4  A    between atoms: C4_4  and  N1_5 
REMARK    5  A    between atoms: N1_5  and  C6_7 
ROOT
HETATM    1  N2  UNL     1       0.457  -0.013  -0.091  1.00  0.00    -0.193 NA
HETATM    2  C7  UNL     1      -0.504   1.089  -0.023  1.00  0.00     0.126 C 
HETATM    3  C8  UNL     1      -1.503   1.055  -1.156  1.00  0.00     0.057 C 
HETATM    4  C9  UNL     1      -2.662   1.956  -0.795  1.00  0.00    -0.034 A 
HETATM    5  C10 UNL     1      -2.808   3.404  -0.847  1.00  0.00     0.060 A 
HETATM    6  S1  UNL     1      -4.527   3.553  -0.099  1.00  0.00    -0.081 SA
HETATM    7  C11 UNL     1      -4.745   1.835   0.135  1.00  0.00     0.113 A 
HETATM    8  N3  UNL     1      -5.886   1.339   0.682  1.00  0.00    -0.234 NA
HETATM    9  C12 UNL     1      -6.027   0.010   0.850  1.00  0.00     0.236 A 
HETATM   10  N4  UNL     1      -4.938  -0.620   0.413  1.00  0.00    -0.224 NA
HETATM   11  C13 UNL     1      -3.818  -0.132  -0.124  1.00  0.00     0.138 A 
HETATM   12  C14 UNL     1      -3.632   1.172  -0.304  1.00  0.00     0.052 A 
HETATM   13  N5  UNL     1      -3.047  -1.319  -0.416  1.00  0.00    -0.372 N 
HETATM   14  C15 UNL     1      -2.117  -2.399  -0.302  1.00  0.00     0.149 C 
HETATM   15  C16 UNL     1      -0.696  -1.950  -0.426  1.00  0.00     0.213 C 
HETATM   16  O2  UNL     1      -0.307  -1.043   0.499  1.00  0.00    -0.301 OA
HETATM   17  H19 UNL     1      -3.468  -1.447  -1.405  1.00  0.00     0.161 HD
ENDROOT
BRANCH   1  18
HETATM   18  C2  UNL     1       1.528   0.253   0.920  1.00  0.00     0.083 C 
HETATM   19  C1  UNL     1       2.251   1.489   0.545  1.00  0.00     0.029 C 
BRANCH  18  20
HETATM   20  C3  UNL     1       2.310  -0.976   1.150  1.00  0.00     0.041 C 
BRANCH  20  21
HETATM   21  C4  UNL     1       3.118  -1.533   0.044  1.00  0.00     0.126 C 
BRANCH  21  22
HETATM   22  N1  UNL     1       4.147  -0.742  -0.520  1.00  0.00    -0.364 N 
HETATM   23  C5  UNL     1       5.488  -0.804   0.075  1.00  0.00     0.152 C 
BRANCH  22  24
HETATM   24  C6  UNL     1       4.026   0.131  -1.633  1.00  0.00     0.350 C 
HETATM   25  O1  UNL     1       3.690   0.826  -2.614  1.00  0.00    -0.284 OA
ENDBRANCH  22  24
ENDBRANCH  21  22
ENDBRANCH  20  21
ENDBRANCH  18  20
ENDBRANCH   1  18
TORSDOF 5
