REMARK  9 active torsions:
REMARK  status: ('A' for Active; 'I' for Inactive)
REMARK    1  A    between atoms: N1_2  and  C2_3 
REMARK    2  A    between atoms: N1_2  and  C3_5 
REMARK    3  A    between atoms: C3_5  and  C4_6 
REMARK    4  A    between atoms: C4_6  and  C5_7 
REMARK    5  A    between atoms: C10_15  and  N4_16 
REMARK    6  A    between atoms: N4_16  and  C11_17 
REMARK    7  A    between atoms: C11_17  and  C12_18 
REMARK    8  A    between atoms: C11_17  and  C13_20 
REMARK    9  A    between atoms: C12_18  and  O2_19 
ROOT
HETATM    1  C5  UNL     1       3.498   0.235  -0.458  1.00  0.00     0.137 C 
HETATM    2  C6  UNL     1       2.901  -0.610   0.651  1.00  0.00     0.076 C 
HETATM    3  C7  UNL     1       1.525  -0.952   0.194  1.00  0.00    -0.006 A 
HETATM    4  S1  UNL     1       1.397  -2.676  -0.249  1.00  0.00    -0.073 SA
HETATM    5  C8  UNL     1      -0.412  -2.493  -0.712  1.00  0.00     0.114 A 
HETATM    6  N2  UNL     1      -1.227  -3.602  -1.204  1.00  0.00    -0.234 NA
HETATM    7  C9  UNL     1      -2.478  -3.228  -1.468  1.00  0.00     0.236 A 
HETATM    8  N3  UNL     1      -2.777  -1.985  -1.260  1.00  0.00    -0.224 NA
HETATM    9  C10 UNL     1      -2.045  -0.999  -0.821  1.00  0.00     0.139 A 
HETATM   10  C19 UNL     1      -0.738  -1.151  -0.486  1.00  0.00     0.053 A 
HETATM   11  C20 UNL     1       0.270  -0.421  -0.030  1.00  0.00    -0.026 A 
HETATM   12  C21 UNL     1      -0.102   0.984   0.235  1.00  0.00     0.064 C 
HETATM   13  C22 UNL     1       0.986   1.776   0.954  1.00  0.00     0.178 C 
HETATM   14  N5  UNL     1       2.087   2.122   0.163  1.00  0.00    -0.197 NA
HETATM   15  N6  UNL     1       3.035   1.565  -0.375  1.00  0.00    -0.193 NA
ENDROOT
BRANCH   9  16
HETATM   16  N4  UNL     1      -2.712   0.249  -0.766  1.00  0.00    -0.363 N 
HETATM   17  H13 UNL     1      -2.437   1.211  -0.511  1.00  0.00     0.162 HD
BRANCH  16  18
HETATM   18  C11 UNL     1      -4.077   0.484  -1.087  1.00  0.00     0.140 C 
BRANCH  18  19
HETATM   19  C12 UNL     1      -4.521  -0.066  -2.451  1.00  0.00     0.194 C 
BRANCH  19  20
HETATM   20  O2  UNL     1      -5.873   0.272  -2.621  1.00  0.00    -0.399 OA
HETATM   21  H17 UNL     1      -6.238  -0.346  -3.294  1.00  0.00     0.209 HD
ENDBRANCH  19  20
ENDBRANCH  18  19
BRANCH  18  22
HETATM   22  C13 UNL     1      -5.060   0.244  -0.024  1.00  0.00    -0.034 A 
HETATM   23  C14 UNL     1      -5.104  -0.765   0.907  1.00  0.00     0.009 A 
HETATM   24  C15 UNL     1      -6.057  -0.941   1.870  1.00  0.00     0.001 A 
HETATM   25  C16 UNL     1      -7.098  -0.044   1.959  1.00  0.00     0.000 A 
HETATM   26  C17 UNL     1      -7.155   1.009   1.075  1.00  0.00     0.001 A 
HETATM   27  C18 UNL     1      -6.155   1.109   0.139  1.00  0.00     0.009 A 
ENDBRANCH  18  22
ENDBRANCH  16  18
ENDBRANCH   9  16
BRANCH   1  28
HETATM   28  C4  UNL     1       5.013   0.114  -0.476  1.00  0.00     0.049 C 
BRANCH  28  29
HETATM   29  C3  UNL     1       5.533   0.590   0.859  1.00  0.00     0.127 C 
BRANCH  29  30
HETATM   30  N1  UNL     1       6.992   0.503   0.918  1.00  0.00    -0.364 N 
HETATM   31  C1  UNL     1       7.915   1.556   0.524  1.00  0.00     0.152 C 
BRANCH  30  32
HETATM   32  C2  UNL     1       7.663  -0.683   1.389  1.00  0.00     0.350 C 
HETATM   33  O1  UNL     1       8.743  -0.103   1.182  1.00  0.00    -0.284 OA
ENDBRANCH  30  32
ENDBRANCH  29  30
ENDBRANCH  28  29
ENDBRANCH   1  28
TORSDOF 9
