REMARK  7 active torsions:
REMARK  status: ('A' for Active; 'I' for Inactive)
REMARK    1  A    between atoms: C3_3  and  C4_4 
REMARK    2  A    between atoms: C4_4  and  C5_5 
REMARK    3  A    between atoms: C5_5  and  C6_6 
REMARK    4  A    between atoms: C6_6  and  O1_7 
REMARK       I    between atoms: N2_15  and  C12_16 
REMARK    5  A    between atoms: C12_16  and  C13_18 
REMARK    6  A    between atoms: C14_19  and  C15_20 
REMARK    7  A    between atoms: C15_20  and  N3_21 
ROOT
HETATM    1  C5  UNL     1      -3.592  -0.690  -0.218  1.00  0.00     0.193 C 
HETATM    2  N1  UNL     1      -4.281  -1.314  -1.331  1.00  0.00     0.111 N 
HETATM    3  C7  UNL     1      -3.249  -2.330  -1.408  1.00  0.00     0.298 C 
HETATM    4  S1  UNL     1      -1.863  -1.947  -2.511  1.00  0.00    -0.096 SA
HETATM    5  C8  UNL     1      -0.640  -1.775  -1.183  1.00  0.00     0.001 C 
HETATM    6  C9  UNL     1      -1.295  -1.769  -0.056  1.00  0.00    -0.054 C 
HETATM    7  C10 UNL     1      -0.431  -1.633   1.150  1.00  0.00     0.056 C 
HETATM    8  C11 UNL     1       1.006  -1.963   0.912  1.00  0.00     0.131 C 
HETATM    9  N2  UNL     1       1.540  -1.365  -0.275  1.00  0.00    -0.344 N 
HETATM   10  C12 UNL     1       2.703  -0.559  -0.186  1.00  0.00     0.243 C 
HETATM   11  O2  UNL     1       3.046  -0.531   1.020  1.00  0.00    -0.268 OA
HETATM   12  C18 UNL     1       0.792  -1.671  -1.459  1.00  0.00     0.172 C 
HETATM   13  C19 UNL     1      -2.745  -1.890  -0.087  1.00  0.00     0.100 C 
HETATM   14  H11 UNL     1      -4.323  -0.793  -2.218  1.00  0.00     0.318 HD
ENDROOT
BRANCH  10  15
HETATM   15  C13 UNL     1       3.315   0.077  -1.338  1.00  0.00     0.072 C 
HETATM   16  C14 UNL     1       4.385   0.826  -1.293  1.00  0.00     0.008 C 
BRANCH  16  17
HETATM   17  C15 UNL     1       5.274   1.264  -0.204  1.00  0.00     0.299 C 
BRANCH  17  18
HETATM   18  N3  UNL     1       6.653   0.844  -0.377  1.00  0.00     0.083 N 
HETATM   19  C16 UNL     1       7.275   1.523  -1.497  1.00  0.00     0.309 C 
HETATM   20  C17 UNL     1       7.363   1.211   0.854  1.00  0.00     0.309 C 
ENDBRANCH  17  18
ENDBRANCH  16  17
ENDBRANCH  10  15
BRANCH   1  21
HETATM   21  C4  UNL     1      -4.502  -0.483   0.994  1.00  0.00     0.071 C 
BRANCH  21  22
HETATM   22  C3  UNL     1      -5.600   0.458   0.733  1.00  0.00    -0.028 C 
HETATM   23  C2  UNL     1      -5.800   1.602   1.402  1.00  0.00    -0.035 C 
HETATM   24  C1  UNL     1      -6.988   2.402   0.958  1.00  0.00     0.036 C 
ENDBRANCH  21  22
ENDBRANCH   1  21
BRANCH   1  25
HETATM   25  C6  UNL     1      -2.969   0.609  -0.639  1.00  0.00     0.207 C 
BRANCH  25  26
HETATM   26  O1  UNL     1      -4.027   1.430  -1.087  1.00  0.00    -0.398 OA
HETATM   27  H10 UNL     1      -3.728   2.368  -1.063  1.00  0.00     0.209 HD
ENDBRANCH  25  26
ENDBRANCH   1  25
TORSDOF 7
