REMARK  4 active torsions:
REMARK  status: ('A' for Active; 'I' for Inactive)
REMARK    1  A    between atoms: C2_2  and  C3_3 
REMARK    2  A    between atoms: C3_3  and  N1_4 
REMARK    3  A    between atoms: C10_11  and  C11_12 
REMARK    4  A    between atoms: C11_12  and  O1_13 
ROOT
HETATM    1  N1  UNL     1       3.879   0.532   0.181  1.00  0.00    -0.387 N 
HETATM    2  C4  UNL     1       3.947   1.831  -0.452  1.00  0.00     0.086 C 
HETATM    3  C5  UNL     1       2.946   2.624  -0.715  1.00  0.00     0.017 C 
HETATM    4  C6  UNL     1       1.555   2.312  -0.396  1.00  0.00     0.001 C 
HETATM    5  C7  UNL     1       0.604   3.171  -0.701  1.00  0.00    -0.000 C 
HETATM    6  C8  UNL     1      -0.827   3.083  -0.489  1.00  0.00    -0.002 C 
HETATM    7  C9  UNL     1      -1.744   2.266   0.021  1.00  0.00     0.000 C 
HETATM    8  C10 UNL     1      -3.196   2.286   0.180  1.00  0.00     0.129 C 
HETATM    9  N2  UNL     1      -3.786   1.005  -0.040  1.00  0.00    -0.364 N 
HETATM   10  C12 UNL     1      -3.862  -0.209   0.680  1.00  0.00     0.139 A 
HETATM   11  N3  UNL     1      -4.597   0.214   1.697  1.00  0.00    -0.224 NA
HETATM   12  C13 UNL     1      -5.035  -0.467   2.759  1.00  0.00     0.236 A 
HETATM   13  N4  UNL     1      -4.630  -1.747   2.714  1.00  0.00    -0.234 NA
HETATM   14  C14 UNL     1      -3.878  -2.174   1.671  1.00  0.00     0.114 A 
HETATM   15  S1  UNL     1      -3.160  -3.850   1.325  1.00  0.00    -0.072 SA
HETATM   16  C15 UNL     1      -2.310  -3.425  -0.287  1.00  0.00     0.010 A 
HETATM   17  C16 UNL     1      -2.687  -2.029  -0.371  1.00  0.00    -0.025 A 
HETATM   18  C17 UNL     1      -3.434  -1.488   0.595  1.00  0.00     0.053 A 
HETATM   19  C18 UNL     1      -2.288  -1.193  -1.490  1.00  0.00     0.060 C 
HETATM   20  C19 UNL     1      -1.141  -1.767  -2.230  1.00  0.00     0.131 C 
HETATM   21  N5  UNL     1      -0.378  -2.806  -1.565  1.00  0.00    -0.344 N 
HETATM   22  C20 UNL     1      -1.453  -3.840  -1.423  1.00  0.00     0.172 C 
HETATM   23  C21 UNL     1       0.970  -2.651  -1.189  1.00  0.00     0.243 C 
HETATM   24  O2  UNL     1       0.839  -3.841  -0.879  1.00  0.00    -0.268 OA
HETATM   25  C22 UNL     1       2.329  -2.475  -0.815  1.00  0.00     0.072 C 
HETATM   26  C23 UNL     1       2.759  -1.267  -0.995  1.00  0.00    -0.002 C 
HETATM   27  C24 UNL     1       4.041  -0.556  -0.784  1.00  0.00     0.149 C 
HETATM   28  H18 UNL     1      -4.318   0.835  -0.942  1.00  0.00     0.162 HD
ENDROOT
BRANCH   1  29
HETATM   29  C3  UNL     1       3.653   0.565   1.601  1.00  0.00     0.122 C 
BRANCH  29  30
HETATM   30  C2  UNL     1       4.856   0.135   2.379  1.00  0.00     0.015 C 
HETATM   31  C1  UNL     1       5.347  -1.257   2.130  1.00  0.00     0.006 C 
ENDBRANCH  29  30
ENDBRANCH   1  29
BRANCH   8  32
HETATM   32  C11 UNL     1      -3.796   3.337  -0.730  1.00  0.00     0.193 C 
BRANCH  32  33
HETATM   33  O1  UNL     1      -5.184   3.438  -0.505  1.00  0.00    -0.399 OA
HETATM   34  H17 UNL     1      -5.284   3.560   0.481  1.00  0.00     0.209 HD
ENDBRANCH  32  33
ENDBRANCH   8  32
TORSDOF 4
