REMARK  8 active torsions:
REMARK  status: ('A' for Active; 'I' for Inactive)
REMARK    1  A    between atoms: N1_2  and  C3_4 
REMARK    2  A    between atoms: C3_4  and  C4_5 
REMARK    3  A    between atoms: C4_5  and  C5_6 
REMARK    4  A    between atoms: C13_19  and  N5_20 
REMARK    5  A    between atoms: N5_20  and  C14_21 
REMARK    6  A    between atoms: C14_21  and  C15_22 
REMARK    7  A    between atoms: C14_21  and  C16_24 
REMARK    8  A    between atoms: C15_22  and  O2_23 
ROOT
HETATM    1  C5  UNL     1       3.798   3.240   1.871  1.00  0.00     0.067 C 
HETATM    2  C6  UNL     1       2.551   2.758   2.402  1.00  0.00     0.308 A 
HETATM    3  O1  UNL     1       1.555   2.440   3.068  1.00  0.00    -0.123 OA
HETATM    4  N2  UNL     1       1.485   2.050   1.781  1.00  0.00     0.113 N 
HETATM    5  C7  UNL     1       0.228   1.529   2.159  1.00  0.00     0.288 C 
HETATM    6  C8  UNL     1      -0.012   0.143   1.509  1.00  0.00     0.072 C 
HETATM    7  C9  UNL     1      -0.399   0.416   0.111  1.00  0.00    -0.025 A 
HETATM    8  C10 UNL     1       0.615   1.283  -0.355  1.00  0.00     0.021 A 
HETATM    9  S1  UNL     1       0.108   1.595  -2.045  1.00  0.00    -0.072 SA
HETATM   10  C11 UNL     1      -1.345   0.599  -2.012  1.00  0.00     0.114 A 
HETATM   11  N3  UNL     1      -2.166   0.454  -3.051  1.00  0.00    -0.234 NA
HETATM   12  C12 UNL     1      -3.261  -0.363  -2.836  1.00  0.00     0.236 A 
HETATM   13  N4  UNL     1      -3.309  -0.865  -1.631  1.00  0.00    -0.224 NA
HETATM   14  C13 UNL     1      -2.500  -0.732  -0.587  1.00  0.00     0.139 A 
HETATM   15  C22 UNL     1      -1.400   0.063  -0.734  1.00  0.00     0.053 A 
HETATM   16  C23 UNL     1       1.759   1.793   0.380  1.00  0.00     0.330 C 
ENDROOT
BRANCH  14  17
HETATM   17  N5  UNL     1      -2.794  -1.473   0.618  1.00  0.00    -0.363 N 
HETATM   18  H16 UNL     1      -2.312  -1.581   1.509  1.00  0.00     0.162 HD
BRANCH  17  19
HETATM   19  C14 UNL     1      -4.000  -2.248   0.637  1.00  0.00     0.140 C 
BRANCH  19  20
HETATM   20  C15 UNL     1      -5.272  -1.462   0.728  1.00  0.00     0.194 C 
BRANCH  20  21
HETATM   21  O2  UNL     1      -5.504  -0.558  -0.270  1.00  0.00    -0.399 OA
HETATM   22  H20 UNL     1      -6.451  -0.362  -0.428  1.00  0.00     0.209 HD
ENDBRANCH  20  21
ENDBRANCH  19  20
BRANCH  19  23
HETATM   23  C16 UNL     1      -4.071  -3.178  -0.528  1.00  0.00    -0.034 A 
HETATM   24  C17 UNL     1      -2.912  -3.971  -0.601  1.00  0.00     0.009 A 
HETATM   25  C18 UNL     1      -2.854  -4.891  -1.650  1.00  0.00     0.001 A 
HETATM   26  C19 UNL     1      -3.829  -5.098  -2.625  1.00  0.00     0.000 A 
HETATM   27  C20 UNL     1      -4.944  -4.288  -2.498  1.00  0.00     0.001 A 
HETATM   28  C21 UNL     1      -5.050  -3.375  -1.496  1.00  0.00     0.009 A 
ENDBRANCH  19  23
ENDBRANCH  17  19
ENDBRANCH  14  17
BRANCH   1  29
HETATM   29  C4  UNL     1       4.398   3.230   0.713  1.00  0.00     0.007 C 
BRANCH  29  30
HETATM   30  C3  UNL     1       4.783   3.054  -0.659  1.00  0.00     0.299 C 
BRANCH  30  31
HETATM   31  N1  UNL     1       6.009   2.349  -0.836  1.00  0.00     0.083 N 
HETATM   32  C1  UNL     1       7.210   3.026  -0.441  1.00  0.00     0.309 C 
HETATM   33  C2  UNL     1       5.947   1.010  -0.332  1.00  0.00     0.309 C 
ENDBRANCH  30  31
ENDBRANCH  29  30
ENDBRANCH   1  29
TORSDOF 8
