REMARK  6 active torsions:
REMARK  status: ('A' for Active; 'I' for Inactive)
REMARK    1  A    between atoms: O1_1  and  C1_2 
REMARK    2  A    between atoms: C1_2  and  C2_3 
REMARK    3  A    between atoms: C2_3  and  N1_4 
REMARK    4  A    between atoms: C2_3  and  C10_18 
REMARK    5  A    between atoms: N1_4  and  B1_5 
REMARK    6  A    between atoms: B1_5  and  C3_6 
ROOT
HETATM    1  B1  UNL     1       0.287  -1.439   0.415  1.00  0.00     0.298 B 
HETATM    2  H6  UNL     1      -0.009  -2.583   0.290  1.00  0.00    -0.000 HD
ENDROOT
BRANCH   1   3
HETATM    3  N1  UNL     1      -0.836  -0.444   0.404  1.00  0.00    -0.358 NA
HETATM    4  H5  UNL     1      -0.909   0.106   1.287  1.00  0.00     0.104 HD
BRANCH   3   5
HETATM    5  C2  UNL     1      -2.100  -1.010  -0.017  1.00  0.00     0.099 C 
BRANCH   5   6
HETATM    6  C1  UNL     1      -2.606  -2.123   0.825  1.00  0.00     0.187 C 
BRANCH   6   7
HETATM    7  O1  UNL     1      -3.810  -2.576   0.287  1.00  0.00    -0.399 OA
HETATM    8  H1  UNL     1      -3.854  -2.496  -0.695  1.00  0.00     0.209 HD
ENDBRANCH   6   7
ENDBRANCH   5   6
BRANCH   5   9
HETATM    9  C10 UNL     1      -3.074   0.089  -0.147  1.00  0.00    -0.040 A 
HETATM   10  C11 UNL     1      -2.514   1.134  -0.889  1.00  0.00     0.009 A 
HETATM   11  C12 UNL     1      -3.197   2.307  -1.172  1.00  0.00     0.001 A 
HETATM   12  C13 UNL     1      -4.484   2.469  -0.709  1.00  0.00     0.000 A 
HETATM   13  C14 UNL     1      -5.043   1.442   0.024  1.00  0.00     0.001 A 
HETATM   14  C15 UNL     1      -4.358   0.281   0.300  1.00  0.00     0.009 A 
ENDBRANCH   5   9
ENDBRANCH   3   5
ENDBRANCH   1   3
BRANCH   1  15
HETATM   15  C3  UNL     1       1.758  -1.008   0.464  1.00  0.00     0.008 C 
HETATM   16  C4  UNL     1       2.160   0.235   0.019  1.00  0.00     0.023 C 
HETATM   17  C5  UNL     1       3.346   0.842   0.365  1.00  0.00    -0.022 A 
HETATM   18  C6  UNL     1       4.676   0.476   0.501  1.00  0.00     0.131 A 
HETATM   19  C9  UNL     1       4.034   2.067   0.775  1.00  0.00     0.122 A 
HETATM   20  S1  UNL     1       4.819  -1.009   1.360  1.00  0.00     0.027 SA
HETATM   21  N5  UNL     1       5.017   1.678  -0.222  1.00  0.00    -0.278 N 
HETATM   22  N2  UNL     1       5.250  -2.473   0.614  1.00  0.00    -0.112 NA
HETATM   23  N3  UNL     1       4.284  -3.372   0.513  1.00  0.00    -0.136 NA
HETATM   24  C7  UNL     1       3.066  -2.890   0.130  1.00  0.00     0.256 C 
HETATM   25  N4  UNL     1       2.646  -1.892   0.960  1.00  0.00    -0.256 NA
HETATM   26  C8  UNL     1       4.529   3.112  -0.077  1.00  0.00     0.118 A 
ENDBRANCH   1  15
TORSDOF 6
