REMARK  2 active torsions:
REMARK  status: ('A' for Active; 'I' for Inactive)
REMARK    1  A    between atoms: C1_2  and  N1_3 
REMARK    2  A    between atoms: C7_10  and  C8_11 
ROOT
HETATM    1  N1  UNL     1      -4.438  -0.206  -0.243  1.00  0.00    -0.358 N 
HETATM    2  C2  UNL     1      -3.570  -0.041  -1.393  1.00  0.00     0.125 C 
HETATM    3  C3  UNL     1      -2.749   1.191  -1.338  1.00  0.00     0.023 C 
HETATM    4  C4  UNL     1      -1.741   1.067  -2.508  1.00  0.00     0.030 C 
HETATM    5  C5  UNL     1      -0.604   1.940  -2.071  1.00  0.00    -0.010 C 
HETATM    6  C6  UNL     1       0.500   1.219  -1.759  1.00  0.00     0.079 C 
HETATM    7  N2  UNL     1       1.858   0.956  -1.326  1.00  0.00    -0.386 N 
HETATM    8  C7  UNL     1       2.074  -0.150  -0.364  1.00  0.00     0.165 C 
HETATM    9  C14 UNL     1       1.090   0.043   0.771  1.00  0.00     0.281 C 
HETATM   10  N3  UNL     1       1.715  -0.301   2.048  1.00  0.00    -0.248 NA
HETATM   11  C15 UNL     1       1.828  -1.589   2.258  1.00  0.00     0.233 C 
HETATM   12  N4  UNL     1       0.680  -2.363   1.934  1.00  0.00    -0.212 NA
HETATM   13  C16 UNL     1      -0.381  -1.779   1.465  1.00  0.00     0.207 C 
HETATM   14  O2  UNL     1      -0.078  -0.734   0.629  1.00  0.00    -0.298 OA
HETATM   15  S1  UNL     1      -1.943  -2.512   2.048  1.00  0.00    -0.083 SA
HETATM   16  C17 UNL     1      -3.269  -2.150   0.813  1.00  0.00     0.103 C 
HETATM   17  C18 UNL     1      -3.504  -0.683   0.751  1.00  0.00     0.136 C 
HETATM   18  H10 UNL     1       2.327   1.706  -1.881  1.00  0.00     0.159 HD
ENDROOT
BRANCH   8  19
HETATM   19  C8  UNL     1       3.417   0.153   0.227  1.00  0.00    -0.031 A 
HETATM   20  C9  UNL     1       3.662   1.455   0.608  1.00  0.00     0.009 A 
HETATM   21  C10 UNL     1       4.914   1.694   1.147  1.00  0.00     0.001 A 
HETATM   22  C11 UNL     1       5.834   0.681   1.282  1.00  0.00     0.000 A 
HETATM   23  C12 UNL     1       5.519  -0.612   0.875  1.00  0.00     0.001 A 
HETATM   24  C13 UNL     1       4.271  -0.896   0.328  1.00  0.00     0.009 A 
ENDBRANCH   8  19
BRANCH   1  25
HETATM   25  C1  UNL     1      -5.812   0.042   0.042  1.00  0.00     0.350 C 
HETATM   26  O1  UNL     1      -6.213  -0.248   1.219  1.00  0.00    -0.284 OA
ENDBRANCH   1  25
TORSDOF 2
