REMARK  3 active torsions:
REMARK  status: ('A' for Active; 'I' for Inactive)
REMARK    1  A    between atoms: N1_1  and  C1_2 
REMARK    2  A    between atoms: C8_11  and  N3_12 
REMARK    3  A    between atoms: N3_12  and  C9_13 
ROOT
HETATM    1  C1  UNL     1      -3.503   0.620  -0.281  1.00  0.00     0.021 C 
HETATM    2  C2  UNL     1      -4.488  -0.170  -0.206  1.00  0.00     0.030 C 
HETATM    3  C3  UNL     1      -4.164  -1.523   0.082  1.00  0.00     0.058 C 
HETATM    4  C4  UNL     1      -2.910  -1.703   0.189  1.00  0.00     0.147 C 
HETATM    5  O1  UNL     1      -2.155  -3.061   0.523  1.00  0.00    -0.266 OA
HETATM    6  C5  UNL     1      -1.013  -2.409   1.257  1.00  0.00     0.544 A 
HETATM    7  N2  UNL     1      -0.244  -1.835   0.218  1.00  0.00     0.115 N 
HETATM    8  C6  UNL     1      -0.466  -1.872  -1.148  1.00  0.00     0.309 A 
HETATM    9  C7  UNL     1       0.031  -1.643   0.063  1.00  0.00     0.369 A 
HETATM   10  C8  UNL     1       0.871  -1.197   1.189  1.00  0.00     0.509 A 
HETATM   11  N4  UNL     1      -0.008  -1.846   2.057  1.00  0.00     0.450 N 
HETATM   12  N5  UNL     1      -1.633  -0.744   0.031  1.00  0.00    -0.313 N 
HETATM   13  C15 UNL     1      -2.168   0.798  -0.109  1.00  0.00     0.184 C 
ENDROOT
BRANCH  10  14
HETATM   14  N3  UNL     1       2.008  -0.456   1.660  1.00  0.00    -0.325 N 
HETATM   15  H6  UNL     1       2.047  -0.561   2.678  1.00  0.00     0.164 HD
BRANCH  14  16
HETATM   16  C9  UNL     1       2.862   0.253   0.835  1.00  0.00     0.032 A 
HETATM   17  C10 UNL     1       3.927   0.936   1.371  1.00  0.00     0.029 A 
HETATM   18  C11 UNL     1       4.831   1.665   0.638  1.00  0.00     0.004 A 
HETATM   19  C12 UNL     1       4.653   1.713  -0.750  1.00  0.00     0.019 A 
HETATM   20  C13 UNL     1       3.586   1.028  -1.288  1.00  0.00     0.013 A 
HETATM   21 BR1  UNL     1       3.451   1.167  -3.183  1.00  0.00    -0.051 Br
HETATM   22  C14 UNL     1       2.684   0.299  -0.541  1.00  0.00     0.048 A 
ENDBRANCH  14  16
ENDBRANCH  10  14
BRANCH   1  23
HETATM   23  N1  UNL     1      -3.752   1.968  -0.573  1.00  0.00    -0.401 N 
HETATM   24  H1  UNL     1      -4.275   2.428   0.212  1.00  0.00     0.156 HD
HETATM   25  H2  UNL     1      -3.664   2.770  -1.223  1.00  0.00     0.156 HD
ENDBRANCH   1  23
TORSDOF 3
