REMARK  3 active torsions:
REMARK  status: ('A' for Active; 'I' for Inactive)
REMARK    1  A    between atoms: N3_13  and  C9_14 
REMARK    2  A    between atoms: C9_14  and  C11_16 
REMARK    3  A    between atoms: C12_17  and  C13_18 
ROOT
HETATM    1  C1  UNL     1       2.956   1.333  -1.257  1.00  0.00     0.061 C 
HETATM    2  C2  UNL     1       2.637   1.364   0.045  1.00  0.00     0.025 C 
HETATM    3  N1  UNL     1       3.505   2.136   0.830  1.00  0.00    -0.260 NA
HETATM    4  C3  UNL     1       3.387   3.438   0.845  1.00  0.00     0.290 A 
HETATM    5  N2  UNL     1       2.768   4.651   0.438  1.00  0.00    -0.274 NA
HETATM    6  C4  UNL     1       1.524   4.858   0.643  1.00  0.00     0.205 A 
HETATM    7  S1  UNL     1       1.432   3.263   1.395  1.00  0.00    -0.090 SA
HETATM    8  O1  UNL     1       1.337   1.979   0.196  1.00  0.00     0.000 OA
HETATM    9  C5  UNL     1       0.262   1.119   0.242  1.00  0.00    -0.041 A 
HETATM   10  C6  UNL     1       1.426   0.518   0.104  1.00  0.00     0.044 A 
HETATM   11  C7  UNL     1       1.764  -0.919  -0.037  1.00  0.00     0.041 C 
HETATM   12  C8  UNL     1       0.496  -1.711  -0.109  1.00  0.00     0.119 C 
HETATM   13  N3  UNL     1      -0.549  -1.126   0.629  1.00  0.00    -0.402 N 
HETATM   14  C14 UNL     1      -0.894   0.221   0.292  1.00  0.00     0.153 C 
ENDROOT
BRANCH  13  15
HETATM   15  C9  UNL     1      -1.710  -1.951   0.833  1.00  0.00     0.098 C 
HETATM   16  C10 UNL     1      -1.529  -3.205   1.590  1.00  0.00     0.036 C 
BRANCH  15  17
HETATM   17  C11 UNL     1      -2.172  -2.292  -0.569  1.00  0.00    -0.001 C 
HETATM   18  C12 UNL     1      -3.169  -1.737  -1.285  1.00  0.00     0.016 C 
BRANCH  18  19
HETATM   19  C13 UNL     1      -4.167  -0.640  -1.029  1.00  0.00     0.107 C 
HETATM   20  N4  UNL     1      -4.784  -0.668  -2.183  1.00  0.00    -0.312 NA
HETATM   21  H16 UNL     1      -5.578   0.012  -2.336  1.00  0.00     0.186 HD
ENDBRANCH  18  19
ENDBRANCH  15  17
ENDBRANCH  13  15
TORSDOF 3
