REMARK  3 active torsions:
REMARK  status: ('A' for Active; 'I' for Inactive)
REMARK    1  A    between atoms: C8_13  and  N5_14 
REMARK    2  A    between atoms: N5_14  and  C9_15 
REMARK    3  A    between atoms: C9_15  and  C10_16 
ROOT
HETATM    1  N1  UNL     1      -6.799  -0.025   0.783  1.00  0.00    -0.172 NA
HETATM    2  C1  UNL     1      -5.826   0.375   0.344  1.00  0.00     0.179 C 
HETATM    3  N2  UNL     1      -4.651   0.862  -0.211  1.00  0.00    -0.315 N 
HETATM    4  C2  UNL     1      -3.560   1.474   0.458  1.00  0.00     0.139 C 
HETATM    5  C3  UNL     1      -2.294   0.703   0.548  1.00  0.00     0.061 C 
HETATM    6  C4  UNL     1      -2.010   0.016  -0.734  1.00  0.00    -0.025 A 
HETATM    7  C5  UNL     1      -3.000   0.155  -1.694  1.00  0.00     0.011 A 
HETATM    8  S1  UNL     1      -2.410  -0.726  -3.128  1.00  0.00    -0.072 SA
HETATM    9  C6  UNL     1      -0.858  -1.242  -2.367  1.00  0.00     0.114 A 
HETATM   10  N3  UNL     1       0.108  -1.981  -2.937  1.00  0.00    -0.234 NA
HETATM   11  C7  UNL     1       1.196  -2.272  -2.215  1.00  0.00     0.236 A 
HETATM   12  N4  UNL     1       1.183  -1.778  -0.983  1.00  0.00    -0.224 NA
HETATM   13  C8  UNL     1       0.224  -1.045  -0.419  1.00  0.00     0.138 A 
HETATM   14  C16 UNL     1      -0.914  -0.713  -1.111  1.00  0.00     0.053 A 
HETATM   15  C17 UNL     1      -4.280   0.851  -1.610  1.00  0.00     0.181 C 
ENDROOT
BRANCH  13  16
HETATM   16  N5  UNL     1       0.538  -0.720   0.921  1.00  0.00    -0.370 N 
HETATM   17  H6  UNL     1      -0.108  -0.187   1.530  1.00  0.00     0.161 HD
BRANCH  16  18
HETATM   18  C9  UNL     1       1.734  -1.051   1.662  1.00  0.00     0.160 C 
BRANCH  18  19
HETATM   19  C10 UNL     1       2.966  -0.432   1.083  1.00  0.00    -0.041 A 
HETATM   20  C11 UNL     1       3.905  -0.932   0.220  1.00  0.00     0.009 A 
HETATM   21  C12 UNL     1       4.959  -0.178  -0.205  1.00  0.00     0.001 A 
HETATM   22  C13 UNL     1       5.158   1.127   0.196  1.00  0.00     0.000 A 
HETATM   23  C14 UNL     1       4.241   1.652   1.054  1.00  0.00     0.001 A 
HETATM   24  C15 UNL     1       3.175   0.887   1.482  1.00  0.00     0.009 A 
ENDBRANCH  18  19
ENDBRANCH  16  18
ENDBRANCH  13  16
TORSDOF 3
