REMARK  10 active torsions:
REMARK  status: ('A' for Active; 'I' for Inactive)
REMARK    1  A    between atoms: C2_2  and  C3_3 
REMARK    2  A    between atoms: C3_3  and  C4_4 
REMARK    3  A    between atoms: C4_4  and  C5_5 
REMARK    4  A    between atoms: C5_5  and  C6_6 
REMARK    5  A    between atoms: C6_6  and  N1_7 
REMARK    6  A    between atoms: C13_17  and  N4_18 
REMARK    7  A    between atoms: N4_18  and  C14_19 
REMARK    8  A    between atoms: C14_19  and  C15_20 
REMARK    9  A    between atoms: C14_19  and  C16_22 
REMARK   10  A    between atoms: C15_20  and  O1_21 
ROOT
HETATM    1  N1  UNL     1       2.705  -0.484  -0.455  1.00  0.00    -0.379 N 
HETATM    2  C7  UNL     1       1.705   0.444  -0.948  1.00  0.00     0.128 C 
HETATM    3  C8  UNL     1       0.392  -0.378  -0.847  1.00  0.00     0.060 C 
HETATM    4  C9  UNL     1      -0.071  -0.225   0.553  1.00  0.00    -0.025 A 
HETATM    5  C10 UNL     1       1.029  -0.611   1.341  1.00  0.00     0.010 A 
HETATM    6  S1  UNL     1       0.509  -0.424   2.991  1.00  0.00    -0.072 SA
HETATM    7  C11 UNL     1      -1.118   0.148   2.590  1.00  0.00     0.114 A 
HETATM    8  N2  UNL     1      -2.124   0.503   3.430  1.00  0.00    -0.234 NA
HETATM    9  C12 UNL     1      -3.302   0.915   2.946  1.00  0.00     0.236 A 
HETATM   10  N3  UNL     1      -3.356   0.929   1.636  1.00  0.00    -0.224 NA
HETATM   11  C13 UNL     1      -2.396   0.590   0.796  1.00  0.00     0.139 A 
HETATM   12  C22 UNL     1      -1.160   0.159   1.233  1.00  0.00     0.053 A 
HETATM   13  C23 UNL     1       2.357  -1.092   0.812  1.00  0.00     0.169 C 
ENDROOT
BRANCH  11  14
HETATM   14  N4  UNL     1      -2.766   0.693  -0.601  1.00  0.00    -0.363 N 
HETATM   15  H15 UNL     1      -2.303   0.501  -1.498  1.00  0.00     0.162 HD
BRANCH  14  16
HETATM   16  C14 UNL     1      -4.079   1.157  -0.987  1.00  0.00     0.140 C 
BRANCH  16  17
HETATM   17  C15 UNL     1      -4.283   1.196  -2.475  1.00  0.00     0.194 C 
BRANCH  17  18
HETATM   18  O1  UNL     1      -5.541   1.642  -2.797  1.00  0.00    -0.399 OA
HETATM   19  H19 UNL     1      -5.460   2.315  -3.539  1.00  0.00     0.209 HD
ENDBRANCH  17  18
ENDBRANCH  16  17
BRANCH  16  20
HETATM   20  C16 UNL     1      -5.049   0.149  -0.434  1.00  0.00    -0.034 A 
HETATM   21  C17 UNL     1      -6.208   0.531   0.222  1.00  0.00     0.009 A 
HETATM   22  C18 UNL     1      -7.027  -0.484   0.690  1.00  0.00     0.001 A 
HETATM   23  C19 UNL     1      -6.716  -1.813   0.518  1.00  0.00     0.000 A 
HETATM   24  C20 UNL     1      -5.565  -2.203  -0.134  1.00  0.00     0.001 A 
HETATM   25  C21 UNL     1      -4.739  -1.188  -0.606  1.00  0.00     0.009 A 
ENDBRANCH  16  20
ENDBRANCH  14  16
ENDBRANCH  11  14
BRANCH   1  26
HETATM   26  C6  UNL     1       3.964  -0.925  -0.958  1.00  0.00     0.138 C 
BRANCH  26  27
HETATM   27  C5  UNL     1       5.001  -0.103  -0.882  1.00  0.00    -0.133 C 
BRANCH  27  28
HETATM   28  C4  UNL     1       5.908   0.762  -0.447  1.00  0.00     0.073 C 
BRANCH  28  29
HETATM   29  C3  UNL     1       6.500   0.582   0.893  1.00  0.00     0.017 C 
BRANCH  29  30
HETATM   30  C2  UNL     1       7.520  -0.557   0.753  1.00  0.00    -0.003 C 
HETATM   31  C1  UNL     1       8.553  -0.116  -0.278  1.00  0.00     0.005 C 
ENDBRANCH  29  30
ENDBRANCH  28  29
ENDBRANCH  27  28
ENDBRANCH  26  27
ENDBRANCH   1  26
TORSDOF 10
