REMARK  5 active torsions:
REMARK  status: ('A' for Active; 'I' for Inactive)
REMARK    1  A    between atoms: C2_5  and  C3_6 
REMARK    2  A    between atoms: C15_19  and  C16_20 
REMARK    3  A    between atoms: C16_20  and  C17_21 
REMARK    4  A    between atoms: C17_21  and  C18_22 
REMARK    5  A    between atoms: C18_22  and  N2_23 
ROOT
HETATM    1  O1  UNL     1      -1.030   0.107  -3.594  1.00  0.00    -0.228 OA
HETATM    2  S1  UNL     1      -0.030  -0.478  -2.602  1.00  0.00     0.162 S 
HETATM    3  O2  UNL     1       0.325   0.670  -1.464  1.00  0.00    -0.293 OA
HETATM    4  C1  UNL     1       1.474   1.305  -1.276  1.00  0.00     0.217 C 
HETATM    5  C2  UNL     1       1.896   1.363   0.213  1.00  0.00     0.141 C 
HETATM    6  N1  UNL     1       2.176   0.124   0.819  1.00  0.00    -0.364 N 
HETATM    7  C9  UNL     1       1.606  -1.112   0.873  1.00  0.00     0.126 C 
HETATM    8  C10 UNL     1       0.850  -1.504  -0.194  1.00  0.00    -0.021 C 
HETATM    9  C11 UNL     1       1.807  -2.077  -1.258  1.00  0.00     0.072 C 
HETATM   10  C12 UNL     1       1.083  -3.438  -1.233  1.00  0.00    -0.078 C 
HETATM   11  C13 UNL     1      -0.045  -3.235  -1.895  1.00  0.00    -0.003 C 
HETATM   12  C14 UNL     1      -0.766  -1.934  -1.884  1.00  0.00     0.142 C 
HETATM   13  C15 UNL     1      -0.645  -1.574  -0.386  1.00  0.00     0.063 C 
HETATM   14  C23 UNL     1       1.478  -4.651  -0.552  1.00  0.00     0.039 C 
HETATM   15  C24 UNL     1       2.306  -4.495   0.660  1.00  0.00     0.051 C 
HETATM   16  C25 UNL     1       2.138  -3.392   1.614  1.00  0.00     0.092 C 
HETATM   17  N3  UNL     1       1.739  -2.122   1.910  1.00  0.00    -0.247 NA
HETATM   18  H9  UNL     1       3.002  -0.042   1.418  1.00  0.00     0.162 HD
ENDROOT
BRANCH  13  19
HETATM   19  C16 UNL     1      -1.343  -0.334  -0.089  1.00  0.00    -0.018 C 
BRANCH  19  20
HETATM   20  C17 UNL     1      -2.111   0.768  -0.237  1.00  0.00    -0.000 C 
BRANCH  20  21
HETATM   21  C18 UNL     1      -2.534   1.912   0.653  1.00  0.00     0.299 C 
BRANCH  21  22
HETATM   22  N2  UNL     1      -3.967   1.891   0.737  1.00  0.00     0.096 N 
HETATM   23  C19 UNL     1      -4.666   2.223  -0.458  1.00  0.00     0.299 C 
HETATM   24  C20 UNL     1      -5.527   1.057  -0.885  1.00  0.00     0.198 C 
HETATM   25  O3  UNL     1      -6.466   0.700   0.049  1.00  0.00    -0.388 OA
HETATM   26  C21 UNL     1      -5.988   0.697   1.351  1.00  0.00     0.198 C 
HETATM   27  C22 UNL     1      -4.483   0.708   1.351  1.00  0.00     0.299 C 
ENDBRANCH  21  22
ENDBRANCH  20  21
ENDBRANCH  19  20
ENDBRANCH  13  19
BRANCH   5  28
HETATM   28  C3  UNL     1       3.126   2.227   0.306  1.00  0.00    -0.033 A 
HETATM   29  C4  UNL     1       3.120   3.552   0.664  1.00  0.00     0.009 A 
HETATM   30  C5  UNL     1       4.254   4.324   0.744  1.00  0.00     0.001 A 
HETATM   31  C6  UNL     1       5.477   3.714   0.440  1.00  0.00     0.000 A 
HETATM   32  C7  UNL     1       5.490   2.383   0.079  1.00  0.00     0.001 A 
HETATM   33  C8  UNL     1       4.338   1.654   0.013  1.00  0.00     0.009 A 
ENDBRANCH   5  28
TORSDOF 5
