REMARK  5 active torsions:
REMARK  status: ('A' for Active; 'I' for Inactive)
REMARK    1  A    between atoms: C6_10  and  N4_11 
REMARK    2  A    between atoms: N4_11  and  C7_12 
REMARK    3  A    between atoms: C7_12  and  C8_13 
REMARK    4  A    between atoms: C7_12  and  C9_15 
REMARK    5  A    between atoms: C8_13  and  O1_14 
ROOT
HETATM    1  C1  UNL     1      -3.514   1.670  -1.002  1.00  0.00     0.310 C 
HETATM    2  N1  UNL     1      -4.002   0.348  -1.369  1.00  0.00     0.093 N 
HETATM    3  C2  UNL     1      -4.843  -0.126  -0.287  1.00  0.00     0.319 C 
HETATM    4  C3  UNL     1      -3.831  -0.155   0.839  1.00  0.00     0.022 A 
HETATM    5  S1  UNL     1      -3.462   0.017   2.614  1.00  0.00    -0.072 SA
HETATM    6  C4  UNL     1      -1.697  -0.309   2.462  1.00  0.00     0.114 A 
HETATM    7  N2  UNL     1      -0.829  -0.331   3.456  1.00  0.00    -0.234 NA
HETATM    8  C5  UNL     1       0.453  -0.597   3.173  1.00  0.00     0.236 A 
HETATM    9  N3  UNL     1       0.699  -0.813   1.889  1.00  0.00    -0.224 NA
HETATM   10  C6  UNL     1      -0.177  -0.788   0.908  1.00  0.00     0.139 A 
HETATM   11  C15 UNL     1      -1.508  -0.525   1.092  1.00  0.00     0.054 A 
HETATM   12  C16 UNL     1      -2.578  -0.452   0.237  1.00  0.00     0.002 A 
HETATM   13  C17 UNL     1      -2.871  -0.584  -1.206  1.00  0.00     0.313 C 
ENDROOT
BRANCH  10  14
HETATM   14  N4  UNL     1       0.406  -1.097  -0.364  1.00  0.00    -0.363 N 
HETATM   15  H7  UNL     1      -0.101  -1.168  -1.257  1.00  0.00     0.162 HD
BRANCH  14  16
HETATM   16  C7  UNL     1       1.805  -1.367  -0.569  1.00  0.00     0.140 C 
BRANCH  16  17
HETATM   17  C8  UNL     1       2.143  -1.657  -1.988  1.00  0.00     0.194 C 
BRANCH  17  18
HETATM   18  O1  UNL     1       1.781  -0.518  -2.733  1.00  0.00    -0.399 OA
HETATM   19  H11 UNL     1       2.253  -0.547  -3.608  1.00  0.00     0.209 HD
ENDBRANCH  17  18
ENDBRANCH  16  17
BRANCH  16  20
HETATM   20  C9  UNL     1       2.553  -0.148  -0.163  1.00  0.00    -0.034 A 
HETATM   21  C10 UNL     1       2.194   1.137  -0.516  1.00  0.00     0.009 A 
HETATM   22  C11 UNL     1       2.944   2.224  -0.098  1.00  0.00     0.001 A 
HETATM   23  C12 UNL     1       4.076   2.066   0.685  1.00  0.00     0.000 A 
HETATM   24  C13 UNL     1       4.480   0.795   1.066  1.00  0.00     0.001 A 
HETATM   25  C14 UNL     1       3.699  -0.251   0.624  1.00  0.00     0.009 A 
ENDBRANCH  16  20
ENDBRANCH  14  16
ENDBRANCH  10  14
TORSDOF 5
