REMARK  8 active torsions:
REMARK  status: ('A' for Active; 'I' for Inactive)
REMARK    1  A    between atoms: N2_5  and  C4_6 
REMARK    2  A    between atoms: C4_6  and  C5_7 
REMARK    3  A    between atoms: C5_7  and  C6_8 
REMARK    4  A    between atoms: C7_9  and  C8_10 
REMARK    5  A    between atoms: C12_14  and  O1_15 
REMARK    6  A    between atoms: O1_15  and  C13_16 
REMARK    7  A    between atoms: C19_22  and  C20_23 
REMARK    8  A    between atoms: C20_23  and  N3_24 
ROOT
HETATM    1  N3  UNL     1      -3.200  -3.717   2.409  1.00  0.00    -0.190 NA
HETATM    2  C21 UNL     1      -3.745  -4.996   2.194  1.00  0.00     0.205 C 
HETATM    3  N4  UNL     1      -4.169  -6.037   2.017  1.00  0.00    -0.170 NA
ENDROOT
BRANCH   1   4
HETATM    4  C20 UNL     1      -3.338  -2.778   1.552  1.00  0.00     0.110 C 
BRANCH   4   5
HETATM    5  C19 UNL     1      -2.675  -1.464   1.970  1.00  0.00     0.066 C 
HETATM    6  C12 UNL     1      -3.409  -0.324   1.235  1.00  0.00     0.113 C 
HETATM    7  C11 UNL     1      -2.353   0.229   0.924  1.00  0.00     0.032 C 
HETATM    8  C10 UNL     1      -1.220   1.083   0.424  1.00  0.00     0.009 C 
HETATM    9  C9  UNL     1      -0.083   0.633   1.421  1.00  0.00     0.005 C 
HETATM   10  C8  UNL     1      -0.212  -0.898   1.293  1.00  0.00    -0.048 C 
HETATM   11  C22 UNL     1      -1.279  -1.588   2.128  1.00  0.00     0.018 C 
BRANCH   6  12
HETATM   12  O1  UNL     1      -4.644  -0.756   1.465  1.00  0.00    -0.336 OA
BRANCH  12  13
HETATM   13  C13 UNL     1      -5.844  -0.020   1.689  1.00  0.00     0.070 A 
HETATM   14  C14 UNL     1      -6.125   1.258   1.769  1.00  0.00     0.037 A 
HETATM   15  C15 UNL     1      -7.510   1.571   1.991  1.00  0.00     0.003 A 
HETATM   16  C16 UNL     1      -8.426   0.474   2.083  1.00  0.00     0.000 A 
HETATM   17  C17 UNL     1      -7.952  -0.820   1.969  1.00  0.00     0.003 A 
HETATM   18  C18 UNL     1      -6.641  -1.121   1.772  1.00  0.00     0.037 A 
ENDBRANCH  12  13
ENDBRANCH   6  12
BRANCH  10  19
HETATM   19  C7  UNL     1       0.845  -1.330   0.458  1.00  0.00     0.014 C 
HETATM   20  C6  UNL     1       1.535  -0.128   0.162  1.00  0.00     0.025 C 
BRANCH  20  21
HETATM   21  C5  UNL     1       2.429   0.507  -0.332  1.00  0.00     0.015 C 
BRANCH  21  22
HETATM   22  C4  UNL     1       3.540   1.213  -0.955  1.00  0.00     0.131 C 
BRANCH  22  23
HETATM   23  N2  UNL     1       4.587   0.695  -1.710  1.00  0.00    -0.349 N 
HETATM   24  C3  UNL     1       4.281   0.611  -3.153  1.00  0.00     0.156 C 
HETATM   25  C2  UNL     1       5.494   1.036  -3.962  1.00  0.00     0.292 C 
HETATM   26  N1  UNL     1       6.472   1.646  -3.084  1.00  0.00     0.094 N 
HETATM   27  C1  UNL     1       7.367   2.495  -3.752  1.00  0.00     0.310 C 
HETATM   28  C24 UNL     1       7.031   0.634  -2.228  1.00  0.00     0.374 C 
HETATM   29  C23 UNL     1       5.902   0.267  -1.265  1.00  0.00     0.248 C 
HETATM   30  O2  UNL     1       5.904  -0.328  -0.177  1.00  0.00    -0.271 OA
ENDBRANCH  22  23
ENDBRANCH  21  22
ENDBRANCH  20  21
ENDBRANCH  10  19
ENDBRANCH   4   5
ENDBRANCH   1   4
TORSDOF 8
