REMARK  4 active torsions:
REMARK  status: ('A' for Active; 'I' for Inactive)
REMARK    1  A    between atoms: C2_2  and  N1_3 
REMARK    2  A    between atoms: C2_2  and  C12_18 
REMARK    3  A    between atoms: N1_3  and  C3_4 
REMARK    4  A    between atoms: N4_15  and  O1_16 
ROOT
HETATM    1  C3  UNL     1       0.221   0.703  -0.565  1.00  0.00     0.139 A 
HETATM    2  N2  UNL     1       1.251   1.527  -0.667  1.00  0.00    -0.224 NA
HETATM    3  C4  UNL     1       1.253   2.837  -0.496  1.00  0.00     0.236 A 
HETATM    4  N3  UNL     1       0.071   3.386  -0.183  1.00  0.00    -0.234 NA
HETATM    5  C5  UNL     1      -0.970   2.588  -0.075  1.00  0.00     0.114 A 
HETATM    6  S1  UNL     1      -2.719   2.992   0.334  1.00  0.00    -0.072 SA
HETATM    7  C6  UNL     1      -3.351   1.349   0.247  1.00  0.00     0.007 A 
HETATM    8  C7  UNL     1      -2.186   0.524  -0.097  1.00  0.00    -0.026 A 
HETATM    9  C8  UNL     1      -1.016   1.190  -0.248  1.00  0.00     0.053 A 
HETATM   10  C9  UNL     1      -2.777  -0.814  -0.152  1.00  0.00     0.057 C 
HETATM   11  C10 UNL     1      -3.459  -1.042   1.195  1.00  0.00     0.125 C 
HETATM   12  N4  UNL     1      -4.741  -0.367   1.244  1.00  0.00    -0.195 NA
HETATM   13  C11 UNL     1      -4.716   0.856   0.456  1.00  0.00     0.167 C 
ENDROOT
BRANCH   1  14
HETATM   14  N1  UNL     1       0.490  -0.675  -0.809  1.00  0.00    -0.366 N 
HETATM   15  H5  UNL     1      -0.033  -1.558  -0.829  1.00  0.00     0.161 HD
BRANCH  14  16
HETATM   16  C2  UNL     1       1.834  -1.100  -1.137  1.00  0.00     0.112 C 
HETATM   17  C1  UNL     1       2.011  -2.550  -1.372  1.00  0.00     0.037 C 
BRANCH  16  18
HETATM   18  C12 UNL     1       2.833  -0.523  -0.198  1.00  0.00    -0.036 A 
HETATM   19  C13 UNL     1       2.577  -0.536   1.151  1.00  0.00     0.009 A 
HETATM   20  C14 UNL     1       3.513   0.005   2.032  1.00  0.00     0.001 A 
HETATM   21  C15 UNL     1       4.693   0.555   1.580  1.00  0.00     0.000 A 
HETATM   22  C16 UNL     1       4.968   0.577   0.234  1.00  0.00     0.001 A 
HETATM   23  C17 UNL     1       4.036   0.039  -0.634  1.00  0.00     0.009 A 
ENDBRANCH  16  18
ENDBRANCH  14  16
ENDBRANCH   1  14
BRANCH  12  24
HETATM   24  O1  UNL     1      -5.689  -1.178   0.726  1.00  0.00    -0.313 OA
HETATM   25  H11 UNL     1      -5.998  -0.875  -0.164  1.00  0.00     0.237 HD
ENDBRANCH  12  24
TORSDOF 4
