REMARK  7 active torsions:
REMARK  status: ('A' for Active; 'I' for Inactive)
REMARK    1  A    between atoms: C2_2  and  C3_3 
REMARK    2  A    between atoms: C2_2  and  C9_9 
REMARK    3  A    between atoms: C12_14  and  C13_15 
REMARK       I    between atoms: N3_18  and  C16_19 
REMARK    4  A    between atoms: C16_19  and  C17_21 
REMARK    5  A    between atoms: C18_22  and  C19_23 
REMARK    6  A    between atoms: C19_23  and  N4_24 
REMARK    7  A    between atoms: N4_24  and  S1_26 
ROOT
HETATM    1  C13 UNL     1      -1.106  -1.279   0.319  1.00  0.00    -0.045 C 
HETATM    2  C14 UNL     1      -0.736  -0.133   0.833  1.00  0.00     0.001 C 
HETATM    3  C15 UNL     1       0.491   0.196   1.592  1.00  0.00     0.154 C 
HETATM    4  N3  UNL     1       1.608  -0.344   0.875  1.00  0.00    -0.345 N 
HETATM    5  C16 UNL     1       2.811   0.386   0.738  1.00  0.00     0.243 C 
HETATM    6  O1  UNL     1       2.927   1.531   1.246  1.00  0.00    -0.268 OA
HETATM    7  C21 UNL     1       1.386  -1.638   0.338  1.00  0.00     0.131 C 
HETATM    8  C22 UNL     1       0.021  -2.198   0.629  1.00  0.00     0.059 C 
ENDROOT
BRANCH   1   9
HETATM    9  C12 UNL     1      -2.266  -1.692  -0.428  1.00  0.00     0.013 A 
HETATM   10  C9  UNL     1      -3.280  -1.035  -1.058  1.00  0.00     0.056 A 
HETATM   11  N1  UNL     1      -4.319  -1.683  -1.606  1.00  0.00    -0.245 NA
HETATM   12  C10 UNL     1      -4.441  -3.017  -1.581  1.00  0.00     0.232 A 
HETATM   13  N2  UNL     1      -3.462  -3.700  -0.971  1.00  0.00    -0.253 NA
HETATM   14  C11 UNL     1      -2.408  -3.087  -0.411  1.00  0.00     0.132 A 
BRANCH  10  15
HETATM   15  C2  UNL     1      -3.218   0.415  -1.170  1.00  0.00     0.067 C 
HETATM   16  C1  UNL     1      -3.895   0.728  -2.551  1.00  0.00     0.021 C 
BRANCH  15  17
HETATM   17  C3  UNL     1      -4.071   1.122  -0.189  1.00  0.00    -0.049 A 
HETATM   18  C4  UNL     1      -4.932   2.160  -0.560  1.00  0.00     0.008 A 
HETATM   19  C5  UNL     1      -5.781   2.874   0.252  1.00  0.00     0.001 A 
HETATM   20  C6  UNL     1      -5.795   2.537   1.589  1.00  0.00     0.000 A 
HETATM   21  C7  UNL     1      -4.990   1.532   2.064  1.00  0.00     0.001 A 
HETATM   22  C8  UNL     1      -4.174   0.872   1.183  1.00  0.00     0.008 A 
ENDBRANCH  15  17
ENDBRANCH  10  15
ENDBRANCH   1   9
BRANCH   5  23
HETATM   23  C17 UNL     1       3.986  -0.098   0.024  1.00  0.00     0.071 C 
HETATM   24  C18 UNL     1       5.010   0.723   0.006  1.00  0.00    -0.006 C 
BRANCH  24  25
HETATM   25  C19 UNL     1       6.308   0.452  -0.655  1.00  0.00     0.129 C 
BRANCH  25  26
HETATM   26  N4  UNL     1       7.409   0.476   0.289  1.00  0.00    -0.262 NA
HETATM   27  C20 UNL     1       8.624   0.201  -0.451  1.00  0.00     0.124 C 
BRANCH  26  28
HETATM   28  S1  UNL     1       7.465   1.968   1.198  1.00  0.00    -0.096 SA
HETATM   29  H22 UNL     1       6.500   1.881   2.235  1.00  0.00     0.119 HD
ENDBRANCH  26  28
ENDBRANCH  25  26
ENDBRANCH  24  25
ENDBRANCH   5  23
TORSDOF 7
