REMARK  1 active torsions:
REMARK  status: ('A' for Active; 'I' for Inactive)
REMARK    1  A    between atoms: C14_15  and  O1_16 
ROOT
HETATM    1  C1  UNL     1       4.580   2.843  -1.283  1.00  0.00     0.036 C 
HETATM    2  C2  UNL     1       3.995   1.702  -2.096  1.00  0.00     0.102 C 
HETATM    3  C3  UNL     1       2.541   1.802  -2.218  1.00  0.00    -0.002 C 
HETATM    4  C4  UNL     1       1.342   2.014  -2.698  1.00  0.00    -0.002 C 
HETATM    5  C5  UNL     1      -0.006   1.929  -2.296  1.00  0.00    -0.000 C 
HETATM    6  C6  UNL     1      -0.753   1.606  -1.284  1.00  0.00    -0.000 C 
HETATM    7  C7  UNL     1      -2.182   1.621  -1.161  1.00  0.00    -0.002 C 
HETATM    8  C8  UNL     1      -3.413   1.800  -1.532  1.00  0.00     0.003 C 
HETATM    9  C9  UNL     1      -4.654   1.561  -0.708  1.00  0.00     0.299 C 
HETATM   10  N1  UNL     1      -4.232   1.008   0.584  1.00  0.00     0.090 N 
HETATM   11  C10 UNL     1      -5.495   1.005   1.367  1.00  0.00     0.310 C 
HETATM   12  C11 UNL     1      -4.043  -0.429   0.273  1.00  0.00     0.299 C 
HETATM   13  C12 UNL     1      -3.416  -1.131   1.388  1.00  0.00     0.002 C 
HETATM   14  C13 UNL     1      -3.077  -1.907   2.394  1.00  0.00     0.004 C 
HETATM   15  C14 UNL     1      -1.812  -1.959   3.246  1.00  0.00     0.168 C 
HETATM   16  C15 UNL     1      -0.636  -1.675   2.285  1.00  0.00     0.305 C 
HETATM   17  N2  UNL     1      -0.655  -2.639   1.225  1.00  0.00     0.090 NA
HETATM   18  C16 UNL     1       0.258  -2.299   0.208  1.00  0.00     0.315 C 
HETATM   19  C17 UNL     1       1.587  -2.115   0.644  1.00  0.00     0.013 A 
HETATM   20  C18 UNL     1       2.396  -1.312  -0.177  1.00  0.00     0.034 A 
HETATM   21  C19 UNL     1       3.694  -1.096   0.200  1.00  0.00     0.046 A 
HETATM   22  C20 UNL     1       4.594  -0.346  -0.475  1.00  0.00     0.138 A 
HETATM   23  N3  UNL     1       5.823  -0.224   0.021  1.00  0.00    -0.224 NA
HETATM   24  C21 UNL     1       6.292  -0.777   1.151  1.00  0.00     0.236 A 
HETATM   25  N4  UNL     1       5.382  -1.524   1.817  1.00  0.00    -0.234 NA
HETATM   26  C22 UNL     1       4.144  -1.677   1.367  1.00  0.00     0.113 A 
HETATM   27  S1  UNL     1       2.766  -2.537   1.960  1.00  0.00    -0.072 SA
HETATM   28  N5  UNL     1       4.499   0.407  -1.696  1.00  0.00    -0.367 N 
HETATM   29  H24 UNL     1      -1.568  -2.898   0.845  1.00  0.00     0.316 HD
HETATM   30  H29 UNL     1       4.936  -0.263  -2.404  1.00  0.00     0.161 HD
ENDROOT
BRANCH  15  31
HETATM   31  O1  UNL     1      -1.711  -3.222   3.797  1.00  0.00    -0.390 OA
HETATM   32  H21 UNL     1      -2.284  -3.897   3.317  1.00  0.00     0.210 HD
ENDBRANCH  15  31
TORSDOF 1
