REMARK  4 active torsions:
REMARK  status: ('A' for Active; 'I' for Inactive)
REMARK    1  A    between atoms: C2_2  and  C3_3 
REMARK       I    between atoms: N3_14  and  C11_15 
REMARK    2  A    between atoms: C11_15  and  C12_17 
REMARK    3  A    between atoms: C13_18  and  C14_19 
REMARK    4  A    between atoms: C14_19  and  N4_20 
ROOT
HETATM    1  C3  UNL     1       3.988   0.782  -1.009  1.00  0.00     0.068 C 
HETATM    2  C4  UNL     1       2.888  -0.233  -0.956  1.00  0.00     0.040 C 
HETATM    3  N1  UNL     1       2.097  -0.983  -1.638  1.00  0.00    -0.253 N 
HETATM    4  C5  UNL     1       1.990  -1.120  -3.017  1.00  0.00     0.227 A 
HETATM    5  N2  UNL     1       1.255  -1.804  -2.252  1.00  0.00    -0.269 N 
HETATM    6  C6  UNL     1       0.255  -2.769  -2.562  1.00  0.00     0.229 C 
HETATM    7  S1  UNL     1      -0.077  -3.695  -1.033  1.00  0.00    -0.110 SA
HETATM    8  C7  UNL     1      -0.806  -2.648   0.212  1.00  0.00     0.011 C 
HETATM    9  C8  UNL     1      -0.018  -1.931   1.013  1.00  0.00    -0.005 C 
HETATM   10  C9  UNL     1      -0.782  -1.092   2.017  1.00  0.00     0.067 C 
HETATM   11  C10 UNL     1      -1.878  -0.311   1.273  1.00  0.00     0.131 C 
HETATM   12  N3  UNL     1      -2.704  -1.269   0.563  1.00  0.00    -0.344 N 
HETATM   13  C11 UNL     1      -3.971  -0.950   0.062  1.00  0.00     0.243 C 
HETATM   14  O1  UNL     1      -4.761  -1.707  -0.569  1.00  0.00    -0.268 OA
HETATM   15  C16 UNL     1      -2.289  -2.616   0.320  1.00  0.00     0.172 C 
HETATM   16  S2  UNL     1       1.761  -2.004   0.865  1.00  0.00    -0.117 SA
HETATM   17  C17 UNL     1       2.574  -0.485   0.491  1.00  0.00     0.134 C 
HETATM   18  C18 UNL     1       3.954  -0.384   1.054  1.00  0.00    -0.031 A 
HETATM   19  C19 UNL     1       4.489  -0.884   2.235  1.00  0.00     0.009 A 
HETATM   20  C20 UNL     1       5.828  -0.674   2.576  1.00  0.00     0.001 A 
HETATM   21  C21 UNL     1       6.624   0.048   1.707  1.00  0.00     0.001 A 
HETATM   22  C22 UNL     1       6.089   0.540   0.539  1.00  0.00     0.008 A 
HETATM   23  C23 UNL     1       4.767   0.333   0.203  1.00  0.00    -0.041 A 
ENDROOT
BRANCH  13  24
HETATM   24  C12 UNL     1      -4.737   0.287   0.108  1.00  0.00     0.072 C 
HETATM   25  C13 UNL     1      -5.913   0.200  -0.486  1.00  0.00     0.008 C 
BRANCH  25  26
HETATM   26  C14 UNL     1      -6.895   1.301  -0.589  1.00  0.00     0.296 C 
BRANCH  26  27
HETATM   27  N4  UNL     1      -6.480   2.524   0.036  1.00  0.00     0.082 N 
HETATM   28  C15 UNL     1      -6.438   2.380   1.477  1.00  0.00     0.307 C 
HETATM   29  H18 UNL     1      -7.126   3.309  -0.183  1.00  0.00     0.315 HD
ENDBRANCH  26  27
ENDBRANCH  25  26
ENDBRANCH  13  24
BRANCH   1  30
HETATM   30  C2  UNL     1       3.463   2.195  -0.777  1.00  0.00     0.011 C 
HETATM   31  C1  UNL     1       4.624   3.195  -0.843  1.00  0.00     0.006 C 
ENDBRANCH   1  30
TORSDOF 4
