REMARK  8 active torsions:
REMARK  status: ('A' for Active; 'I' for Inactive)
REMARK    1  A    between atoms: C2_2  and  C3_3 
REMARK    2  A    between atoms: C3_3  and  N1_4 
REMARK    3  A    between atoms: C3_3  and  C19_26 
REMARK    4  A    between atoms: N1_4  and  C4_5 
REMARK    5  A    between atoms: N4_16  and  C12_17 
REMARK    6  A    between atoms: C14_19  and  C15_20 
REMARK    7  A    between atoms: C15_20  and  N5_21 
REMARK    8  A    between atoms: N5_21  and  C17_23 
ROOT
HETATM    1  C4  UNL     1      -2.267  -1.083  -0.548  1.00  0.00     0.139 A 
HETATM    2  N2  UNL     1      -3.465  -1.644  -0.464  1.00  0.00    -0.224 NA
HETATM    3  C5  UNL     1      -3.736  -2.817   0.084  1.00  0.00     0.236 A 
HETATM    4  N3  UNL     1      -2.673  -3.464   0.587  1.00  0.00    -0.234 NA
HETATM    5  C6  UNL     1      -1.491  -2.931   0.513  1.00  0.00     0.114 A 
HETATM    6  S1  UNL     1       0.138  -3.580   1.108  1.00  0.00    -0.072 SA
HETATM    7  C7  UNL     1       1.119  -2.144   0.545  1.00  0.00     0.010 A 
HETATM    8  C8  UNL     1       0.147  -1.281  -0.049  1.00  0.00    -0.025 A 
HETATM    9  C9  UNL     1      -1.149  -1.693  -0.054  1.00  0.00     0.053 A 
HETATM   10  C10 UNL     1       0.983  -0.153  -0.476  1.00  0.00     0.060 C 
HETATM   11  C11 UNL     1       1.823   0.350   0.726  1.00  0.00     0.128 C 
HETATM   12  N4  UNL     1       2.812  -0.599   1.130  1.00  0.00    -0.380 N 
HETATM   13  C18 UNL     1       2.534  -1.949   0.672  1.00  0.00     0.169 C 
ENDROOT
BRANCH   1  14
HETATM   14  N1  UNL     1      -2.250   0.188  -1.184  1.00  0.00    -0.365 N 
HETATM   15  H7  UNL     1      -1.549   0.905  -1.427  1.00  0.00     0.162 HD
BRANCH  14  16
HETATM   16  C3  UNL     1      -3.482   0.804  -1.708  1.00  0.00     0.116 C 
BRANCH  16  17
HETATM   17  C2  UNL     1      -3.931  -0.034  -2.869  1.00  0.00     0.025 C 
HETATM   18  C1  UNL     1      -5.164   0.442  -3.560  1.00  0.00     0.007 C 
ENDBRANCH  16  17
BRANCH  16  19
HETATM   19  C19 UNL     1      -4.467   0.858  -0.589  1.00  0.00    -0.036 A 
HETATM   20  C20 UNL     1      -5.780   0.485  -0.428  1.00  0.00     0.009 A 
HETATM   21  C21 UNL     1      -6.439   0.685   0.761  1.00  0.00     0.001 A 
HETATM   22  C22 UNL     1      -5.823   1.266   1.850  1.00  0.00     0.000 A 
HETATM   23  C23 UNL     1      -4.506   1.652   1.722  1.00  0.00     0.001 A 
HETATM   24  C24 UNL     1      -3.831   1.451   0.514  1.00  0.00     0.009 A 
ENDBRANCH  16  19
ENDBRANCH  14  16
ENDBRANCH   1  14
BRANCH  12  25
HETATM   25  C12 UNL     1       3.906  -0.127   1.903  1.00  0.00     0.001 C 
HETATM   26  C13 UNL     1       3.289   0.210   3.209  1.00  0.00     0.067 C 
HETATM   27  C14 UNL     1       5.184   0.018   1.633  1.00  0.00     0.017 C 
BRANCH  27  28
HETATM   28  C15 UNL     1       5.742  -0.338   0.306  1.00  0.00     0.153 C 
BRANCH  28  29
HETATM   29  N5  UNL     1       6.335   0.846  -0.276  1.00  0.00    -0.360 N 
HETATM   30  C16 UNL     1       7.720   1.003   0.069  1.00  0.00     0.152 C 
BRANCH  29  31
HETATM   31  C17 UNL     1       5.644   1.762  -1.096  1.00  0.00     0.350 C 
HETATM   32  O1  UNL     1       4.439   1.603  -1.382  1.00  0.00    -0.284 OA
ENDBRANCH  29  31
ENDBRANCH  28  29
ENDBRANCH  27  28
ENDBRANCH  12  25
TORSDOF 8
