REMARK  6 active torsions:
REMARK  status: ('A' for Active; 'I' for Inactive)
REMARK    1  A    between atoms: C2_2  and  N1_3 
REMARK    2  A    between atoms: C2_2  and  C18_25 
REMARK    3  A    between atoms: N1_3  and  C3_4 
REMARK       I    between atoms: N4_15  and  C11_16 
REMARK    4  A    between atoms: C11_16  and  C12_18 
REMARK    5  A    between atoms: C13_19  and  C14_20 
REMARK    6  A    between atoms: C14_20  and  N5_21 
ROOT
HETATM    1  C3  UNL     1      -3.030  -0.857  -0.519  1.00  0.00     0.139 A 
HETATM    2  N2  UNL     1      -3.850  -1.663  -1.197  1.00  0.00    -0.224 NA
HETATM    3  C4  UNL     1      -3.570  -2.433  -2.225  1.00  0.00     0.236 A 
HETATM    4  N3  UNL     1      -2.294  -2.393  -2.631  1.00  0.00    -0.234 NA
HETATM    5  C5  UNL     1      -1.447  -1.601  -1.980  1.00  0.00     0.114 A 
HETATM    6  S1  UNL     1       0.280  -1.356  -2.298  1.00  0.00    -0.072 SA
HETATM    7  C6  UNL     1       0.561  -0.188  -0.991  1.00  0.00     0.010 A 
HETATM    8  C7  UNL     1      -0.710  -0.040  -0.360  1.00  0.00    -0.025 A 
HETATM    9  C8  UNL     1      -1.714  -0.786  -0.903  1.00  0.00     0.053 A 
HETATM   10  C9  UNL     1      -0.448   0.932   0.712  1.00  0.00     0.060 C 
HETATM   11  C10 UNL     1       0.679   0.344   1.587  1.00  0.00     0.131 C 
HETATM   12  N4  UNL     1       1.944   0.455   0.895  1.00  0.00    -0.344 N 
HETATM   13  C11 UNL     1       3.070   0.458   1.756  1.00  0.00     0.243 C 
HETATM   14  O1  UNL     1       2.479   0.352   2.857  1.00  0.00    -0.268 OA
HETATM   15  C17 UNL     1       1.807   0.539  -0.550  1.00  0.00     0.172 C 
ENDROOT
BRANCH   1  16
HETATM   16  N1  UNL     1      -3.609  -0.137   0.563  1.00  0.00    -0.366 N 
HETATM   17  H5  UNL     1      -3.306   0.537   1.274  1.00  0.00     0.161 HD
BRANCH  16  18
HETATM   18  C2  UNL     1      -5.014  -0.295   0.870  1.00  0.00     0.108 C 
HETATM   19  C1  UNL     1      -5.495   0.460   2.080  1.00  0.00     0.037 C 
BRANCH  18  20
HETATM   20  C18 UNL     1      -5.857   0.095  -0.322  1.00  0.00    -0.054 A 
HETATM   21  C19 UNL     1      -5.580   0.671  -1.481  1.00  0.00     0.005 A 
HETATM   22  C20 UNL     1      -6.814   0.801  -2.256  1.00  0.00    -0.003 A 
HETATM   23  C21 UNL     1      -7.809   0.299  -1.542  1.00  0.00    -0.022 A 
HETATM   24  C22 UNL     1      -7.328  -0.208  -0.232  1.00  0.00     0.063 A 
ENDBRANCH  18  20
ENDBRANCH  16  18
ENDBRANCH   1  16
BRANCH  13  25
HETATM   25  C12 UNL     1       4.505   0.552   1.526  1.00  0.00     0.072 C 
HETATM   26  C13 UNL     1       5.398   0.667   0.528  1.00  0.00     0.008 C 
BRANCH  26  27
HETATM   27  C14 UNL     1       6.867   0.735   0.707  1.00  0.00     0.299 C 
BRANCH  27  28
HETATM   28  N5  UNL     1       7.464  -0.381  -0.001  1.00  0.00     0.083 N 
HETATM   29  C15 UNL     1       7.323  -0.232  -1.428  1.00  0.00     0.309 C 
HETATM   30  C16 UNL     1       8.873  -0.511   0.307  1.00  0.00     0.309 C 
ENDBRANCH  27  28
ENDBRANCH  26  27
ENDBRANCH  13  25
TORSDOF 6
