REMARK  10 active torsions:
REMARK  status: ('A' for Active; 'I' for Inactive)
REMARK    1  A    between atoms: C2_2  and  C3_3 
REMARK    2  A    between atoms: C3_3  and  N1_4 
REMARK    3  A    between atoms: C3_3  and  C17_24 
REMARK    4  A    between atoms: N1_4  and  C4_5 
REMARK    5  A    between atoms: C7_11  and  C8_12 
REMARK    6  A    between atoms: C8_12  and  C9_13 
REMARK    7  A    between atoms: C9_13  and  C10_14 
REMARK    8  A    between atoms: C11_16  and  C12_17 
REMARK    9  A    between atoms: C12_17  and  C13_18 
REMARK   10  A    between atoms: C13_18  and  N5_19 
ROOT
HETATM    1  C4  UNL     1      -2.428  -0.418  -0.620  1.00  0.00     0.047 C 
HETATM    2  N2  UNL     1      -2.675  -1.627  -0.433  1.00  0.00    -0.243 NA
HETATM    3  C5  UNL     1      -2.010  -2.829  -0.380  1.00  0.00     0.229 C 
HETATM    4  N3  UNL     1      -1.042  -3.139   0.471  1.00  0.00    -0.261 NA
HETATM    5  C6  UNL     1      -0.676  -2.057   1.429  1.00  0.00     0.298 C 
HETATM    6  N4  UNL     1      -0.588  -0.852   0.679  1.00  0.00    -0.278 NA
HETATM    7  C7  UNL     1       0.399  -0.186   0.352  1.00  0.00     0.000 C 
HETATM    8  C16 UNL     1      -0.046   0.927  -0.491  1.00  0.00     0.009 C 
HETATM    9  B1  UNL     1      -1.551   0.869  -0.919  1.00  0.00     0.246 B 
HETATM   10  H27 UNL     1      -1.900   1.577  -1.843  1.00  0.00    -0.017 HD
ENDROOT
BRANCH   1  11
HETATM   11  N1  UNL     1      -3.815   0.049  -0.472  1.00  0.00    -0.380 N 
HETATM   12  H7  UNL     1      -3.992   1.085  -0.202  1.00  0.00     0.160 HD
BRANCH  11  13
HETATM   13  C3  UNL     1      -5.164  -0.527  -0.594  1.00  0.00     0.114 C 
BRANCH  13  14
HETATM   14  C2  UNL     1      -5.446  -1.614   0.384  1.00  0.00     0.025 C 
HETATM   15  C1  UNL     1      -5.330  -1.181   1.824  1.00  0.00     0.007 C 
ENDBRANCH  13  14
BRANCH  13  16
HETATM   16  C17 UNL     1      -6.223   0.476  -0.688  1.00  0.00    -0.036 A 
HETATM   17  C18 UNL     1      -6.159   1.460   0.277  1.00  0.00     0.009 A 
HETATM   18  C19 UNL     1      -7.094   2.467   0.312  1.00  0.00     0.001 A 
HETATM   19  C20 UNL     1      -8.144   2.559  -0.606  1.00  0.00     0.000 A 
HETATM   20  C21 UNL     1      -8.202   1.565  -1.576  1.00  0.00     0.001 A 
HETATM   21  C22 UNL     1      -7.260   0.560  -1.601  1.00  0.00     0.009 A 
ENDBRANCH  13  16
ENDBRANCH  11  13
ENDBRANCH   1  11
BRANCH   7  22
HETATM   22  C8  UNL     1       1.859  -0.300   0.569  1.00  0.00     0.056 C 
BRANCH  22  23
HETATM   23  C9  UNL     1       2.607  -0.669  -0.709  1.00  0.00     0.050 C 
BRANCH  23  24
HETATM   24  C10 UNL     1       4.052  -0.748  -0.444  1.00  0.00     0.122 A 
HETATM   25  O1  UNL     1       4.726   0.160  -1.006  1.00  0.00    -0.365 OA
HETATM   26  C11 UNL     1       5.463  -0.819  -0.191  1.00  0.00     0.166 A 
BRANCH  26  27
HETATM   27  C12 UNL     1       6.352   0.010  -0.684  1.00  0.00     0.054 C 
BRANCH  27  28
HETATM   28  C13 UNL     1       7.759  -0.198  -0.327  1.00  0.00     0.279 C 
BRANCH  28  29
HETATM   29  N5  UNL     1       8.309   0.985   0.336  1.00  0.00     0.080 N 
HETATM   30  C14 UNL     1       8.388   2.061  -0.642  1.00  0.00     0.309 C 
HETATM   31  C15 UNL     1       9.636   0.652   0.829  1.00  0.00     0.309 C 
ENDBRANCH  28  29
ENDBRANCH  27  28
ENDBRANCH  26  27
ENDBRANCH  23  24
ENDBRANCH  22  23
ENDBRANCH   7  22
TORSDOF 10
