REMARK  8 active torsions:
REMARK  status: ('A' for Active; 'I' for Inactive)
REMARK    1  A    between atoms: C2_2  and  C3_3 
REMARK    2  A    between atoms: C3_3  and  N1_4 
REMARK    3  A    between atoms: N1_4  and  C5_6 
REMARK    4  A    between atoms: C5_6  and  C6_7 
REMARK    5  A    between atoms: C6_7  and  C7_8 
REMARK       I    between atoms: C7_8  and  N2_10 
REMARK    6  A    between atoms: C14_20  and  N5_21 
REMARK    7  A    between atoms: N5_21  and  C15_22 
REMARK    8  A    between atoms: C15_22  and  C16_23 
ROOT
HETATM    1  C7  UNL     1       1.486   2.370   0.814  1.00  0.00     0.244 C 
HETATM    2  O1  UNL     1       0.859   2.846   1.786  1.00  0.00    -0.268 OA
HETATM    3  N2  UNL     1       0.609   2.180  -0.282  1.00  0.00    -0.344 N 
HETATM    4  C8  UNL     1      -0.755   2.555  -0.028  1.00  0.00     0.131 C 
HETATM    5  C9  UNL     1      -1.715   1.394   0.081  1.00  0.00     0.060 C 
HETATM    6  C10 UNL     1      -1.307   0.238  -0.754  1.00  0.00    -0.025 A 
HETATM    7  C11 UNL     1      -0.187   0.419  -1.571  1.00  0.00     0.010 A 
HETATM    8  S1  UNL     1       0.100  -1.024  -2.403  1.00  0.00    -0.072 SA
HETATM    9  C12 UNL     1      -1.348  -1.914  -1.619  1.00  0.00     0.114 A 
HETATM   10  N3  UNL     1      -1.782  -3.236  -1.810  1.00  0.00    -0.234 NA
HETATM   11  C13 UNL     1      -2.834  -3.658  -1.132  1.00  0.00     0.236 A 
HETATM   12  N4  UNL     1      -3.376  -2.781  -0.337  1.00  0.00    -0.224 NA
HETATM   13  C14 UNL     1      -2.982  -1.534  -0.146  1.00  0.00     0.138 A 
HETATM   14  C22 UNL     1      -1.918  -0.949  -0.763  1.00  0.00     0.053 A 
HETATM   15  C23 UNL     1       0.632   1.689  -1.669  1.00  0.00     0.172 C 
ENDROOT
BRANCH   1  16
HETATM   16  C6  UNL     1       2.881   2.046   0.769  1.00  0.00     0.091 C 
BRANCH  16  17
HETATM   17  C5  UNL     1       4.073   1.664   0.423  1.00  0.00     0.090 C 
BRANCH  17  18
HETATM   18  N1  UNL     1       5.444   1.416   0.584  1.00  0.00    -0.394 N 
HETATM   19  C4  UNL     1       6.098   1.146   1.830  1.00  0.00     0.148 C 
BRANCH  18  20
HETATM   20  C3  UNL     1       6.216   1.436  -0.623  1.00  0.00     0.121 C 
BRANCH  20  21
HETATM   21  C2  UNL     1       7.186   2.564  -0.739  1.00  0.00     0.015 C 
HETATM   22  C1  UNL     1       6.575   3.929  -0.689  1.00  0.00     0.006 C 
ENDBRANCH  20  21
ENDBRANCH  18  20
ENDBRANCH  17  18
ENDBRANCH  16  17
ENDBRANCH   1  16
BRANCH  13  23
HETATM   23  N5  UNL     1      -3.831  -0.835   0.748  1.00  0.00    -0.370 N 
HETATM   24  H18 UNL     1      -3.790   0.161   1.031  1.00  0.00     0.161 HD
BRANCH  23  25
HETATM   25  C15 UNL     1      -4.958  -1.229   1.520  1.00  0.00     0.160 C 
BRANCH  25  26
HETATM   26  C16 UNL     1      -5.579  -2.469   1.000  1.00  0.00    -0.041 A 
HETATM   27  C17 UNL     1      -5.029  -3.613   1.598  1.00  0.00     0.009 A 
HETATM   28  C18 UNL     1      -5.387  -4.908   1.331  1.00  0.00     0.001 A 
HETATM   29  C19 UNL     1      -6.372  -5.152   0.398  1.00  0.00     0.000 A 
HETATM   30  C20 UNL     1      -6.931  -4.051  -0.206  1.00  0.00     0.001 A 
HETATM   31  C21 UNL     1      -6.572  -2.761   0.063  1.00  0.00     0.009 A 
ENDBRANCH  25  26
ENDBRANCH  23  25
ENDBRANCH  13  23
TORSDOF 8
