REMARK  5 active torsions:
REMARK  status: ('A' for Active; 'I' for Inactive)
REMARK    1  A    between atoms: C2_2  and  C5_6 
REMARK    2  A    between atoms: C3_3  and  C4_4 
REMARK       I    between atoms: N3_16  and  C12_17 
REMARK    3  A    between atoms: C12_17  and  C13_19 
REMARK    4  A    between atoms: C14_20  and  C15_21 
REMARK    5  A    between atoms: C15_21  and  N4_22 
ROOT
HETATM    1  C5  UNL     1      -3.802   0.457  -0.455  1.00  0.00     0.077 A 
HETATM    2  N1  UNL     1      -5.006   0.143  -0.889  1.00  0.00    -0.241 NA
HETATM    3  C6  UNL     1      -5.719   0.868  -1.752  1.00  0.00     0.235 A 
HETATM    4  N2  UNL     1      -5.118   1.964  -2.162  1.00  0.00    -0.234 NA
HETATM    5  C7  UNL     1      -3.907   2.337  -1.768  1.00  0.00     0.114 A 
HETATM    6  S1  UNL     1      -2.795   3.776  -2.149  1.00  0.00    -0.051 SA
HETATM    7  C8  UNL     1      -1.390   3.179  -1.023  1.00  0.00     0.082 A 
HETATM    8  C9  UNL     1      -1.884   1.963  -0.469  1.00  0.00     0.009 A 
HETATM    9  C10 UNL     1      -3.114   1.564  -0.834  1.00  0.00     0.040 A 
HETATM   10  C11 UNL     1      -0.766   1.424   0.321  1.00  0.00     0.170 C 
HETATM   11  N3  UNL     1       0.548   1.870  -0.122  1.00  0.00    -0.328 N 
HETATM   12  C12 UNL     1       1.642   0.994   0.133  1.00  0.00     0.244 C 
HETATM   13  O1  UNL     1       1.096   0.025   0.718  1.00  0.00    -0.268 OA
HETATM   14  C18 UNL     1       0.956   3.083  -0.800  1.00  0.00     0.250 C 
HETATM   15  N5  UNL     1      -0.214   3.912  -0.876  1.00  0.00    -0.367 N 
HETATM   16  H22 UNL     1      -0.286   4.952  -0.836  1.00  0.00     0.161 HD
ENDROOT
BRANCH  12  17
HETATM   17  C13 UNL     1       3.022   1.247  -0.234  1.00  0.00     0.072 C 
HETATM   18  C14 UNL     1       4.013   0.424   0.010  1.00  0.00     0.008 C 
BRANCH  18  19
HETATM   19  C15 UNL     1       4.037  -0.891   0.670  1.00  0.00     0.299 C 
BRANCH  19  20
HETATM   20  N4  UNL     1       4.539  -1.903  -0.244  1.00  0.00     0.083 N 
HETATM   21  C16 UNL     1       4.572  -3.192   0.374  1.00  0.00     0.309 C 
HETATM   22  C17 UNL     1       5.845  -1.516  -0.685  1.00  0.00     0.309 C 
ENDBRANCH  19  20
ENDBRANCH  18  19
ENDBRANCH  12  17
BRANCH   1  23
HETATM   23  C2  UNL     1      -3.345  -0.532   0.554  1.00  0.00    -0.035 C 
HETATM   24  C1  UNL     1      -2.553  -1.076   1.661  1.00  0.00     0.050 C 
HETATM   25  C3  UNL     1      -4.174  -1.596   0.419  1.00  0.00    -0.003 C 
BRANCH  25  26
HETATM   26  C4  UNL     1      -4.308  -2.880   1.088  1.00  0.00     0.142 C 
HETATM   27 CL1  UNL     1      -4.142  -4.251  -0.067  1.00  0.00    -0.126 Cl
ENDBRANCH  25  26
ENDBRANCH   1  23
TORSDOF 5
