REMARK  7 active torsions:
REMARK  status: ('A' for Active; 'I' for Inactive)
REMARK    1  A    between atoms: C2_2  and  C3_3 
REMARK    2  A    between atoms: C3_3  and  N1_4 
REMARK    3  A    between atoms: C3_3  and  C18_25 
REMARK    4  A    between atoms: N1_4  and  C4_5 
REMARK       I    between atoms: N4_14  and  C11_15 
REMARK    5  A    between atoms: C11_15  and  C12_17 
REMARK    6  A    between atoms: C13_18  and  C14_19 
REMARK    7  A    between atoms: C14_19  and  N5_20 
ROOT
HETATM    1  C4  UNL     1      -1.651   0.366  -0.381  1.00  0.00     0.135 A 
HETATM    2  N2  UNL     1      -2.327   0.787  -1.461  1.00  0.00    -0.224 NA
HETATM    3  C5  UNL     1      -1.848   0.893  -2.704  1.00  0.00     0.236 A 
HETATM    4  N3  UNL     1      -0.563   0.536  -2.860  1.00  0.00    -0.234 NA
HETATM    5  C6  UNL     1       0.137   0.116  -1.825  1.00  0.00     0.107 A 
HETATM    6  C7  UNL     1      -0.327   0.000  -0.552  1.00  0.00     0.030 A 
HETATM    7  C8  UNL     1       0.576  -0.482   0.502  1.00  0.00     0.060 C 
HETATM    8  C9  UNL     1       0.218  -1.768   1.130  1.00  0.00     0.032 C 
HETATM    9  C10 UNL     1       1.303  -2.736   0.778  1.00  0.00     0.128 C 
HETATM   10  N4  UNL     1       2.391  -1.930   0.305  1.00  0.00    -0.334 N 
HETATM   11  C11 UNL     1       3.684  -2.498   0.177  1.00  0.00     0.244 C 
HETATM   12  O1  UNL     1       3.096  -3.496   0.592  1.00  0.00    -0.268 OA
HETATM   13  C17 UNL     1       1.959  -0.577   0.010  1.00  0.00     0.164 C 
HETATM   14  S1  UNL     1       1.842  -0.403  -1.791  1.00  0.00    -0.083 SA
ENDROOT
BRANCH   1  15
HETATM   15  N1  UNL     1      -2.447   0.350   0.779  1.00  0.00    -0.366 N 
HETATM   16  H7  UNL     1      -1.811  -0.026   1.553  1.00  0.00     0.161 HD
BRANCH  15  17
HETATM   17  C3  UNL     1      -3.703   0.612   1.371  1.00  0.00     0.116 C 
BRANCH  17  18
HETATM   18  C2  UNL     1      -3.950   2.094   1.441  1.00  0.00     0.025 C 
HETATM   19  C1  UNL     1      -3.966   2.791   0.115  1.00  0.00     0.007 C 
ENDBRANCH  17  18
BRANCH  17  20
HETATM   20  C18 UNL     1      -4.835  -0.060   0.637  1.00  0.00    -0.036 A 
HETATM   21  C19 UNL     1      -4.497  -1.339   0.249  1.00  0.00     0.009 A 
HETATM   22  C20 UNL     1      -5.443  -2.096  -0.436  1.00  0.00     0.001 A 
HETATM   23  C21 UNL     1      -6.686  -1.539  -0.705  1.00  0.00     0.000 A 
HETATM   24  C22 UNL     1      -7.010  -0.259  -0.312  1.00  0.00     0.001 A 
HETATM   25  C23 UNL     1      -6.069   0.485   0.367  1.00  0.00     0.009 A 
ENDBRANCH  17  20
ENDBRANCH  15  17
ENDBRANCH   1  15
BRANCH  11  26
HETATM   26  C12 UNL     1       4.989  -2.042  -0.243  1.00  0.00     0.072 C 
HETATM   27  C13 UNL     1       5.684  -1.014  -0.691  1.00  0.00     0.008 C 
BRANCH  27  28
HETATM   28  C14 UNL     1       5.521   0.408  -1.062  1.00  0.00     0.299 C 
BRANCH  28  29
HETATM   29  N5  UNL     1       6.366   1.244  -0.242  1.00  0.00     0.083 N 
HETATM   30  C15 UNL     1       5.902   1.238   1.113  1.00  0.00     0.309 C 
HETATM   31  C16 UNL     1       6.351   2.589  -0.766  1.00  0.00     0.309 C 
ENDBRANCH  28  29
ENDBRANCH  27  28
ENDBRANCH  11  26
TORSDOF 7
