REMARK  7 active torsions:
REMARK  status: ('A' for Active; 'I' for Inactive)
REMARK    1  A    between atoms: N1_2  and  C3_4 
REMARK    2  A    between atoms: C3_4  and  C4_5 
REMARK    3  A    between atoms: C5_6  and  C6_7 
REMARK       I    between atoms: C6_7  and  N2_9 
REMARK    4  A    between atoms: C13_19  and  N5_20 
REMARK    5  A    between atoms: N5_20  and  C14_21 
REMARK    6  A    between atoms: C14_21  and  C15_22 
REMARK    7  A    between atoms: C15_22  and  O2_23 
ROOT
HETATM    1  C6  UNL     1       2.120  -0.960  -0.314  1.00  0.00     0.243 C 
HETATM    2  O1  UNL     1       1.804  -2.168  -0.571  1.00  0.00    -0.268 OA
HETATM    3  N2  UNL     1       0.929  -0.239  -0.277  1.00  0.00    -0.344 N 
HETATM    4  C7  UNL     1      -0.258  -0.986  -0.535  1.00  0.00     0.131 C 
HETATM    5  C8  UNL     1      -1.297  -0.640   0.553  1.00  0.00     0.060 C 
HETATM    6  C9  UNL     1      -1.906   0.655   0.209  1.00  0.00    -0.025 A 
HETATM    7  C10 UNL     1      -0.778   1.470  -0.077  1.00  0.00     0.010 A 
HETATM    8  S1  UNL     1      -1.514   3.060  -0.518  1.00  0.00    -0.072 SA
HETATM    9  C11 UNL     1      -3.178   2.584  -0.310  1.00  0.00     0.114 A 
HETATM   10  N3  UNL     1      -4.282   3.307  -0.475  1.00  0.00    -0.234 NA
HETATM   11  C12 UNL     1      -5.483   2.752  -0.256  1.00  0.00     0.236 A 
HETATM   12  N4  UNL     1      -5.442   1.478   0.122  1.00  0.00    -0.224 NA
HETATM   13  C13 UNL     1      -4.362   0.712   0.301  1.00  0.00     0.138 A 
HETATM   14  C16 UNL     1      -3.124   1.271   0.077  1.00  0.00     0.053 A 
HETATM   15  C17 UNL     1       0.637   1.132  -0.028  1.00  0.00     0.172 C 
ENDROOT
BRANCH   1  16
HETATM   16  C5  UNL     1       3.460  -0.455  -0.104  1.00  0.00     0.072 C 
HETATM   17  C4  UNL     1       4.475  -1.275  -0.174  1.00  0.00     0.008 C 
BRANCH  17  18
HETATM   18  C3  UNL     1       5.936  -1.136  -0.025  1.00  0.00     0.299 C 
BRANCH  18  19
HETATM   19  N1  UNL     1       6.372   0.212   0.241  1.00  0.00     0.083 N 
HETATM   20  C1  UNL     1       6.200   1.090  -0.879  1.00  0.00     0.309 C 
HETATM   21  C2  UNL     1       7.701   0.255   0.803  1.00  0.00     0.309 C 
ENDBRANCH  18  19
ENDBRANCH  17  18
ENDBRANCH   1  16
BRANCH  13  22
HETATM   22  N5  UNL     1      -4.645  -0.629   0.753  1.00  0.00    -0.372 N 
HETATM   23  H16 UNL     1      -4.038  -1.401   1.008  1.00  0.00     0.161 HD
BRANCH  22  24
HETATM   24  C14 UNL     1      -5.980  -1.091   0.935  1.00  0.00     0.147 C 
BRANCH  24  25
HETATM   25  C15 UNL     1      -6.802  -1.145  -0.351  1.00  0.00     0.183 C 
BRANCH  25  26
HETATM   26  O2  UNL     1      -8.072  -1.623   0.036  1.00  0.00    -0.399 OA
HETATM   27  H21 UNL     1      -8.247  -2.484  -0.374  1.00  0.00     0.209 HD
ENDBRANCH  25  26
ENDBRANCH  24  25
ENDBRANCH  22  24
ENDBRANCH  13  22
TORSDOF 7
