REMARK  7 active torsions:
REMARK  status: ('A' for Active; 'I' for Inactive)
REMARK    1  A    between atoms: N1_2  and  C3_4 
REMARK    2  A    between atoms: C3_4  and  C4_5 
REMARK    3  A    between atoms: C5_6  and  C6_7 
REMARK       I    between atoms: C6_7  and  N2_9 
REMARK    4  A    between atoms: C13_19  and  N5_20 
REMARK    5  A    between atoms: N5_20  and  C14_21 
REMARK    6  A    between atoms: C14_21  and  C15_22 
REMARK    7  A    between atoms: C15_22  and  O2_23 
ROOT
HETATM    1  C6  UNL     1       1.698  -1.186  -1.387  1.00  0.00     0.243 C 
HETATM    2  O1  UNL     1       1.972  -1.351  -2.622  1.00  0.00    -0.268 OA
HETATM    3  N2  UNL     1       0.595  -1.681  -0.635  1.00  0.00    -0.344 N 
HETATM    4  C7  UNL     1       0.187  -1.569   0.719  1.00  0.00     0.131 C 
HETATM    5  C8  UNL     1      -1.064  -0.831   1.012  1.00  0.00     0.060 C 
HETATM    6  C9  UNL     1      -2.110  -1.028   0.012  1.00  0.00    -0.025 A 
HETATM    7  C10 UNL     1      -1.713  -1.825  -1.005  1.00  0.00     0.010 A 
HETATM    8  S1  UNL     1      -3.118  -1.937  -2.097  1.00  0.00    -0.072 SA
HETATM    9  C11 UNL     1      -4.166  -0.881  -1.090  1.00  0.00     0.114 A 
HETATM   10  N3  UNL     1      -5.446  -0.498  -1.313  1.00  0.00    -0.234 NA
HETATM   11  C12 UNL     1      -6.060   0.302  -0.436  1.00  0.00     0.236 A 
HETATM   12  N4  UNL     1      -5.328   0.654   0.602  1.00  0.00    -0.224 NA
HETATM   13  C13 UNL     1      -4.088   0.291   0.831  1.00  0.00     0.138 A 
HETATM   14  C16 UNL     1      -3.383  -0.529  -0.018  1.00  0.00     0.053 A 
HETATM   15  C17 UNL     1      -0.422  -2.500  -1.254  1.00  0.00     0.172 C 
ENDROOT
BRANCH   1  16
HETATM   16  C5  UNL     1       2.678  -0.369  -0.684  1.00  0.00     0.072 C 
HETATM   17  C4  UNL     1       3.754   0.165  -1.233  1.00  0.00     0.008 C 
BRANCH  17  18
HETATM   18  C3  UNL     1       4.785   1.003  -0.571  1.00  0.00     0.299 C 
BRANCH  18  19
HETATM   19  N1  UNL     1       6.112   0.395  -0.654  1.00  0.00     0.083 N 
HETATM   20  C1  UNL     1       6.579   0.399  -2.029  1.00  0.00     0.309 C 
HETATM   21  C2  UNL     1       6.105  -0.947  -0.115  1.00  0.00     0.309 C 
ENDBRANCH  18  19
ENDBRANCH  17  18
ENDBRANCH   1  16
BRANCH  13  22
HETATM   22  N5  UNL     1      -3.586   0.829   2.044  1.00  0.00    -0.372 N 
HETATM   23  H16 UNL     1      -2.657   0.678   2.442  1.00  0.00     0.161 HD
BRANCH  22  24
HETATM   24  C14 UNL     1      -4.277   1.698   2.960  1.00  0.00     0.147 C 
BRANCH  24  25
HETATM   25  C15 UNL     1      -4.531   3.084   2.455  1.00  0.00     0.183 C 
BRANCH  25  26
HETATM   26  O2  UNL     1      -5.301   3.156   1.309  1.00  0.00    -0.399 OA
HETATM   27  H21 UNL     1      -5.182   4.069   0.923  1.00  0.00     0.209 HD
ENDBRANCH  25  26
ENDBRANCH  24  25
ENDBRANCH  22  24
ENDBRANCH  13  22
TORSDOF 7
