REMARK  8 active torsions:
REMARK  status: ('A' for Active; 'I' for Inactive)
REMARK    1  A    between atoms: N1_2  and  C2_3 
REMARK    2  A    between atoms: C2_3  and  N2_4 
REMARK    3  A    between atoms: N2_4  and  C3_5 
REMARK    4  A    between atoms: C3_5  and  C4_6 
REMARK    5  A    between atoms: C4_6  and  O1_7 
REMARK       I    between atoms: N3_15  and  C11_16 
REMARK    6  A    between atoms: C11_16  and  C12_18 
REMARK    7  A    between atoms: C13_19  and  C14_20 
REMARK    8  A    between atoms: C14_20  and  N4_21 
ROOT
HETATM    1  C2  UNL     1      -4.042  -0.753  -0.197  1.00  0.00     0.129 C 
HETATM    2  C5  UNL     1      -3.046  -0.092  -0.798  1.00  0.00     0.004 C 
HETATM    3  C6  UNL     1      -3.262   0.895  -1.893  1.00  0.00     0.122 C 
HETATM    4  S1  UNL     1      -1.761   1.922  -1.615  1.00  0.00    -0.127 SA
HETATM    5  C7  UNL     1      -0.832   0.653  -0.747  1.00  0.00     0.003 C 
HETATM    6  C8  UNL     1      -1.665  -0.310  -0.401  1.00  0.00    -0.031 C 
HETATM    7  C9  UNL     1      -0.997  -1.415   0.325  1.00  0.00     0.060 C 
HETATM    8  C10 UNL     1       0.442  -1.571   0.024  1.00  0.00     0.131 C 
HETATM    9  N3  UNL     1       1.218  -0.376  -0.047  1.00  0.00    -0.344 N 
HETATM   10  C11 UNL     1       2.600  -0.305   0.360  1.00  0.00     0.243 C 
HETATM   11  O2  UNL     1       3.076  -1.395   0.788  1.00  0.00    -0.268 OA
HETATM   12  C17 UNL     1       0.602   0.837  -0.556  1.00  0.00     0.172 C 
ENDROOT
BRANCH   1  13
HETATM   13  N1  UNL     1      -3.848  -1.712   0.865  1.00  0.00    -0.254 NA
HETATM   14  C1  UNL     1      -4.261  -2.934   0.733  1.00  0.00     0.151 C 
ENDBRANCH   1  13
BRANCH   1  15
HETATM   15  N2  UNL     1      -5.383  -0.564  -0.558  1.00  0.00    -0.372 N 
HETATM   16  H3  UNL     1      -5.685  -0.658  -1.566  1.00  0.00     0.161 HD
BRANCH  15  17
HETATM   17  C3  UNL     1      -6.365  -0.234   0.449  1.00  0.00     0.147 C 
BRANCH  17  18
HETATM   18  C4  UNL     1      -6.196   1.130   1.049  1.00  0.00     0.183 C 
BRANCH  18  19
HETATM   19  O1  UNL     1      -7.221   1.290   2.000  1.00  0.00    -0.399 OA
HETATM   20  H8  UNL     1      -8.070   1.541   1.558  1.00  0.00     0.209 HD
ENDBRANCH  18  19
ENDBRANCH  17  18
ENDBRANCH  15  17
ENDBRANCH   1  15
BRANCH  10  21
HETATM   21  C12 UNL     1       3.325   0.950   0.257  1.00  0.00     0.072 C 
HETATM   22  C13 UNL     1       4.588   1.077   0.609  1.00  0.00     0.008 C 
BRANCH  22  23
HETATM   23  C14 UNL     1       5.645   0.209   1.154  1.00  0.00     0.299 C 
BRANCH  23  24
HETATM   24  N4  UNL     1       6.788   0.132   0.263  1.00  0.00     0.083 N 
HETATM   25  C15 UNL     1       7.427   1.428   0.241  1.00  0.00     0.309 C 
HETATM   26  C16 UNL     1       6.424  -0.240  -1.076  1.00  0.00     0.309 C 
ENDBRANCH  23  24
ENDBRANCH  22  23
ENDBRANCH  10  21
TORSDOF 8
