REMARK  8 active torsions:
REMARK  status: ('A' for Active; 'I' for Inactive)
REMARK    1  A    between atoms: C2_2  and  C4_4 
REMARK    2  A    between atoms: C5_5  and  C6_6 
REMARK       I    between atoms: C6_6  and  N1_8 
REMARK    3  A    between atoms: C9_11  and  C10_12 
REMARK    4  A    between atoms: C13_17  and  N4_18 
REMARK    5  A    between atoms: N4_18  and  C14_19 
REMARK    6  A    between atoms: C14_19  and  C15_20 
REMARK    7  A    between atoms: C15_20  and  O2_21 
REMARK    8  A    between atoms: C16_22  and  O3_23 
ROOT
HETATM    1  C6  UNL     1       2.393   1.527   0.716  1.00  0.00     0.243 C 
HETATM    2  O1  UNL     1       2.352   2.332   1.698  1.00  0.00    -0.268 OA
HETATM    3  N1  UNL     1       1.156   1.261   0.078  1.00  0.00    -0.342 N 
HETATM    4  C7  UNL     1       1.008   0.369  -1.040  1.00  0.00     0.131 C 
HETATM    5  C8  UNL     1      -0.392   0.198  -1.526  1.00  0.00     0.062 C 
HETATM    6  C9  UNL     1      -1.290  -0.050  -0.374  1.00  0.00    -0.010 C 
HETATM    7  C16 UNL     1      -1.096   0.808   0.612  1.00  0.00     0.068 C 
HETATM    8  C17 UNL     1      -0.075   1.885   0.515  1.00  0.00     0.191 C 
ENDROOT
BRANCH   6   9
HETATM    9  C10 UNL     1      -2.270  -1.117  -0.433  1.00  0.00     0.036 A 
HETATM   10  C11 UNL     1      -1.659  -2.341  -0.720  1.00  0.00     0.134 A 
HETATM   11  N2  UNL     1      -2.432  -3.462  -0.817  1.00  0.00    -0.253 NA
HETATM   12  C12 UNL     1      -3.758  -3.414  -0.643  1.00  0.00     0.234 A 
HETATM   13  N3  UNL     1      -4.320  -2.226  -0.369  1.00  0.00    -0.224 NA
HETATM   14  C13 UNL     1      -3.635  -1.080  -0.257  1.00  0.00     0.137 A 
BRANCH  14  15
HETATM   15  N4  UNL     1      -4.224   0.178  -0.028  1.00  0.00    -0.372 N 
HETATM   16  H16 UNL     1      -3.763   1.103   0.003  1.00  0.00     0.161 HD
BRANCH  15  17
HETATM   17  C14 UNL     1      -5.650   0.156   0.163  1.00  0.00     0.147 C 
BRANCH  17  18
HETATM   18  C15 UNL     1      -6.170   1.566   0.375  1.00  0.00     0.183 C 
BRANCH  18  19
HETATM   19  O2  UNL     1      -5.585   2.154   1.500  1.00  0.00    -0.399 OA
HETATM   20  H21 UNL     1      -5.885   3.106   1.469  1.00  0.00     0.209 HD
ENDBRANCH  18  19
ENDBRANCH  17  18
ENDBRANCH  15  17
ENDBRANCH  14  15
ENDBRANCH   6   9
BRANCH   7  21
HETATM   21  O3  UNL     1      -1.861   0.702   1.763  1.00  0.00    -0.363 OA
HETATM   22  H22 UNL     1      -1.705  -0.106   2.378  1.00  0.00     0.217 HD
ENDBRANCH   7  21
BRANCH   1  23
HETATM   23  C5  UNL     1       3.670   0.953   0.325  1.00  0.00     0.070 C 
HETATM   24  C4  UNL     1       4.271   0.128  -0.543  1.00  0.00    -0.017 C 
BRANCH  24  25
HETATM   25  C2  UNL     1       5.667  -0.326  -0.756  1.00  0.00    -0.000 C 
HETATM   26  C1  UNL     1       5.677  -1.836  -0.683  1.00  0.00     0.013 C 
HETATM   27  C3  UNL     1       6.615   0.295   0.250  1.00  0.00     0.013 C 
ENDBRANCH  24  25
ENDBRANCH   1  23
TORSDOF 8
