REMARK  7 active torsions:
REMARK  status: ('A' for Active; 'I' for Inactive)
REMARK    1  A    between atoms: N1_2  and  C3_4 
REMARK    2  A    between atoms: C3_4  and  C4_5 
REMARK    3  A    between atoms: C5_6  and  C6_7 
REMARK       I    between atoms: C6_7  and  N2_9 
REMARK    4  A    between atoms: N5_18  and  C13_19 
REMARK    5  A    between atoms: C13_19  and  O2_20 
REMARK    6  A    between atoms: C13_19  and  C14_21 
REMARK    7  A    between atoms: C14_21  and  C15_22 
ROOT
HETATM    1  C6  UNL     1       3.366  -0.421  -0.502  1.00  0.00     0.243 C 
HETATM    2  O1  UNL     1       3.970  -0.310  -1.616  1.00  0.00    -0.268 OA
HETATM    3  N2  UNL     1       1.962  -0.731  -0.380  1.00  0.00    -0.347 N 
HETATM    4  C7  UNL     1       1.119  -0.883   0.769  1.00  0.00     0.130 C 
HETATM    5  C8  UNL     1      -0.225  -0.146   0.635  1.00  0.00     0.058 C 
HETATM    6  C9  UNL     1      -0.905  -0.659  -0.550  1.00  0.00    -0.031 A 
HETATM    7  C10 UNL     1      -2.125  -0.411  -0.963  1.00  0.00     0.095 A 
HETATM    8  C11 UNL     1      -2.477  -1.093  -2.205  1.00  0.00     0.124 A 
HETATM    9  N3  UNL     1      -3.576  -1.054  -2.867  1.00  0.00    -0.231 NA
HETATM   10  C12 UNL     1      -4.601  -0.234  -2.320  1.00  0.00     0.256 A 
HETATM   11  N4  UNL     1      -4.388   0.392  -1.253  1.00  0.00    -0.163 NA
HETATM   12  N5  UNL     1      -3.214   0.385  -0.492  1.00  0.00    -0.236 N 
HETATM   13  S1  UNL     1      -1.043  -2.026  -2.710  1.00  0.00    -0.097 SA
HETATM   14  C21 UNL     1      -0.025  -1.583  -1.297  1.00  0.00     0.103 A 
HETATM   15  C22 UNL     1       1.281  -0.932  -1.647  1.00  0.00     0.146 C 
ENDROOT
BRANCH  12  16
HETATM   16  C13 UNL     1      -3.203   1.095   0.708  1.00  0.00     0.247 C 
BRANCH  16  17
HETATM   17  O2  UNL     1      -2.217   1.881   1.140  1.00  0.00    -0.375 OA
HETATM   18  H17 UNL     1      -2.501   2.337   1.946  1.00  0.00     0.212 HD
ENDBRANCH  16  17
BRANCH  16  19
HETATM   19  C14 UNL     1      -3.562   0.118   1.846  1.00  0.00     0.094 C 
BRANCH  19  20
HETATM   20  C15 UNL     1      -4.931  -0.443   1.611  1.00  0.00    -0.054 A 
HETATM   21  C16 UNL     1      -6.019   0.255   2.149  1.00  0.00     0.007 A 
HETATM   22  C17 UNL     1      -7.276  -0.270   1.928  1.00  0.00     0.001 A 
HETATM   23  C18 UNL     1      -7.514  -1.425   1.218  1.00  0.00     0.000 A 
HETATM   24  C19 UNL     1      -6.412  -2.053   0.722  1.00  0.00     0.001 A 
HETATM   25  C20 UNL     1      -5.102  -1.624   0.878  1.00  0.00     0.007 A 
ENDBRANCH  19  20
ENDBRANCH  16  19
ENDBRANCH  12  16
BRANCH   1  26
HETATM   26  C5  UNL     1       4.164  -0.217   0.682  1.00  0.00     0.072 C 
HETATM   27  C4  UNL     1       5.451   0.073   0.670  1.00  0.00     0.008 C 
BRANCH  27  28
HETATM   28  C3  UNL     1       6.546   0.303  -0.295  1.00  0.00     0.299 C 
BRANCH  28  29
HETATM   29  N1  UNL     1       7.103   1.640  -0.142  1.00  0.00     0.083 N 
HETATM   30  C1  UNL     1       6.064   2.580  -0.576  1.00  0.00     0.309 C 
HETATM   31  C2  UNL     1       8.216   1.813  -1.044  1.00  0.00     0.309 C 
ENDBRANCH  28  29
ENDBRANCH  27  28
ENDBRANCH   1  26
TORSDOF 7
