REMARK  6 active torsions:
REMARK  status: ('A' for Active; 'I' for Inactive)
REMARK    1  A    between atoms: C2_2  and  C3_3 
REMARK    2  A    between atoms: C3_3  and  C4_4 
REMARK    3  A    between atoms: C4_4  and  N1_5 
REMARK    4  A    between atoms: N1_5  and  C5_6 
REMARK    5  A    between atoms: C5_6  and  C6_7 
REMARK    6  A    between atoms: C7_8  and  C8_9 
REMARK       I    between atoms: C8_9  and  N2_11 
ROOT
HETATM    1  C8  UNL     1      -1.557  -1.131   0.835  1.00  0.00     0.245 C 
HETATM    2  O1  UNL     1      -1.621  -1.263   2.061  1.00  0.00    -0.268 OA
HETATM    3  N2  UNL     1      -2.711  -1.772   0.306  1.00  0.00    -0.310 N 
HETATM    4  C9  UNL     1      -3.659  -2.409   1.216  1.00  0.00     0.134 C 
HETATM    5  C10 UNL     1      -4.992  -2.393   0.501  1.00  0.00     0.059 C 
HETATM    6  C11 UNL     1      -4.757  -1.347  -0.513  1.00  0.00    -0.015 C 
HETATM    7  C12 UNL     1      -4.829  -0.308  -1.358  1.00  0.00     0.059 C 
HETATM    8  S1  UNL     1      -3.177  -0.325  -2.167  1.00  0.00    -0.081 SA
HETATM    9  C13 UNL     1      -3.106  -2.100  -2.133  1.00  0.00     0.132 A 
HETATM   10  N3  UNL     1      -2.828  -3.274  -2.652  1.00  0.00    -0.234 NA
HETATM   11  C14 UNL     1      -3.221  -4.240  -1.656  1.00  0.00     0.231 A 
HETATM   12  N4  UNL     1      -3.672  -3.650  -0.647  1.00  0.00    -0.239 NA
HETATM   13  C15 UNL     1      -3.633  -2.229  -0.789  1.00  0.00     0.208 A 
ENDROOT
BRANCH   1  14
HETATM   14  C7  UNL     1      -0.490  -0.448   0.130  1.00  0.00     0.072 C 
HETATM   15  C6  UNL     1       0.468   0.064   0.877  1.00  0.00     0.008 C 
BRANCH  15  16
HETATM   16  C5  UNL     1       1.617   0.791   0.235  1.00  0.00     0.297 C 
BRANCH  16  17
HETATM   17  N1  UNL     1       1.654   2.139   0.710  1.00  0.00     0.086 N 
HETATM   18  H10 UNL     1       0.729   2.582   0.513  1.00  0.00     0.316 HD
BRANCH  17  19
HETATM   19  C4  UNL     1       2.730   2.871   0.112  1.00  0.00     0.270 C 
BRANCH  19  20
HETATM   20  C3  UNL     1       4.062   2.375   0.598  1.00  0.00     0.029 C 
BRANCH  20  21
HETATM   21  C2  UNL     1       5.197   3.174  -0.049  1.00  0.00    -0.003 C 
HETATM   22  C1  UNL     1       6.491   2.617   0.492  1.00  0.00     0.005 C 
ENDBRANCH  20  21
ENDBRANCH  19  20
ENDBRANCH  17  19
ENDBRANCH  16  17
ENDBRANCH  15  16
ENDBRANCH   1  14
TORSDOF 6
