REMARK  6 active torsions:
REMARK  status: ('A' for Active; 'I' for Inactive)
REMARK    1  A    between atoms: N1_2  and  C3_4 
REMARK    2  A    between atoms: C4_5  and  C5_6 
REMARK       I    between atoms: C5_6  and  N2_8 
REMARK    3  A    between atoms: C12_18  and  N5_19 
REMARK    4  A    between atoms: N5_19  and  C13_20 
REMARK    5  A    between atoms: C13_20  and  C14_21 
REMARK    6  A    between atoms: C14_21  and  O2_22 
ROOT
HETATM    1  C5  UNL     1       1.949  -1.012  -1.779  1.00  0.00     0.244 C 
HETATM    2  O1  UNL     1       1.228  -1.722  -2.524  1.00  0.00    -0.268 OA
HETATM    3  N2  UNL     1       1.257   0.210  -1.722  1.00  0.00    -0.344 N 
HETATM    4  C6  UNL     1       0.030   0.407  -2.419  1.00  0.00     0.131 C 
HETATM    5  C7  UNL     1      -1.181   0.439  -1.565  1.00  0.00     0.060 C 
HETATM    6  C8  UNL     1      -0.923   1.205  -0.321  1.00  0.00    -0.025 A 
HETATM    7  C9  UNL     1       0.362   1.673  -0.157  1.00  0.00     0.010 A 
HETATM    8  S1  UNL     1       0.353   2.554   1.363  1.00  0.00    -0.072 SA
HETATM    9  C10 UNL     1      -1.387   2.258   1.724  1.00  0.00     0.114 A 
HETATM   10  N3  UNL     1      -2.061   2.683   2.800  1.00  0.00    -0.234 NA
HETATM   11  C11 UNL     1      -3.358   2.365   2.913  1.00  0.00     0.236 A 
HETATM   12  N4  UNL     1      -3.805   1.653   1.914  1.00  0.00    -0.224 NA
HETATM   13  C12 UNL     1      -3.153   1.217   0.832  1.00  0.00     0.138 A 
HETATM   14  C15 UNL     1      -1.819   1.520   0.672  1.00  0.00     0.053 A 
HETATM   15  C16 UNL     1       1.519   1.471  -1.046  1.00  0.00     0.172 C 
ENDROOT
BRANCH   1  16
HETATM   16  C4  UNL     1       3.193  -1.445  -1.165  1.00  0.00     0.091 C 
HETATM   17  C3  UNL     1       4.090  -0.889  -0.370  1.00  0.00     0.090 C 
BRANCH  17  18
HETATM   18  N1  UNL     1       5.273  -1.498   0.132  1.00  0.00    -0.398 N 
HETATM   19  C1  UNL     1       6.668  -1.233  -0.194  1.00  0.00     0.148 C 
HETATM   20  C2  UNL     1       4.972  -2.526   1.108  1.00  0.00     0.148 C 
ENDBRANCH  17  18
ENDBRANCH   1  16
BRANCH  13  21
HETATM   21  N5  UNL     1      -3.943   0.454  -0.063  1.00  0.00    -0.372 N 
HETATM   22  H14 UNL     1      -3.712  -0.014  -0.960  1.00  0.00     0.161 HD
BRANCH  21  23
HETATM   23  C13 UNL     1      -5.343   0.144   0.128  1.00  0.00     0.147 C 
BRANCH  23  24
HETATM   24  C14 UNL     1      -5.626  -0.834   1.220  1.00  0.00     0.183 C 
BRANCH  24  25
HETATM   25  O2  UNL     1      -5.212  -0.447   2.481  1.00  0.00    -0.399 OA
HETATM   26  H19 UNL     1      -5.918   0.114   2.920  1.00  0.00     0.209 HD
ENDBRANCH  24  25
ENDBRANCH  23  24
ENDBRANCH  21  23
ENDBRANCH  13  21
TORSDOF 6
