REMARK  3 active torsions:
REMARK  status: ('A' for Active; 'I' for Inactive)
REMARK    1  A    between atoms: O1_2  and  C2_3 
REMARK    2  A    between atoms: C6_7  and  N1_8 
REMARK    3  A    between atoms: N1_8  and  C7_9 
ROOT
HETATM    1  C2  UNL     1       0.450   3.464  -0.174  1.00  0.00     0.098 C 
HETATM    2  C3  UNL     1       1.739   3.395   0.112  1.00  0.00     0.017 C 
HETATM    3  C4  UNL     1       2.340   2.039   0.167  1.00  0.00     0.072 C 
HETATM    4  C5  UNL     1       1.484   1.020  -0.477  1.00  0.00    -0.006 C 
HETATM    5  C6  UNL     1       1.438  -0.276  -0.122  1.00  0.00     0.136 C 
HETATM    6  N2  UNL     1       0.595  -1.152  -0.803  1.00  0.00    -0.224 NA
HETATM    7  C13 UNL     1      -0.112  -2.102  -0.387  1.00  0.00     0.237 C 
HETATM    8  N3  UNL     1      -0.844  -3.141   0.301  1.00  0.00    -0.220 NA
HETATM    9  C14 UNL     1      -2.055  -2.754   0.649  1.00  0.00     0.170 C 
HETATM   10  C15 UNL     1      -2.494  -1.351   0.299  1.00  0.00     0.358 C 
HETATM   11  N4  UNL     1      -3.829  -1.245  -0.101  1.00  0.00     0.098 NA
HETATM   12  C16 UNL     1      -4.124  -0.305  -1.117  1.00  0.00     0.275 C 
HETATM   13  C17 UNL     1      -3.060   0.531  -1.696  1.00  0.00     0.057 C 
HETATM   14  C18 UNL     1      -2.384   1.532  -0.820  1.00  0.00     0.177 C 
HETATM   15  O2  UNL     1      -1.351   2.134  -1.612  1.00  0.00    -0.348 OA
HETATM   16  C19 UNL     1      -0.132   2.463  -1.058  1.00  0.00     0.102 C 
HETATM   17  C20 UNL     1       0.640   1.485  -1.574  1.00  0.00     0.050 C 
HETATM   18  C21 UNL     1      -4.444  -2.532  -0.331  1.00  0.00     0.299 C 
HETATM   19  C22 UNL     1      -4.398  -3.307   0.995  1.00  0.00     0.207 C 
HETATM   20  O3  UNL     1      -3.015  -3.515   1.329  1.00  0.00    -0.335 OA
ENDROOT
BRANCH   5  21
HETATM   21  N1  UNL     1       2.344  -0.491   0.968  1.00  0.00    -0.340 N 
HETATM   22  H7  UNL     1       2.017  -0.233   1.925  1.00  0.00     0.167 HD
BRANCH  21  23
HETATM   23  C7  UNL     1       3.649  -1.037   0.773  1.00  0.00     0.035 A 
HETATM   24  C8  UNL     1       4.516  -1.243   1.810  1.00  0.00     0.032 A 
HETATM   25  C9  UNL     1       5.764  -1.776   1.543  1.00  0.00     0.046 A 
HETATM   26  C10 UNL     1       6.100  -2.083   0.247  1.00  0.00     0.138 A 
HETATM   27  F1  UNL     1       7.333  -2.610  -0.013  1.00  0.00    -0.204 F 
HETATM   28  C11 UNL     1       5.239  -1.884  -0.821  1.00  0.00     0.074 A 
HETATM   29 CL1  UNL     1       5.638  -2.263  -2.465  1.00  0.00    -0.081 Cl
HETATM   30  C12 UNL     1       4.020  -1.357  -0.515  1.00  0.00     0.056 A 
ENDBRANCH  21  23
ENDBRANCH   5  21
BRANCH   1  31
HETATM   31  O1  UNL     1      -0.534   4.338   0.209  1.00  0.00    -0.353 OA
HETATM   32  C1  UNL     1      -0.389   5.177   1.322  1.00  0.00     0.210 C 
ENDBRANCH   1  31
TORSDOF 3
