REMARK  5 active torsions:
REMARK  status: ('A' for Active; 'I' for Inactive)
REMARK    1  A    between atoms: C5_7  and  C6_8 
REMARK    2  A    between atoms: C6_8  and  C7_9 
REMARK    3  A    between atoms: C7_9  and  O2_10 
REMARK    4  A    between atoms: O2_10  and  C8_11 
REMARK    5  A    between atoms: C19_25  and  O3_26 
ROOT
HETATM    1  C8  UNL     1       0.793  -0.103  -0.185  1.00  0.00     0.139 C 
HETATM    2  C9  UNL     1       1.441  -1.083  -1.174  1.00  0.00     0.044 C 
HETATM    3  C10 UNL     1       2.727  -1.475  -0.459  1.00  0.00    -0.019 C 
HETATM    4  C11 UNL     1       3.541  -2.597  -0.926  1.00  0.00     0.017 C 
HETATM    5  C12 UNL     1       3.009  -0.747   0.578  1.00  0.00     0.051 A 
HETATM    6  C13 UNL     1       2.712   0.318   1.638  1.00  0.00     0.128 A 
HETATM    7  N2  UNL     1       3.534   0.765   2.499  1.00  0.00    -0.266 NA
HETATM    8  C14 UNL     1       3.450   2.102   2.813  1.00  0.00     0.225 A 
HETATM    9  N3  UNL     1       2.424   2.478   1.983  1.00  0.00    -0.248 NA
HETATM   10  C15 UNL     1       1.873   1.484   1.207  1.00  0.00     0.166 A 
HETATM   11  C16 UNL     1       1.803   0.141   0.780  1.00  0.00     0.080 A 
HETATM   12  N4  UNL     1       1.295   2.375   0.187  1.00  0.00    -0.392 N 
HETATM   13  C17 UNL     1       2.422   2.348  -0.796  1.00  0.00     0.124 C 
HETATM   14  C18 UNL     1       3.517   1.433  -0.274  1.00  0.00     0.052 C 
HETATM   15  C19 UNL     1       4.722   0.878   0.174  1.00  0.00     0.129 C 
HETATM   16  C20 UNL     1       4.533  -0.645   0.577  1.00  0.00     0.221 C 
HETATM   17  F1  UNL     1       5.061  -0.743   1.818  1.00  0.00    -0.245 F 
HETATM   18  H20 UNL     1       0.385   2.628   0.579  1.00  0.00     0.155 HD
ENDROOT
BRANCH   1  19
HETATM   19  O2  UNL     1      -0.364  -0.681   0.402  1.00  0.00    -0.385 OA
BRANCH  19  20
HETATM   20  C7  UNL     1      -1.503  -0.004  -0.041  1.00  0.00     0.170 C 
BRANCH  20  21
HETATM   21  C6  UNL     1      -2.700  -0.674   0.553  1.00  0.00     0.066 C 
BRANCH  21  22
HETATM   22  C5  UNL     1      -4.000  -0.035   0.145  1.00  0.00     0.255 C 
HETATM   23  C2  UNL     1      -5.094  -0.820   0.820  1.00  0.00    -0.033 C 
HETATM   24  C1  UNL     1      -5.159  -1.893   1.586  1.00  0.00     0.019 C 
HETATM   25  C3  UNL     1      -6.486  -0.294   0.606  1.00  0.00     0.205 C 
HETATM   26  O1  UNL     1      -6.362   0.516  -0.557  1.00  0.00    -0.358 OA
HETATM   27  C4  UNL     1      -5.657  -0.197  -1.534  1.00  0.00     0.438 C 
HETATM   28  N1  UNL     1      -4.234  -0.168  -1.285  1.00  0.00     0.115 N 
HETATM   29  H7  UNL     1      -3.839   0.667  -1.809  1.00  0.00     0.319 HD
ENDBRANCH  21  22
ENDBRANCH  20  21
ENDBRANCH  19  20
ENDBRANCH   1  19
BRANCH  15  30
HETATM   30  O3  UNL     1       6.066   1.116   0.428  1.00  0.00    -0.383 OA
HETATM   31  H24 UNL     1       6.646   1.296  -0.383  1.00  0.00     0.210 HD
ENDBRANCH  15  30
TORSDOF 5
