REMARK  6 active torsions:
REMARK  status: ('A' for Active; 'I' for Inactive)
REMARK    1  A    between atoms: N1_7  and  C6_8 
REMARK    2  A    between atoms: C6_8  and  C7_9 
REMARK    3  A    between atoms: C7_9  and  O2_10 
REMARK    4  A    between atoms: O2_10  and  C8_11 
REMARK    5  A    between atoms: C14_19  and  N4_20 
REMARK    6  A    between atoms: N4_20  and  C15_21 
ROOT
HETATM    1  C8  UNL     1       0.636  -0.484  -2.000  1.00  0.00     0.189 A 
HETATM    2  C9  UNL     1       0.625  -1.522  -3.096  1.00  0.00    -0.048 A 
HETATM    3  C10 UNL     1      -0.358  -2.630  -3.362  1.00  0.00     0.046 C 
HETATM    4  C11 UNL     1       1.684  -1.362  -3.911  1.00  0.00     0.037 A 
HETATM    5  C12 UNL     1       2.501  -0.235  -3.471  1.00  0.00     0.071 A 
HETATM    6  N2  UNL     1       3.629   0.296  -3.957  1.00  0.00    -0.241 NA
HETATM    7  C13 UNL     1       4.218   1.358  -3.377  1.00  0.00     0.235 A 
HETATM    8  N3  UNL     1       3.630   1.872  -2.282  1.00  0.00    -0.224 NA
HETATM    9  C14 UNL     1       2.496   1.363  -1.767  1.00  0.00     0.141 A 
HETATM   10  C21 UNL     1       1.871   0.267  -2.351  1.00  0.00     0.050 A 
ENDROOT
BRANCH   1  11
HETATM   11  O2  UNL     1       0.665  -1.044  -0.766  1.00  0.00    -0.375 OA
BRANCH  11  12
HETATM   12  C7  UNL     1      -0.312  -0.754   0.122  1.00  0.00     0.189 C 
BRANCH  12  13
HETATM   13  C6  UNL     1      -1.717  -1.093  -0.252  1.00  0.00     0.149 C 
BRANCH  13  14
HETATM   14  N1  UNL     1      -2.580  -0.700   0.845  1.00  0.00    -0.379 N 
HETATM   15  C2  UNL     1      -3.495   0.376   0.705  1.00  0.00     0.021 C 
HETATM   16  C1  UNL     1      -3.303   1.352  -0.176  1.00  0.00     0.040 C 
HETATM   17  C3  UNL     1      -4.744   0.521   1.518  1.00  0.00     0.223 C 
HETATM   18  O1  UNL     1      -4.812  -0.592   2.388  1.00  0.00    -0.384 OA
HETATM   19  C4  UNL     1      -3.595  -0.673   3.024  1.00  0.00     0.187 C 
HETATM   20  C5  UNL     1      -2.568  -1.363   2.138  1.00  0.00     0.149 C 
ENDBRANCH  13  14
ENDBRANCH  12  13
ENDBRANCH  11  12
ENDBRANCH   1  11
BRANCH   9  21
HETATM   21  N4  UNL     1       1.944   1.976  -0.605  1.00  0.00    -0.340 N 
HETATM   22  H19 UNL     1       1.269   2.720  -0.850  1.00  0.00     0.167 HD
BRANCH  21  23
HETATM   23  C15 UNL     1       2.317   1.570   0.722  1.00  0.00     0.035 A 
HETATM   24  C16 UNL     1       3.258   0.567   0.781  1.00  0.00     0.032 A 
HETATM   25  C17 UNL     1       3.609   0.183   2.064  1.00  0.00     0.046 A 
HETATM   26  C18 UNL     1       3.066   0.754   3.220  1.00  0.00     0.138 A 
HETATM   27  F1  UNL     1       3.421   0.369   4.463  1.00  0.00    -0.204 F 
HETATM   28  C19 UNL     1       2.132   1.752   3.006  1.00  0.00     0.074 A 
HETATM   29 CL1  UNL     1       1.439   2.475   4.444  1.00  0.00    -0.081 Cl
HETATM   30  C20 UNL     1       1.703   2.218   1.772  1.00  0.00     0.056 A 
ENDBRANCH  21  23
ENDBRANCH   9  21
TORSDOF 6
