REMARK  9 active torsions:
REMARK  status: ('A' for Active; 'I' for Inactive)
REMARK    1  A    between atoms: N1_2  and  C3_4 
REMARK    2  A    between atoms: C3_4  and  C4_5 
REMARK    3  A    between atoms: C5_6  and  C6_7 
REMARK       I    between atoms: C6_7  and  N2_9 
REMARK    4  A    between atoms: C10_15  and  C11_16 
REMARK    5  A    between atoms: C11_16  and  C12_17 
REMARK    6  A    between atoms: C12_17  and  O2_18 
REMARK    7  A    between atoms: C13_19  and  C14_20 
REMARK    8  A    between atoms: C14_20  and  C15_21 
REMARK    9  A    between atoms: C15_21  and  N4_22 
ROOT
HETATM    1  C6  UNL     1       1.697   0.136   0.874  1.00  0.00     0.245 C 
HETATM    2  O1  UNL     1       2.178   1.308   1.042  1.00  0.00    -0.268 OA
HETATM    3  N2  UNL     1       0.277   0.012   0.754  1.00  0.00    -0.317 N 
HETATM    4  C7  UNL     1      -0.424  -1.212   0.569  1.00  0.00     0.148 C 
HETATM    5  C8  UNL     1      -1.805  -1.169   1.101  1.00  0.00     0.100 C 
HETATM    6  S1  UNL     1      -1.760   0.392   2.077  1.00  0.00    -0.112 SA
HETATM    7  C9  UNL     1      -0.674   1.121   0.799  1.00  0.00     0.252 C 
HETATM    8  N3  UNL     1      -1.395   1.075  -0.454  1.00  0.00    -0.363 N 
HETATM    9  C10 UNL     1      -2.550   0.293  -0.734  1.00  0.00     0.013 C 
HETATM   10  C13 UNL     1      -2.689  -0.826  -0.069  1.00  0.00    -0.041 C 
HETATM   11  H15 UNL     1      -0.970   1.708  -1.193  1.00  0.00     0.162 HD
ENDROOT
BRANCH   1  12
HETATM   12  C5  UNL     1       2.557  -1.034   0.808  1.00  0.00     0.072 C 
HETATM   13  C4  UNL     1       3.861  -1.054   0.904  1.00  0.00     0.008 C 
BRANCH  13  14
HETATM   14  C3  UNL     1       4.902  -0.046   1.096  1.00  0.00     0.299 C 
BRANCH  14  15
HETATM   15  N1  UNL     1       5.859  -0.003   0.008  1.00  0.00     0.083 N 
HETATM   16  C1  UNL     1       5.286   0.481  -1.232  1.00  0.00     0.309 C 
HETATM   17  C2  UNL     1       6.925   0.900   0.462  1.00  0.00     0.309 C 
ENDBRANCH  14  15
ENDBRANCH  13  14
ENDBRANCH   1  12
BRANCH  10  18
HETATM   18  C14 UNL     1      -3.704  -1.810  -0.416  1.00  0.00     0.056 C 
BRANCH  18  19
HETATM   19  C15 UNL     1      -4.681  -2.035   0.748  1.00  0.00     0.115 C 
BRANCH  19  20
HETATM   20  N4  UNL     1      -5.354  -0.809   1.102  1.00  0.00    -0.430 N 
HETATM   21  H25 UNL     1      -5.598  -0.723   2.092  1.00  0.00     0.149 HD
HETATM   22  H26 UNL     1      -6.049  -0.497   0.412  1.00  0.00     0.149 HD
ENDBRANCH  19  20
ENDBRANCH  18  19
ENDBRANCH  10  18
BRANCH   9  23
HETATM   23  C11 UNL     1      -3.489   0.786  -1.733  1.00  0.00     0.083 C 
BRANCH  23  24
HETATM   24  C12 UNL     1      -4.017   2.147  -1.261  1.00  0.00     0.170 C 
BRANCH  24  25
HETATM   25  O2  UNL     1      -2.923   2.999  -1.138  1.00  0.00    -0.400 OA
HETATM   26  H20 UNL     1      -2.928   3.592  -1.928  1.00  0.00     0.209 HD
ENDBRANCH  24  25
ENDBRANCH  23  24
ENDBRANCH   9  23
TORSDOF 9
