REMARK  5 active torsions:
REMARK  status: ('A' for Active; 'I' for Inactive)
REMARK    1  A    between atoms: C2_2  and  O1_3 
REMARK    2  A    between atoms: O1_3  and  C3_4 
REMARK    3  A    between atoms: C6_7  and  C7_8 
REMARK    4  A    between atoms: C7_8  and  N1_9 
REMARK    5  A    between atoms: C7_8  and  N2_10 
ROOT
HETATM    1  N2  UNL     1      -0.195   0.473   0.659  1.00  0.00    -0.222 N 
HETATM    2  N3  UNL     1       0.008   0.126  -0.660  1.00  0.00    -0.166 NA
HETATM    3  C8  UNL     1      -0.840  -0.258  -1.520  1.00  0.00     0.215 C 
HETATM    4  N4  UNL     1      -2.035  -0.639  -2.171  1.00  0.00    -0.400 NA
HETATM    5  C9  UNL     1      -3.157  -0.036  -2.136  1.00  0.00     0.319 C 
HETATM    6  C10 UNL     1      -4.553   0.340  -2.343  1.00  0.00     0.149 C 
HETATM    7  N5  UNL     1      -5.073   1.237  -1.299  1.00  0.00    -0.388 N 
HETATM    8  C11 UNL     1      -4.749   0.436  -0.139  1.00  0.00     0.028 A 
HETATM    9  C12 UNL     1      -5.600  -0.449   0.487  1.00  0.00     0.029 A 
HETATM   10  C13 UNL     1      -5.185  -1.212   1.585  1.00  0.00     0.003 A 
HETATM   11  C14 UNL     1      -3.891  -1.049   2.023  1.00  0.00     0.015 A 
HETATM   12  C15 UNL     1      -3.027  -0.168   1.410  1.00  0.00     0.007 A 
HETATM   13  C16 UNL     1      -3.432   0.590   0.324  1.00  0.00     0.044 A 
HETATM   14  P1  UNL     1      -1.318   0.023   1.971  1.00  0.00     0.140 P 
HETATM   15 CL1  UNL     1      -0.629  -1.502   3.212  1.00  0.00    -0.064 Cl
HETATM   16  H13 UNL     1      -5.474   1.945  -0.651  1.00  0.00     0.159 HD
ENDROOT
BRANCH   1  17
HETATM   17  C7  UNL     1       0.827   1.472   0.958  1.00  0.00     0.374 C 
BRANCH  17  18
HETATM   18  C6  UNL     1       2.201   0.951   0.738  1.00  0.00    -0.004 A 
HETATM   19  C5  UNL     1       2.831   0.122   1.646  1.00  0.00     0.014 A 
HETATM   20  C4  UNL     1       4.112  -0.386   1.480  1.00  0.00     0.038 A 
HETATM   21  C3  UNL     1       4.788  -0.027   0.321  1.00  0.00     0.074 A 
HETATM   22  C18 UNL     1       4.214   0.797  -0.624  1.00  0.00     0.038 A 
HETATM   23  C17 UNL     1       2.935   1.273  -0.405  1.00  0.00     0.014 A 
BRANCH  21  24
HETATM   24  O1  UNL     1       6.072  -0.596   0.260  1.00  0.00    -0.324 OA
BRANCH  24  25
HETATM   25  C2  UNL     1       6.898  -0.343  -0.837  1.00  0.00     0.132 C 
HETATM   26  C1  UNL     1       6.987  -1.110  -1.935  1.00  0.00     0.037 C 
ENDBRANCH  24  25
ENDBRANCH  21  24
ENDBRANCH  17  18
BRANCH  17  27
HETATM   27  N1  UNL     1       0.689   1.958   2.328  1.00  0.00     0.107 N 
HETATM   28  H7  UNL     1       1.595   2.369   2.640  1.00  0.00     0.316 HD
HETATM   29  H8  UNL     1       0.345   1.192   2.957  1.00  0.00     0.316 HD
ENDBRANCH  17  27
ENDBRANCH   1  17
TORSDOF 5
