REMARK  10 active torsions:
REMARK  status: ('A' for Active; 'I' for Inactive)
REMARK    1  A    between atoms: C2_2  and  O1_3 
REMARK    2  A    between atoms: O1_3  and  C3_4 
REMARK    3  A    between atoms: C3_4  and  C4_5 
REMARK    4  A    between atoms: C4_5  and  N1_6 
REMARK    5  A    between atoms: N1_6  and  C5_7 
REMARK    6  A    between atoms: C5_7  and  C6_8 
REMARK    7  A    between atoms: C6_8  and  O2_9 
REMARK    8  A    between atoms: O2_9  and  C7_10 
REMARK    9  A    between atoms: C12_17  and  N4_18 
REMARK   10  A    between atoms: N4_18  and  C13_19 
ROOT
HETATM    1  C7  UNL     1      -0.732  -2.752  -0.092  1.00  0.00     0.071 C 
HETATM    2  C8  UNL     1      -1.380  -1.622  -0.283  1.00  0.00     0.052 C 
HETATM    3  C9  UNL     1      -2.790  -1.345  -0.341  1.00  0.00     0.041 A 
HETATM    4  C10 UNL     1      -3.946  -2.109  -0.536  1.00  0.00     0.074 A 
HETATM    5  N2  UNL     1      -5.110  -1.451  -0.546  1.00  0.00    -0.241 NA
HETATM    6  C11 UNL     1      -5.211  -0.136  -0.382  1.00  0.00     0.236 A 
HETATM    7  N3  UNL     1      -4.097   0.553  -0.199  1.00  0.00    -0.224 NA
HETATM    8  C12 UNL     1      -2.874   0.013  -0.168  1.00  0.00     0.142 A 
HETATM    9  C19 UNL     1      -4.139  -3.547  -0.731  1.00  0.00     0.057 C 
HETATM   10  C20 UNL     1      -3.416  -4.600  -0.399  1.00  0.00     0.137 C 
HETATM   11  O3  UNL     1      -2.197  -4.658   0.268  1.00  0.00    -0.357 OA
HETATM   12  C21 UNL     1      -0.895  -4.202   0.142  1.00  0.00     0.239 C 
ENDROOT
BRANCH   1  13
HETATM   13  O2  UNL     1       0.645  -2.640  -0.097  1.00  0.00    -0.352 OA
BRANCH  13  14
HETATM   14  C6  UNL     1       1.304  -1.923  -1.102  1.00  0.00     0.194 C 
BRANCH  14  15
HETATM   15  C5  UNL     1       2.778  -2.255  -1.027  1.00  0.00     0.140 C 
BRANCH  15  16
HETATM   16  N1  UNL     1       3.330  -1.919   0.223  1.00  0.00    -0.417 N 
HETATM   17  H10 UNL     1       3.050  -2.503   1.013  1.00  0.00     0.153 HD
BRANCH  16  18
HETATM   18  C4  UNL     1       3.400  -0.509   0.458  1.00  0.00     0.140 C 
BRANCH  18  19
HETATM   19  C3  UNL     1       4.406   0.105  -0.465  1.00  0.00     0.186 C 
BRANCH  19  20
HETATM   20  O1  UNL     1       4.531   1.459  -0.303  1.00  0.00    -0.390 OA
BRANCH  20  21
HETATM   21  C2  UNL     1       4.945   1.865   0.946  1.00  0.00     0.163 C 
HETATM   22  C1  UNL     1       5.046   3.397   0.898  1.00  0.00     0.033 C 
ENDBRANCH  20  21
ENDBRANCH  19  20
ENDBRANCH  18  19
ENDBRANCH  16  18
ENDBRANCH  15  16
ENDBRANCH  14  15
ENDBRANCH  13  14
ENDBRANCH   1  13
BRANCH   8  23
HETATM   23  N4  UNL     1      -1.771   0.880   0.044  1.00  0.00    -0.340 N 
HETATM   24  H17 UNL     1      -0.747   0.949   0.159  1.00  0.00     0.167 HD
BRANCH  23  25
HETATM   25  C13 UNL     1      -1.992   2.296   0.204  1.00  0.00     0.036 A 
HETATM   26  C14 UNL     1      -1.297   3.387  -0.321  1.00  0.00     0.029 A 
HETATM   27  C15 UNL     1      -1.623   4.696  -0.061  1.00  0.00     0.005 A 
HETATM   28  C16 UNL     1      -2.688   4.962   0.758  1.00  0.00     0.042 A 
HETATM   29  C17 UNL     1      -3.401   3.898   1.298  1.00  0.00     0.118 A 
HETATM   30  F1  UNL     1      -4.428   4.356   2.089  1.00  0.00    -0.206 F 
HETATM   31  C18 UNL     1      -3.062   2.586   1.028  1.00  0.00     0.071 A 
ENDBRANCH  23  25
ENDBRANCH   8  23
TORSDOF 10
