REMARK  8 active torsions:
REMARK  status: ('A' for Active; 'I' for Inactive)
REMARK    1  A    between atoms: N2_6  and  O1_7 
REMARK    2  A    between atoms: C5_8  and  N3_9 
REMARK    3  A    between atoms: N3_9  and  C6_10 
REMARK    4  A    between atoms: C14_20  and  C15_21 
REMARK    5  A    between atoms: C15_21  and  C16_22 
REMARK    6  A    between atoms: C16_22  and  C17_23 
REMARK    7  A    between atoms: C17_23  and  N4_24 
REMARK    8  A    between atoms: C21_29  and  O3_30 
ROOT
HETATM    1  C1  UNL     1      -1.637   2.529  -0.586  1.00  0.00     0.049 C 
HETATM    2  C2  UNL     1      -0.324   1.863  -0.808  1.00  0.00    -0.053 A 
HETATM    3  C3  UNL     1       0.567   2.695  -1.485  1.00  0.00     0.041 A 
HETATM    4  C4  UNL     1       1.847   2.254  -1.789  1.00  0.00     0.094 A 
HETATM    5  N1  UNL     1       2.970   2.709  -2.396  1.00  0.00    -0.144 NA
HETATM    6  N2  UNL     1       3.914   1.787  -2.375  1.00  0.00    -0.122 N 
HETATM    7  C5  UNL     1       3.483   0.663  -1.755  1.00  0.00     0.167 A 
HETATM    8  C12 UNL     1       2.187   0.968  -1.393  1.00  0.00     0.043 A 
HETATM    9  C13 UNL     1       1.321   0.129  -0.723  1.00  0.00     0.025 A 
HETATM   10  C14 UNL     1       0.055   0.589  -0.432  1.00  0.00    -0.051 A 
ENDROOT
BRANCH  10  11
HETATM   11  C15 UNL     1      -0.990  -0.152   0.273  1.00  0.00     0.041 C 
BRANCH  11  12
HETATM   12  C16 UNL     1      -2.049  -0.651  -0.660  1.00  0.00     0.035 C 
BRANCH  12  13
HETATM   13  C17 UNL     1      -3.139  -1.412   0.063  1.00  0.00     0.276 C 
BRANCH  13  14
HETATM   14  N4  UNL     1      -3.811  -0.618   1.039  1.00  0.00     0.121 N 
HETATM   15  C18 UNL     1      -4.614   0.446   0.551  1.00  0.00     0.301 C 
HETATM   16  C19 UNL     1      -6.056   0.081   0.323  1.00  0.00     0.198 C 
HETATM   17  O2  UNL     1      -6.627  -0.508   1.445  1.00  0.00    -0.385 OA
HETATM   18  C20 UNL     1      -5.930  -1.703   1.647  1.00  0.00     0.231 C 
HETATM   19  C21 UNL     1      -4.509  -1.405   1.994  1.00  0.00     0.380 C 
BRANCH  19  20
HETATM   20  O3  UNL     1      -4.507  -0.804   3.263  1.00  0.00    -0.366 OA
HETATM   21  H24 UNL     1      -4.174   0.122   3.231  1.00  0.00     0.212 HD
ENDBRANCH  19  20
ENDBRANCH  13  14
ENDBRANCH  12  13
ENDBRANCH  11  12
ENDBRANCH  10  11
BRANCH   7  22
HETATM   22  N3  UNL     1       4.337  -0.447  -1.621  1.00  0.00    -0.338 N 
HETATM   23  H6  UNL     1       4.312  -1.038  -2.481  1.00  0.00     0.167 HD
BRANCH  22  24
HETATM   24  C6  UNL     1       5.133  -0.755  -0.502  1.00  0.00     0.035 A 
HETATM   25  C7  UNL     1       6.028  -1.824  -0.545  1.00  0.00     0.032 A 
HETATM   26  C8  UNL     1       6.831  -2.194   0.507  1.00  0.00     0.046 A 
HETATM   27  C9  UNL     1       6.700  -1.416   1.664  1.00  0.00     0.138 A 
HETATM   28  F1  UNL     1       7.488  -1.771   2.713  1.00  0.00    -0.204 F 
HETATM   29  C10 UNL     1       5.818  -0.364   1.704  1.00  0.00     0.074 A 
HETATM   30 CL1  UNL     1       5.679   0.594   3.188  1.00  0.00    -0.081 Cl
HETATM   31  C11 UNL     1       5.018  -0.002   0.645  1.00  0.00     0.056 A 
ENDBRANCH  22  24
ENDBRANCH   7  22
BRANCH   6  32
HETATM   32  O1  UNL     1       5.116   2.118  -2.962  1.00  0.00    -0.265 OA
HETATM   33  H5  UNL     1       5.953   2.105  -2.358  1.00  0.00     0.247 HD
ENDBRANCH   6  32
TORSDOF 8
