REMARK  3 active torsions:
REMARK  status: ('A' for Active; 'I' for Inactive)
REMARK    1  A    between atoms: P1_1  and  C1_2 
REMARK    2  A    between atoms: C9_13  and  N3_14 
REMARK    3  A    between atoms: N3_14  and  C10_15 
ROOT
HETATM    1  C1  UNL     1      -3.237   0.418  -1.041  1.00  0.00     0.007 A 
HETATM    2  C2  UNL     1      -3.230   1.719  -0.661  1.00  0.00     0.018 A 
HETATM    3  C3  UNL     1      -2.437   1.858  -1.817  1.00  0.00     0.001 A 
HETATM    4  C4  UNL     1      -1.674   1.935  -2.950  1.00  0.00     0.031 A 
HETATM    5  C5  UNL     1      -1.785   0.598  -3.187  1.00  0.00    -0.034 A 
HETATM    6  C6  UNL     1      -2.475   0.938  -2.051  1.00  0.00     0.005 A 
HETATM    7  O1  UNL     1      -2.617  -0.511  -2.077  1.00  0.00     0.000 OA
HETATM    8  C7  UNL     1      -1.413  -1.069  -1.401  1.00  0.00     0.119 A 
HETATM    9  N1  UNL     1      -0.986  -2.311  -1.615  1.00  0.00    -0.237 NA
HETATM   10  C8  UNL     1       0.107  -2.763  -0.987  1.00  0.00     0.236 A 
HETATM   11  N2  UNL     1       0.793  -1.996  -0.140  1.00  0.00    -0.222 NA
HETATM   12  C9  UNL     1       0.385  -0.746   0.093  1.00  0.00     0.158 A 
HETATM   13  C16 UNL     1      -0.722  -0.201  -0.504  1.00  0.00     0.106 A 
HETATM   14  N4  UNL     1      -0.986   1.156  -0.079  1.00  0.00    -0.384 N 
HETATM   15  C17 UNL     1      -1.325   2.409  -0.899  1.00  0.00     0.132 C 
HETATM   16  H12 UNL     1      -0.966   1.352   0.944  1.00  0.00     0.159 HD
ENDROOT
BRANCH  12  17
HETATM   17  N3  UNL     1       1.205  -0.042   1.000  1.00  0.00    -0.339 N 
HETATM   18  H7  UNL     1       0.932   0.920   1.219  1.00  0.00     0.167 HD
BRANCH  17  19
HETATM   19  C10 UNL     1       2.375  -0.466   1.660  1.00  0.00     0.035 A 
HETATM   20  C11 UNL     1       2.833   0.222   2.779  1.00  0.00     0.029 A 
HETATM   21  C12 UNL     1       3.957  -0.089   3.496  1.00  0.00     0.004 A 
HETATM   22  C13 UNL     1       4.701  -1.165   3.088  1.00  0.00     0.019 A 
HETATM   23  C14 UNL     1       4.322  -1.895   1.999  1.00  0.00     0.013 A 
HETATM   24 BR1  UNL     1       5.384  -3.384   1.465  1.00  0.00    -0.051 Br
HETATM   25  C15 UNL     1       3.183  -1.526   1.326  1.00  0.00     0.048 A 
ENDBRANCH  17  19
ENDBRANCH  12  17
BRANCH   1  26
HETATM   26  P1  UNL     1      -4.216  -0.418   0.205  1.00  0.00    -0.129 P 
HETATM   27  H1  UNL     1      -5.609  -0.007   0.213  1.00  0.00     0.055 HD
HETATM   28  H2  UNL     1      -3.627  -0.373   1.529  1.00  0.00     0.055 HD
ENDBRANCH   1  26
TORSDOF 3
