REMARK  7 active torsions:
REMARK  status: ('A' for Active; 'I' for Inactive)
REMARK    1  A    between atoms: O1_2  and  C2_3 
REMARK    2  A    between atoms: C6_9  and  N3_10 
REMARK    3  A    between atoms: N3_10  and  C7_11 
REMARK    4  A    between atoms: C11_16  and  O2_17 
REMARK    5  A    between atoms: C15_21  and  C16_22 
REMARK    6  A    between atoms: C16_22  and  C17_23 
REMARK    7  A    between atoms: N4_26  and  O3_27 
ROOT
HETATM    1  C2  UNL     1      -1.584   1.702  -1.130  1.00  0.00     0.076 A 
HETATM    2  C3  UNL     1      -0.617   2.663  -1.092  1.00  0.00     0.070 A 
HETATM    3  C4  UNL     1       0.662   2.299  -0.800  1.00  0.00     0.074 A 
HETATM    4  N1  UNL     1       1.567   3.291  -0.778  1.00  0.00    -0.241 NA
HETATM    5  C5  UNL     1       2.854   3.027  -0.498  1.00  0.00     0.236 A 
HETATM    6  N2  UNL     1       3.175   1.755  -0.249  1.00  0.00    -0.224 NA
HETATM    7  C6  UNL     1       2.337   0.725  -0.254  1.00  0.00     0.142 A 
HETATM    8  C13 UNL     1       1.018   0.988  -0.539  1.00  0.00     0.039 A 
HETATM    9  C14 UNL     1      -0.008   0.069  -0.594  1.00  0.00     0.027 A 
HETATM   10  C15 UNL     1      -1.342   0.376  -0.888  1.00  0.00    -0.023 A 
ENDROOT
BRANCH   7  11
HETATM   11  N3  UNL     1       2.704  -0.618   0.016  1.00  0.00    -0.340 N 
HETATM   12  H6  UNL     1       2.033  -1.388  -0.018  1.00  0.00     0.167 HD
BRANCH  11  13
HETATM   13  C7  UNL     1       3.967  -1.168   0.364  1.00  0.00     0.036 A 
HETATM   14  C8  UNL     1       4.254  -2.525   0.502  1.00  0.00     0.032 A 
HETATM   15  C9  UNL     1       5.492  -3.004   0.847  1.00  0.00     0.047 A 
HETATM   16  C10 UNL     1       6.534  -2.146   1.078  1.00  0.00     0.149 A 
HETATM   17  F1  UNL     1       7.709  -2.731   1.411  1.00  0.00    -0.203 F 
HETATM   18  C11 UNL     1       6.322  -0.788   0.960  1.00  0.00     0.106 A 
HETATM   19  C12 UNL     1       5.057  -0.361   0.611  1.00  0.00     0.069 A 
BRANCH  18  20
HETATM   20  O2  UNL     1       7.410   0.004   1.207  1.00  0.00    -0.358 OA
HETATM   21  H9  UNL     1       7.412   0.795   1.846  1.00  0.00     0.217 HD
ENDBRANCH  18  20
ENDBRANCH  11  13
ENDBRANCH   7  11
BRANCH  10  22
HETATM   22  C16 UNL     1      -2.268  -0.783  -0.869  1.00  0.00     0.047 C 
BRANCH  22  23
HETATM   23  C17 UNL     1      -3.078  -0.948   0.361  1.00  0.00     0.006 C 
HETATM   24  C18 UNL     1      -3.944  -2.184   0.252  1.00  0.00     0.023 C 
HETATM   25  C19 UNL     1      -5.315  -1.738   0.647  1.00  0.00     0.121 C 
HETATM   26  N4  UNL     1      -5.103  -0.541   1.436  1.00  0.00    -0.199 NA
HETATM   27  C20 UNL     1      -4.117   0.161   0.556  1.00  0.00     0.125 C 
BRANCH  26  28
HETATM   28  O3  UNL     1      -4.349  -0.901   2.512  1.00  0.00    -0.313 OA
HETATM   29  H19 UNL     1      -4.848  -0.976   3.345  1.00  0.00     0.237 HD
ENDBRANCH  26  28
ENDBRANCH  22  23
ENDBRANCH  10  22
BRANCH   1  30
HETATM   30  O1  UNL     1      -2.880   2.043  -1.425  1.00  0.00    -0.355 OA
HETATM   31  C1  UNL     1      -3.237   3.367  -1.688  1.00  0.00     0.210 C 
ENDBRANCH   1  30
TORSDOF 7
