REMARK  5 active torsions:
REMARK  status: ('A' for Active; 'I' for Inactive)
REMARK    1  A    between atoms: C2_2  and  C3_3 
REMARK       I    between atoms: C3_3  and  N1_5 
REMARK    2  A    between atoms: C10_15  and  N4_16 
REMARK    3  A    between atoms: N4_16  and  C11_17 
REMARK    4  A    between atoms: C16_22  and  C17_23 
REMARK    5  A    between atoms: C17_23  and  O2_24 
ROOT
HETATM    1  C3  UNL     1       5.318  -0.086   0.110  1.00  0.00     0.219 C 
HETATM    2  O1  UNL     1       6.160  -0.182  -0.835  1.00  0.00    -0.273 OA
HETATM    3  N1  UNL     1       4.029  -0.646   0.120  1.00  0.00    -0.347 N 
HETATM    4  C4  UNL     1       2.981  -0.662   1.088  1.00  0.00     0.131 C 
HETATM    5  C5  UNL     1       1.626  -1.097   0.545  1.00  0.00     0.060 C 
HETATM    6  C6  UNL     1       1.291  -0.420  -0.727  1.00  0.00    -0.025 A 
HETATM    7  C7  UNL     1       2.432  -0.592  -1.617  1.00  0.00     0.010 A 
HETATM    8  S1  UNL     1       1.926   0.259  -3.100  1.00  0.00    -0.072 SA
HETATM    9  C8  UNL     1       0.322   0.780  -2.529  1.00  0.00     0.114 A 
HETATM   10  N2  UNL     1      -0.581   1.452  -3.150  1.00  0.00    -0.234 NA
HETATM   11  C9  UNL     1      -1.754   1.757  -2.577  1.00  0.00     0.236 A 
HETATM   12  N3  UNL     1      -1.852   1.296  -1.349  1.00  0.00    -0.223 NA
HETATM   13  C10 UNL     1      -0.944   0.597  -0.668  1.00  0.00     0.142 A 
HETATM   14  C19 UNL     1       0.259   0.277  -1.237  1.00  0.00     0.053 A 
HETATM   15  C20 UNL     1       3.620  -1.350  -1.112  1.00  0.00     0.172 C 
ENDROOT
BRANCH  13  16
HETATM   16  N4  UNL     1      -1.314   0.194   0.638  1.00  0.00    -0.343 N 
HETATM   17  H11 UNL     1      -1.219   0.007   1.649  1.00  0.00     0.167 HD
BRANCH  16  18
HETATM   18  C11 UNL     1      -2.676  -0.258   0.732  1.00  0.00     0.015 C 
HETATM   19  C12 UNL     1      -2.632  -1.395   0.024  1.00  0.00     0.025 C 
HETATM   20  C13 UNL     1      -3.753  -2.297  -0.222  1.00  0.00     0.002 C 
HETATM   21  C14 UNL     1      -5.058  -2.072  -0.176  1.00  0.00     0.000 C 
HETATM   22  C15 UNL     1      -5.668  -0.773   0.156  1.00  0.00     0.005 C 
HETATM   23  C16 UNL     1      -5.092   0.223   0.823  1.00  0.00    -0.051 C 
HETATM   24  C18 UNL     1      -3.772   0.393   1.419  1.00  0.00     0.093 C 
BRANCH  23  25
HETATM   25  C17 UNL     1      -6.031   1.396   0.969  1.00  0.00     0.198 C 
BRANCH  25  26
HETATM   26  O2  UNL     1      -5.504   2.534   0.377  1.00  0.00    -0.397 OA
HETATM   27  H18 UNL     1      -6.194   2.987  -0.183  1.00  0.00     0.209 HD
ENDBRANCH  25  26
ENDBRANCH  23  25
ENDBRANCH  16  18
ENDBRANCH  13  16
BRANCH   1  28
HETATM   28  C2  UNL     1       6.065   0.726   1.096  1.00  0.00     0.098 C 
HETATM   29  C1  UNL     1       7.439   1.092   0.523  1.00  0.00     0.014 C 
ENDBRANCH   1  28
TORSDOF 5
