REMARK  6 active torsions:
REMARK  status: ('A' for Active; 'I' for Inactive)
REMARK    1  A    between atoms: C4_4  and  C5_5 
REMARK    2  A    between atoms: C5_5  and  C6_6 
REMARK    3  A    between atoms: C5_5  and  N1_8 
REMARK    4  A    between atoms: C6_6  and  O1_7 
REMARK    5  A    between atoms: N1_8  and  C7_9 
REMARK       I    between atoms: N4_20  and  C15_21 
REMARK    6  A    between atoms: C15_21  and  C16_23 
ROOT
HETATM    1  C7  UNL     1      -0.840  -1.415   1.571  1.00  0.00     0.139 A 
HETATM    2  N2  UNL     1      -1.417  -2.003   2.624  1.00  0.00    -0.224 NA
HETATM    3  C8  UNL     1      -0.857  -2.654   3.615  1.00  0.00     0.236 A 
HETATM    4  N3  UNL     1       0.479  -2.716   3.523  1.00  0.00    -0.234 NA
HETATM    5  C9  UNL     1       1.089  -2.159   2.517  1.00  0.00     0.114 A 
HETATM    6  S1  UNL     1       2.832  -2.108   2.173  1.00  0.00    -0.072 SA
HETATM    7  C10 UNL     1       2.737  -1.186   0.667  1.00  0.00     0.010 A 
HETATM    8  C11 UNL     1       1.300  -0.943   0.482  1.00  0.00    -0.025 A 
HETATM    9  C12 UNL     1       0.524  -1.471   1.466  1.00  0.00     0.053 A 
HETATM   10  C13 UNL     1       1.259  -0.169  -0.763  1.00  0.00     0.060 C 
HETATM   11  C14 UNL     1       2.222   1.042  -0.642  1.00  0.00     0.131 C 
HETATM   12  N4  UNL     1       3.598   0.639  -0.708  1.00  0.00    -0.347 N 
HETATM   13  C15 UNL     1       4.622   1.510  -1.161  1.00  0.00     0.219 C 
HETATM   14  O2  UNL     1       4.112   2.633  -1.472  1.00  0.00    -0.273 OA
HETATM   15  C18 UNL     1       3.804  -0.727  -0.266  1.00  0.00     0.172 C 
ENDROOT
BRANCH   1  16
HETATM   16  N1  UNL     1      -1.714  -0.808   0.633  1.00  0.00    -0.363 N 
HETATM   17  H8  UNL     1      -1.565  -0.335  -0.252  1.00  0.00     0.162 HD
BRANCH  16  18
HETATM   18  C5  UNL     1      -3.143  -0.781   0.824  1.00  0.00     0.140 C 
BRANCH  18  19
HETATM   19  C4  UNL     1      -3.945  -0.221  -0.262  1.00  0.00    -0.029 A 
HETATM   20  C3  UNL     1      -3.670   0.474  -1.346  1.00  0.00     0.045 A 
HETATM   21  C2  UNL     1      -4.766   0.865  -2.212  1.00  0.00     0.066 A 
HETATM   22  C1  UNL     1      -4.398   1.553  -3.267  1.00  0.00     0.051 C 
HETATM   23  O3  UNL     1      -6.092   0.555  -1.976  1.00  0.00    -0.324 OA
HETATM   24  C20 UNL     1      -6.363  -0.178  -0.827  1.00  0.00     0.143 A 
HETATM   25  C19 UNL     1      -5.372  -0.538  -0.033  1.00  0.00     0.034 A 
ENDBRANCH  18  19
BRANCH  18  26
HETATM   26  C6  UNL     1      -3.550  -0.112   2.131  1.00  0.00     0.194 C 
BRANCH  26  27
HETATM   27  O1  UNL     1      -3.135   1.193   2.241  1.00  0.00    -0.399 OA
HETATM   28  H7  UNL     1      -2.795   1.600   1.408  1.00  0.00     0.209 HD
ENDBRANCH  26  27
ENDBRANCH  18  26
ENDBRANCH  16  18
ENDBRANCH   1  16
BRANCH  13  29
HETATM   29  C16 UNL     1       6.009   0.982  -1.185  1.00  0.00     0.098 C 
HETATM   30  C17 UNL     1       6.990   2.018  -1.689  1.00  0.00     0.014 C 
ENDBRANCH  13  29
TORSDOF 6
