REMARK  6 active torsions:
REMARK  status: ('A' for Active; 'I' for Inactive)
REMARK    1  A    between atoms: C2_2  and  C3_3 
REMARK       I    between atoms: C3_3  and  N1_5 
REMARK    2  A    between atoms: C10_14  and  N3_15 
REMARK    3  A    between atoms: N3_15  and  C11_16 
REMARK    4  A    between atoms: N3_15  and  C12_19 
REMARK    5  A    between atoms: C11_16  and  O2_17 
REMARK    6  A    between atoms: O2_17  and  N4_18 
ROOT
HETATM    1  C3  UNL     1       3.980   1.156   0.590  1.00  0.00     0.219 C 
HETATM    2  O1  UNL     1       3.975   1.426   1.820  1.00  0.00    -0.273 OA
HETATM    3  N1  UNL     1       2.680   0.712   0.211  1.00  0.00    -0.347 N 
HETATM    4  C4  UNL     1       1.837   0.734   1.367  1.00  0.00     0.131 C 
HETATM    5  C5  UNL     1       0.385   0.428   1.036  1.00  0.00     0.060 C 
HETATM    6  C6  UNL     1       0.390  -0.509  -0.107  1.00  0.00    -0.032 C 
HETATM    7  C7  UNL     1       1.267  -0.624  -1.159  1.00  0.00     0.014 C 
HETATM    8  C8  UNL     1       2.436   0.340  -1.165  1.00  0.00     0.173 C 
HETATM    9  S1  UNL     1       0.713  -1.985  -2.270  1.00  0.00    -0.070 SA
HETATM   10  N2  UNL     1      -0.776  -1.659  -2.798  1.00  0.00    -0.258 NA
HETATM   11  C9  UNL     1      -1.982  -2.106  -2.095  1.00  0.00     0.215 C 
HETATM   12  C10 UNL     1      -1.930  -1.492  -0.692  1.00  0.00     0.042 C 
HETATM   13  C18 UNL     1      -0.590  -1.586  -0.473  1.00  0.00    -0.016 C 
HETATM   14  C19 UNL     1       0.187  -2.901  -0.722  1.00  0.00     0.132 C 
ENDROOT
BRANCH  12  15
HETATM   15  N3  UNL     1      -2.609  -0.877   0.411  1.00  0.00    -0.325 N 
BRANCH  15  16
HETATM   16  C11 UNL     1      -3.018  -1.657   1.564  1.00  0.00     0.324 C 
BRANCH  16  17
HETATM   17  O2  UNL     1      -3.926  -2.657   1.257  1.00  0.00    -0.288 OA
BRANCH  17  18
HETATM   18  N4  UNL     1      -3.525  -3.578   0.400  1.00  0.00    -0.213 NA
HETATM   19  H16 UNL     1      -2.511  -3.689   0.258  1.00  0.00     0.150 HD
HETATM   20  H17 UNL     1      -3.986  -3.450  -0.519  1.00  0.00     0.150 HD
ENDBRANCH  17  18
ENDBRANCH  16  17
ENDBRANCH  15  16
BRANCH  15  21
HETATM   21  C12 UNL     1      -2.793   0.529   0.138  1.00  0.00     0.036 A 
HETATM   22  C13 UNL     1      -2.362   1.216  -0.984  1.00  0.00     0.029 A 
HETATM   23  C14 UNL     1      -2.604   2.559  -1.135  1.00  0.00     0.002 A 
HETATM   24  C15 UNL     1      -3.270   3.294  -0.210  1.00  0.00     0.000 A 
HETATM   25  C16 UNL     1      -3.730   2.680   0.935  1.00  0.00     0.002 A 
HETATM   26  C17 UNL     1      -3.470   1.331   1.053  1.00  0.00     0.029 A 
ENDBRANCH  15  21
ENDBRANCH  12  15
BRANCH   1  27
HETATM   27  C2  UNL     1       5.083   1.235  -0.433  1.00  0.00     0.098 C 
HETATM   28  C1  UNL     1       6.341   1.727   0.223  1.00  0.00     0.014 C 
ENDBRANCH   1  27
TORSDOF 6
