REMARK  3 active torsions:
REMARK  status: ('A' for Active; 'I' for Inactive)
REMARK    1  A    between atoms: N1_1  and  C1_2 
REMARK    2  A    between atoms: C7_11  and  N4_12 
REMARK    3  A    between atoms: N4_12  and  C8_13 
ROOT
HETATM    1  C1  UNL     1      -5.613  -0.102   0.205  1.00  0.00     0.031 A 
HETATM    2  C2  UNL     1      -5.363  -1.308  -0.255  1.00  0.00     0.033 A 
HETATM    3  C3  UNL     1      -4.115  -2.007  -0.564  1.00  0.00     0.046 A 
HETATM    4  C4  UNL     1      -2.963  -1.389  -0.378  1.00  0.00     0.110 A 
HETATM    5  O1  UNL     1      -1.824  -2.117  -0.694  1.00  0.00    -0.283 OA
HETATM    6  C5  UNL     1      -0.526  -1.676  -0.472  1.00  0.00     0.202 A 
HETATM    7  N2  UNL     1       0.220  -2.823  -0.536  1.00  0.00    -0.215 NA
HETATM    8  C6  UNL     1       1.531  -2.835  -0.375  1.00  0.00     0.238 A 
HETATM    9  N3  UNL     1       2.147  -1.678  -0.140  1.00  0.00    -0.222 NA
HETATM   10  C7  UNL     1       1.464  -0.530  -0.067  1.00  0.00     0.160 A 
HETATM   11  C14 UNL     1       0.095  -0.483  -0.231  1.00  0.00     0.129 A 
HETATM   12  N5  UNL     1      -0.428   0.827  -0.129  1.00  0.00    -0.375 N 
HETATM   13  C15 UNL     1      -1.625   1.318   0.582  1.00  0.00     0.195 C 
HETATM   14  S1  UNL     1      -3.081   0.293   0.256  1.00  0.00    -0.119 SA
HETATM   15  C16 UNL     1      -4.558   0.864   0.525  1.00  0.00     0.071 A 
HETATM   16  H11 UNL     1       0.186   1.508  -0.675  1.00  0.00     0.160 HD
ENDROOT
BRANCH  10  17
HETATM   17  N4  UNL     1       2.174   0.675   0.189  1.00  0.00    -0.339 N 
HETATM   18  H6  UNL     1       1.737   1.596   0.376  1.00  0.00     0.167 HD
BRANCH  17  19
HETATM   19  C8  UNL     1       3.561   0.847   0.256  1.00  0.00     0.035 A 
HETATM   20  C9  UNL     1       4.221   1.940   0.838  1.00  0.00     0.029 A 
HETATM   21  C10 UNL     1       5.569   2.123   0.901  1.00  0.00     0.004 A 
HETATM   22  C11 UNL     1       6.397   1.189   0.362  1.00  0.00     0.019 A 
HETATM   23  C12 UNL     1       5.842   0.057  -0.245  1.00  0.00     0.013 A 
HETATM   24 BR1  UNL     1       7.071  -1.189  -0.967  1.00  0.00    -0.051 Br
HETATM   25  C13 UNL     1       4.482  -0.040  -0.260  1.00  0.00     0.048 A 
ENDBRANCH  17  19
ENDBRANCH  10  17
BRANCH   1  26
HETATM   26  N1  UNL     1      -6.947   0.412   0.448  1.00  0.00    -0.399 N 
HETATM   27  H1  UNL     1      -7.267   0.822  -0.481  1.00  0.00     0.156 HD
HETATM   28  H2  UNL     1      -7.542   0.418   1.327  1.00  0.00     0.156 HD
ENDBRANCH   1  26
TORSDOF 3
