REMARK  2 active torsions:
REMARK  status: ('A' for Active; 'I' for Inactive)
REMARK    1  A    between atoms: C2_2  and  C3_3 
REMARK       I    between atoms: C3_3  and  N1_5 
REMARK    2  A    between atoms: C10_15  and  C11_16 
ROOT
HETATM    1  C3  UNL     1       3.882   0.831   0.148  1.00  0.00     0.219 C 
HETATM    2  O1  UNL     1       4.110   1.951  -0.409  1.00  0.00    -0.273 OA
HETATM    3  N1  UNL     1       2.736   0.427   0.926  1.00  0.00    -0.351 N 
HETATM    4  C4  UNL     1       2.321  -0.836   1.640  1.00  0.00     0.129 C 
HETATM    5  C5  UNL     1       1.426  -1.343   0.692  1.00  0.00     0.048 C 
HETATM    6  C6  UNL     1       0.503  -2.289   0.225  1.00  0.00    -0.008 C 
HETATM    7  C7  UNL     1      -0.669  -1.768  -0.195  1.00  0.00     0.091 C 
HETATM    8  N2  UNL     1      -1.378  -0.452  -0.347  1.00  0.00    -0.317 N 
HETATM    9  C8  UNL     1      -0.364   0.425  -0.473  1.00  0.00     0.111 C 
HETATM   10  N3  UNL     1      -0.478   0.220  -1.786  1.00  0.00    -0.229 NA
HETATM   11  C9  UNL     1      -1.537  -0.654  -2.271  1.00  0.00     0.231 C 
HETATM   12  N4  UNL     1      -2.612  -1.411  -1.824  1.00  0.00    -0.252 NA
HETATM   13  C10 UNL     1      -2.611  -1.143  -0.272  1.00  0.00     0.248 C 
HETATM   14  C17 UNL     1       0.556   1.335   0.008  1.00  0.00     0.098 C 
HETATM   15  C18 UNL     1       1.601   1.330   1.026  1.00  0.00     0.133 C 
ENDROOT
BRANCH  13  16
HETATM   16  C11 UNL     1      -3.792  -0.314   0.008  1.00  0.00    -0.014 A 
HETATM   17  C12 UNL     1      -3.976   0.736  -0.878  1.00  0.00     0.011 A 
HETATM   18  C13 UNL     1      -5.044   1.604  -0.744  1.00  0.00     0.001 A 
HETATM   19  C14 UNL     1      -5.974   1.449   0.290  1.00  0.00     0.000 A 
HETATM   20  C15 UNL     1      -5.773   0.397   1.163  1.00  0.00     0.001 A 
HETATM   21  C16 UNL     1      -4.709  -0.472   1.034  1.00  0.00     0.011 A 
ENDBRANCH  13  16
BRANCH   1  22
HETATM   22  C2  UNL     1       4.939  -0.194  -0.030  1.00  0.00     0.098 C 
HETATM   23  C1  UNL     1       6.077   0.356  -0.861  1.00  0.00     0.014 C 
ENDBRANCH   1  22
TORSDOF 2
