REMARK  4 active torsions:
REMARK  status: ('A' for Active; 'I' for Inactive)
REMARK    1  A    between atoms: C2_2  and  C3_3 
REMARK       I    between atoms: C3_3  and  N1_5 
REMARK    2  A    between atoms: C7_9  and  S1_10 
REMARK    3  A    between atoms: S1_10  and  C8_11 
REMARK    4  A    between atoms: C12_18  and  C13_19 
ROOT
HETATM    1  C8  UNL     1      -1.023  -1.079  -1.109  1.00  0.00     0.214 C 
HETATM    2  C9  UNL     1      -1.459   0.373  -1.136  1.00  0.00     0.096 C 
HETATM    3  C10 UNL     1      -2.490   0.033  -1.981  1.00  0.00     0.127 C 
HETATM    4  N2  UNL     1      -2.268  -0.396  -3.389  1.00  0.00    -0.227 NA
HETATM    5  C11 UNL     1      -0.962  -0.413  -3.668  1.00  0.00     0.208 C 
HETATM    6  N3  UNL     1      -0.515  -1.233  -2.501  1.00  0.00    -0.341 N 
HETATM    7  N4  UNL     1      -3.881  -0.121  -1.569  1.00  0.00    -0.364 N 
HETATM    8  C12 UNL     1      -4.268  -0.955  -0.388  1.00  0.00     0.140 C 
HETATM    9  C19 UNL     1      -2.958  -1.558   0.164  1.00  0.00     0.202 C 
HETATM   10  O2  UNL     1      -2.073  -1.919  -0.867  1.00  0.00    -0.346 OA
HETATM   11  H13 UNL     1       0.240  -1.967  -2.725  1.00  0.00     0.164 HD
HETATM   12  H14 UNL     1      -4.408   0.442  -2.284  1.00  0.00     0.162 HD
ENDROOT
BRANCH   1  13
HETATM   13  S1  UNL     1       0.374  -1.355  -0.012  1.00  0.00    -0.068 SA
BRANCH  13  14
HETATM   14  C7  UNL     1       1.875  -0.571  -0.516  1.00  0.00    -0.003 C 
HETATM   15  C6  UNL     1       2.224   0.211  -1.534  1.00  0.00    -0.009 C 
HETATM   16  C5  UNL     1       3.579   0.809  -1.826  1.00  0.00     0.048 C 
HETATM   17  C4  UNL     1       4.587  -0.183  -1.234  1.00  0.00     0.130 C 
HETATM   18  N1  UNL     1       4.184  -0.349   0.146  1.00  0.00    -0.347 N 
HETATM   19  C3  UNL     1       5.120   0.107   1.107  1.00  0.00     0.219 C 
HETATM   20  C20 UNL     1       2.916  -0.941   0.515  1.00  0.00     0.171 C 
HETATM   21  O1  UNL     1       6.143   0.575   0.505  1.00  0.00    -0.273 OA
BRANCH  19  22
HETATM   22  C2  UNL     1       5.655   0.383   2.458  1.00  0.00     0.098 C 
HETATM   23  C1  UNL     1       7.030   1.015   2.285  1.00  0.00     0.014 C 
ENDBRANCH  19  22
ENDBRANCH  13  14
ENDBRANCH   1  13
BRANCH   8  24
HETATM   24  C13 UNL     1      -4.900  -0.044   0.567  1.00  0.00    -0.034 A 
HETATM   25  C14 UNL     1      -6.080  -0.485   1.171  1.00  0.00     0.009 A 
HETATM   26  C15 UNL     1      -6.745   0.305   2.084  1.00  0.00     0.001 A 
HETATM   27  C16 UNL     1      -6.286   1.555   2.445  1.00  0.00     0.000 A 
HETATM   28  C17 UNL     1      -5.105   2.015   1.851  1.00  0.00     0.001 A 
HETATM   29  C18 UNL     1      -4.451   1.205   0.935  1.00  0.00     0.009 A 
ENDBRANCH   8  24
TORSDOF 4
