REMARK  5 active torsions:
REMARK  status: ('A' for Active; 'I' for Inactive)
REMARK    1  A    between atoms: C2_2  and  C3_3 
REMARK    2  A    between atoms: C3_3  and  N1_4 
REMARK    3  A    between atoms: C10_14  and  N4_15 
REMARK    4  A    between atoms: N4_15  and  C11_16 
REMARK    5  A    between atoms: C11_16  and  C12_17 
ROOT
HETATM    1  N1  UNL     1      -3.183   0.191  -0.552  1.00  0.00     0.111 N 
HETATM    2  C4  UNL     1      -2.163   0.171   0.416  1.00  0.00     0.280 C 
HETATM    3  C5  UNL     1      -0.837  -0.144  -0.287  1.00  0.00     0.071 C 
HETATM    4  C6  UNL     1      -0.513  -1.599  -0.307  1.00  0.00    -0.024 A 
HETATM    5  C7  UNL     1      -1.406  -2.589  -0.026  1.00  0.00     0.016 A 
HETATM    6  S1  UNL     1      -0.451  -4.059  -0.149  1.00  0.00    -0.071 SA
HETATM    7  C8  UNL     1       1.038  -3.264  -0.559  1.00  0.00     0.114 A 
HETATM    8  N2  UNL     1       2.277  -3.815  -0.812  1.00  0.00    -0.234 NA
HETATM    9  C9  UNL     1       3.312  -3.054  -1.111  1.00  0.00     0.236 A 
HETATM   10  N3  UNL     1       3.039  -1.767  -1.140  1.00  0.00    -0.224 NA
HETATM   11  C10 UNL     1       1.863  -1.183  -0.905  1.00  0.00     0.138 A 
HETATM   12  C18 UNL     1       0.754  -1.939  -0.586  1.00  0.00     0.053 A 
HETATM   13  C19 UNL     1      -2.808  -2.884   0.326  1.00  0.00     0.216 C 
HETATM   14  O1  UNL     1      -3.733  -1.948  -0.005  1.00  0.00    -0.357 OA
HETATM   15  C20 UNL     1      -3.374  -1.179  -1.079  1.00  0.00     0.440 C 
ENDROOT
BRANCH  11  16
HETATM   16  N4  UNL     1       1.897   0.236  -1.095  1.00  0.00    -0.370 N 
HETATM   17  H13 UNL     1       1.282   1.072  -1.100  1.00  0.00     0.161 HD
BRANCH  16  18
HETATM   18  C11 UNL     1       3.116   0.961  -1.404  1.00  0.00     0.160 C 
BRANCH  18  19
HETATM   19  C12 UNL     1       4.020   1.094  -0.219  1.00  0.00    -0.041 A 
HETATM   20  C13 UNL     1       5.078   0.377   0.286  1.00  0.00     0.009 A 
HETATM   21  C14 UNL     1       5.683   0.797   1.444  1.00  0.00     0.001 A 
HETATM   22  C15 UNL     1       5.314   1.909   2.170  1.00  0.00     0.000 A 
HETATM   23  C16 UNL     1       4.250   2.624   1.655  1.00  0.00     0.001 A 
HETATM   24  C17 UNL     1       3.596   2.240   0.477  1.00  0.00     0.009 A 
ENDBRANCH  18  19
ENDBRANCH  16  18
ENDBRANCH  11  16
BRANCH   1  25
HETATM   25  C3  UNL     1      -4.456   0.695  -0.299  1.00  0.00     0.275 C 
BRANCH  25  26
HETATM   26  C2  UNL     1      -4.728   2.117  -0.082  1.00  0.00     0.026 C 
HETATM   27  C1  UNL     1      -4.008   2.642   1.122  1.00  0.00     0.007 C 
ENDBRANCH  25  26
ENDBRANCH   1  25
TORSDOF 5
