REMARK  6 active torsions:
REMARK  status: ('A' for Active; 'I' for Inactive)
REMARK    1  A    between atoms: C11_15  and  C12_16 
REMARK    2  A    between atoms: C12_16  and  N3_17 
REMARK    3  A    between atoms: N3_17  and  C13_18 
REMARK    4  A    between atoms: C13_18  and  C14_19 
REMARK    5  A    between atoms: C13_18  and  C15_21 
REMARK    6  A    between atoms: C14_19  and  O2_20 
ROOT
HETATM    1  C1  UNL     1      -3.560   2.111  -2.776  1.00  0.00     0.145 C 
HETATM    2  N1  UNL     1      -3.288   0.739  -2.405  1.00  0.00    -0.397 N 
HETATM    3  C2  UNL     1      -4.150   0.194  -1.462  1.00  0.00     0.145 C 
HETATM    4  C3  UNL     1      -4.006   0.748  -0.054  1.00  0.00    -0.002 C 
HETATM    5  C4  UNL     1      -4.072   1.329   1.171  1.00  0.00     0.072 C 
HETATM    6  C5  UNL     1      -3.023   1.198   2.137  1.00  0.00     0.243 C 
HETATM    7  O1  UNL     1      -3.433   2.053   2.950  1.00  0.00    -0.268 OA
HETATM    8  N2  UNL     1      -1.997   1.070   3.082  1.00  0.00    -0.344 N 
HETATM    9  C6  UNL     1      -1.233  -0.071   3.484  1.00  0.00     0.131 C 
HETATM   10  C7  UNL     1       0.114   0.059   2.738  1.00  0.00     0.060 C 
HETATM   11  C8  UNL     1      -0.084   1.061   1.628  1.00  0.00    -0.028 A 
HETATM   12  C9  UNL     1      -0.566   2.360   1.973  1.00  0.00     0.009 A 
HETATM   13  S1  UNL     1      -0.641   3.321   0.386  1.00  0.00    -0.078 SA
HETATM   14  C10 UNL     1      -0.072   1.932  -0.548  1.00  0.00     0.086 A 
HETATM   15  C11 UNL     1       0.146   0.921   0.300  1.00  0.00     0.017 A 
HETATM   16  N4  UNL     1      -0.131   2.206  -1.814  1.00  0.00    -0.160 NA
HETATM   17  C21 UNL     1       0.254   1.245  -2.807  1.00  0.00     0.239 A 
HETATM   18  N5  UNL     1      -0.951   1.053  -2.527  1.00  0.00    -0.297 N 
HETATM   19  C22 UNL     1      -2.050   0.246  -2.829  1.00  0.00     0.258 C 
HETATM   20  C23 UNL     1      -1.093   2.258   3.525  1.00  0.00     0.172 C 
ENDROOT
BRANCH  15  21
HETATM   21  C12 UNL     1       0.623  -0.177  -0.245  1.00  0.00     0.098 C 
BRANCH  21  22
HETATM   22  N3  UNL     1       1.028  -1.453   0.209  1.00  0.00    -0.387 N 
HETATM   23  H13 UNL     1       0.220  -2.152   0.312  1.00  0.00     0.159 HD
BRANCH  22  24
HETATM   24  C13 UNL     1       2.381  -1.919   0.556  1.00  0.00     0.137 C 
BRANCH  24  25
HETATM   25  C14 UNL     1       2.282  -3.375   0.913  1.00  0.00     0.194 C 
BRANCH  25  26
HETATM   26  O2  UNL     1       3.467  -3.963   1.276  1.00  0.00    -0.399 OA
HETATM   27  H17 UNL     1       3.992  -3.319   1.813  1.00  0.00     0.209 HD
ENDBRANCH  25  26
ENDBRANCH  24  25
BRANCH  24  28
HETATM   28  C15 UNL     1       3.334  -1.611  -0.512  1.00  0.00    -0.034 A 
HETATM   29  C16 UNL     1       3.453  -0.315  -0.951  1.00  0.00     0.009 A 
HETATM   30  C17 UNL     1       4.322   0.059  -1.965  1.00  0.00     0.001 A 
HETATM   31  C18 UNL     1       5.120  -0.875  -2.588  1.00  0.00     0.000 A 
HETATM   32  C19 UNL     1       5.035  -2.187  -2.182  1.00  0.00     0.001 A 
HETATM   33  C20 UNL     1       4.164  -2.508  -1.178  1.00  0.00     0.009 A 
ENDBRANCH  24  28
ENDBRANCH  22  24
ENDBRANCH  21  22
ENDBRANCH  15  21
TORSDOF 6
