REMARK  3 active torsions:
REMARK  status: ('A' for Active; 'I' for Inactive)
REMARK    1  A    between atoms: C1_2  and  C2_3 
REMARK    2  A    between atoms: C3_4  and  N2_5 
REMARK    3  A    between atoms: C9_12  and  O1_13 
ROOT
HETATM    1  N2  UNL     1       0.624   1.108  -0.589  1.00  0.00    -0.372 N 
HETATM    2  C4  UNL     1       1.580   1.963   0.016  1.00  0.00     0.124 C 
HETATM    3  C5  UNL     1       1.572   3.423  -0.334  1.00  0.00     0.023 C 
HETATM    4  C6  UNL     1       0.369   4.008   0.381  1.00  0.00     0.030 C 
HETATM    5  C7  UNL     1      -0.874   3.370   0.056  1.00  0.00    -0.010 C 
HETATM    6  C8  UNL     1      -1.308   2.589   1.017  1.00  0.00     0.081 C 
HETATM    7  N3  UNL     1      -2.198   1.683   1.642  1.00  0.00    -0.370 N 
HETATM    8  C9  UNL     1      -1.978   0.322   2.063  1.00  0.00     0.252 C 
HETATM    9  C10 UNL     1      -1.501  -0.654   1.108  1.00  0.00    -0.000 A 
HETATM   10  C11 UNL     1      -1.704  -1.901   1.750  1.00  0.00     0.014 A 
HETATM   11  C12 UNL     1      -1.441  -3.177   1.236  1.00  0.00     0.033 A 
HETATM   12  C13 UNL     1      -0.920  -3.210  -0.062  1.00  0.00     0.071 A 
HETATM   13  N4  UNL     1      -0.667  -4.370  -0.659  1.00  0.00    -0.241 NA
HETATM   14  C14 UNL     1      -0.205  -4.427  -1.918  1.00  0.00     0.234 A 
HETATM   15  N5  UNL     1      -0.010  -3.263  -2.556  1.00  0.00    -0.234 NA
HETATM   16  C15 UNL     1      -0.273  -2.116  -1.929  1.00  0.00     0.110 A 
HETATM   17  C16 UNL     1      -0.738  -1.977  -0.647  1.00  0.00     0.038 A 
HETATM   18  C17 UNL     1      -0.969  -0.729  -0.192  1.00  0.00     0.001 A 
HETATM   19  C18 UNL     1      -0.552   0.391  -1.052  1.00  0.00     0.187 C 
HETATM   20  S1  UNL     1      -0.221  -0.489  -2.648  1.00  0.00    -0.079 SA
HETATM   21  H13 UNL     1      -3.121   2.210   1.754  1.00  0.00     0.161 HD
ENDROOT
BRANCH   1  22
HETATM   22  C3  UNL     1       1.583   0.267  -1.304  1.00  0.00     0.088 C 
HETATM   23  C2  UNL     1       2.097  -0.781  -0.692  1.00  0.00     0.035 C 
BRANCH  23  24
HETATM   24  C1  UNL     1       3.056  -1.656  -1.353  1.00  0.00     0.108 C 
HETATM   25  N1  UNL     1       3.590  -2.700  -0.790  1.00  0.00    -0.312 NA
HETATM   26  H1  UNL     1       4.270  -3.291  -1.308  1.00  0.00     0.186 HD
ENDBRANCH  23  24
ENDBRANCH   1  22
BRANCH   8  27
HETATM   27  O1  UNL     1      -3.188  -0.060   2.686  1.00  0.00    -0.373 OA
HETATM   28  H15 UNL     1      -3.920  -0.065   2.044  1.00  0.00     0.212 HD
ENDBRANCH   8  27
TORSDOF 3
