REMARK  8 active torsions:
REMARK  status: ('A' for Active; 'I' for Inactive)
REMARK    1  A    between atoms: N1_2  and  C3_4 
REMARK    2  A    between atoms: C3_4  and  C4_5 
REMARK    3  A    between atoms: C5_6  and  C6_7 
REMARK       I    between atoms: C6_7  and  N2_9 
REMARK    4  A    between atoms: C9_13  and  C10_14 
REMARK    5  A    between atoms: C10_14  and  C11_15 
REMARK    6  A    between atoms: C14_19  and  N4_20 
REMARK    7  A    between atoms: N4_20  and  C15_21 
REMARK    8  A    between atoms: C20_26  and  O3_27 
ROOT
HETATM    1  C11 UNL     1      -1.871   0.470   1.408  1.00  0.00     0.080 A 
HETATM    2  C12 UNL     1      -1.539   1.805   1.966  1.00  0.00     0.100 A 
HETATM    3  N3  UNL     1      -2.583   2.349   2.532  1.00  0.00    -0.274 NA
HETATM    4  C13 UNL     1      -3.693   1.453   2.413  1.00  0.00     0.141 A 
HETATM    5  C14 UNL     1      -3.309   0.344   1.759  1.00  0.00     0.033 A 
ENDROOT
BRANCH   1   6
HETATM    6  C10 UNL     1      -1.745   0.410  -0.097  1.00  0.00     0.050 C 
BRANCH   6   7
HETATM    7  C9  UNL     1      -0.335   0.727  -0.541  1.00  0.00     0.140 C 
HETATM    8  O2  UNL     1      -0.264   0.661  -1.916  1.00  0.00    -0.383 OA
HETATM    9  C8  UNL     1       0.111  -0.565  -2.418  1.00  0.00     0.188 C 
HETATM   10  C7  UNL     1       1.497  -1.009  -2.001  1.00  0.00     0.152 C 
HETATM   11  N2  UNL     1       1.810  -0.270  -0.775  1.00  0.00    -0.344 N 
HETATM   12  C6  UNL     1       3.059   0.358  -0.409  1.00  0.00     0.243 C 
HETATM   13  C21 UNL     1       0.669  -0.214   0.124  1.00  0.00     0.158 C 
HETATM   14  O1  UNL     1       3.107   0.948   0.699  1.00  0.00    -0.268 OA
BRANCH  12  15
HETATM   15  C5  UNL     1       4.184   0.279  -1.322  1.00  0.00     0.072 C 
HETATM   16  C4  UNL     1       5.363   0.817  -1.080  1.00  0.00     0.008 C 
BRANCH  16  17
HETATM   17  C3  UNL     1       5.976   1.599   0.016  1.00  0.00     0.299 C 
BRANCH  17  18
HETATM   18  N1  UNL     1       7.118   0.911   0.571  1.00  0.00     0.083 N 
HETATM   19  C1  UNL     1       6.636  -0.271   1.253  1.00  0.00     0.309 C 
HETATM   20  C2  UNL     1       8.039   0.620  -0.508  1.00  0.00     0.309 C 
ENDBRANCH  17  18
ENDBRANCH  16  17
ENDBRANCH  12  15
ENDBRANCH   6   7
ENDBRANCH   1   6
BRANCH   5  21
HETATM   21  N4  UNL     1      -4.387  -0.568   1.623  1.00  0.00    -0.373 N 
HETATM   22  H21 UNL     1      -4.114  -1.356   2.275  1.00  0.00     0.161 HD
BRANCH  21  23
HETATM   23  C15 UNL     1      -5.567  -0.455   0.801  1.00  0.00     0.093 A 
HETATM   24  C16 UNL     1      -6.410  -1.671   1.002  1.00  0.00     0.050 C 
HETATM   25  C17 UNL     1      -6.262   0.824   0.946  1.00  0.00     0.011 A 
HETATM   26  C18 UNL     1      -6.305   1.478  -0.220  1.00  0.00     0.001 A 
HETATM   27  C19 UNL     1      -5.634   0.682  -1.254  1.00  0.00     0.035 A 
HETATM   28  C20 UNL     1      -5.213  -0.425  -0.662  1.00  0.00     0.074 A 
BRANCH  28  29
HETATM   29  O3  UNL     1      -4.527  -1.476  -1.230  1.00  0.00    -0.362 OA
HETATM   30  H28 UNL     1      -4.566  -1.640  -2.223  1.00  0.00     0.217 HD
ENDBRANCH  28  29
ENDBRANCH  21  23
ENDBRANCH   5  21
TORSDOF 8
