REMARK  7 active torsions:
REMARK  status: ('A' for Active; 'I' for Inactive)
REMARK    1  A    between atoms: C3_3  and  C4_4 
REMARK    2  A    between atoms: C4_4  and  C5_5 
REMARK    3  A    between atoms: C5_5  and  C6_6 
REMARK    4  A    between atoms: C6_6  and  C7_7 
REMARK    5  A    between atoms: C8_8  and  C9_9 
REMARK    6  A    between atoms: C24_26  and  C25_27 
REMARK    7  A    between atoms: C25_27  and  O1_28 
ROOT
HETATM    1  C7  UNL     1       1.363   0.789  -0.148  1.00  0.00     0.083 C 
HETATM    2  C8  UNL     1       0.134   1.306  -0.171  1.00  0.00     0.053 C 
HETATM    3  C15 UNL     1      -1.216   0.779  -0.683  1.00  0.00     0.138 C 
HETATM    4  N1  UNL     1      -1.285   0.180  -1.887  1.00  0.00    -0.231 NA
HETATM    5  C16 UNL     1      -0.417  -0.910  -2.504  1.00  0.00     0.184 C 
HETATM    6  N2  UNL     1       0.526  -2.145  -1.824  1.00  0.00    -0.227 NA
HETATM    7  C17 UNL     1       0.602  -1.458  -0.569  1.00  0.00     0.196 A 
HETATM    8  C18 UNL     1      -0.444  -2.230  -0.704  1.00  0.00     0.145 A 
HETATM    9  C19 UNL     1      -1.539  -3.217  -1.081  1.00  0.00    -0.002 C 
HETATM   10  C20 UNL     1      -2.892  -3.205  -0.884  1.00  0.00    -0.003 C 
HETATM   11  C21 UNL     1      -4.114  -2.599  -0.448  1.00  0.00    -0.004 C 
HETATM   12  C22 UNL     1      -4.973  -1.559  -0.054  1.00  0.00    -0.025 C 
HETATM   13  C23 UNL     1      -3.835  -0.607  -0.408  1.00  0.00     0.054 C 
HETATM   14  C24 UNL     1      -3.343   0.246   0.729  1.00  0.00     0.110 C 
HETATM   15  N3  UNL     1      -2.270   1.118   0.280  1.00  0.00    -0.367 N 
HETATM   16  O2  UNL     1       1.089  -0.575   0.542  1.00  0.00    -0.317 OA
HETATM   17  H25 UNL     1      -2.186   2.086   0.740  1.00  0.00     0.161 HD
ENDROOT
BRANCH   1  18
HETATM   18  C6  UNL     1       2.631   0.320  -0.162  1.00  0.00     0.012 C 
BRANCH  18  19
HETATM   19  C5  UNL     1       3.831  -0.353  -0.006  1.00  0.00     0.002 C 
BRANCH  19  20
HETATM   20  C4  UNL     1       4.978   0.143  -0.801  1.00  0.00     0.030 C 
BRANCH  20  21
HETATM   21  C3  UNL     1       5.936  -0.967  -0.482  1.00  0.00    -0.005 A 
HETATM   22  C2  UNL     1       5.236  -2.058   0.498  1.00  0.00    -0.005 A 
HETATM   23  C1  UNL     1       6.537  -2.343  -0.053  1.00  0.00     0.011 A 
ENDBRANCH  20  21
ENDBRANCH  19  20
ENDBRANCH  18  19
ENDBRANCH   1  18
BRANCH   2  24
HETATM   24  C9  UNL     1       0.268   2.636   0.301  1.00  0.00    -0.019 A 
HETATM   25  C10 UNL     1      -0.039   3.224   1.478  1.00  0.00     0.012 A 
HETATM   26  C11 UNL     1      -0.032   4.550   1.441  1.00  0.00     0.001 A 
HETATM   27  C12 UNL     1       0.288   5.325   0.305  1.00  0.00     0.000 A 
HETATM   28  C13 UNL     1       0.622   4.655  -0.896  1.00  0.00     0.001 A 
HETATM   29  C14 UNL     1       0.618   3.253  -0.911  1.00  0.00     0.012 A 
ENDBRANCH   2  24
BRANCH  14  30
HETATM   30  C25 UNL     1      -3.168  -0.496   1.984  1.00  0.00     0.189 C 
BRANCH  30  31
HETATM   31  O1  UNL     1      -1.950  -1.198   1.919  1.00  0.00    -0.399 OA
HETATM   32  H24 UNL     1      -1.399  -0.659   1.250  1.00  0.00     0.209 HD
ENDBRANCH  30  31
ENDBRANCH  14  30
TORSDOF 7
