REMARK  7 active torsions:
REMARK  status: ('A' for Active; 'I' for Inactive)
REMARK    1  A    between atoms: N1_2  and  C3_4 
REMARK    2  A    between atoms: C4_5  and  C5_6 
REMARK       I    between atoms: C5_6  and  N2_8 
REMARK    3  A    between atoms: C12_18  and  N5_19 
REMARK    4  A    between atoms: N5_19  and  C13_20 
REMARK    5  A    between atoms: C13_20  and  C14_21 
REMARK    6  A    between atoms: C13_20  and  C15_23 
REMARK    7  A    between atoms: C14_21  and  O2_22 
ROOT
HETATM    1  C5  UNL     1       3.664   1.082  -0.469  1.00  0.00     0.244 C 
HETATM    2  O1  UNL     1       3.476   2.200   0.033  1.00  0.00    -0.268 OA
HETATM    3  N2  UNL     1       2.582   0.675  -1.295  1.00  0.00    -0.344 N 
HETATM    4  C6  UNL     1       1.423   1.489  -1.501  1.00  0.00     0.131 C 
HETATM    5  C7  UNL     1       0.259   0.931  -0.719  1.00  0.00     0.060 C 
HETATM    6  C8  UNL     1       0.114  -0.534  -0.912  1.00  0.00    -0.025 A 
HETATM    7  C9  UNL     1       1.142  -1.130  -1.605  1.00  0.00     0.010 A 
HETATM    8  S1  UNL     1       0.650  -2.826  -1.741  1.00  0.00    -0.072 SA
HETATM    9  C10 UNL     1      -0.937  -2.634  -0.839  1.00  0.00     0.114 A 
HETATM   10  N3  UNL     1      -1.876  -3.537  -0.540  1.00  0.00    -0.234 NA
HETATM   11  C11 UNL     1      -2.979  -3.204   0.144  1.00  0.00     0.236 A 
HETATM   12  N4  UNL     1      -3.037  -1.922   0.483  1.00  0.00    -0.224 NA
HETATM   13  C12 UNL     1      -2.113  -1.012   0.194  1.00  0.00     0.139 A 
HETATM   14  C21 UNL     1      -0.964  -1.268  -0.501  1.00  0.00     0.053 A 
HETATM   15  C22 UNL     1       2.351  -0.539  -2.084  1.00  0.00     0.172 C 
ENDROOT
BRANCH  13  16
HETATM   16  N5  UNL     1      -2.411   0.271   0.741  1.00  0.00    -0.363 N 
HETATM   17  H14 UNL     1      -1.887   1.164   0.760  1.00  0.00     0.162 HD
BRANCH  16  18
HETATM   18  C13 UNL     1      -3.610   0.569   1.459  1.00  0.00     0.140 C 
BRANCH  18  19
HETATM   19  C14 UNL     1      -3.769   1.956   1.965  1.00  0.00     0.194 C 
BRANCH  19  20
HETATM   20  O2  UNL     1      -4.990   2.038   2.629  1.00  0.00    -0.399 OA
HETATM   21  H18 UNL     1      -5.754   1.962   2.029  1.00  0.00     0.209 HD
ENDBRANCH  19  20
ENDBRANCH  18  19
BRANCH  18  22
HETATM   22  C15 UNL     1      -4.837   0.258   0.640  1.00  0.00    -0.034 A 
HETATM   23  C16 UNL     1      -4.746   0.712  -0.675  1.00  0.00     0.009 A 
HETATM   24  C17 UNL     1      -5.789   0.508  -1.565  1.00  0.00     0.001 A 
HETATM   25  C18 UNL     1      -6.927  -0.152  -1.138  1.00  0.00     0.000 A 
HETATM   26  C19 UNL     1      -6.990  -0.586   0.157  1.00  0.00     0.001 A 
HETATM   27  C20 UNL     1      -5.972  -0.400   1.067  1.00  0.00     0.009 A 
ENDBRANCH  18  22
ENDBRANCH  16  18
ENDBRANCH  13  16
BRANCH   1  28
HETATM   28  C4  UNL     1       4.826   0.228  -0.283  1.00  0.00     0.091 C 
HETATM   29  C3  UNL     1       5.795   0.653   0.489  1.00  0.00     0.090 C 
BRANCH  29  30
HETATM   30  N1  UNL     1       7.016   0.007   0.821  1.00  0.00    -0.398 N 
HETATM   31  C1  UNL     1       7.085  -1.306   1.444  1.00  0.00     0.148 C 
HETATM   32  C2  UNL     1       8.365   0.542   0.597  1.00  0.00     0.148 C 
ENDBRANCH  29  30
ENDBRANCH   1  28
TORSDOF 7
