REMARK  7 active torsions:
REMARK  status: ('A' for Active; 'I' for Inactive)
REMARK    1  A    between atoms: N1_2  and  C3_4 
REMARK    2  A    between atoms: C3_4  and  C4_5 
REMARK    3  A    between atoms: C5_6  and  C6_7 
REMARK       I    between atoms: C6_7  and  N2_9 
REMARK    4  A    between atoms: N2_9  and  C7_10 
REMARK    5  A    between atoms: C7_10  and  C8_11 
REMARK    6  A    between atoms: C16_24  and  C17_25 
REMARK    7  A    between atoms: C17_25  and  O2_26 
ROOT
HETATM    1  C8  UNL     1       0.038   0.446  -0.779  1.00  0.00     0.010 A 
HETATM    2  S1  UNL     1       0.492  -0.072  -2.421  1.00  0.00    -0.072 SA
HETATM    3  C9  UNL     1      -0.688  -1.479  -2.427  1.00  0.00     0.112 A 
HETATM    4  N3  UNL     1      -0.806  -2.322  -3.518  1.00  0.00    -0.234 NA
HETATM    5  C10 UNL     1      -1.696  -3.324  -3.443  1.00  0.00     0.234 A 
HETATM    6  N4  UNL     1      -2.320  -3.309  -2.272  1.00  0.00    -0.245 NA
HETATM    7  C11 UNL     1      -2.188  -2.482  -1.227  1.00  0.00     0.053 A 
HETATM    8  C12 UNL     1      -1.325  -1.463  -1.229  1.00  0.00     0.033 A 
HETATM    9  C13 UNL     1      -0.959  -0.497  -0.407  1.00  0.00    -0.023 A 
HETATM   10  C14 UNL     1      -1.531  -0.225   0.909  1.00  0.00     0.089 C 
HETATM   11  C15 UNL     1      -2.452   0.990   0.868  1.00  0.00     0.116 C 
HETATM   12  N5  UNL     1      -3.545   1.624   0.771  1.00  0.00    -0.191 NA
HETATM   13  N6  UNL     1      -4.813   1.171   0.585  1.00  0.00    -0.281 N 
HETATM   14  C16 UNL     1      -6.113   0.713   0.368  1.00  0.00     0.051 C 
HETATM   15  C18 UNL     1      -6.499  -0.487   0.069  1.00  0.00     0.028 C 
HETATM   16  C19 UNL     1      -5.582  -1.601  -0.097  1.00  0.00    -0.002 C 
HETATM   17  C20 UNL     1      -4.367  -2.108  -0.104  1.00  0.00    -0.021 C 
HETATM   18  C21 UNL     1      -3.144  -2.934  -0.179  1.00  0.00     0.087 C 
HETATM   19  H18 UNL     1      -4.908   0.891   1.608  1.00  0.00     0.189 HD
ENDROOT
BRANCH   1  20
HETATM   20  C7  UNL     1       0.787   1.567  -0.249  1.00  0.00     0.169 C 
BRANCH  20  21
HETATM   21  N2  UNL     1       1.959   1.141   0.439  1.00  0.00    -0.353 N 
HETATM   22  C6  UNL     1       2.610   0.427   1.458  1.00  0.00     0.241 C 
HETATM   23  O1  UNL     1       1.767  -0.164   2.159  1.00  0.00    -0.269 OA
HETATM   24  H11 UNL     1       2.768   1.610  -0.112  1.00  0.00     0.163 HD
BRANCH  22  25
HETATM   25  C5  UNL     1       4.045   0.369   1.687  1.00  0.00     0.072 C 
HETATM   26  C4  UNL     1       5.051   0.940   1.030  1.00  0.00     0.008 C 
BRANCH  26  27
HETATM   27  C3  UNL     1       6.472   0.796   1.370  1.00  0.00     0.299 C 
BRANCH  27  28
HETATM   28  N1  UNL     1       7.189   0.204   0.249  1.00  0.00     0.083 N 
HETATM   29  C1  UNL     1       8.579   0.092   0.603  1.00  0.00     0.309 C 
HETATM   30  C2  UNL     1       7.103   1.144  -0.865  1.00  0.00     0.309 C 
ENDBRANCH  27  28
ENDBRANCH  26  27
ENDBRANCH  22  25
ENDBRANCH  20  21
ENDBRANCH   1  20
BRANCH  14  31
HETATM   31  C17 UNL     1      -7.172   1.738   0.505  1.00  0.00     0.222 C 
BRANCH  31  32
HETATM   32  O2  UNL     1      -6.975   2.774  -0.417  1.00  0.00    -0.395 OA
HETATM   33  H21 UNL     1      -7.572   2.646  -1.208  1.00  0.00     0.209 HD
ENDBRANCH  31  32
ENDBRANCH  14  31
TORSDOF 7
