REMARK  3 active torsions:
REMARK  status: ('A' for Active; 'I' for Inactive)
REMARK    1  A    between atoms: C7_7  and  N1_8 
REMARK    2  A    between atoms: N1_8  and  C8_9 
REMARK    3  A    between atoms: C17_20  and  C18_21 
ROOT
HETATM    1  C8  UNL     1       0.138  -0.299   0.404  1.00  0.00     0.109 C 
HETATM    2  N2  UNL     1       0.801   0.303   1.367  1.00  0.00    -0.228 NA
HETATM    3  C9  UNL     1       0.325   0.842   2.622  1.00  0.00     0.235 C 
HETATM    4  N3  UNL     1      -0.731   1.594   2.881  1.00  0.00    -0.241 NA
HETATM    5  C10 UNL     1      -1.732   2.106   1.980  1.00  0.00     0.069 A 
HETATM    6  C11 UNL     1      -2.095   3.423   2.256  1.00  0.00     0.032 A 
HETATM    7  C12 UNL     1      -3.015   4.033   1.468  1.00  0.00     0.002 A 
HETATM    8  C13 UNL     1      -3.627   3.453   0.406  1.00  0.00     0.001 A 
HETATM    9  C14 UNL     1      -3.274   2.149   0.126  1.00  0.00     0.014 A 
HETATM   10  C15 UNL     1      -2.334   1.443   0.888  1.00  0.00    -0.001 A 
HETATM   11  C16 UNL     1      -2.315   0.111   0.220  1.00  0.00    -0.038 C 
HETATM   12  C17 UNL     1      -3.537  -0.276  -0.092  1.00  0.00     0.015 C 
HETATM   13  C23 UNL     1      -1.166  -0.786  -0.067  1.00  0.00     0.118 C 
ENDROOT
BRANCH   1  14
HETATM   14  N1  UNL     1       1.198  -0.574  -0.541  1.00  0.00    -0.346 N 
HETATM   15  H8  UNL     1       1.036  -1.070  -1.454  1.00  0.00     0.167 HD
BRANCH  14  16
HETATM   16  C7  UNL     1       2.574  -0.239  -0.409  1.00  0.00     0.035 C 
HETATM   17  C6  UNL     1       2.864   0.645  -1.351  1.00  0.00     0.027 C 
HETATM   18  C5  UNL     1       4.105   1.333  -1.692  1.00  0.00     0.002 C 
HETATM   19  C4  UNL     1       5.390   1.143  -1.435  1.00  0.00     0.002 C 
HETATM   20  C3  UNL     1       6.106   0.108  -0.665  1.00  0.00     0.032 C 
HETATM   21  C2  UNL     1       5.752  -0.935   0.069  1.00  0.00     0.043 C 
HETATM   22  C1  UNL     1       6.978  -1.595   0.591  1.00  0.00     0.076 C 
HETATM   23  O1  UNL     1       4.502  -1.440   0.382  1.00  0.00    -0.350 OA
HETATM   24  C24 UNL     1       3.213  -0.977   0.717  1.00  0.00     0.232 C 
ENDBRANCH  14  16
ENDBRANCH   1  14
BRANCH  12  25
HETATM   25  C18 UNL     1      -4.155  -1.430  -0.739  1.00  0.00    -0.054 A 
HETATM   26  C19 UNL     1      -3.537  -2.481  -1.222  1.00  0.00     0.007 A 
HETATM   27  C20 UNL     1      -4.445  -3.455  -1.803  1.00  0.00    -0.003 A 
HETATM   28  C21 UNL     1      -5.663  -2.969  -1.665  1.00  0.00    -0.022 A 
HETATM   29  C22 UNL     1      -5.598  -1.680  -1.000  1.00  0.00     0.065 A 
ENDBRANCH  12  25
TORSDOF 3
