REMARK  8 active torsions:
REMARK  status: ('A' for Active; 'I' for Inactive)
REMARK    1  A    between atoms: C4_4  and  C5_5 
REMARK    2  A    between atoms: C5_5  and  C6_6 
REMARK    3  A    between atoms: C6_6  and  C7_7 
REMARK    4  A    between atoms: C10_12  and  N3_13 
REMARK    5  A    between atoms: N3_13  and  C11_14 
REMARK    6  A    between atoms: C11_14  and  C12_15 
REMARK    7  A    between atoms: C11_14  and  C13_17 
REMARK    8  A    between atoms: C12_15  and  O1_16 
ROOT
HETATM    1  C1  UNL     1       4.702   2.787   0.654  1.00  0.00     0.017 C 
HETATM    2  C2  UNL     1       4.264   1.919   1.394  1.00  0.00    -0.090 C 
HETATM    3  C3  UNL     1       3.727   0.906   2.261  1.00  0.00     0.059 C 
HETATM    4  C4  UNL     1       2.578   0.363   1.845  1.00  0.00    -0.016 C 
ENDROOT
BRANCH   4   5
HETATM    5  C5  UNL     1       1.911   0.776   0.586  1.00  0.00     0.051 C 
BRANCH   5   6
HETATM    6  C6  UNL     1       1.807  -0.394  -0.325  1.00  0.00     0.037 C 
HETATM    7  C19 UNL     1       3.273  -0.620  -0.731  1.00  0.00    -0.007 C 
HETATM    8  C20 UNL     1       3.986  -1.706  -0.435  1.00  0.00    -0.002 C 
HETATM    9  C21 UNL     1       3.349  -2.794   0.341  1.00  0.00     0.012 C 
HETATM   10  C22 UNL     1       2.391  -2.241   1.079  1.00  0.00    -0.022 C 
HETATM   11  C23 UNL     1       1.456  -1.687   0.305  1.00  0.00    -0.055 C 
HETATM   12  C24 UNL     1       0.249  -2.573   0.264  1.00  0.00     0.046 C 
BRANCH   6  13
HETATM   13  C7  UNL     1       1.155  -0.173  -1.629  1.00  0.00     0.022 A 
HETATM   14  C8  UNL     1       1.769  -0.203  -2.869  1.00  0.00     0.130 A 
HETATM   15  N1  UNL     1       1.206  -0.016  -4.074  1.00  0.00    -0.253 NA
HETATM   16  C9  UNL     1      -0.117   0.230  -4.095  1.00  0.00     0.234 A 
HETATM   17  N2  UNL     1      -0.775   0.273  -2.924  1.00  0.00    -0.224 NA
HETATM   18  C10 UNL     1      -0.217   0.087  -1.719  1.00  0.00     0.134 A 
BRANCH  18  19
HETATM   19  N3  UNL     1      -1.060   0.163  -0.577  1.00  0.00    -0.363 N 
HETATM   20  H8  UNL     1      -0.865   0.054   0.407  1.00  0.00     0.162 HD
BRANCH  19  21
HETATM   21  C11 UNL     1      -2.478   0.441  -0.733  1.00  0.00     0.140 C 
BRANCH  21  22
HETATM   22  C12 UNL     1      -2.739   1.806  -1.344  1.00  0.00     0.194 C 
BRANCH  22  23
HETATM   23  O1  UNL     1      -2.224   2.848  -0.585  1.00  0.00    -0.399 OA
HETATM   24  H12 UNL     1      -2.914   3.345  -0.106  1.00  0.00     0.209 HD
ENDBRANCH  22  23
ENDBRANCH  21  22
BRANCH  21  25
HETATM   25  C13 UNL     1      -3.302   0.179   0.441  1.00  0.00    -0.034 A 
HETATM   26  C14 UNL     1      -2.762   0.652   1.642  1.00  0.00     0.009 A 
HETATM   27  C15 UNL     1      -3.454   0.465   2.841  1.00  0.00     0.001 A 
HETATM   28  C16 UNL     1      -4.664  -0.179   2.869  1.00  0.00     0.000 A 
HETATM   29  C17 UNL     1      -5.199  -0.647   1.690  1.00  0.00     0.001 A 
HETATM   30  C18 UNL     1      -4.525  -0.464   0.520  1.00  0.00     0.009 A 
ENDBRANCH  21  25
ENDBRANCH  19  21
ENDBRANCH  18  19
ENDBRANCH   6  13
ENDBRANCH   5   6
ENDBRANCH   4   5
TORSDOF 8
