REMARK  9 active torsions:
REMARK  status: ('A' for Active; 'I' for Inactive)
REMARK    1  A    between atoms: O1_1  and  C1_2 
REMARK    2  A    between atoms: C1_2  and  C2_3 
REMARK    3  A    between atoms: C2_3  and  C3_4 
REMARK    4  A    between atoms: C4_5  and  C5_6 
REMARK    5  A    between atoms: C14_15  and  N1_16 
REMARK    6  A    between atoms: N1_16  and  C15_17 
REMARK    7  A    between atoms: C15_17  and  C16_18 
REMARK    8  A    between atoms: C15_17  and  C17_20 
REMARK    9  A    between atoms: C16_18  and  O2_19 
ROOT
HETATM    1  C5  UNL     1       2.817   0.150   0.889  1.00  0.00     0.078 C 
HETATM    2  C6  UNL     1       2.654  -0.372  -0.352  1.00  0.00     0.049 C 
HETATM    3  C7  UNL     1       1.631  -1.383  -0.726  1.00  0.00    -0.022 A 
HETATM    4  C8  UNL     1       1.995  -2.257  -1.711  1.00  0.00     0.012 A 
HETATM    5  C9  UNL     1       1.114  -3.276  -2.003  1.00  0.00     0.001 A 
HETATM    6  C10 UNL     1      -0.097  -3.468  -1.370  1.00  0.00     0.001 A 
HETATM    7  C11 UNL     1      -0.510  -2.588  -0.349  1.00  0.00     0.013 A 
HETATM    8  C12 UNL     1       0.425  -1.556  -0.089  1.00  0.00    -0.007 A 
HETATM    9  C13 UNL     1      -0.165  -0.688   0.966  1.00  0.00     0.074 A 
HETATM   10  C14 UNL     1      -1.532  -0.699   0.786  1.00  0.00     0.141 A 
HETATM   11  N2  UNL     1      -2.171  -0.066   1.815  1.00  0.00    -0.224 NA
HETATM   12  C23 UNL     1      -1.459   0.478   2.830  1.00  0.00     0.238 A 
HETATM   13  N3  UNL     1      -0.129   0.469   2.953  1.00  0.00    -0.217 NA
HETATM   14  C24 UNL     1       0.602  -0.133   1.993  1.00  0.00     0.186 A 
HETATM   15  O3  UNL     1       2.039  -0.171   2.045  1.00  0.00    -0.291 OA
ENDROOT
BRANCH  10  16
HETATM   16  N1  UNL     1      -2.231  -1.077  -0.404  1.00  0.00    -0.363 N 
HETATM   17  H13 UNL     1      -2.008  -1.326  -1.383  1.00  0.00     0.162 HD
BRANCH  16  18
HETATM   18  C15 UNL     1      -3.693  -1.030  -0.195  1.00  0.00     0.140 C 
BRANCH  18  19
HETATM   19  C16 UNL     1      -4.134  -2.020   0.831  1.00  0.00     0.194 C 
BRANCH  19  20
HETATM   20  O2  UNL     1      -5.519  -1.942   0.962  1.00  0.00    -0.399 OA
HETATM   21  H17 UNL     1      -5.957  -2.201   0.111  1.00  0.00     0.209 HD
ENDBRANCH  19  20
ENDBRANCH  18  19
BRANCH  18  22
HETATM   22  C17 UNL     1      -4.030   0.376   0.238  1.00  0.00    -0.034 A 
HETATM   23  C18 UNL     1      -4.769   0.891   1.275  1.00  0.00     0.009 A 
HETATM   24  C19 UNL     1      -4.898   2.254   1.396  1.00  0.00     0.001 A 
HETATM   25  C20 UNL     1      -4.327   3.150   0.533  1.00  0.00     0.000 A 
HETATM   26  C21 UNL     1      -3.581   2.648  -0.514  1.00  0.00     0.001 A 
HETATM   27  C22 UNL     1      -3.435   1.273  -0.659  1.00  0.00     0.009 A 
ENDBRANCH  18  22
ENDBRANCH  16  18
ENDBRANCH  10  16
BRANCH   1  28
HETATM   28  C4  UNL     1       3.905   1.128   0.987  1.00  0.00     0.033 C 
HETATM   29  C3  UNL     1       4.823   1.701   0.236  1.00  0.00    -0.022 C 
BRANCH  29  30
HETATM   30  C2  UNL     1       5.460   1.864  -1.064  1.00  0.00     0.053 C 
BRANCH  30  31
HETATM   31  C1  UNL     1       6.934   1.483  -0.959  1.00  0.00     0.168 C 
BRANCH  31  32
HETATM   32  O1  UNL     1       7.496   2.354  -0.005  1.00  0.00    -0.401 OA
HETATM   33  H1  UNL     1       7.877   3.158  -0.428  1.00  0.00     0.209 HD
ENDBRANCH  31  32
ENDBRANCH  30  31
ENDBRANCH  29  30
ENDBRANCH   1  28
TORSDOF 9
