REMARK  5 active torsions:
REMARK  status: ('A' for Active; 'I' for Inactive)
REMARK    1  A    between atoms: N1_1  and  C1_2 
REMARK    2  A    between atoms: C4_5  and  C6_9 
REMARK    3  A    between atoms: C7_11  and  N4_12 
REMARK    4  A    between atoms: C7_11  and  C14_20 
REMARK    5  A    between atoms: N4_12  and  C8_13 
ROOT
HETATM    1  C1  UNL     1      -2.440  -0.847  -2.811  1.00  0.00     0.002 C 
HETATM    2  C2  UNL     1      -1.512  -1.499  -3.514  1.00  0.00     0.003 C 
HETATM    3  C3  UNL     1      -0.159  -1.572  -2.889  1.00  0.00     0.062 A 
HETATM    4  C4  UNL     1       0.723  -1.360  -2.007  1.00  0.00    -0.009 A 
HETATM    5  O1  UNL     1      -0.595  -0.944  -1.993  1.00  0.00     0.000 OA
HETATM    6  C5  UNL     1      -0.734  -0.301  -0.906  1.00  0.00    -0.004 A 
HETATM    7  N2  UNL     1       0.257  -0.128  -0.024  1.00  0.00     0.000 N 
HETATM    8  C6  UNL     1       1.155  -0.843  -0.814  1.00  0.00     0.085 A 
HETATM    9  N3  UNL     1       1.391  -0.303   0.308  1.00  0.00    -0.197 NA
HETATM   10  C7  UNL     1       0.469   0.404   1.068  1.00  0.00     0.177 A 
HETATM   11  C14 UNL     1      -0.751   0.384   0.324  1.00  0.00     0.133 A 
HETATM   12  N5  UNL     1      -1.909   1.174   0.828  1.00  0.00    -0.400 N 
HETATM   13  C15 UNL     1      -2.145   1.595  -0.534  1.00  0.00     0.143 C 
HETATM   14  C16 UNL     1      -3.137   0.738  -1.244  1.00  0.00    -0.006 C 
HETATM   15  C17 UNL     1      -3.480  -0.203  -2.111  1.00  0.00     0.020 C 
HETATM   16  H10 UNL     1      -1.881   0.975   1.839  1.00  0.00     0.154 HD
ENDROOT
BRANCH  10  17
HETATM   17  N4  UNL     1       0.662   1.058   2.344  1.00  0.00    -0.361 N 
HETATM   18  H5  UNL     1      -0.195   1.575   2.592  1.00  0.00     0.162 HD
BRANCH  17  19
HETATM   19  C8  UNL     1       1.955   0.767   2.786  1.00  0.00     0.031 A 
HETATM   20  C9  UNL     1       2.242  -0.572   3.052  1.00  0.00     0.029 A 
HETATM   21  C10 UNL     1       3.468  -1.026   3.467  1.00  0.00     0.004 A 
HETATM   22  C11 UNL     1       4.441  -0.055   3.615  1.00  0.00     0.019 A 
HETATM   23  C12 UNL     1       4.191   1.277   3.362  1.00  0.00     0.013 A 
HETATM   24 BR1  UNL     1       5.503   2.668   3.526  1.00  0.00    -0.051 Br
HETATM   25  C13 UNL     1       2.958   1.726   2.945  1.00  0.00     0.048 A 
ENDBRANCH  17  19
ENDBRANCH  10  17
BRANCH   1  26
HETATM   26  N1  UNL     1      -3.128  -1.308  -4.015  1.00  0.00    -0.303 NA
HETATM   27  H1  UNL     1      -3.908  -1.735  -4.541  1.00  0.00     0.124 HD
HETATM   28  H2  UNL     1      -4.017  -1.752  -4.314  1.00  0.00     0.124 HD
ENDBRANCH   1  26
TORSDOF 5
