REMARK  8 active torsions:
REMARK  status: ('A' for Active; 'I' for Inactive)
REMARK    1  A    between atoms: N1_1  and  C1_2 
REMARK    2  A    between atoms: C6_7  and  O1_8 
REMARK    3  A    between atoms: O1_8  and  C7_9 
REMARK    4  A    between atoms: C9_11  and  N2_12 
REMARK    5  A    between atoms: N2_12  and  C10_13 
REMARK    6  A    between atoms: C10_13  and  C11_14 
REMARK    7  A    between atoms: C10_13  and  C12_16 
REMARK    8  A    between atoms: C11_14  and  O2_15 
ROOT
HETATM    1  C7  UNL     1       0.348  -1.090  -0.078  1.00  0.00     0.076 A 
HETATM    2  C8  UNL     1       0.862  -0.611   1.042  1.00  0.00     0.084 A 
HETATM    3  C9  UNL     1       2.266  -0.318   0.749  1.00  0.00     0.121 A 
HETATM    4  N3  UNL     1       2.570  -0.600  -0.453  1.00  0.00    -0.266 NA
HETATM    5  C18 UNL     1       1.399  -1.123  -1.129  1.00  0.00     0.216 A 
ENDROOT
BRANCH   1   6
HETATM    6  O1  UNL     1      -0.880  -1.547  -0.485  1.00  0.00    -0.317 OA
BRANCH   6   7
HETATM    7  C6  UNL     1      -2.043  -0.814  -0.533  1.00  0.00     0.064 C 
HETATM    8  C5  UNL     1      -1.989   0.543  -0.857  1.00  0.00     0.092 C 
HETATM    9  C4  UNL     1      -1.459   1.629  -0.128  1.00  0.00    -0.020 C 
HETATM   10  C3  UNL     1      -2.379   2.582   0.114  1.00  0.00    -0.002 C 
HETATM   11  C2  UNL     1      -3.781   2.617  -0.226  1.00  0.00     0.024 C 
HETATM   12  C1  UNL     1      -4.866   1.989  -0.730  1.00  0.00     0.007 C 
HETATM   13  C25 UNL     1      -4.542   0.838   0.075  1.00  0.00     0.095 C 
HETATM   14  C24 UNL     1      -4.491  -0.549  -0.286  1.00  0.00    -0.044 C 
HETATM   15  C19 UNL     1      -3.245  -1.304  -0.288  1.00  0.00    -0.018 C 
HETATM   16  C23 UNL     1      -5.661  -1.187  -0.329  1.00  0.00     0.008 C 
HETATM   17  C20 UNL     1      -3.180  -2.748  -0.001  1.00  0.00     0.068 C 
HETATM   18  C21 UNL     1      -4.540  -3.373  -0.170  1.00  0.00    -0.022 C 
HETATM   19  C22 UNL     1      -5.671  -2.673  -0.302  1.00  0.00    -0.003 C 
BRANCH  12  20
HETATM   20  N1  UNL     1      -6.081   1.455  -1.238  1.00  0.00    -0.402 N 
HETATM   21  H1  UNL     1      -6.926   1.685  -0.636  1.00  0.00     0.156 HD
HETATM   22  H2  UNL     1      -5.968   0.913  -2.143  1.00  0.00     0.156 HD
ENDBRANCH  12  20
ENDBRANCH   6   7
ENDBRANCH   1   6
BRANCH   3  23
HETATM   23  N2  UNL     1       3.154   0.227   1.747  1.00  0.00    -0.364 N 
HETATM   24  H9  UNL     1       2.724   0.803   2.517  1.00  0.00     0.162 HD
BRANCH  23  25
HETATM   25  C10 UNL     1       4.577  -0.041   1.645  1.00  0.00     0.140 C 
BRANCH  25  26
HETATM   26  C11 UNL     1       4.790  -1.504   1.702  1.00  0.00     0.194 C 
BRANCH  26  27
HETATM   27  O2  UNL     1       4.304  -2.013   2.907  1.00  0.00    -0.399 OA
HETATM   28  H13 UNL     1       4.192  -1.266   3.554  1.00  0.00     0.209 HD
ENDBRANCH  26  27
ENDBRANCH  25  26
BRANCH  25  29
HETATM   29  C12 UNL     1       5.104   0.671   0.503  1.00  0.00    -0.034 A 
HETATM   30  C13 UNL     1       4.694   1.993   0.353  1.00  0.00     0.009 A 
HETATM   31  C14 UNL     1       5.193   2.699  -0.748  1.00  0.00     0.001 A 
HETATM   32  C15 UNL     1       6.066   2.126  -1.671  1.00  0.00     0.000 A 
HETATM   33  C16 UNL     1       6.415   0.814  -1.441  1.00  0.00     0.001 A 
HETATM   34  C17 UNL     1       5.968   0.051  -0.383  1.00  0.00     0.009 A 
ENDBRANCH  25  29
ENDBRANCH  23  25
ENDBRANCH   3  23
TORSDOF 8
