REMARK  6 active torsions:
REMARK  status: ('A' for Active; 'I' for Inactive)
REMARK    1  A    between atoms: O1_1  and  C1_2 
REMARK    2  A    between atoms: C1_2  and  C2_3 
REMARK    3  A    between atoms: C2_3  and  N1_4 
REMARK    4  A    between atoms: C2_3  and  C18_23 
REMARK    5  A    between atoms: N1_4  and  C3_5 
REMARK    6  A    between atoms: C5_9  and  O2_22 
ROOT
HETATM    1  C3  UNL     1       0.684   0.325   1.442  1.00  0.00     0.126 A 
HETATM    2  N2  UNL     1       0.540   0.986   2.659  1.00  0.00    -0.227 NA
HETATM    3  C4  UNL     1       1.747   1.375   3.235  1.00  0.00     0.235 A 
HETATM    4  N3  UNL     1       3.022   1.242   2.855  1.00  0.00    -0.242 NA
HETATM    5  C5  UNL     1       3.277   0.583   1.638  1.00  0.00     0.087 A 
HETATM    6  C6  UNL     1       2.006   0.118   0.953  1.00  0.00     0.119 A 
HETATM    7  C7  UNL     1       1.858  -0.780  -0.354  1.00  0.00    -0.026 A 
HETATM    8  C8  UNL     1       0.878  -1.407  -0.623  1.00  0.00     0.010 C 
HETATM    9  C9  UNL     1       0.426  -2.248  -1.662  1.00  0.00     0.008 C 
HETATM   10  C10 UNL     1       0.245  -1.337  -2.626  1.00  0.00    -0.047 C 
HETATM   11  C11 UNL     1       1.388  -1.134  -3.329  1.00  0.00     0.031 C 
HETATM   12  C12 UNL     1       2.591  -0.559  -2.805  1.00  0.00     0.007 C 
HETATM   13  C13 UNL     1       3.692  -0.023  -2.426  1.00  0.00    -0.023 C 
HETATM   14  C14 UNL     1       4.785   0.479  -1.661  1.00  0.00     0.063 A 
HETATM   15  C15 UNL     1       5.095   0.597  -0.327  1.00  0.00    -0.022 A 
HETATM   16  C16 UNL     1       3.982   0.106  -0.359  1.00  0.00     0.011 A 
HETATM   17  C17 UNL     1       3.018  -0.303  -0.368  1.00  0.00    -0.034 A 
HETATM   18  O2  UNL     1       4.598   0.362   1.056  1.00  0.00     0.000 OA
ENDROOT
BRANCH   1  19
HETATM   19  N1  UNL     1      -0.428   0.213   0.558  1.00  0.00    -0.366 N 
HETATM   20  H5  UNL     1      -0.815   0.105  -0.385  1.00  0.00     0.161 HD
BRANCH  19  21
HETATM   21  C2  UNL     1      -1.684   0.384   1.232  1.00  0.00     0.139 C 
BRANCH  21  22
HETATM   22  C1  UNL     1      -1.925  -0.726   2.251  1.00  0.00     0.194 C 
BRANCH  22  23
HETATM   23  O1  UNL     1      -1.940  -1.989   1.655  1.00  0.00    -0.399 OA
HETATM   24  H1  UNL     1      -1.097  -2.490   1.824  1.00  0.00     0.209 HD
ENDBRANCH  22  23
ENDBRANCH  21  22
BRANCH  21  25
HETATM   25  C18 UNL     1      -2.856   0.668   0.421  1.00  0.00    -0.034 A 
HETATM   26  C19 UNL     1      -3.763   1.650   0.765  1.00  0.00     0.009 A 
HETATM   27  C20 UNL     1      -4.888   1.914  -0.025  1.00  0.00     0.001 A 
HETATM   28  C21 UNL     1      -5.127   1.203  -1.172  1.00  0.00     0.000 A 
HETATM   29  C22 UNL     1      -4.242   0.225  -1.533  1.00  0.00     0.001 A 
HETATM   30  C23 UNL     1      -3.119  -0.044  -0.749  1.00  0.00     0.009 A 
ENDBRANCH  21  25
ENDBRANCH  19  21
ENDBRANCH   1  19
TORSDOF 6
