REMARK  5 active torsions:
REMARK  status: ('A' for Active; 'I' for Inactive)
REMARK    1  A    between atoms: C2_2  and  C3_3 
REMARK    2  A    between atoms: C3_3  and  C4_4 
REMARK    3  A    between atoms: C9_10  and  N1_11 
REMARK    4  A    between atoms: N1_11  and  C10_12 
REMARK    5  A    between atoms: C10_12  and  C11_13 
ROOT
HETATM    1  C4  UNL     1       2.946   0.123   0.924  1.00  0.00     0.018 C 
HETATM    2  C5  UNL     1       2.405   0.096  -0.286  1.00  0.00    -0.020 C 
HETATM    3  C6  UNL     1       3.150   0.114  -1.568  1.00  0.00     0.216 C 
HETATM    4  O1  UNL     1       2.176  -0.206  -2.522  1.00  0.00    -0.329 OA
HETATM    5  C7  UNL     1       0.879  -0.133  -1.975  1.00  0.00     0.173 A 
HETATM    6  C8  UNL     1       1.000   0.043  -0.671  1.00  0.00     0.041 A 
HETATM    7  C9  UNL     1      -0.319   0.136   0.021  1.00  0.00     0.299 A 
HETATM    8  C16 UNL     1      -1.203  -0.030  -1.202  1.00  0.00     0.133 A 
HETATM    9  N3  UNL     1      -0.508  -0.177  -2.296  1.00  0.00    -0.238 NA
ENDROOT
BRANCH   7  10
HETATM   10  N1  UNL     1      -0.527  -0.911   0.955  1.00  0.00     0.101 N 
HETATM   11  H8  UNL     1      -0.544  -1.812   0.426  1.00  0.00     0.317 HD
BRANCH  10  12
HETATM   12  C10 UNL     1      -1.675  -0.774   1.777  1.00  0.00     0.311 C 
BRANCH  12  13
HETATM   13  C11 UNL     1      -2.962  -0.616   1.075  1.00  0.00    -0.013 A 
HETATM   14  C12 UNL     1      -3.766  -1.646   0.635  1.00  0.00     0.012 A 
HETATM   15  C13 UNL     1      -4.973  -1.387  -0.000  1.00  0.00     0.020 A 
HETATM   16  C14 UNL     1      -5.312  -0.071  -0.161  1.00  0.00     0.116 A 
HETATM   17  N2  UNL     1      -4.539   0.938   0.263  1.00  0.00    -0.273 NA
HETATM   18  C15 UNL     1      -3.347   0.716   0.890  1.00  0.00     0.125 A 
ENDBRANCH  12  13
ENDBRANCH  10  12
ENDBRANCH   7  10
BRANCH   1  19
HETATM   19  C3  UNL     1       4.393   0.175   1.024  1.00  0.00     0.051 C 
BRANCH  19  20
HETATM   20  C2  UNL     1       5.038   1.216   0.573  1.00  0.00    -0.155 C 
HETATM   21  C1  UNL     1       5.456   2.360   0.050  1.00  0.00     0.096 C 
ENDBRANCH  19  20
ENDBRANCH   1  19
TORSDOF 5
