REMARK  7 active torsions:
REMARK  status: ('A' for Active; 'I' for Inactive)
REMARK    1  A    between atoms: C1_1  and  C2_2 
REMARK    2  A    between atoms: C1_1  and  N2_12 
REMARK    3  A    between atoms: C2_2  and  N1_3 
REMARK    4  A    between atoms: N1_3  and  C3_4 
REMARK    5  A    between atoms: N2_12  and  N3_13 
REMARK    6  A    between atoms: N3_13  and  C11_14 
REMARK    7  A    between atoms: C11_14  and  C12_15 
ROOT
HETATM    1  C1  UNL     1      -0.452   0.187  -0.121  1.00  0.00     0.081 C 
ENDROOT
BRANCH   1   2
HETATM    2  C2  UNL     1       0.440   1.102   0.031  1.00  0.00     0.062 C 
BRANCH   2   3
HETATM    3  N1  UNL     1       1.390   1.822   0.467  1.00  0.00    -0.196 NA
BRANCH   3   4
HETATM    4  C3  UNL     1       2.774   1.486   0.236  1.00  0.00     0.079 A 
HETATM    5  C4  UNL     1       3.647   1.781  -0.715  1.00  0.00     0.045 A 
HETATM    6  C5  UNL     1       4.675   0.994  -0.034  1.00  0.00    -0.021 A 
HETATM    7  C6  UNL     1       5.960   0.498   0.041  1.00  0.00     0.012 A 
HETATM    8  C10 UNL     1       3.766   0.675   0.973  1.00  0.00     0.004 A 
HETATM    9  C7  UNL     1       6.320  -0.306   1.117  1.00  0.00     0.001 A 
HETATM   10  C8  UNL     1       5.418  -0.616   2.107  1.00  0.00     0.001 A 
HETATM   11  C9  UNL     1       4.137  -0.125   2.036  1.00  0.00     0.014 A 
ENDBRANCH   3   4
ENDBRANCH   2   3
ENDBRANCH   1   2
BRANCH   1  12
HETATM   12  N2  UNL     1      -1.157  -0.888  -0.230  1.00  0.00    -0.124 NA
BRANCH  12  13
HETATM   13  N3  UNL     1      -1.841  -1.086  -1.431  1.00  0.00    -0.301 N 
HETATM   14  H6  UNL     1      -1.331  -0.822  -2.306  1.00  0.00     0.183 HD
BRANCH  13  15
HETATM   15  C11 UNL     1      -3.182  -1.624  -1.492  1.00  0.00     0.182 C 
BRANCH  15  16
HETATM   16  C12 UNL     1      -4.111  -0.741  -0.743  1.00  0.00    -0.021 A 
HETATM   17  C13 UNL     1      -4.719   0.275  -1.435  1.00  0.00     0.012 A 
HETATM   18  C14 UNL     1      -5.578   1.079  -0.710  1.00  0.00     0.020 A 
HETATM   19  C15 UNL     1      -5.802   0.857   0.642  1.00  0.00     0.116 A 
HETATM   20  N4  UNL     1      -5.184  -0.161   1.303  1.00  0.00    -0.273 NA
HETATM   21  C16 UNL     1      -4.351  -0.944   0.611  1.00  0.00     0.125 A 
ENDBRANCH  15  16
ENDBRANCH  13  15
ENDBRANCH  12  13
ENDBRANCH   1  12
TORSDOF 7
