REMARK  3 active torsions:
REMARK  status: ('A' for Active; 'I' for Inactive)
REMARK    1  A    between atoms: C9_11  and  N2_12 
REMARK    2  A    between atoms: N2_12  and  C10_13 
REMARK    3  A    between atoms: C10_13  and  C11_14 
ROOT
HETATM    1  C1  UNL     1      -2.005  -3.463   0.131  1.00  0.00     0.117 A 
HETATM    2  N1  UNL     1      -2.832  -2.522   0.435  1.00  0.00    -0.252 NA
HETATM    3  C2  UNL     1      -2.067  -1.373   0.758  1.00  0.00     0.234 A 
HETATM    4  O1  UNL     1      -2.397  -0.681   1.931  1.00  0.00    -0.307 OA
HETATM    5  C3  UNL     1      -2.660   0.435   1.145  1.00  0.00     0.084 A 
HETATM    6  C4  UNL     1      -3.072   1.754   1.220  1.00  0.00     0.037 A 
HETATM    7  C5  UNL     1      -3.190   2.519   0.063  1.00  0.00     0.003 A 
HETATM    8  C6  UNL     1      -2.879   1.903  -1.138  1.00  0.00     0.001 A 
HETATM    9  C7  UNL     1      -2.465   0.575  -1.213  1.00  0.00     0.015 A 
HETATM   10  C8  UNL     1      -2.358  -0.158  -0.046  1.00  0.00     0.039 A 
HETATM   11  C9  UNL     1      -0.681  -1.808   0.589  1.00  0.00     0.070 A 
HETATM   12  C16 UNL     1      -0.605  -3.073   0.209  1.00  0.00     0.049 A 
ENDROOT
BRANCH  11  13
HETATM   13  N2  UNL     1       0.472  -0.976   0.806  1.00  0.00    -0.385 N 
HETATM   14  H6  UNL     1       0.811  -0.519   1.702  1.00  0.00     0.159 HD
BRANCH  13  15
HETATM   15  C10 UNL     1       1.262  -0.748  -0.384  1.00  0.00     0.159 C 
BRANCH  15  16
HETATM   16  C11 UNL     1       2.442   0.106  -0.153  1.00  0.00    -0.023 A 
HETATM   17  C12 UNL     1       2.514   1.489  -0.250  1.00  0.00     0.012 A 
HETATM   18  C13 UNL     1       3.739   2.096   0.013  1.00  0.00     0.020 A 
HETATM   19  C14 UNL     1       4.855   1.349   0.361  1.00  0.00     0.116 A 
HETATM   20  N3  UNL     1       4.784  -0.006   0.456  1.00  0.00    -0.273 NA
HETATM   21  C15 UNL     1       3.586  -0.575   0.196  1.00  0.00     0.124 A 
ENDBRANCH  15  16
ENDBRANCH  13  15
ENDBRANCH  11  13
TORSDOF 3
