REMARK  3 active torsions:
REMARK  status: ('A' for Active; 'I' for Inactive)
REMARK    1  A    between atoms: C5_5  and  N1_6 
REMARK    2  A    between atoms: N1_6  and  C6_7 
REMARK    3  A    between atoms: C6_7  and  C7_8 
ROOT
HETATM    1  C1  UNL     1       4.409   0.485   0.748  1.00  0.00    -0.002 C 
HETATM    2  C2  UNL     1       3.400  -0.146   0.177  1.00  0.00    -0.022 C 
HETATM    3  C3  UNL     1       1.957  -0.395   0.200  1.00  0.00     0.072 C 
HETATM    4  C4  UNL     1       1.121   0.532   0.935  1.00  0.00     0.025 A 
HETATM    5  C5  UNL     1      -0.160  -0.014   0.783  1.00  0.00     0.040 A 
HETATM    6  C12 UNL     1      -1.199   0.661   1.384  1.00  0.00     0.049 A 
HETATM    7  C13 UNL     1      -1.122   1.821   2.122  1.00  0.00     0.122 A 
HETATM    8  N3  UNL     1       0.135   2.338   2.259  1.00  0.00    -0.236 NA
HETATM    9  C14 UNL     1       1.189   1.693   1.676  1.00  0.00     0.177 A 
HETATM   10  O1  UNL     1       2.255   2.529   2.050  1.00  0.00    -0.304 OA
HETATM   11  C15 UNL     1       3.586   2.214   2.397  1.00  0.00     0.144 C 
HETATM   12  C16 UNL     1       4.485   1.390   1.889  1.00  0.00     0.024 C 
ENDROOT
BRANCH   5  13
HETATM   13  N1  UNL     1      -0.509  -1.181   0.108  1.00  0.00    -0.385 N 
HETATM   14  H5  UNL     1       0.218  -1.787  -0.369  1.00  0.00     0.160 HD
BRANCH  13  15
HETATM   15  C6  UNL     1      -1.743  -1.884  -0.165  1.00  0.00     0.160 C 
BRANCH  15  16
HETATM   16  C7  UNL     1      -2.630  -1.201  -1.137  1.00  0.00    -0.023 A 
HETATM   17  C8  UNL     1      -2.193  -1.556  -2.426  1.00  0.00     0.012 A 
HETATM   18  C9  UNL     1      -2.841  -1.078  -3.572  1.00  0.00     0.020 A 
HETATM   19  C10 UNL     1      -3.930  -0.241  -3.440  1.00  0.00     0.116 A 
HETATM   20  N2  UNL     1      -4.325   0.081  -2.198  1.00  0.00    -0.273 NA
HETATM   21  C11 UNL     1      -3.719  -0.366  -1.089  1.00  0.00     0.124 A 
ENDBRANCH  15  16
ENDBRANCH  13  15
ENDBRANCH   5  13
TORSDOF 3
