REMARK  3 active torsions:
REMARK  status: ('A' for Active; 'I' for Inactive)
REMARK    1  A    between atoms: C10_11  and  N2_12 
REMARK    2  A    between atoms: N2_12  and  C11_13 
REMARK    3  A    between atoms: C11_13  and  C12_14 
ROOT
HETATM    1  C1  UNL     1       4.046   2.106   0.722  1.00  0.00    -0.035 A 
HETATM    2  C2  UNL     1       3.010   2.045   1.763  1.00  0.00     0.026 A 
HETATM    3  C3  UNL     1       2.612   0.695   1.208  1.00  0.00     0.124 A 
HETATM    4  C4  UNL     1       1.697   0.154   0.362  1.00  0.00    -0.013 C 
HETATM    5  C5  UNL     1       2.579   1.043  -0.641  1.00  0.00     0.062 C 
HETATM    6  C6  UNL     1       3.872   0.929   0.164  1.00  0.00     0.076 A 
HETATM    7  C7  UNL     1       4.266  -0.557   0.240  1.00  0.00     0.262 C 
HETATM    8  N1  UNL     1       3.705  -1.384  -0.756  1.00  0.00    -0.268 NA
HETATM    9  C8  UNL     1       2.675  -2.226  -0.916  1.00  0.00     0.116 C 
HETATM   10  C9  UNL     1       1.262  -1.923  -0.404  1.00  0.00     0.048 C 
HETATM   11  C10 UNL     1       0.603  -0.769   0.047  1.00  0.00     0.035 C 
HETATM   12  O1  UNL     1       3.257  -0.690   1.464  1.00  0.00    -0.343 OA
ENDROOT
BRANCH  11  13
HETATM   13  N2  UNL     1      -0.755  -0.745   0.098  1.00  0.00    -0.385 N 
HETATM   14  H7  UNL     1      -1.134  -1.639   0.530  1.00  0.00     0.160 HD
BRANCH  13  15
HETATM   15  C11 UNL     1      -1.467   0.393  -0.398  1.00  0.00     0.160 C 
BRANCH  15  16
HETATM   16  C12 UNL     1      -2.936   0.303  -0.289  1.00  0.00    -0.023 A 
HETATM   17  C13 UNL     1      -3.665   0.734   0.801  1.00  0.00     0.012 A 
HETATM   18  C14 UNL     1      -5.044   0.580   0.754  1.00  0.00     0.020 A 
HETATM   19  C15 UNL     1      -5.679   0.019  -0.334  1.00  0.00     0.116 A 
HETATM   20  N3  UNL     1      -4.923  -0.395  -1.392  1.00  0.00    -0.273 NA
HETATM   21  C16 UNL     1      -3.577  -0.265  -1.390  1.00  0.00     0.124 A 
ENDBRANCH  15  16
ENDBRANCH  13  15
ENDBRANCH  11  13
TORSDOF 3
