REMARK  6 active torsions:
REMARK  status: ('A' for Active; 'I' for Inactive)
REMARK    1  A    between atoms: C2_2  and  N1_3 
REMARK    2  A    between atoms: N1_3  and  C3_4 
REMARK    3  A    between atoms: C5_6  and  N2_7 
REMARK    4  A    between atoms: N2_7  and  C6_8 
REMARK    5  A    between atoms: C6_8  and  C7_9 
REMARK    6  A    between atoms: C14_17  and  C15_18 
ROOT
HETATM    1  C3  UNL     1      -1.767   2.710  -0.253  1.00  0.00     0.176 A 
HETATM    2  C4  UNL     1      -0.586   2.744   0.331  1.00  0.00     0.074 A 
HETATM    3  C5  UNL     1      -0.212   1.344   0.776  1.00  0.00     0.304 A 
HETATM    4  C13 UNL     1      -1.365   0.526   0.378  1.00  0.00     0.092 A 
HETATM    5  C14 UNL     1      -1.886  -0.689   0.378  1.00  0.00     0.035 C 
HETATM    6  O1  UNL     1      -2.243   1.435  -0.244  1.00  0.00    -0.293 OA
ENDROOT
BRANCH   3   7
HETATM    7  N2  UNL     1       1.056   0.998   0.249  1.00  0.00     0.102 N 
HETATM    8  H5  UNL     1       1.188   1.241  -0.736  1.00  0.00     0.317 HD
BRANCH   7   9
HETATM    9  C6  UNL     1       1.468  -0.300   0.634  1.00  0.00     0.309 C 
BRANCH   9  10
HETATM   10  C7  UNL     1       2.868  -0.614   0.191  1.00  0.00    -0.030 A 
HETATM   11  C8  UNL     1       3.134  -1.195  -1.028  1.00  0.00     0.010 A 
HETATM   12  C9  UNL     1       4.441  -1.481  -1.428  1.00  0.00     0.024 A 
HETATM   13  C10 UNL     1       5.474  -1.174  -0.582  1.00  0.00     0.034 A 
HETATM   14 CL1  UNL     1       7.057  -1.583  -1.202  1.00  0.00    -0.084 Cl
HETATM   15  C11 UNL     1       5.253  -0.587   0.657  1.00  0.00     0.024 A 
HETATM   16  C12 UNL     1       3.954  -0.326   1.003  1.00  0.00     0.010 A 
ENDBRANCH   9  10
ENDBRANCH   7   9
ENDBRANCH   3   7
BRANCH   1  17
HETATM   17  N1  UNL     1      -2.319   3.920  -0.759  1.00  0.00    -0.186 NA
BRANCH  17  18
HETATM   18  C2  UNL     1      -3.568   4.038  -0.999  1.00  0.00    -0.041 C 
HETATM   19  C1  UNL     1      -4.867   3.832  -1.137  1.00  0.00     0.119 C 
ENDBRANCH  17  18
ENDBRANCH   1  17
BRANCH   5  20
HETATM   20  C15 UNL     1      -3.152  -1.203  -0.144  1.00  0.00    -0.002 C 
HETATM   21  C16 UNL     1      -3.509  -2.466  -0.051  1.00  0.00    -0.031 C 
HETATM   22  C17 UNL     1      -2.514  -3.335   0.630  1.00  0.00     0.036 C 
ENDBRANCH   5  20
TORSDOF 6
