REMARK  2 active torsions:
REMARK  status: ('A' for Active; 'I' for Inactive)
REMARK    1  A    between atoms: C5_6  and  N1_7 
REMARK    2  A    between atoms: N1_7  and  C6_8 
ROOT
HETATM    1  C6  UNL     1       0.882  -1.386   0.445  1.00  0.00     0.160 A 
HETATM    2  N2  UNL     1       1.273  -2.611   0.040  1.00  0.00    -0.222 NA
HETATM    3  C7  UNL     1       0.414  -3.396  -0.645  1.00  0.00     0.238 A 
HETATM    4  N3  UNL     1      -0.829  -2.925  -0.906  1.00  0.00    -0.215 NA
HETATM    5  C8  UNL     1      -1.206  -1.693  -0.493  1.00  0.00     0.202 A 
HETATM    6  C9  UNL     1      -0.365  -0.860   0.203  1.00  0.00     0.129 A 
HETATM    7  N4  UNL     1      -0.545   0.439   0.708  1.00  0.00    -0.379 N 
HETATM    8  C10 UNL     1      -1.524   1.447   0.322  1.00  0.00     0.161 C 
HETATM    9  C11 UNL     1      -2.822   0.876  -0.083  1.00  0.00    -0.007 A 
HETATM   10  C12 UNL     1      -3.771   1.885   0.147  1.00  0.00     0.011 A 
HETATM   11  C13 UNL     1      -5.119   1.665  -0.116  1.00  0.00     0.001 A 
HETATM   12  C14 UNL     1      -5.493   0.419  -0.610  1.00  0.00     0.003 A 
HETATM   13  C15 UNL     1      -4.598  -0.600  -0.853  1.00  0.00     0.038 A 
HETATM   14  C16 UNL     1      -3.295  -0.310  -0.571  1.00  0.00     0.086 A 
HETATM   15  O1  UNL     1      -2.514  -1.420  -0.861  1.00  0.00    -0.289 OA
HETATM   16  H6  UNL     1       0.159   0.655   1.454  1.00  0.00     0.160 HD
ENDROOT
BRANCH   1  17
HETATM   17  N1  UNL     1       1.876  -0.674   1.174  1.00  0.00    -0.339 N 
HETATM   18  H4  UNL     1       1.610  -0.633   2.199  1.00  0.00     0.167 HD
BRANCH  17  19
HETATM   19  C5  UNL     1       3.061  -0.079   0.667  1.00  0.00     0.035 A 
HETATM   20  C4  UNL     1       3.008   1.193   0.148  1.00  0.00     0.029 A 
HETATM   21  C3  UNL     1       4.186   1.713  -0.332  1.00  0.00     0.004 A 
HETATM   22  C2  UNL     1       5.350   0.966  -0.280  1.00  0.00     0.019 A 
HETATM   23  C1  UNL     1       5.415  -0.318   0.242  1.00  0.00     0.013 A 
HETATM   24 BR1  UNL     1       7.030  -1.328   0.302  1.00  0.00    -0.051 Br
HETATM   25  C17 UNL     1       4.228  -0.818   0.716  1.00  0.00     0.048 A 
ENDBRANCH  17  19
ENDBRANCH   1  17
TORSDOF 2
