REMARK  6 active torsions:
REMARK  status: ('A' for Active; 'I' for Inactive)
REMARK    1  A    between atoms: N1_1  and  C1_2 
REMARK    2  A    between atoms: C1_2  and  C2_3 
REMARK    3  A    between atoms: C3_4  and  N2_5 
REMARK    4  A    between atoms: C3_4  and  C10_13 
REMARK    5  A    between atoms: N2_5  and  C4_6 
REMARK    6  A    between atoms: C4_6  and  C5_7 
ROOT
HETATM    1  C2  UNL     1       0.734  -2.107   1.560  1.00  0.00     0.049 C 
HETATM    2  C3  UNL     1       0.474  -0.910   1.067  1.00  0.00     0.049 C 
ENDROOT
BRANCH   2   3
HETATM    3  N2  UNL     1      -0.861  -0.643   0.739  1.00  0.00    -0.384 N 
HETATM    4  H4  UNL     1      -1.400  -0.601   1.637  1.00  0.00     0.160 HD
BRANCH   3   5
HETATM    5  C4  UNL     1      -1.261  -0.481  -0.639  1.00  0.00     0.160 C 
BRANCH   5   6
HETATM    6  C5  UNL     1      -2.720  -0.214  -0.770  1.00  0.00    -0.023 A 
HETATM    7  C6  UNL     1      -3.729  -1.115  -0.922  1.00  0.00     0.012 A 
HETATM    8  C7  UNL     1      -5.027  -0.628  -1.021  1.00  0.00     0.020 A 
HETATM    9  C8  UNL     1      -5.273   0.740  -0.965  1.00  0.00     0.116 A 
HETATM   10  N3  UNL     1      -4.269   1.625  -0.814  1.00  0.00    -0.273 NA
HETATM   11  C9  UNL     1      -2.996   1.145  -0.717  1.00  0.00     0.124 A 
ENDBRANCH   5   6
ENDBRANCH   3   5
ENDBRANCH   2   3
BRANCH   2  12
HETATM   12  C10 UNL     1       1.244   0.279   0.747  1.00  0.00     0.051 C 
HETATM   13  C11 UNL     1       0.971   1.552   0.230  1.00  0.00     0.072 C 
HETATM   14  S1  UNL     1       1.755   2.231  -1.144  1.00  0.00    -0.112 SA
HETATM   15  C12 UNL     1       3.468   2.107  -1.069  1.00  0.00     0.049 C 
HETATM   16  C13 UNL     1       4.774   2.330  -0.619  1.00  0.00     0.008 C 
HETATM   17  C14 UNL     1       5.298   1.814   0.539  1.00  0.00     0.009 C 
HETATM   18  C15 UNL     1       4.977   0.631   1.154  1.00  0.00     0.065 C 
HETATM   19  C16 UNL     1       3.690   0.495   1.031  1.00  0.00    -0.073 C 
HETATM   20  C17 UNL     1       2.553   0.390   0.909  1.00  0.00    -0.059 C 
ENDBRANCH   2  12
BRANCH   1  21
HETATM   21  C1  UNL     1      -0.532  -2.816   1.609  1.00  0.00     0.109 C 
BRANCH  21  22
HETATM   22  N1  UNL     1      -1.728  -3.278   1.577  1.00  0.00    -0.312 NA
HETATM   23  H1  UNL     1      -2.522  -2.673   1.215  1.00  0.00     0.186 HD
ENDBRANCH  21  22
ENDBRANCH   1  21
TORSDOF 6
