REMARK  0 active torsions:
REMARK  status: ('A' for Active; 'I' for Inactive)
ROOT
HETATM    1 CL1  UNL     1       4.883   0.070   0.396  1.00  0.00    -0.089 Cl
HETATM    2  C1  UNL     1       3.343   0.014  -0.469  1.00  0.00     0.011 C 
HETATM    3  C2  UNL     1       3.349   0.853  -1.526  1.00  0.00     0.018 C 
HETATM    4  C3  UNL     1       2.261   1.117  -2.521  1.00  0.00     0.197 C 
HETATM    5  O1  UNL     1       1.325   0.081  -2.561  1.00  0.00    -0.380 OA
HETATM    6  C4  UNL     1       0.365   0.246  -1.571  1.00  0.00     0.151 C 
HETATM    7  C5  UNL     1      -0.881  -0.493  -1.943  1.00  0.00     0.147 C 
HETATM    8  N1  UNL     1      -2.049  -0.447  -1.256  1.00  0.00    -0.415 N 
HETATM    9  C6  UNL     1      -2.423  -0.970  -0.057  1.00  0.00     0.149 C 
HETATM   10  C7  UNL     1      -1.818  -0.350   1.169  1.00  0.00    -0.045 C 
HETATM   11  C8  UNL     1      -2.338  -0.951   2.261  1.00  0.00     0.024 C 
HETATM   12  C9  UNL     1      -2.007  -0.670   3.672  1.00  0.00     0.114 C 
HETATM   13  N2  UNL     1      -1.114   0.223   3.668  1.00  0.00    -0.269 NA
HETATM   14  C10 UNL     1      -0.424   0.931   2.732  1.00  0.00     0.261 C 
HETATM   15  O2  UNL     1       0.664  -0.076   2.151  1.00  0.00    -0.350 OA
HETATM   16  C11 UNL     1       0.177   0.287   0.725  1.00  0.00     0.097 A 
HETATM   17  C12 UNL     1       0.901  -0.118  -0.265  1.00  0.00     0.038 C 
HETATM   18  C13 UNL     1       2.166  -0.854  -0.090  1.00  0.00     0.067 C 
HETATM   19  C14 UNL     1      -1.047   1.066   0.095  1.00  0.00     0.051 A 
HETATM   20  C15 UNL     1      -0.880   0.882   1.294  1.00  0.00     0.070 A 
HETATM   21  H7  UNL     1      -2.863   0.069  -1.700  1.00  0.00     0.153 HD
ENDROOT
TORSDOF 0
