REMARK  5 active torsions:
REMARK  status: ('A' for Active; 'I' for Inactive)
REMARK    1  A    between atoms: N1_2  and  C2_3 
REMARK    2  A    between atoms: C3_4  and  C4_5 
REMARK    3  A    between atoms: C5_6  and  C6_7 
REMARK    4  A    between atoms: C6_7  and  N2_8 
REMARK    5  A    between atoms: N2_8  and  C7_9 
ROOT
HETATM    1  C7  UNL     1      -0.044   1.372   0.941  1.00  0.00     0.327 C 
HETATM    2  C8  UNL     1      -0.554   2.225  -0.157  1.00  0.00     0.139 C 
HETATM    3  N3  UNL     1      -1.685   2.172  -0.773  1.00  0.00    -0.237 NA
HETATM    4  C9  UNL     1      -2.661   1.198  -0.436  1.00  0.00     0.185 C 
HETATM    5  O1  UNL     1      -3.785   1.191  -1.091  1.00  0.00    -0.303 OA
HETATM    6  C10 UNL     1      -4.933   1.146  -0.416  1.00  0.00     0.144 C 
HETATM    7  C11 UNL     1      -5.526  -0.009   0.131  1.00  0.00     0.025 C 
HETATM    8  C12 UNL     1      -5.903  -1.289  -0.278  1.00  0.00     0.002 C 
HETATM    9  C13 UNL     1      -4.893  -2.143  -0.715  1.00  0.00     0.000 C 
HETATM   10  C14 UNL     1      -3.669  -2.095  -0.107  1.00  0.00     0.002 C 
HETATM   11  C15 UNL     1      -3.258  -0.956   0.499  1.00  0.00     0.023 C 
HETATM   12  C16 UNL     1      -2.610   0.229   0.500  1.00  0.00     0.056 C 
HETATM   13  S1  UNL     1      -1.508   0.729   1.831  1.00  0.00    -0.085 SA
ENDROOT
BRANCH   1  14
HETATM   14  N2  UNL     1       0.751   0.291   0.400  1.00  0.00     0.106 N 
HETATM   15  H9  UNL     1       1.135  -0.323   1.125  1.00  0.00     0.318 HD
BRANCH  14  16
HETATM   16  C6  UNL     1       1.849   0.957  -0.321  1.00  0.00     0.299 C 
BRANCH  16  17
HETATM   17  C5  UNL     1       2.759  -0.021  -0.934  1.00  0.00     0.003 C 
HETATM   18  C4  UNL     1       4.052  -0.201  -0.729  1.00  0.00    -0.001 C 
BRANCH  18  19
HETATM   19  C3  UNL     1       4.809   0.610   0.207  1.00  0.00     0.019 C 
HETATM   20  C2  UNL     1       6.099   0.387   0.373  1.00  0.00     0.115 C 
BRANCH  20  21
HETATM   21  N1  UNL     1       6.824  -0.621  -0.318  1.00  0.00    -0.284 NA
HETATM   22  C1  UNL     1       6.918  -1.838   0.151  1.00  0.00     0.148 C 
ENDBRANCH  20  21
ENDBRANCH  18  19
ENDBRANCH  16  17
ENDBRANCH  14  16
ENDBRANCH   1  14
TORSDOF 5
