REMARK  4 active torsions:
REMARK  status: ('A' for Active; 'I' for Inactive)
REMARK    1  A    between atoms: C4_5  and  P1_6 
REMARK    2  A    between atoms: P1_6  and  N1_7 
REMARK    3  A    between atoms: N1_7  and  C5_8 
REMARK    4  A    between atoms: C7_10  and  N2_11 
ROOT
HETATM    1  C5  UNL     1      -1.244   1.127   0.659  1.00  0.00     0.144 A 
HETATM    2  C6  UNL     1      -1.698   0.729   2.050  1.00  0.00     0.059 A 
HETATM    3  C7  UNL     1      -2.574  -0.146   2.516  1.00  0.00     0.152 A 
HETATM    4  O1  UNL     1      -3.208  -0.838   1.495  1.00  0.00    -0.293 OA
HETATM    5  C8  UNL     1      -2.955  -0.639   0.149  1.00  0.00     0.086 A 
HETATM    6  C9  UNL     1      -3.700  -1.435  -0.680  1.00  0.00     0.038 A 
HETATM    7  C10 UNL     1      -3.543  -1.331  -2.046  1.00  0.00     0.003 A 
HETATM    8  C11 UNL     1      -2.634  -0.421  -2.544  1.00  0.00     0.001 A 
HETATM    9  C12 UNL     1      -1.924   0.342  -1.650  1.00  0.00     0.012 A 
HETATM   10  C13 UNL     1      -2.022   0.297  -0.278  1.00  0.00     0.002 A 
ENDROOT
BRANCH   1  11
HETATM   11  N1  UNL     1       0.174   0.828   0.672  1.00  0.00    -0.384 N 
HETATM   12  H4  UNL     1       0.625   1.074   1.561  1.00  0.00     0.159 HD
BRANCH  11  13
HETATM   13  P1  UNL     1       1.040   1.229  -0.809  1.00  0.00     0.001 P 
HETATM   14  H3  UNL     1       1.144   2.675  -0.893  1.00  0.00     0.085 HD
BRANCH  13  15
HETATM   15  C4  UNL     1       2.692   0.446  -0.744  1.00  0.00    -0.014 A 
HETATM   16  C3  UNL     1       3.654   0.739  -1.688  1.00  0.00     0.015 A 
HETATM   17  C2  UNL     1       4.917   0.181  -1.692  1.00  0.00     0.024 A 
HETATM   18  C1  UNL     1       5.266  -0.722  -0.711  1.00  0.00     0.034 A 
HETATM   19 CL1  UNL     1       6.832  -1.502  -0.600  1.00  0.00    -0.084 Cl
HETATM   20  C15 UNL     1       4.327  -1.039   0.250  1.00  0.00     0.024 A 
HETATM   21  C14 UNL     1       3.068  -0.471   0.238  1.00  0.00     0.015 A 
ENDBRANCH  13  15
ENDBRANCH  11  13
ENDBRANCH   1  11
BRANCH   3  22
HETATM   22  N2  UNL     1      -2.854  -0.368   3.893  1.00  0.00    -0.303 N 
HETATM   23 BR1  UNL     1      -4.063   0.851   4.725  1.00  0.00     0.049 Br
HETATM   24  H7  UNL     1      -2.452  -1.145   4.492  1.00  0.00     0.176 HD
ENDBRANCH   3  22
TORSDOF 4
