REMARK  3 active torsions:
REMARK  status: ('A' for Active; 'I' for Inactive)
REMARK    1  A    between atoms: N1_1  and  C1_2 
REMARK    2  A    between atoms: C6_10  and  C7_11 
REMARK    3  A    between atoms: C7_11  and  C8_12 
ROOT
HETATM    1  C1  UNL     1      -4.205  -1.264   0.699  1.00  0.00     0.028 C 
HETATM    2  C2  UNL     1      -3.886  -0.227  -0.050  1.00  0.00     0.161 C 
HETATM    3  O1  UNL     1      -3.447   0.836  -0.822  1.00  0.00    -0.340 OA
HETATM    4  C3  UNL     1      -3.125   2.082  -0.205  1.00  0.00     0.322 C 
HETATM    5  N2  UNL     1      -2.609   2.917  -1.252  1.00  0.00    -0.274 NA
HETATM    6  C4  UNL     1      -1.401   2.936  -1.648  1.00  0.00     0.131 C 
HETATM    7  C5  UNL     1      -0.214   2.201  -1.240  1.00  0.00     0.129 C 
HETATM    8  N3  UNL     1      -0.280   1.319  -0.284  1.00  0.00    -0.294 NA
HETATM    9  C6  UNL     1       0.918   0.578   0.126  1.00  0.00     0.115 C 
HETATM   10  C14 UNL     1       0.597  -0.878  -0.074  1.00  0.00     0.054 C 
HETATM   11  C15 UNL     1      -0.549  -1.226   0.805  1.00  0.00    -0.028 C 
HETATM   12  C16 UNL     1      -1.788  -1.673   0.735  1.00  0.00    -0.025 C 
HETATM   13  C17 UNL     1      -3.108  -2.112   1.225  1.00  0.00     0.085 C 
ENDROOT
BRANCH   9  14
HETATM   14  C7  UNL     1       2.062   1.047  -0.696  1.00  0.00     0.066 C 
BRANCH  14  15
HETATM   15  C8  UNL     1       3.344   0.357  -0.358  1.00  0.00    -0.056 A 
HETATM   16  C9  UNL     1       4.176   0.887   0.614  1.00  0.00     0.009 A 
HETATM   17  C10 UNL     1       5.350   0.226   0.902  1.00  0.00     0.024 A 
HETATM   18  C11 UNL     1       5.688  -0.938   0.236  1.00  0.00     0.034 A 
HETATM   19 CL1  UNL     1       7.207  -1.682   0.694  1.00  0.00    -0.084 Cl
HETATM   20  C12 UNL     1       4.870  -1.482  -0.737  1.00  0.00     0.024 A 
HETATM   21  C13 UNL     1       3.699  -0.805  -1.011  1.00  0.00     0.009 A 
ENDBRANCH  14  15
ENDBRANCH   9  14
BRANCH   1  22
HETATM   22  N1  UNL     1      -5.454  -1.824   1.162  1.00  0.00    -0.401 N 
HETATM   23  H1  UNL     1      -5.652  -1.639   2.154  1.00  0.00     0.156 HD
HETATM   24  H2  UNL     1      -6.028  -2.356   0.456  1.00  0.00     0.156 HD
ENDBRANCH   1  22
TORSDOF 3
