REMARK  3 active torsions:
REMARK  status: ('A' for Active; 'I' for Inactive)
REMARK    1  A    between atoms: C9_13  and  N2_14 
REMARK    2  A    between atoms: N2_14  and  C10_15 
REMARK    3  A    between atoms: C10_15  and  C11_16 
ROOT
HETATM    1  C1  UNL     1      -4.454   2.556   0.218  1.00  0.00     0.043 C 
HETATM    2  S1  UNL     1      -3.411   3.811   0.121  1.00  0.00    -0.099 SA
HETATM    3  C2  UNL     1      -1.873   3.209  -0.032  1.00  0.00     0.051 C 
HETATM    4  C3  UNL     1      -1.710   1.746   0.094  1.00  0.00     0.021 C 
HETATM    5  C4  UNL     1      -2.620   0.843   0.314  1.00  0.00     0.002 C 
HETATM    6  C5  UNL     1      -3.937   1.411   0.440  1.00  0.00     0.058 C 
HETATM    7  S2  UNL     1      -5.300   0.385   1.042  1.00  0.00     0.040 SA
HETATM    8  O1  UNL     1      -4.709  -1.242   0.845  1.00  0.00    -0.253 OA
HETATM    9  C6  UNL     1      -3.349  -1.451   0.670  1.00  0.00     0.191 A 
HETATM   10  N1  UNL     1      -3.108  -2.764   0.779  1.00  0.00    -0.235 NA
HETATM   11  C7  UNL     1      -1.887  -3.290   0.659  1.00  0.00     0.122 A 
HETATM   12  C8  UNL     1      -0.893  -2.377   0.415  1.00  0.00     0.049 A 
HETATM   13  C9  UNL     1      -1.041  -1.009   0.286  1.00  0.00     0.045 A 
HETATM   14  C16 UNL     1      -2.325  -0.561   0.425  1.00  0.00     0.056 A 
ENDROOT
BRANCH  13  15
HETATM   15  N2  UNL     1       0.095  -0.290   0.028  1.00  0.00    -0.385 N 
HETATM   16  H5  UNL     1       0.754   0.456  -0.164  1.00  0.00     0.160 HD
BRANCH  15  17
HETATM   17  C10 UNL     1       1.347  -0.995  -0.069  1.00  0.00     0.160 C 
BRANCH  17  18
HETATM   18  C11 UNL     1       2.575  -0.296  -0.354  1.00  0.00    -0.023 A 
HETATM   19  C12 UNL     1       3.140  -0.026  -1.585  1.00  0.00     0.012 A 
HETATM   20  C13 UNL     1       4.329   0.658  -1.691  1.00  0.00     0.020 A 
HETATM   21  C14 UNL     1       5.021   1.110  -0.595  1.00  0.00     0.116 A 
HETATM   22  N3  UNL     1       4.479   0.853   0.622  1.00  0.00    -0.273 NA
HETATM   23  C15 UNL     1       3.332   0.192   0.719  1.00  0.00     0.124 A 
ENDBRANCH  17  18
ENDBRANCH  15  17
ENDBRANCH  13  15
TORSDOF 3
