REMARK  6 active torsions:
REMARK  status: ('A' for Active; 'I' for Inactive)
REMARK    1  A    between atoms: C4_5  and  C5_6 
REMARK    2  A    between atoms: C5_6  and  N1_7 
REMARK    3  A    between atoms: N1_7  and  C6_8 
REMARK    4  A    between atoms: C6_8  and  C7_9 
REMARK    5  A    between atoms: C8_10  and  O1_11 
REMARK    6  A    between atoms: O1_11  and  C9_12 
ROOT
HETATM    1  C7  UNL     1      -0.272   0.734   0.649  1.00  0.00     0.025 A 
HETATM    2  C8  UNL     1      -1.095   0.368  -0.298  1.00  0.00     0.177 A 
HETATM    3  N2  UNL     1      -1.609   1.328  -1.242  1.00  0.00    -0.240 NA
HETATM    4  C14 UNL     1      -1.286   2.577  -1.198  1.00  0.00     0.097 A 
HETATM    5  C15 UNL     1      -0.429   3.496  -0.370  1.00  0.00     0.083 A 
HETATM    6  P1  UNL     1       0.343   2.422   0.936  1.00  0.00    -0.088 P 
HETATM    7  H16 UNL     1      -0.177   2.854   2.239  1.00  0.00     0.062 HD
ENDROOT
BRANCH   1   8
HETATM    8  C6  UNL     1       0.285  -0.208   1.640  1.00  0.00     0.313 C 
BRANCH   8   9
HETATM    9  N1  UNL     1       1.743  -0.171   1.496  1.00  0.00     0.091 N 
HETATM   10  H5  UNL     1       2.203  -0.744   2.245  1.00  0.00     0.316 HD
BRANCH   9  11
HETATM   11  C5  UNL     1       2.133  -0.749   0.223  1.00  0.00     0.304 C 
BRANCH  11  12
HETATM   12  C4  UNL     1       3.628  -0.720   0.059  1.00  0.00    -0.047 A 
HETATM   13  C3  UNL     1       4.485  -1.722  -0.113  1.00  0.00     0.006 A 
HETATM   14  C2  UNL     1       5.856  -1.216  -0.225  1.00  0.00     0.020 A 
HETATM   15  C1  UNL     1       5.778   0.102  -0.116  1.00  0.00     0.015 A 
HETATM   16 CL1  UNL     1       7.179   1.180  -0.189  1.00  0.00    -0.089 Cl
HETATM   17  C16 UNL     1       4.384   0.582   0.075  1.00  0.00     0.087 A 
ENDBRANCH  11  12
ENDBRANCH   9  11
ENDBRANCH   8   9
ENDBRANCH   1   8
BRANCH   2  18
HETATM   18  O1  UNL     1      -1.554  -0.927  -0.501  1.00  0.00    -0.291 OA
BRANCH  18  19
HETATM   19  C9  UNL     1      -2.935  -1.091  -0.500  1.00  0.00     0.083 A 
HETATM   20  C10 UNL     1      -3.588  -0.748  -1.616  1.00  0.00     0.082 A 
HETATM   21  S1  UNL     1      -5.363  -0.847  -1.910  1.00  0.00    -0.135 SA
HETATM   22  C11 UNL     1      -6.083  -1.511  -0.376  1.00  0.00     0.105 A 
HETATM   23  C12 UNL     1      -4.999  -1.765   0.636  1.00  0.00    -0.013 A 
HETATM   24  C13 UNL     1      -3.704  -1.605   0.621  1.00  0.00     0.034 A 
ENDBRANCH  18  19
ENDBRANCH   2  18
TORSDOF 6
