REMARK  3 active torsions:
REMARK  status: ('A' for Active; 'I' for Inactive)
REMARK    1  A    between atoms: C4_5  and  C5_6 
REMARK    2  A    between atoms: C5_6  and  N1_7 
REMARK    3  A    between atoms: N1_7  and  C6_8 
ROOT
HETATM    1  C6  UNL     1      -0.633  -1.582   0.637  1.00  0.00     0.045 A 
HETATM    2  C7  UNL     1      -0.418  -2.857   0.871  1.00  0.00     0.055 A 
HETATM    3  P1  UNL     1      -1.853  -3.984   0.846  1.00  0.00    -0.002 P 
HETATM    4  N2  UNL     1      -3.272  -2.954   0.480  1.00  0.00    -0.344 N 
HETATM    5  C8  UNL     1      -3.045  -1.571   0.292  1.00  0.00     0.161 A 
HETATM    6  O1  UNL     1      -3.975  -0.686   0.019  1.00  0.00    -0.292 OA
HETATM    7  C9  UNL     1      -3.514   0.513  -0.107  1.00  0.00     0.089 A 
HETATM    8  C10 UNL     1      -4.133   1.718  -0.387  1.00  0.00     0.038 A 
HETATM    9  C11 UNL     1      -3.387   2.877  -0.465  1.00  0.00     0.003 A 
HETATM   10  C12 UNL     1      -2.008   2.796  -0.256  1.00  0.00     0.001 A 
HETATM   11  C13 UNL     1      -1.407   1.588   0.022  1.00  0.00     0.015 A 
HETATM   12  C14 UNL     1      -2.152   0.445   0.098  1.00  0.00     0.015 A 
HETATM   13  C15 UNL     1      -1.864  -0.878   0.350  1.00  0.00     0.055 A 
HETATM   14  H7  UNL     1      -2.005  -4.696   2.100  1.00  0.00     0.084 HD
HETATM   15  H8  UNL     1      -4.200  -3.401   0.420  1.00  0.00     0.166 HD
ENDROOT
BRANCH   1  16
HETATM   16  N1  UNL     1       0.550  -0.798   0.680  1.00  0.00    -0.385 N 
HETATM   17  H5  UNL     1       0.781  -0.327   1.593  1.00  0.00     0.160 HD
BRANCH  16  18
HETATM   18  C5  UNL     1       1.247  -0.799  -0.609  1.00  0.00     0.158 C 
BRANCH  18  19
HETATM   19  C4  UNL     1       2.482   0.041  -0.503  1.00  0.00    -0.041 A 
HETATM   20  C3  UNL     1       2.584   1.391  -0.757  1.00  0.00     0.010 A 
HETATM   21  C2  UNL     1       3.798   2.019  -0.612  1.00  0.00     0.024 A 
HETATM   22  C1  UNL     1       4.947   1.365  -0.219  1.00  0.00     0.034 A 
HETATM   23 CL1  UNL     1       6.458   2.221  -0.054  1.00  0.00    -0.084 Cl
HETATM   24  C17 UNL     1       4.809   0.015   0.027  1.00  0.00     0.024 A 
HETATM   25  C16 UNL     1       3.604  -0.669  -0.104  1.00  0.00     0.010 A 
ENDBRANCH  18  19
ENDBRANCH  16  18
ENDBRANCH   1  16
TORSDOF 3
