REMARK  2 active torsions:
REMARK  status: ('A' for Active; 'I' for Inactive)
REMARK    1  A    between atoms: C4_5  and  N1_6 
REMARK    2  A    between atoms: N1_6  and  C5_7 
ROOT
HETATM    1  C5  UNL     1      -0.008  -0.130  -0.681  1.00  0.00     0.049 A 
HETATM    2  C6  UNL     1       0.805  -0.492  -1.731  1.00  0.00     0.050 A 
HETATM    3  C7  UNL     1       0.197  -0.861  -2.920  1.00  0.00     0.122 A 
HETATM    4  N2  UNL     1      -1.138  -0.875  -3.075  1.00  0.00    -0.236 NA
HETATM    5  C8  UNL     1      -1.962  -0.527  -2.069  1.00  0.00     0.183 A 
HETATM    6  O1  UNL     1      -3.261  -0.443  -1.921  1.00  0.00    -0.290 OA
HETATM    7  C9  UNL     1      -3.576  -0.047  -0.724  1.00  0.00     0.089 A 
HETATM    8  C10 UNL     1      -4.808   0.173  -0.147  1.00  0.00     0.038 A 
HETATM    9  C11 UNL     1      -4.878   0.598   1.159  1.00  0.00     0.003 A 
HETATM   10  C12 UNL     1      -3.685   0.793   1.861  1.00  0.00     0.001 A 
HETATM   11  C13 UNL     1      -2.484   0.560   1.244  1.00  0.00     0.015 A 
HETATM   12  C14 UNL     1      -2.383   0.137  -0.055  1.00  0.00     0.015 A 
HETATM   13  C15 UNL     1      -1.339  -0.163  -0.893  1.00  0.00     0.057 A 
ENDROOT
BRANCH   1  14
HETATM   14  N1  UNL     1       0.666   0.225   0.497  1.00  0.00    -0.355 N 
HETATM   15  H3  UNL     1       0.505   0.559   1.459  1.00  0.00     0.166 HD
BRANCH  14  16
HETATM   16  C4  UNL     1       2.079   0.174   0.635  1.00  0.00     0.032 A 
HETATM   17  C3  UNL     1       2.718  -1.034   0.333  1.00  0.00     0.031 A 
HETATM   18  C2  UNL     1       4.076  -1.219   0.402  1.00  0.00     0.026 A 
HETATM   19  C1  UNL     1       4.895  -0.183   0.787  1.00  0.00     0.034 A 
HETATM   20 CL1  UNL     1       6.627  -0.314   0.907  1.00  0.00    -0.084 Cl
HETATM   21  C17 UNL     1       4.325   1.031   1.098  1.00  0.00     0.026 A 
HETATM   22  C16 UNL     1       2.977   1.170   1.016  1.00  0.00     0.031 A 
ENDBRANCH  14  16
ENDBRANCH   1  14
TORSDOF 2
