REMARK  3 active torsions:
REMARK  status: ('A' for Active; 'I' for Inactive)
REMARK    1  A    between atoms: C4_5  and  C5_6 
REMARK    2  A    between atoms: C5_6  and  N1_7 
REMARK    3  A    between atoms: N1_7  and  C6_8 
ROOT
HETATM    1  C6  UNL     1      -0.975  -1.170   0.210  1.00  0.00     0.045 A 
HETATM    2  C7  UNL     1      -1.061  -2.539   0.278  1.00  0.00     0.049 A 
HETATM    3  C8  UNL     1      -2.245  -3.239   0.265  1.00  0.00     0.122 A 
HETATM    4  N2  UNL     1      -3.390  -2.544   0.179  1.00  0.00    -0.236 NA
HETATM    5  C9  UNL     1      -3.399  -1.203   0.107  1.00  0.00     0.183 A 
HETATM    6  O1  UNL     1      -4.364  -0.321   0.019  1.00  0.00    -0.290 OA
HETATM    7  C10 UNL     1      -3.904   0.899  -0.025  1.00  0.00     0.089 A 
HETATM    8  C11 UNL     1      -4.523   2.119  -0.116  1.00  0.00     0.038 A 
HETATM    9  C12 UNL     1      -3.780   3.281  -0.146  1.00  0.00     0.003 A 
HETATM   10  C13 UNL     1      -2.387   3.161  -0.080  1.00  0.00     0.001 A 
HETATM   11  C14 UNL     1      -1.785   1.925   0.012  1.00  0.00     0.015 A 
HETATM   12  C15 UNL     1      -2.533   0.780   0.040  1.00  0.00     0.015 A 
HETATM   13  C16 UNL     1      -2.188  -0.543   0.125  1.00  0.00     0.057 A 
ENDROOT
BRANCH   1  14
HETATM   14  N1  UNL     1       0.295  -0.556   0.232  1.00  0.00    -0.385 N 
HETATM   15  H5  UNL     1       0.682   0.390   0.199  1.00  0.00     0.160 HD
BRANCH  14  16
HETATM   16  C5  UNL     1       1.447  -1.427   0.328  1.00  0.00     0.158 C 
BRANCH  16  17
HETATM   17  C4  UNL     1       2.750  -0.747   0.348  1.00  0.00    -0.041 A 
HETATM   18  C3  UNL     1       3.379  -0.332   1.502  1.00  0.00     0.010 A 
HETATM   19  C2  UNL     1       4.618   0.309   1.445  1.00  0.00     0.024 A 
HETATM   20  C1  UNL     1       5.166   0.499   0.181  1.00  0.00     0.034 A 
HETATM   21 CL1  UNL     1       6.714   1.292  -0.001  1.00  0.00    -0.084 Cl
HETATM   22  C18 UNL     1       4.552   0.091  -0.994  1.00  0.00     0.024 A 
HETATM   23  C17 UNL     1       3.331  -0.537  -0.887  1.00  0.00     0.010 A 
ENDBRANCH  16  17
ENDBRANCH  14  16
ENDBRANCH   1  14
TORSDOF 3
