REMARK  4 active torsions:
REMARK  status: ('A' for Active; 'I' for Inactive)
REMARK    1  A    between atoms: C5_5  and  C6_6 
REMARK    2  A    between atoms: C6_6  and  N1_7 
REMARK    3  A    between atoms: N1_7  and  C7_8 
REMARK    4  A    between atoms: C7_8  and  C8_9 
ROOT
HETATM    1  C8  UNL     1      -1.422   0.547  -0.017  1.00  0.00    -0.012 A 
HETATM    2  C9  UNL     1      -1.601  -0.746  -0.453  1.00  0.00     0.111 A 
HETATM    3  O1  UNL     1      -2.676  -0.447  -0.595  1.00  0.00     0.000 OA
HETATM    4  C10 UNL     1      -3.261   0.609  -0.401  1.00  0.00    -0.008 A 
HETATM    5  C11 UNL     1      -4.645   0.456  -0.763  1.00  0.00    -0.044 A 
HETATM    6  C12 UNL     1      -5.160   1.714  -0.492  1.00  0.00     0.008 A 
HETATM    7  C13 UNL     1      -4.360   2.729   0.002  1.00  0.00     0.001 A 
HETATM    8  C14 UNL     1      -3.005   2.747   0.314  1.00  0.00     0.012 A 
HETATM    9  C15 UNL     1      -2.343   1.581   0.103  1.00  0.00    -0.018 A 
HETATM   10  C16 UNL     1      -4.993  -0.886  -1.317  1.00  0.00     0.062 C 
HETATM   11  C17 UNL     1      -3.656  -1.628  -1.740  1.00  0.00     0.100 C 
HETATM   12  N2  UNL     1      -2.528  -1.672  -0.945  1.00  0.00    -0.223 NA
ENDROOT
BRANCH   1  13
HETATM   13  C7  UNL     1      -0.031   0.786   0.234  1.00  0.00     0.307 C 
BRANCH  13  14
HETATM   14  N1  UNL     1       0.497   0.215   1.439  1.00  0.00     0.091 NA
HETATM   15  H9  UNL     1       0.241  -0.789   1.544  1.00  0.00     0.316 HD
BRANCH  14  16
HETATM   16  C6  UNL     1       1.859   0.420   1.726  1.00  0.00     0.308 C 
BRANCH  16  17
HETATM   17  C5  UNL     1       2.859  -0.245   0.876  1.00  0.00    -0.034 A 
HETATM   18  C4  UNL     1       3.271  -0.190  -0.511  1.00  0.00     0.005 A 
HETATM   19  C3  UNL     1       4.273  -0.981  -0.844  1.00  0.00    -0.018 A 
HETATM   20  C2  UNL     1       4.675  -1.713   0.383  1.00  0.00     0.027 A 
HETATM   21  C1  UNL     1       6.056  -1.243   0.737  1.00  0.00     0.018 C 
HETATM   22  C18 UNL     1       3.722  -1.163   1.366  1.00  0.00    -0.010 A 
ENDBRANCH  16  17
ENDBRANCH  14  16
ENDBRANCH  13  14
ENDBRANCH   1  13
TORSDOF 4
