REMARK  5 active torsions:
REMARK  status: ('A' for Active; 'I' for Inactive)
REMARK    1  A    between atoms: C4_4  and  N1_5 
REMARK    2  A    between atoms: C4_4  and  C5_6 
REMARK    3  A    between atoms: C5_6  and  C6_7 
REMARK    4  A    between atoms: C7_8  and  C8_9 
REMARK    5  A    between atoms: C15_19  and  C16_20 
ROOT
HETATM    1  C1  UNL     1       5.999   0.045  -2.923  1.00  0.00     0.017 C 
HETATM    2  C2  UNL     1       5.714   0.840  -1.905  1.00  0.00    -0.087 C 
HETATM    3  C3  UNL     1       5.419   1.598  -0.945  1.00  0.00     0.092 C 
HETATM    4  C4  UNL     1       4.388   1.102  -0.257  1.00  0.00     0.033 C 
ENDROOT
BRANCH   4   5
HETATM    5  N1  UNL     1       4.166  -0.135  -1.019  1.00  0.00    -0.399 N 
HETATM    6  H3  UNL     1       4.571  -0.969  -0.569  1.00  0.00     0.156 HD
HETATM    7  H4  UNL     1       3.790  -0.680  -1.807  1.00  0.00     0.156 HD
ENDBRANCH   4   5
BRANCH   4   8
HETATM    8  C5  UNL     1       3.306   1.253   0.578  1.00  0.00     0.025 C 
BRANCH   8   9
HETATM    9  C6  UNL     1       2.258   1.281   1.368  1.00  0.00    -0.023 C 
HETATM   10  C7  UNL     1       1.521   0.152   1.769  1.00  0.00     0.042 C 
BRANCH  10  11
HETATM   11  C8  UNL     1       0.081  -0.009   1.096  1.00  0.00     0.003 A 
HETATM   12  C9  UNL     1      -0.977   0.489   1.711  1.00  0.00    -0.002 A 
HETATM   13  C10 UNL     1      -1.698  -0.190   0.639  1.00  0.00    -0.017 A 
HETATM   14  N2  UNL     1      -0.763  -0.698  -0.043  1.00  0.00     0.000 N 
HETATM   15  C14 UNL     1      -3.210  -0.284   0.711  1.00  0.00    -0.023 C 
HETATM   16  C11 UNL     1      -0.382  -1.477  -1.175  1.00  0.00     0.007 A 
HETATM   17  O1  UNL     1      -1.473  -1.017  -1.107  1.00  0.00     0.000 OA
HETATM   18  C12 UNL     1      -0.154  -0.783  -0.100  1.00  0.00    -0.004 A 
HETATM   19  C13 UNL     1      -2.085   0.125  -1.937  1.00  0.00     0.041 C 
HETATM   20  P1  UNL     1      -3.643   0.561  -0.951  1.00  0.00    -0.093 P 
HETATM   21  H13 UNL     1      -4.645  -0.411  -1.525  1.00  0.00     0.062 HD
HETATM   22  C15 UNL     1      -4.201  -0.805   1.424  1.00  0.00     0.011 C 
BRANCH  22  23
HETATM   23  C16 UNL     1      -5.463  -0.406   0.798  1.00  0.00     0.014 C 
HETATM   24  C17 UNL     1      -6.595  -0.844   1.346  1.00  0.00     0.230 C 
HETATM   25  F1  UNL     1      -5.763  -1.411   2.197  1.00  0.00    -0.242 F 
ENDBRANCH  22  23
ENDBRANCH  10  11
ENDBRANCH   8   9
ENDBRANCH   4   8
TORSDOF 5
