REMARK  5 active torsions:
REMARK  status: ('A' for Active; 'I' for Inactive)
REMARK    1  A    between atoms: C2_2  and  C3_3 
REMARK    2  A    between atoms: C3_3  and  C4_4 
REMARK    3  A    between atoms: C10_12  and  N2_13 
REMARK    4  A    between atoms: N2_13  and  C11_14 
REMARK    5  A    between atoms: C11_14  and  C12_15 
ROOT
HETATM    1  C4  UNL     1      -2.540  -0.088  -0.206  1.00  0.00     0.014 A 
HETATM    2  C5  UNL     1      -3.853  -0.435  -0.220  1.00  0.00     0.080 A 
HETATM    3  C6  UNL     1      -4.926   0.212  -0.452  1.00  0.00     0.052 C 
HETATM    4  O1  UNL     1      -3.962  -1.706   0.071  1.00  0.00    -0.291 OA
HETATM    5  C7  UNL     1      -2.799  -2.233   0.281  1.00  0.00     0.183 A 
HETATM    6  N1  UNL     1      -2.459  -3.493   0.604  1.00  0.00    -0.236 NA
HETATM    7  C8  UNL     1      -1.173  -3.835   0.779  1.00  0.00     0.122 A 
HETATM    8  C9  UNL     1      -0.247  -2.848   0.614  1.00  0.00     0.049 A 
HETATM    9  C10 UNL     1      -0.548  -1.542   0.284  1.00  0.00     0.045 A 
HETATM   10  C18 UNL     1      -1.873  -1.232   0.113  1.00  0.00     0.057 A 
ENDROOT
BRANCH   9  11
HETATM   11  N2  UNL     1       0.519  -0.637   0.148  1.00  0.00    -0.385 N 
HETATM   12  H9  UNL     1       0.683   0.349  -0.074  1.00  0.00     0.160 HD
BRANCH  11  13
HETATM   13  C11 UNL     1       1.857  -1.108   0.359  1.00  0.00     0.158 C 
BRANCH  13  14
HETATM   14  C12 UNL     1       2.940  -0.148   0.201  1.00  0.00    -0.039 A 
HETATM   15  C13 UNL     1       3.627   0.129  -0.967  1.00  0.00     0.009 A 
HETATM   16  C14 UNL     1       4.644   1.061  -1.021  1.00  0.00     0.002 A 
HETATM   17  C15 UNL     1       4.982   1.741   0.149  1.00  0.00     0.024 A 
HETATM   18  C16 UNL     1       4.312   1.483   1.328  1.00  0.00     0.034 A 
HETATM   19 CL1  UNL     1       4.786   2.371   2.762  1.00  0.00    -0.084 Cl
HETATM   20  C17 UNL     1       3.292   0.543   1.365  1.00  0.00     0.032 A 
ENDBRANCH  13  14
ENDBRANCH  11  13
ENDBRANCH   9  11
BRANCH   1  21
HETATM   21  C3  UNL     1      -2.011   1.065  -0.439  1.00  0.00     0.014 C 
BRANCH  21  22
HETATM   22  C2  UNL     1      -2.750   2.265  -0.776  1.00  0.00    -0.009 C 
HETATM   23  C1  UNL     1      -2.462   3.509  -1.048  1.00  0.00     0.011 C 
ENDBRANCH  21  22
ENDBRANCH   1  21
TORSDOF 5
