REMARK  3 active torsions:
REMARK  status: ('A' for Active; 'I' for Inactive)
REMARK    1  A    between atoms: C5_5  and  C6_6 
REMARK    2  A    between atoms: C6_6  and  N1_7 
REMARK    3  A    between atoms: N1_7  and  C7_8 
ROOT
HETATM    1  C7  UNL     1      -1.005  -0.910   0.787  1.00  0.00     0.045 A 
HETATM    2  C8  UNL     1      -0.397  -2.135   0.945  1.00  0.00     0.049 A 
HETATM    3  C9  UNL     1      -0.973  -3.315   0.476  1.00  0.00     0.122 A 
HETATM    4  N2  UNL     1      -2.182  -3.261  -0.164  1.00  0.00    -0.236 NA
HETATM    5  C10 UNL     1      -2.797  -2.079  -0.331  1.00  0.00     0.183 A 
HETATM    6  O1  UNL     1      -3.930  -1.745  -0.892  1.00  0.00    -0.290 OA
HETATM    7  C11 UNL     1      -4.134  -0.452  -0.825  1.00  0.00     0.089 A 
HETATM    8  C12 UNL     1      -5.168   0.333  -1.271  1.00  0.00     0.038 A 
HETATM    9  C13 UNL     1      -5.133   1.692  -1.067  1.00  0.00     0.003 A 
HETATM   10  C14 UNL     1      -4.030   2.242  -0.403  1.00  0.00     0.001 A 
HETATM   11  C15 UNL     1      -3.017   1.414   0.026  1.00  0.00     0.015 A 
HETATM   12  C16 UNL     1      -3.044   0.067  -0.170  1.00  0.00     0.015 A 
HETATM   13  C17 UNL     1      -2.198  -0.935   0.146  1.00  0.00     0.057 A 
ENDROOT
BRANCH   1  14
HETATM   14  N1  UNL     1      -0.302   0.177   1.357  1.00  0.00    -0.385 N 
HETATM   15  H8  UNL     1      -0.564   1.173   1.413  1.00  0.00     0.160 HD
BRANCH  14  16
HETATM   16  C6  UNL     1       0.987   0.133   2.003  1.00  0.00     0.158 C 
BRANCH  16  17
HETATM   17  C5  UNL     1       2.134   0.059   1.070  1.00  0.00    -0.041 A 
HETATM   18  C4  UNL     1       2.927  -0.914   0.530  1.00  0.00     0.009 A 
HETATM   19  C3  UNL     1       3.940  -0.660  -0.358  1.00  0.00     0.007 A 
HETATM   20  C2  UNL     1       4.232   0.619  -0.772  1.00  0.00    -0.062 A 
HETATM   21  C1  UNL     1       5.351   0.751  -1.733  1.00  0.00     0.048 C 
HETATM   22  C19 UNL     1       3.454   1.653  -0.252  1.00  0.00     0.007 A 
HETATM   23  C18 UNL     1       2.434   1.358   0.646  1.00  0.00     0.009 A 
ENDBRANCH  16  17
ENDBRANCH  14  16
ENDBRANCH   1  14
TORSDOF 3
