REMARK  7 active torsions:
REMARK  status: ('A' for Active; 'I' for Inactive)
REMARK    1  A    between atoms: C2_2  and  C3_3 
REMARK    2  A    between atoms: C2_2  and  S1_5 
REMARK    3  A    between atoms: S1_5  and  C5_6 
REMARK    4  A    between atoms: C6_7  and  C7_8 
REMARK    5  A    between atoms: C7_8  and  C8_9 
REMARK    6  A    between atoms: C8_9  and  N1_10 
REMARK    7  A    between atoms: N1_10  and  C9_11 
ROOT
HETATM    1  C9  UNL     1      -2.499  -0.586   0.371  1.00  0.00     0.041 A 
HETATM    2  C10 UNL     1      -1.914  -1.804   0.768  1.00  0.00     0.049 A 
HETATM    3  C11 UNL     1      -2.730  -2.920   1.013  1.00  0.00     0.122 A 
HETATM    4  N2  UNL     1      -4.083  -2.909   0.899  1.00  0.00    -0.236 NA
HETATM    5  C12 UNL     1      -4.692  -1.740   0.522  1.00  0.00     0.178 A 
HETATM    6  C13 UNL     1      -3.862  -0.641   0.268  1.00  0.00     0.035 A 
HETATM    7  C14 UNL     1      -4.768   0.222  -0.447  1.00  0.00     0.105 A 
HETATM    8  C15 UNL     1      -4.555   1.593  -0.797  1.00  0.00    -0.010 A 
HETATM    9  C16 UNL     1      -5.758   2.152  -0.557  1.00  0.00    -0.001 A 
HETATM   10  C17 UNL     1      -6.727   1.158  -0.038  1.00  0.00     0.034 A 
HETATM   11  C18 UNL     1      -6.108  -0.034   0.046  1.00  0.00     0.068 A 
HETATM   12  O1  UNL     1      -6.061  -1.407   0.368  1.00  0.00    -0.295 OA
ENDROOT
BRANCH   1  13
HETATM   13  N1  UNL     1      -1.708   0.539   0.128  1.00  0.00    -0.389 N 
HETATM   14  H14 UNL     1      -2.052   1.468  -0.158  1.00  0.00     0.159 HD
BRANCH  13  15
HETATM   15  C8  UNL     1      -0.276   0.421   0.283  1.00  0.00     0.123 C 
BRANCH  15  16
HETATM   16  C7  UNL     1       0.446   1.699  -0.009  1.00  0.00     0.047 C 
BRANCH  16  17
HETATM   17  C6  UNL     1       1.911   1.413   0.197  1.00  0.00    -0.018 C 
HETATM   18  C5  UNL     1       2.674   0.372   0.551  1.00  0.00     0.046 C 
BRANCH  18  19
HETATM   19  S1  UNL     1       4.469   0.447   0.685  1.00  0.00    -0.108 SA
BRANCH  19  20
HETATM   20  C2  UNL     1       5.266  -0.813  -0.293  1.00  0.00    -0.027 C 
HETATM   21  C1  UNL     1       4.708  -1.726  -1.047  1.00  0.00     0.026 C 
BRANCH  20  22
HETATM   22  C3  UNL     1       6.743  -0.622  -0.079  1.00  0.00     0.041 C 
HETATM   23  C4  UNL     1       7.140   0.777  -0.542  1.00  0.00     0.010 C 
ENDBRANCH  20  22
ENDBRANCH  19  20
ENDBRANCH  18  19
ENDBRANCH  16  17
ENDBRANCH  15  16
ENDBRANCH  13  15
ENDBRANCH   1  13
TORSDOF 7
