REMARK  1 active torsions:
REMARK  status: ('A' for Active; 'I' for Inactive)
REMARK    1  A    between atoms: C2_2  and  C3_3 
ROOT
HETATM    1  C3  UNL     1      -0.062   0.879  -0.498  1.00  0.00     0.167 C 
HETATM    2  O1  UNL     1      -1.195   0.071  -0.569  1.00  0.00    -0.341 OA
HETATM    3  C4  UNL     1      -2.404   0.036  -0.024  1.00  0.00     0.077 A 
HETATM    4  C5  UNL     1      -3.192   0.821   0.768  1.00  0.00     0.037 A 
HETATM    5  C6  UNL     1      -4.463   0.511   1.192  1.00  0.00     0.003 A 
HETATM    6  C7  UNL     1      -4.959  -0.700   0.767  1.00  0.00     0.001 A 
HETATM    7  C8  UNL     1      -4.219  -1.542  -0.034  1.00  0.00     0.012 A 
HETATM    8  C9  UNL     1      -2.930  -1.203  -0.450  1.00  0.00    -0.003 A 
HETATM    9  C10 UNL     1      -2.365  -2.314  -1.311  1.00  0.00     0.215 C 
HETATM   10  N1  UNL     1      -0.928  -1.945  -1.389  1.00  0.00    -0.186 NA
HETATM   11  N2  UNL     1      -0.403  -1.777  -0.293  1.00  0.00    -0.129 NA
HETATM   12  C11 UNL     1       0.868  -1.430   0.129  1.00  0.00     0.200 A 
HETATM   13  O2  UNL     1       1.948  -1.992   0.590  1.00  0.00    -0.289 OA
HETATM   14  C12 UNL     1       2.876  -1.100   0.835  1.00  0.00     0.089 A 
HETATM   15  C13 UNL     1       4.159  -1.210   1.327  1.00  0.00     0.038 A 
HETATM   16  C14 UNL     1       4.949  -0.093   1.503  1.00  0.00     0.003 A 
HETATM   17  C15 UNL     1       4.410   1.131   1.172  1.00  0.00     0.001 A 
HETATM   18  C16 UNL     1       3.125   1.189   0.685  1.00  0.00     0.015 A 
HETATM   19  C17 UNL     1       2.302   0.103   0.490  1.00  0.00     0.011 A 
HETATM   20  C18 UNL     1       1.022  -0.024   0.028  1.00  0.00     0.039 A 
ENDROOT
BRANCH   1  21
HETATM   21  C2  UNL     1       0.296   1.322  -1.923  1.00  0.00     0.033 C 
HETATM   22  C1  UNL     1       1.471   2.212  -2.032  1.00  0.00     0.008 C 
ENDBRANCH   1  21
TORSDOF 1
