REMARK  4 active torsions:
REMARK  status: ('A' for Active; 'I' for Inactive)
REMARK    1  A    between atoms: O1_2  and  C2_3 
REMARK    2  A    between atoms: C5_6  and  C6_7 
REMARK    3  A    between atoms: C6_7  and  N1_8 
REMARK    4  A    between atoms: N1_8  and  C7_9 
ROOT
HETATM    1  C7  UNL     1      -1.370  -1.718   0.534  1.00  0.00     0.044 A 
HETATM    2  C8  UNL     1      -1.208  -3.097   0.592  1.00  0.00     0.049 A 
HETATM    3  C9  UNL     1      -2.265  -3.752   1.139  1.00  0.00     0.122 A 
HETATM    4  N2  UNL     1      -3.375  -3.171   1.593  1.00  0.00    -0.235 NA
HETATM    5  C10 UNL     1      -3.537  -1.845   1.540  1.00  0.00     0.192 A 
HETATM    6  O2  UNL     1      -4.654  -1.293   2.001  1.00  0.00    -0.240 OA
HETATM    7  C11 UNL     1      -4.769  -0.052   1.814  1.00  0.00     0.066 C 
HETATM    8  C12 UNL     1      -4.856   1.079   1.634  1.00  0.00    -0.048 C 
HETATM    9  C13 UNL     1      -4.935   2.367   1.417  1.00  0.00     0.067 C 
HETATM   10  C14 UNL     1      -4.005   2.142   0.433  1.00  0.00     0.009 C 
HETATM   11  C15 UNL     1      -2.832   1.450   0.221  1.00  0.00     0.002 C 
HETATM   12  C16 UNL     1      -2.411   0.270   0.804  1.00  0.00     0.018 C 
HETATM   13  C17 UNL     1      -2.511  -1.089   0.997  1.00  0.00     0.044 A 
ENDROOT
BRANCH   1  14
HETATM   14  N1  UNL     1      -0.254  -0.988  -0.032  1.00  0.00    -0.385 N 
HETATM   15  H8  UNL     1      -0.285   0.073  -0.108  1.00  0.00     0.160 HD
BRANCH  14  16
HETATM   16  C6  UNL     1       0.928  -1.677  -0.509  1.00  0.00     0.158 C 
BRANCH  16  17
HETATM   17  C5  UNL     1       1.888  -0.671  -1.027  1.00  0.00    -0.040 A 
HETATM   18  C4  UNL     1       2.800  -0.155  -0.116  1.00  0.00     0.011 A 
HETATM   19  C3  UNL     1       3.761   0.790  -0.436  1.00  0.00     0.037 A 
HETATM   20  C2  UNL     1       3.811   1.247  -1.758  1.00  0.00     0.068 A 
HETATM   21  C19 UNL     1       2.908   0.741  -2.673  1.00  0.00     0.037 A 
HETATM   22  C18 UNL     1       1.949  -0.210  -2.327  1.00  0.00     0.011 A 
BRANCH  20  23
HETATM   23  O1  UNL     1       4.758   2.193  -2.119  1.00  0.00    -0.356 OA
HETATM   24  C1  UNL     1       5.654   2.678  -1.155  1.00  0.00     0.210 C 
ENDBRANCH  20  23
ENDBRANCH  16  17
ENDBRANCH  14  16
ENDBRANCH   1  14
TORSDOF 4
