REMARK  0 active torsions:
REMARK  status: ('A' for Active; 'I' for Inactive)
ROOT
HETATM    1  C1  UNL     1      -1.920   2.680  -1.464  1.00  0.00     0.045 C 
HETATM    2  C2  UNL     1      -1.029   1.627  -0.994  1.00  0.00    -0.065 C 
HETATM    3  C3  UNL     1       0.129   1.905  -1.533  1.00  0.00     0.049 C 
HETATM    4  C4  UNL     1       1.501   1.929  -1.961  1.00  0.00    -0.019 C 
HETATM    5  C5  UNL     1       2.700   1.411  -1.977  1.00  0.00    -0.011 C 
HETATM    6  C6  UNL     1       3.330   0.237  -1.394  1.00  0.00     0.147 C 
HETATM    7  N1  UNL     1       2.526  -0.654  -0.623  1.00  0.00    -0.386 N 
HETATM    8  C7  UNL     1       1.752  -1.237   0.388  1.00  0.00     0.044 A 
HETATM    9  C8  UNL     1       2.393  -2.256   1.102  1.00  0.00     0.049 A 
HETATM   10  C9  UNL     1       1.865  -2.999   2.161  1.00  0.00     0.122 A 
HETATM   11  N2  UNL     1       0.616  -2.677   2.500  1.00  0.00    -0.236 NA
HETATM   12  C10 UNL     1      -0.060  -1.710   1.858  1.00  0.00     0.181 A 
HETATM   13  O1  UNL     1      -1.242  -1.602   2.385  1.00  0.00    -0.303 OA
HETATM   14  C11 UNL     1      -2.301  -1.831   1.657  1.00  0.00     0.144 C 
HETATM   15  C12 UNL     1      -3.430  -1.051   1.644  1.00  0.00     0.025 C 
HETATM   16  C13 UNL     1      -3.447   0.296   1.396  1.00  0.00     0.003 C 
HETATM   17  C14 UNL     1      -2.802   0.511   0.214  1.00  0.00     0.012 C 
HETATM   18  C15 UNL     1      -1.483   0.577  -0.045  1.00  0.00    -0.033 C 
HETATM   19  C16 UNL     1      -0.450  -0.142   0.436  1.00  0.00     0.029 C 
HETATM   20  C17 UNL     1       0.507  -1.010   0.823  1.00  0.00     0.044 A 
HETATM   21  H9  UNL     1       2.388  -1.494  -1.281  1.00  0.00     0.160 HD
ENDROOT
TORSDOF 0
