REMARK  5 active torsions:
REMARK  status: ('A' for Active; 'I' for Inactive)
REMARK    1  A    between atoms: C2_2  and  C3_3 
REMARK    2  A    between atoms: C7_7  and  N1_8 
REMARK    3  A    between atoms: N1_8  and  C8_9 
REMARK    4  A    between atoms: C16_18  and  O1_19 
REMARK    5  A    between atoms: C17_20  and  O2_21 
ROOT
HETATM    1  C8  UNL     1      -1.247  -0.184   0.912  1.00  0.00     0.311 A 
HETATM    2  C9  UNL     1      -1.668   1.045   1.608  1.00  0.00     0.268 A 
HETATM    3  C10 UNL     1      -2.441   2.083   1.932  1.00  0.00     0.305 A 
HETATM    4  N2  UNL     1      -2.839   1.151   0.951  1.00  0.00     0.134 N 
HETATM    5  C11 UNL     1      -2.558  -0.046   0.192  1.00  0.00     0.245 A 
HETATM    6  C12 UNL     1      -3.488  -1.178   0.501  1.00  0.00     0.078 A 
HETATM    7  C13 UNL     1      -4.139  -1.749  -0.715  1.00  0.00    -0.024 A 
HETATM    8  C14 UNL     1      -3.976  -1.365  -1.971  1.00  0.00    -0.001 A 
HETATM    9  C15 UNL     1      -3.079  -0.272  -2.287  1.00  0.00     0.034 A 
HETATM   10  C16 UNL     1      -2.472   0.275  -1.246  1.00  0.00     0.084 A 
ENDROOT
BRANCH   1  11
HETATM   11  N1  UNL     1      -0.070  -0.091   0.112  1.00  0.00     0.105 N 
HETATM   12  H8  UNL     1       0.049  -0.936  -0.456  1.00  0.00     0.317 HD
BRANCH  11  13
HETATM   13  C7  UNL     1       1.105   0.297   0.860  1.00  0.00     0.277 A 
HETATM   14  C6  UNL     1       1.423  -0.672   1.938  1.00  0.00     0.011 A 
HETATM   15  C5  UNL     1       2.564  -1.268   2.245  1.00  0.00    -0.001 A 
HETATM   16  C4  UNL     1       3.687  -0.912   1.383  1.00  0.00     0.009 A 
HETATM   17  C3  UNL     1       3.510  -0.042   0.375  1.00  0.00    -0.028 A 
HETATM   18  C17 UNL     1       2.267   0.642  -0.000  1.00  0.00     0.188 A 
BRANCH  17  19
HETATM   19  C2  UNL     1       4.723   0.212  -0.395  1.00  0.00    -0.001 C 
HETATM   20  C1  UNL     1       4.702   1.048  -1.421  1.00  0.00     0.012 C 
ENDBRANCH  17  19
BRANCH  18  21
HETATM   21  O2  UNL     1       2.511   2.010  -0.086  1.00  0.00    -0.388 OA
HETATM   22  H18 UNL     1       1.622   2.400  -0.363  1.00  0.00     0.210 HD
ENDBRANCH  18  21
ENDBRANCH  11  13
ENDBRANCH   1  11
BRANCH  10  23
HETATM   23  O1  UNL     1      -1.596   1.330  -1.469  1.00  0.00    -0.362 OA
HETATM   24  H16 UNL     1      -1.007   1.302  -2.289  1.00  0.00     0.217 HD
ENDBRANCH  10  23
TORSDOF 5
