REMARK  3 active torsions:
REMARK  status: ('A' for Active; 'I' for Inactive)
REMARK    1  A    between atoms: O1_2  and  C2_3 
REMARK    2  A    between atoms: C5_6  and  C6_7 
REMARK    3  A    between atoms: C6_7  and  C7_8 
ROOT
HETATM    1  C7  UNL     1      -0.961  -0.531   0.698  1.00  0.00    -0.064 C 
HETATM    2  C8  UNL     1      -1.309  -1.726   1.212  1.00  0.00     0.023 C 
HETATM    3  C9  UNL     1      -2.179  -2.906   0.983  1.00  0.00     0.113 C 
HETATM    4  N1  UNL     1      -3.263  -2.907   0.271  1.00  0.00    -0.276 NA
HETATM    5  C10 UNL     1      -4.109  -2.103  -0.516  1.00  0.00     0.317 C 
HETATM    6  O2  UNL     1      -3.618  -1.009  -1.137  1.00  0.00    -0.360 OA
HETATM    7  C11 UNL     1      -3.090  -0.036  -0.332  1.00  0.00     0.158 A 
HETATM    8  C12 UNL     1      -3.740   1.254  -0.628  1.00  0.00     0.006 A 
HETATM    9  C13 UNL     1      -3.240   2.401  -1.050  1.00  0.00    -0.002 A 
HETATM   10  C14 UNL     1      -1.775   2.368  -1.258  1.00  0.00    -0.003 A 
HETATM   11  C15 UNL     1      -1.093   1.254  -1.021  1.00  0.00    -0.015 A 
HETATM   12  C16 UNL     1      -1.588  -0.032  -0.553  1.00  0.00     0.070 A 
ENDROOT
BRANCH   1  13
HETATM   13  C6  UNL     1       0.055   0.103   1.589  1.00  0.00     0.073 C 
BRANCH  13  14
HETATM   14  C5  UNL     1       1.387   0.253   1.010  1.00  0.00    -0.054 A 
HETATM   15  C4  UNL     1       2.062  -0.979   1.039  1.00  0.00     0.010 A 
HETATM   16  C3  UNL     1       3.370  -1.127   0.566  1.00  0.00     0.037 A 
HETATM   17  C2  UNL     1       4.050  -0.046   0.048  1.00  0.00     0.068 A 
HETATM   18  C18 UNL     1       3.398   1.166   0.015  1.00  0.00     0.037 A 
HETATM   19  C17 UNL     1       2.114   1.292   0.483  1.00  0.00     0.010 A 
BRANCH  17  20
HETATM   20  O1  UNL     1       5.346  -0.184  -0.422  1.00  0.00    -0.356 OA
HETATM   21  C1  UNL     1       5.993   0.958  -0.942  1.00  0.00     0.210 C 
ENDBRANCH  17  20
ENDBRANCH  13  14
ENDBRANCH   1  13
TORSDOF 3
