REMARK  2 active torsions:
REMARK  status: ('A' for Active; 'I' for Inactive)
REMARK    1  A    between atoms: C5_6  and  N1_7 
REMARK    2  A    between atoms: N1_7  and  C6_8 
ROOT
HETATM    1  C6  UNL     1       0.949   0.476  -0.973  1.00  0.00     0.238 A 
HETATM    2  N2  UNL     1       1.148   1.624  -1.812  1.00  0.00    -0.358 N 
HETATM    3  C7  UNL     1       0.022   2.321  -2.394  1.00  0.00     0.207 A 
HETATM    4  N3  UNL     1      -1.226   2.001  -2.229  1.00  0.00    -0.218 NA
HETATM    5  C8  UNL     1      -1.508   0.871  -1.407  1.00  0.00     0.197 A 
HETATM    6  C9  UNL     1      -0.489   0.221  -0.865  1.00  0.00     0.102 A 
HETATM    7  N4  UNL     1      -0.652  -0.934  -0.018  1.00  0.00    -0.382 N 
HETATM    8  C10 UNL     1      -1.697  -1.536   0.749  1.00  0.00     0.161 C 
HETATM    9  C11 UNL     1      -3.061  -1.122   0.401  1.00  0.00    -0.005 A 
HETATM   10  C12 UNL     1      -3.904  -1.900   1.187  1.00  0.00     0.030 A 
HETATM   11  C13 UNL     1      -5.289  -1.743   1.089  1.00  0.00     0.011 A 
HETATM   12 BR2  UNL     1      -6.504  -2.779   2.140  1.00  0.00    -0.051 Br
HETATM   13  C14 UNL     1      -5.791  -0.817   0.211  1.00  0.00     0.022 A 
HETATM   14  C15 UNL     1      -4.962  -0.041  -0.573  1.00  0.00     0.039 A 
HETATM   15  C16 UNL     1      -3.597  -0.200  -0.472  1.00  0.00     0.086 A 
HETATM   16  O1  UNL     1      -2.872   0.636  -1.310  1.00  0.00    -0.290 OA
HETATM   17  H6  UNL     1       2.013   2.113  -2.122  1.00  0.00     0.162 HD
HETATM   18  H8  UNL     1       0.218  -1.535   0.101  1.00  0.00     0.160 HD
ENDROOT
BRANCH   1  19
HETATM   19  N1  UNL     1       1.654   0.467   0.264  1.00  0.00    -0.364 N 
HETATM   20  H4  UNL     1       1.042   0.462   1.109  1.00  0.00     0.162 HD
BRANCH  19  21
HETATM   21  C5  UNL     1       3.063   0.465   0.435  1.00  0.00     0.031 A 
HETATM   22  C4  UNL     1       3.970   0.459  -0.593  1.00  0.00     0.029 A 
HETATM   23  C3  UNL     1       5.341   0.461  -0.421  1.00  0.00     0.004 A 
HETATM   24  C2  UNL     1       5.833   0.468   0.871  1.00  0.00     0.019 A 
HETATM   25  C1  UNL     1       4.961   0.474   1.939  1.00  0.00     0.013 A 
HETATM   26 BR1  UNL     1       5.648   0.485   3.724  1.00  0.00    -0.051 Br
HETATM   27  C17 UNL     1       3.609   0.473   1.701  1.00  0.00     0.048 A 
ENDBRANCH  19  21
ENDBRANCH   1  19
TORSDOF 2
