REMARK  1 active torsions:
REMARK  status: ('A' for Active; 'I' for Inactive)
REMARK    1  A    between atoms: C7_7  and  O1_8 
ROOT
HETATM    1  C1  UNL     1      -2.379   2.534   1.532  1.00  0.00     0.050 C 
HETATM    2  C2  UNL     1      -2.264   1.314   0.742  1.00  0.00    -0.037 C 
HETATM    3  C3  UNL     1      -3.206   0.395   1.034  1.00  0.00     0.008 C 
HETATM    4  C4  UNL     1      -3.196  -1.063   0.773  1.00  0.00    -0.003 C 
HETATM    5  C5  UNL     1      -2.516  -1.857  -0.075  1.00  0.00    -0.021 C 
HETATM    6  C6  UNL     1      -1.787  -1.704  -1.331  1.00  0.00     0.104 C 
HETATM    7  C7  UNL     1      -0.471  -0.971  -1.242  1.00  0.00     0.223 C 
HETATM    8  C8  UNL     1       0.544  -1.773  -0.618  1.00  0.00    -0.026 C 
HETATM    9  C9  UNL     1       1.381  -2.414  -0.096  1.00  0.00    -0.015 C 
HETATM   10  N1  UNL     1       2.358  -3.138   0.523  1.00  0.00    -0.249 NA
HETATM   11  C10 UNL     1       3.340  -2.259  -0.109  1.00  0.00     0.140 C 
HETATM   12  C11 UNL     1       2.838  -0.845  -0.030  1.00  0.00    -0.044 A 
HETATM   13  C12 UNL     1       2.352  -0.446   1.187  1.00  0.00     0.009 A 
HETATM   14  C13 UNL     1       1.790   0.804   1.300  1.00  0.00     0.012 A 
HETATM   15  C14 UNL     1       1.800   1.495   0.118  1.00  0.00    -0.034 A 
HETATM   16  C15 UNL     1       2.289   1.098  -1.098  1.00  0.00     0.012 A 
HETATM   17  C16 UNL     1       2.852  -0.151  -1.212  1.00  0.00     0.009 A 
HETATM   18  P1  UNL     1       0.939   3.125   0.141  1.00  0.00    -0.089 P 
HETATM   19  C17 UNL     1      -0.834   2.768  -0.430  1.00  0.00     0.095 C 
HETATM   20  C18 UNL     1      -1.137   1.329  -0.215  1.00  0.00     0.043 C 
HETATM   21  N2  UNL     1      -0.527   0.358  -0.754  1.00  0.00    -0.243 NA
HETATM   22  H10 UNL     1       1.486  -3.607   0.841  1.00  0.00     0.137 HD
HETATM   23  H17 UNL     1       1.557   3.998  -0.807  1.00  0.00     0.062 HD
ENDROOT
BRANCH   7  24
HETATM   24  O1  UNL     1      -0.062  -0.844  -2.604  1.00  0.00    -0.359 OA
HETATM   25  H9  UNL     1      -0.214  -1.732  -2.994  1.00  0.00     0.213 HD
ENDBRANCH   7  24
TORSDOF 1
