REMARK  0 active torsions:
REMARK  status: ('A' for Active; 'I' for Inactive)
ROOT
HETATM    1  C1  UNL     1       0.530  -3.333   0.284  1.00  0.00    -0.018 C 
HETATM    2  C2  UNL     1      -0.780  -3.408   0.359  1.00  0.00    -0.025 C 
HETATM    3  C3  UNL     1      -2.152  -2.935   0.384  1.00  0.00     0.065 C 
HETATM    4  C4  UNL     1      -2.258  -1.466   0.313  1.00  0.00    -0.054 A 
HETATM    5  C5  UNL     1      -3.429  -0.971   0.910  1.00  0.00     0.008 A 
HETATM    6  C6  UNL     1      -3.805   0.351   1.014  1.00  0.00     0.013 A 
HETATM    7  C7  UNL     1      -2.985   1.329   0.497  1.00  0.00    -0.025 A 
HETATM    8  C8  UNL     1      -3.307   2.664   0.580  1.00  0.00     0.012 A 
HETATM    9  C9  UNL     1      -2.420   3.573   0.041  1.00  0.00     0.002 A 
HETATM   10  C10 UNL     1      -1.263   3.105  -0.549  1.00  0.00     0.010 A 
HETATM   11  C11 UNL     1      -0.901   1.778  -0.655  1.00  0.00    -0.029 A 
HETATM   12  C12 UNL     1      -1.822   0.913  -0.102  1.00  0.00    -0.018 A 
HETATM   13  C13 UNL     1      -1.534  -0.416  -0.160  1.00  0.00     0.020 A 
HETATM   14  C14 UNL     1       0.365   1.327  -1.275  1.00  0.00     0.159 C 
HETATM   15  N1  UNL     1       1.444   1.256  -0.288  1.00  0.00    -0.385 N 
HETATM   16  C15 UNL     1       2.803   0.830  -0.270  1.00  0.00     0.046 A 
HETATM   17  C16 UNL     1       3.907   1.679  -0.403  1.00  0.00     0.049 A 
HETATM   18  C17 UNL     1       5.203   1.147  -0.397  1.00  0.00     0.122 A 
HETATM   19  N2  UNL     1       5.428  -0.166  -0.266  1.00  0.00    -0.236 NA
HETATM   20  C18 UNL     1       4.414  -1.019  -0.134  1.00  0.00     0.184 A 
HETATM   21  C19 UNL     1       3.165  -0.465  -0.145  1.00  0.00     0.074 A 
HETATM   22  C20 UNL     1       2.689  -1.792   0.019  1.00  0.00     0.081 A 
HETATM   23  C21 UNL     1       1.814  -2.707   0.156  1.00  0.00     0.080 C 
HETATM   24  O1  UNL     1       4.002  -2.332   0.023  1.00  0.00    -0.294 OA
HETATM   25  H13 UNL     1       1.515   1.527   0.717  1.00  0.00     0.160 HD
ENDROOT
TORSDOF 0
