REMARK  2 active torsions:
REMARK  status: ('A' for Active; 'I' for Inactive)
REMARK    1  A    between atoms: C2_2  and  N1_3 
REMARK    2  A    between atoms: N1_3  and  C3_4 
ROOT
HETATM    1  C3  UNL     1       3.569   0.288  -1.235  1.00  0.00     0.181 C 
HETATM    2  C4  UNL     1       2.299   0.111  -0.957  1.00  0.00     0.028 C 
HETATM    3  C5  UNL     1       1.386   1.237  -1.242  1.00  0.00     0.313 C 
HETATM    4  N2  UNL     1       0.034   1.004  -0.974  1.00  0.00     0.091 NA
HETATM    5  C6  UNL     1      -0.415   0.897   0.359  1.00  0.00     0.305 C 
HETATM    6  C7  UNL     1      -1.917   0.610   0.309  1.00  0.00    -0.033 C 
HETATM    7  C8  UNL     1      -3.168   1.021   0.197  1.00  0.00    -0.024 C 
HETATM    8  C9  UNL     1      -4.245   2.010   0.036  1.00  0.00     0.012 C 
HETATM    9  C10 UNL     1      -5.490   1.580  -0.088  1.00  0.00     0.002 C 
HETATM   10  C11 UNL     1      -5.788   0.147  -0.065  1.00  0.00     0.013 C 
HETATM   11  C12 UNL     1      -4.869  -0.796  -0.017  1.00  0.00    -0.018 C 
HETATM   12  C13 UNL     1      -3.646  -0.372   0.199  1.00  0.00    -0.028 C 
HETATM   13  C14 UNL     1      -2.328  -0.859   0.497  1.00  0.00     0.055 C 
HETATM   14  C15 UNL     1      -1.603  -1.664  -0.522  1.00  0.00     0.040 C 
HETATM   15  C16 UNL     1      -1.098  -2.923   0.055  1.00  0.00    -0.029 C 
HETATM   16  C17 UNL     1       0.237  -2.956   0.149  1.00  0.00    -0.021 C 
HETATM   17  C18 UNL     1       1.539  -2.334  -0.034  1.00  0.00     0.051 C 
HETATM   18  C19 UNL     1       2.304  -1.280  -0.413  1.00  0.00    -0.035 C 
HETATM   19  C20 UNL     1       3.673  -1.732  -0.175  1.00  0.00     0.213 C 
HETATM   20  O1  UNL     1       4.397  -0.768  -0.959  1.00  0.00    -0.329 OA
HETATM   21  H5  UNL     1      -0.553   1.685  -1.493  1.00  0.00     0.316 HD
ENDROOT
BRANCH   1  22
HETATM   22  N1  UNL     1       4.111   1.476  -1.786  1.00  0.00    -0.185 NA
BRANCH  22  23
HETATM   23  C2  UNL     1       4.888   2.249  -1.103  1.00  0.00    -0.041 C 
HETATM   24  C1  UNL     1       5.795   2.682  -0.240  1.00  0.00     0.119 C 
ENDBRANCH  22  23
ENDBRANCH   1  22
TORSDOF 2
