REMARK  4 active torsions:
REMARK  status: ('A' for Active; 'I' for Inactive)
REMARK    1  A    between atoms: C5_6  and  C6_7 
REMARK    2  A    between atoms: C6_7  and  N1_9 
REMARK    3  A    between atoms: N1_9  and  C8_10 
REMARK    4  A    between atoms: C8_10  and  C9_11 
ROOT
HETATM    1  C8  UNL     1      -0.075   0.617   0.201  1.00  0.00     0.159 C 
ENDROOT
BRANCH   1   2
HETATM    2  N1  UNL     1       0.626  -0.237  -0.707  1.00  0.00    -0.386 N 
HETATM    3  H8  UNL     1       0.078  -0.533  -1.546  1.00  0.00     0.160 HD
BRANCH   2   4
HETATM    4  C6  UNL     1       1.938  -0.488  -0.241  1.00  0.00     0.031 C 
HETATM    5  C7  UNL     1       1.602  -1.652   0.258  1.00  0.00     0.043 C 
BRANCH   4   6
HETATM    6  C5  UNL     1       3.186   0.252  -0.296  1.00  0.00     0.019 C 
HETATM    7  C2  UNL     1       4.473  -0.152   0.236  1.00  0.00    -0.029 C 
HETATM    8  C1  UNL     1       4.852  -1.384   0.560  1.00  0.00     0.022 C 
HETATM    9  C3  UNL     1       5.178   1.182   0.293  1.00  0.00     0.213 C 
HETATM   10  O1  UNL     1       4.503   1.843  -0.756  1.00  0.00    -0.358 OA
HETATM   11  C4  UNL     1       3.192   1.422  -0.881  1.00  0.00     0.149 C 
ENDBRANCH   4   6
ENDBRANCH   2   4
ENDBRANCH   1   2
BRANCH   1  12
HETATM   12  C9  UNL     1      -1.473   0.925  -0.190  1.00  0.00    -0.029 A 
HETATM   13  C10 UNL     1      -1.820   2.153  -0.735  1.00  0.00     0.010 A 
HETATM   14  C11 UNL     1      -3.132   2.445  -1.100  1.00  0.00     0.002 A 
HETATM   15  C12 UNL     1      -4.139   1.514  -0.929  1.00  0.00     0.012 A 
HETATM   16  C13 UNL     1      -3.816   0.285  -0.388  1.00  0.00    -0.025 A 
HETATM   17  C14 UNL     1      -4.782  -0.684  -0.193  1.00  0.00     0.012 A 
HETATM   18  C18 UNL     1      -2.519   0.024  -0.038  1.00  0.00    -0.018 A 
HETATM   19  C15 UNL     1      -4.519  -1.930   0.345  1.00  0.00     0.001 A 
HETATM   20  C16 UNL     1      -3.199  -2.181   0.694  1.00  0.00     0.001 A 
HETATM   21  C17 UNL     1      -2.235  -1.213   0.499  1.00  0.00     0.013 A 
ENDBRANCH   1  12
TORSDOF 4
