REMARK  0 active torsions:
REMARK  status: ('A' for Active; 'I' for Inactive)
ROOT
HETATM    1  C1  UNL     1      -1.896   3.795  -0.585  1.00  0.00     0.039 C 
HETATM    2  C2  UNL     1      -1.036   2.628  -0.214  1.00  0.00     0.007 C 
HETATM    3  C3  UNL     1      -0.887   1.382   0.202  1.00  0.00     0.083 C 
HETATM    4  O1  UNL     1       0.117   0.519   0.468  1.00  0.00    -0.309 OA
HETATM    5  C4  UNL     1       1.453   0.676   0.566  1.00  0.00     0.087 A 
HETATM    6  C5  UNL     1       1.849   1.669   1.410  1.00  0.00     0.038 A 
HETATM    7  C6  UNL     1       3.164   2.022   1.681  1.00  0.00     0.004 A 
HETATM    8  C7  UNL     1       4.162   1.294   1.029  1.00  0.00     0.012 A 
HETATM    9  C8  UNL     1       3.761   0.280   0.166  1.00  0.00    -0.023 A 
HETATM   10  C9  UNL     1       4.824  -0.376  -0.424  1.00  0.00     0.012 A 
HETATM   11  C10 UNL     1       4.607  -1.411  -1.309  1.00  0.00     0.002 A 
HETATM   12  C11 UNL     1       3.286  -1.722  -1.545  1.00  0.00     0.009 A 
HETATM   13  C12 UNL     1       2.228  -1.095  -0.980  1.00  0.00    -0.031 A 
HETATM   14  C13 UNL     1       2.447  -0.053  -0.088  1.00  0.00     0.015 A 
HETATM   15  C14 UNL     1       0.836  -1.432  -1.266  1.00  0.00     0.131 C 
HETATM   16  N1  UNL     1       0.151  -2.034  -0.117  1.00  0.00    -0.295 NA
HETATM   17  P1  UNL     1      -1.552  -2.061  -0.514  1.00  0.00    -0.040 P 
HETATM   18  C15 UNL     1      -2.266  -3.173   0.431  1.00  0.00    -0.004 C 
HETATM   19  C16 UNL     1      -3.606  -2.596   0.063  1.00  0.00     0.064 C 
HETATM   20  C17 UNL     1      -3.581  -1.159   0.442  1.00  0.00    -0.060 A 
HETATM   21  C18 UNL     1      -2.410  -0.674   0.162  1.00  0.00    -0.005 A 
HETATM   22  C19 UNL     1      -2.167   0.709   0.459  1.00  0.00     0.006 A 
HETATM   23  C20 UNL     1      -3.340   1.110   0.985  1.00  0.00    -0.007 A 
HETATM   24  C21 UNL     1      -4.349  -0.014   1.019  1.00  0.00     0.063 A 
HETATM   25  H13 UNL     1       0.552  -2.970   0.074  1.00  0.00     0.127 HD
HETATM   26  H14 UNL     1      -1.808  -2.229  -1.868  1.00  0.00     0.077 HD
ENDROOT
TORSDOF 0
