REMARK  4 active torsions:
REMARK  status: ('A' for Active; 'I' for Inactive)
REMARK    1  A    between atoms: P1_3  and  C3_4 
REMARK    2  A    between atoms: C7_10  and  N2_11 
REMARK    3  A    between atoms: N2_11  and  C8_12 
REMARK    4  A    between atoms: C8_12  and  C9_13 
ROOT
HETATM    1  C1  UNL     1       6.516   2.555   0.351  1.00  0.00     0.018 C 
HETATM    2  C2  UNL     1       6.473   1.357   0.188  1.00  0.00    -0.074 C 
HETATM    3  P1  UNL     1       6.432  -0.426  -0.044  1.00  0.00     0.071 P 
ENDROOT
BRANCH   3   4
HETATM    4  C3  UNL     1       4.967  -1.244  -0.134  1.00  0.00     0.106 A 
HETATM    5  O1  UNL     1       4.673  -2.610  -0.308  1.00  0.00    -0.289 OA
HETATM    6  C4  UNL     1       3.302  -2.767  -0.312  1.00  0.00     0.182 A 
HETATM    7  N1  UNL     1       2.700  -3.968  -0.462  1.00  0.00    -0.236 NA
HETATM    8  C18 UNL     1       2.585  -1.603  -0.152  1.00  0.00     0.053 A 
HETATM    9  C5  UNL     1       1.357  -4.037  -0.455  1.00  0.00     0.122 A 
HETATM   10  C6  UNL     1       0.660  -2.865  -0.294  1.00  0.00     0.049 A 
HETATM   11  C7  UNL     1       1.207  -1.611  -0.137  1.00  0.00     0.044 A 
HETATM   12  C19 UNL     1       3.651  -0.624  -0.037  1.00  0.00    -0.005 A 
HETATM   13  C20 UNL     1       3.422   0.640   0.130  1.00  0.00     0.047 C 
BRANCH  11  14
HETATM   14  N2  UNL     1       0.487  -0.402   0.030  1.00  0.00    -0.385 N 
HETATM   15  H4  UNL     1       1.013   0.486   0.139  1.00  0.00     0.160 HD
BRANCH  14  16
HETATM   16  C8  UNL     1      -0.925  -0.582   0.023  1.00  0.00     0.158 C 
BRANCH  16  17
HETATM   17  C9  UNL     1      -1.691   0.654   0.198  1.00  0.00    -0.045 A 
HETATM   18  C10 UNL     1      -1.219   1.938   0.371  1.00  0.00     0.008 A 
HETATM   19  C11 UNL     1      -2.017   3.046   0.529  1.00  0.00     0.001 A 
HETATM   20  C12 UNL     1      -3.373   2.813   0.506  1.00  0.00     0.011 A 
HETATM   21  C13 UNL     1      -3.906   1.544   0.336  1.00  0.00    -0.041 A 
HETATM   22  C14 UNL     1      -5.254   1.516   0.342  1.00  0.00     0.010 A 
HETATM   23  C17 UNL     1      -3.030   0.502   0.187  1.00  0.00    -0.084 A 
HETATM   24  C15 UNL     1      -5.986   0.400   0.193  1.00  0.00    -0.015 A 
HETATM   25  C16 UNL     1      -5.599  -0.878   0.015  1.00  0.00    -0.080 A 
HETATM   26  B1  UNL     1      -3.791  -1.133  -0.033  1.00  0.00     0.212 B 
ENDBRANCH  16  17
ENDBRANCH  14  16
ENDBRANCH  11  14
ENDBRANCH   3   4
TORSDOF 4
