REMARK  3 active torsions:
REMARK  status: ('A' for Active; 'I' for Inactive)
REMARK    1  A    between atoms: C3_3  and  C4_4 
REMARK    2  A    between atoms: C4_4  and  N1_5 
REMARK    3  A    between atoms: N1_5  and  C5_6 
ROOT
HETATM    1  C5  UNL     1       0.987   0.533   1.080  1.00  0.00     0.045 A 
HETATM    2  C6  UNL     1       0.226  -0.247   1.929  1.00  0.00     0.049 A 
HETATM    3  C7  UNL     1       0.709  -1.320   2.639  1.00  0.00     0.122 A 
HETATM    4  N2  UNL     1       2.015  -1.639   2.503  1.00  0.00    -0.236 NA
HETATM    5  C8  UNL     1       2.836  -0.938   1.700  1.00  0.00     0.183 A 
HETATM    6  O1  UNL     1       4.104  -1.046   1.408  1.00  0.00    -0.290 OA
HETATM    7  C9  UNL     1       4.470  -0.119   0.560  1.00  0.00     0.089 A 
HETATM    8  C10 UNL     1       5.685   0.158  -0.023  1.00  0.00     0.038 A 
HETATM    9  C11 UNL     1       5.810   1.212  -0.900  1.00  0.00     0.003 A 
HETATM   10  C12 UNL     1       4.666   1.976  -1.167  1.00  0.00     0.001 A 
HETATM   11  C13 UNL     1       3.467   1.672  -0.567  1.00  0.00     0.015 A 
HETATM   12  C14 UNL     1       3.347   0.633   0.296  1.00  0.00     0.015 A 
HETATM   13  C15 UNL     1       2.296   0.127   1.014  1.00  0.00     0.057 A 
ENDROOT
BRANCH   1  14
HETATM   14  N1  UNL     1       0.369   1.619   0.425  1.00  0.00    -0.385 N 
HETATM   15  H5  UNL     1       0.696   2.345  -0.219  1.00  0.00     0.160 HD
BRANCH  14  16
HETATM   16  C4  UNL     1      -1.032   1.837   0.646  1.00  0.00     0.159 C 
BRANCH  16  17
HETATM   17  C3  UNL     1      -1.791   0.705   0.016  1.00  0.00    -0.029 A 
HETATM   18  C2  UNL     1      -3.236   0.531   0.030  1.00  0.00    -0.026 A 
HETATM   19  C1  UNL     1      -4.036   1.396   0.624  1.00  0.00     0.025 C 
HETATM   20  C22 UNL     1      -3.677  -0.669  -0.664  1.00  0.00    -0.016 A 
HETATM   21  C17 UNL     1      -2.488  -1.209  -1.093  1.00  0.00    -0.025 A 
HETATM   22  C21 UNL     1      -4.899  -1.254  -0.919  1.00  0.00     0.013 A 
HETATM   23  C16 UNL     1      -1.392  -0.355  -0.664  1.00  0.00     0.022 A 
HETATM   24  C18 UNL     1      -2.471  -2.395  -1.817  1.00  0.00     0.012 A 
HETATM   25  C19 UNL     1      -3.709  -2.990  -2.076  1.00  0.00     0.001 A 
HETATM   26  C20 UNL     1      -4.901  -2.432  -1.637  1.00  0.00     0.001 A 
ENDBRANCH  16  17
ENDBRANCH  14  16
ENDBRANCH   1  14
TORSDOF 3
