REMARK  3 active torsions:
REMARK  status: ('A' for Active; 'I' for Inactive)
REMARK    1  A    between atoms: N1_1  and  C1_2 
REMARK    2  A    between atoms: C6_8  and  C7_9 
REMARK    3  A    between atoms: C7_9  and  C8_10 
ROOT
HETATM    1  C1  UNL     1       5.179   0.677  -0.035  1.00  0.00     0.039 C 
HETATM    2  C2  UNL     1       4.032   0.005   0.077  1.00  0.00     0.031 C 
HETATM    3  C3  UNL     1       2.972  -0.941   0.299  1.00  0.00     0.077 A 
HETATM    4  N2  UNL     1       2.856  -2.278   0.554  1.00  0.00    -0.260 NA
HETATM    5  C4  UNL     1       1.589  -2.818   0.537  1.00  0.00     0.118 A 
HETATM    6  C5  UNL     1       0.600  -1.900   0.256  1.00  0.00     0.027 A 
HETATM    7  C6  UNL     1       0.666  -0.554  -0.004  1.00  0.00    -0.041 A 
HETATM    8  C18 UNL     1       1.982  -0.034   0.025  1.00  0.00     0.012 A 
HETATM    9  C19 UNL     1       2.954   1.043  -0.033  1.00  0.00     0.201 C 
HETATM   10  O1  UNL     1       3.119   1.824  -1.170  1.00  0.00    -0.348 OA
HETATM   11  C20 UNL     1       4.315   2.598  -1.302  1.00  0.00     0.138 C 
HETATM   12  C21 UNL     1       5.363   1.983  -0.712  1.00  0.00     0.053 C 
ENDROOT
BRANCH   7  13
HETATM   13  C7  UNL     1      -0.317   0.442  -0.309  1.00  0.00     0.078 C 
BRANCH  13  14
HETATM   14  C8  UNL     1      -1.785   0.078  -0.268  1.00  0.00    -0.041 C 
HETATM   15  C9  UNL     1      -2.869  -0.013  -1.115  1.00  0.00    -0.048 C 
HETATM   16  C10 UNL     1      -3.636  -1.311  -1.297  1.00  0.00     0.004 C 
HETATM   17  C17 UNL     1      -3.736   1.000  -1.853  1.00  0.00     0.066 C 
HETATM   18  C11 UNL     1      -3.166  -2.335  -0.532  1.00  0.00    -0.021 C 
HETATM   19  C12 UNL     1      -3.112  -1.830   0.920  1.00  0.00     0.066 C 
HETATM   20  C13 UNL     1      -2.881  -0.329   0.675  1.00  0.00    -0.048 C 
HETATM   21  C14 UNL     1      -3.836   0.417   1.348  1.00  0.00     0.007 C 
HETATM   22  C15 UNL     1      -4.487   1.530   0.548  1.00  0.00    -0.003 C 
HETATM   23  C16 UNL     1      -4.453   1.844  -0.783  1.00  0.00    -0.022 C 
ENDBRANCH  13  14
ENDBRANCH   7  13
BRANCH   1  24
HETATM   24  N1  UNL     1       6.342  -0.067   0.393  1.00  0.00    -0.398 N 
HETATM   25  H1  UNL     1       7.022   0.066   1.168  1.00  0.00     0.156 HD
HETATM   26  H2  UNL     1       6.576  -0.913  -0.163  1.00  0.00     0.156 HD
ENDBRANCH   1  24
TORSDOF 3
