REMARK  1 active torsions:
REMARK  status: ('A' for Active; 'I' for Inactive)
REMARK    1  A    between atoms: N1_6  and  C6_7 
ROOT
HETATM    1  C1  UNL     1      -2.823  -1.799   0.746  1.00  0.00     0.020 C 
HETATM    2  C2  UNL     1      -2.003  -2.779   0.279  1.00  0.00     0.002 C 
HETATM    3  C3  UNL     1      -1.054  -2.394  -0.771  1.00  0.00     0.034 C 
HETATM    4  C4  UNL     1       0.373  -2.613  -0.426  1.00  0.00    -0.009 C 
HETATM    5  C5  UNL     1       1.566  -2.069  -0.304  1.00  0.00     0.094 C 
HETATM    6  N1  UNL     1       1.921  -0.737  -0.537  1.00  0.00    -0.317 N 
HETATM    7  C12 UNL     1       1.095   0.303  -1.110  1.00  0.00     0.215 C 
HETATM    8  N2  UNL     1       0.886   1.171  -0.147  1.00  0.00    -0.237 NA
HETATM    9  C13 UNL     1       0.119   2.330  -0.327  1.00  0.00     0.235 C 
HETATM   10  N3  UNL     1      -0.547   2.458  -1.429  1.00  0.00    -0.234 NA
HETATM   11  C14 UNL     1      -1.352   3.607  -1.689  1.00  0.00     0.255 C 
HETATM   12  N4  UNL     1      -2.559   3.372  -1.231  1.00  0.00    -0.173 NA
HETATM   13  N5  UNL     1      -2.753   2.129  -0.635  1.00  0.00    -0.313 N 
HETATM   14  C15 UNL     1      -2.893   0.784  -0.058  1.00  0.00     0.145 C 
HETATM   15  C16 UNL     1      -3.999   0.902   0.976  1.00  0.00     0.048 C 
HETATM   16  C17 UNL     1      -4.288  -0.351   1.680  1.00  0.00    -0.029 C 
HETATM   17  C18 UNL     1      -3.913  -1.646   1.753  1.00  0.00    -0.025 C 
HETATM   18  H15 UNL     1      -3.369   2.938  -0.314  1.00  0.00     0.182 HD
ENDROOT
BRANCH   6  19
HETATM   19  C6  UNL     1       3.206  -0.236  -0.216  1.00  0.00     0.039 A 
HETATM   20  C7  UNL     1       4.148  -0.984   0.465  1.00  0.00     0.030 A 
HETATM   21  C8  UNL     1       5.403  -0.535   0.789  1.00  0.00     0.002 A 
HETATM   22  C9  UNL     1       5.797   0.738   0.432  1.00  0.00     0.000 A 
HETATM   23  C10 UNL     1       4.905   1.536  -0.250  1.00  0.00     0.002 A 
HETATM   24  C11 UNL     1       3.683   1.015  -0.531  1.00  0.00     0.030 A 
ENDBRANCH   6  19
TORSDOF 1
