REMARK  2 active torsions:
REMARK  status: ('A' for Active; 'I' for Inactive)
REMARK    1  A    between atoms: C9_9  and  N1_10 
REMARK    2  A    between atoms: N1_10  and  C10_11 
ROOT
HETATM    1  C10 UNL     1      -0.656   0.864   0.884  1.00  0.00     0.025 C 
HETATM    2  P1  UNL     1      -1.191   0.135   2.284  1.00  0.00     0.011 P 
HETATM    3  C11 UNL     1      -2.921   0.451   2.798  1.00  0.00     0.130 C 
HETATM    4  N2  UNL     1      -4.104   0.897   2.758  1.00  0.00    -0.274 NA
HETATM    5  C12 UNL     1      -4.694   1.701   1.752  1.00  0.00     0.323 C 
HETATM    6  O1  UNL     1      -4.797   1.146   0.493  1.00  0.00    -0.330 OA
HETATM    7  C13 UNL     1      -3.863   0.667  -0.376  1.00  0.00     0.077 A 
HETATM    8  C14 UNL     1      -4.552  -0.246  -1.190  1.00  0.00     0.037 A 
HETATM    9  C15 UNL     1      -3.969  -0.982  -2.233  1.00  0.00     0.003 A 
HETATM   10  C16 UNL     1      -2.624  -0.780  -2.458  1.00  0.00     0.001 A 
HETATM   11  C17 UNL     1      -1.948   0.115  -1.660  1.00  0.00     0.010 A 
HETATM   12  C18 UNL     1      -2.521   0.835  -0.639  1.00  0.00    -0.019 A 
HETATM   13  C19 UNL     1      -1.620   1.728   0.103  1.00  0.00     0.099 C 
ENDROOT
BRANCH   1  14
HETATM   14  N1  UNL     1       0.683   0.479   0.693  1.00  0.00    -0.380 N 
HETATM   15  H8  UNL     1       1.154   1.287   1.203  1.00  0.00     0.160 HD
BRANCH  14  16
HETATM   16  C9  UNL     1       1.502  -0.555   0.088  1.00  0.00     0.139 A 
HETATM   17  C8  UNL     1       2.927  -0.179   0.185  1.00  0.00    -0.022 A 
HETATM   18  C3  UNL     1       4.107  -0.772   0.574  1.00  0.00    -0.028 A 
HETATM   19  C7  UNL     1       2.950   1.150  -0.260  1.00  0.00     0.010 A 
HETATM   20  C2  UNL     1       4.218  -2.143   1.054  1.00  0.00     0.012 A 
HETATM   21  C4  UNL     1       5.315  -0.099   0.540  1.00  0.00     0.012 A 
HETATM   22  C1  UNL     1       3.264  -3.032   1.290  1.00  0.00     0.001 A 
HETATM   23  C21 UNL     1       1.814  -2.957   1.159  1.00  0.00    -0.002 A 
HETATM   24  C20 UNL     1       1.211  -1.888   0.651  1.00  0.00     0.003 A 
HETATM   25  C5  UNL     1       5.324   1.205   0.102  1.00  0.00     0.001 A 
HETATM   26  C6  UNL     1       4.162   1.844  -0.301  1.00  0.00     0.001 A 
ENDBRANCH  14  16
ENDBRANCH   1  14
TORSDOF 2
