REMARK  6 active torsions:
REMARK  status: ('A' for Active; 'I' for Inactive)
REMARK    1  A    between atoms: C3_3  and  C4_4 
REMARK    2  A    between atoms: C9_9  and  C10_10 
REMARK    3  A    between atoms: C10_10  and  N1_11 
REMARK    4  A    between atoms: N1_11  and  C11_12 
REMARK    5  A    between atoms: C11_12  and  C12_13 
REMARK    6  A    between atoms: N2_14  and  C13_15 
ROOT
HETATM    1  N1  UNL     1      -0.791  -2.237   1.323  1.00  0.00    -0.416 NA
ENDROOT
BRANCH   1   2
HETATM    2  C10 UNL     1      -0.149  -1.070   1.894  1.00  0.00     0.144 C 
BRANCH   2   3
HETATM    3  C9  UNL     1       1.290  -1.122   1.460  1.00  0.00    -0.039 C 
HETATM    4  C8  UNL     1       2.196  -1.179   2.443  1.00  0.00     0.007 C 
HETATM    5  C7  UNL     1       3.651  -1.239   2.349  1.00  0.00     0.003 C 
HETATM    6  C6  UNL     1       4.334  -0.788   1.284  1.00  0.00     0.037 C 
HETATM    7  C5  UNL     1       3.871  -0.177   0.048  1.00  0.00     0.069 C 
HETATM    8  C4  UNL     1       4.712   0.448  -0.724  1.00  0.00     0.036 C 
HETATM    9  O2  UNL     1       2.547  -0.233  -0.350  1.00  0.00    -0.347 OA
HETATM   10  C21 UNL     1       1.489  -1.103  -0.029  1.00  0.00     0.211 C 
BRANCH   8  11
HETATM   11  C3  UNL     1       6.123   0.608  -0.474  1.00  0.00    -0.002 C 
HETATM   12  C2  UNL     1       6.917   1.262  -1.317  1.00  0.00    -0.031 C 
HETATM   13  C1  UNL     1       8.356   1.513  -1.214  1.00  0.00     0.036 C 
ENDBRANCH   8  11
ENDBRANCH   2   3
ENDBRANCH   1   2
BRANCH   1  14
HETATM   14  C11 UNL     1      -1.822  -2.177   0.568  1.00  0.00     0.294 C 
BRANCH  14  15
HETATM   15  C12 UNL     1      -2.992  -2.194  -0.297  1.00  0.00     0.138 C 
HETATM   16  N2  UNL     1      -3.144  -0.933  -0.304  1.00  0.00    -0.235 NA
BRANCH  16  17
HETATM   17  C13 UNL     1      -4.141  -0.203  -0.979  1.00  0.00     0.178 C 
HETATM   18  C14 UNL     1      -4.402   1.044  -0.387  1.00  0.00     0.059 C 
HETATM   19  C15 UNL     1      -5.619   1.684  -0.551  1.00  0.00     0.001 C 
HETATM   20  C16 UNL     1      -6.875   2.267  -0.619  1.00  0.00    -0.013 C 
HETATM   21  C17 UNL     1      -7.875   1.515  -1.296  1.00  0.00     0.074 A 
HETATM   22  C18 UNL     1      -8.128   1.014  -2.599  1.00  0.00     0.006 A 
HETATM   23  C19 UNL     1      -6.977   0.478  -2.424  1.00  0.00     0.021 A 
HETATM   24  C20 UNL     1      -5.986   0.030  -2.259  1.00  0.00     0.019 C 
HETATM   25  O1  UNL     1      -4.877  -0.459  -2.057  1.00  0.00    -0.249 OA
ENDBRANCH  16  17
ENDBRANCH  14  15
ENDBRANCH   1  14
TORSDOF 6
