REMARK  0 active torsions:
REMARK  status: ('A' for Active; 'I' for Inactive)
ROOT
HETATM    1  C1  UNL     1       1.723  -3.017  -0.493  1.00  0.00     0.010 C 
HETATM    2  C2  UNL     1       1.392  -1.834  -1.317  1.00  0.00    -0.014 C 
HETATM    3  C3  UNL     1       2.537  -0.831  -1.191  1.00  0.00     0.039 C 
HETATM    4  C4  UNL     1       2.352  -0.082   0.111  1.00  0.00    -0.066 C 
HETATM    5  C5  UNL     1       1.716  -0.416   1.258  1.00  0.00    -0.022 C 
HETATM    6  C6  UNL     1       0.455  -0.707   1.947  1.00  0.00     0.028 C 
HETATM    7  C7  UNL     1      -0.349  -1.835   1.410  1.00  0.00     0.013 C 
HETATM    8  C8  UNL     1      -0.782  -1.756  -0.003  1.00  0.00     0.022 C 
HETATM    9  C9  UNL     1       0.134  -1.111  -0.975  1.00  0.00     0.014 C 
HETATM   10  C10 UNL     1      -2.111  -1.092  -0.084  1.00  0.00    -0.019 A 
HETATM   11  C11 UNL     1      -3.288  -1.848  -0.149  1.00  0.00     0.010 A 
HETATM   12  C12 UNL     1      -4.573  -1.366  -0.225  1.00  0.00     0.002 A 
HETATM   13  C13 UNL     1      -4.724   0.007  -0.238  1.00  0.00     0.014 A 
HETATM   14  C14 UNL     1      -3.580   0.788  -0.175  1.00  0.00     0.003 A 
HETATM   15  C15 UNL     1      -3.465   2.184  -0.172  1.00  0.00     0.072 A 
HETATM   16  C16 UNL     1      -2.100   2.365  -0.094  1.00  0.00     0.169 A 
HETATM   17  O1  UNL     1      -1.480   1.238  -0.054  1.00  0.00    -0.291 OA
HETATM   18  C17 UNL     1      -2.317   0.249  -0.100  1.00  0.00     0.095 A 
HETATM   19  N1  UNL     1      -1.215   3.482  -0.046  1.00  0.00    -0.253 NA
HETATM   20  C18 UNL     1      -0.079   3.449   0.609  1.00  0.00     0.033 C 
HETATM   21  B1  UNL     1       1.026   4.705   0.724  1.00  0.00     0.236 B 
HETATM   22  C19 UNL     1       2.803   4.351   0.490  1.00  0.00    -0.088 C 
HETATM   23  C20 UNL     1       2.955   3.511  -0.518  1.00  0.00     0.077 C 
HETATM   24  N2  UNL     1       2.196   2.281  -0.559  1.00  0.00    -0.395 N 
HETATM   25  C21 UNL     1       3.012   1.276   0.097  1.00  0.00     0.152 C 
HETATM   26  H21 UNL     1       1.252   2.137  -0.977  1.00  0.00     0.159 HD
ENDROOT
TORSDOF 0
