REMARK  6 active torsions:
REMARK  status: ('A' for Active; 'I' for Inactive)
REMARK    1  A    between atoms: C2_2  and  C3_3 
REMARK    2  A    between atoms: C3_3  and  C4_4 
REMARK    3  A    between atoms: C8_8  and  N1_9 
REMARK    4  A    between atoms: N1_9  and  C9_10 
REMARK    5  A    between atoms: C9_10  and  C10_11 
REMARK    6  A    between atoms: C10_11  and  C11_12 
ROOT
HETATM    1  C4  UNL     1       4.928  -1.746   0.844  1.00  0.00     0.041 C 
HETATM    2  C5  UNL     1       3.938  -1.112   0.234  1.00  0.00     0.060 A 
HETATM    3  C6  UNL     1       2.489  -1.401   0.390  1.00  0.00     0.110 A 
HETATM    4  C7  UNL     1       1.871  -0.396  -0.516  1.00  0.00     0.028 A 
HETATM    5  C8  UNL     1       0.526  -0.153  -0.812  1.00  0.00     0.040 A 
HETATM    6  C17 UNL     1       0.316   0.870  -1.709  1.00  0.00     0.049 A 
HETATM    7  C18 UNL     1       1.291   1.638  -2.308  1.00  0.00     0.122 A 
HETATM    8  N2  UNL     1       2.578   1.354  -1.981  1.00  0.00    -0.236 NA
HETATM    9  C19 UNL     1       2.835   0.373  -1.118  1.00  0.00     0.178 A 
HETATM   10  O1  UNL     1       4.061  -0.063  -0.664  1.00  0.00    -0.295 OA
ENDROOT
BRANCH   5  11
HETATM   11  N1  UNL     1      -0.496  -0.935  -0.227  1.00  0.00    -0.389 N 
HETATM   12  H7  UNL     1      -0.168  -1.698   0.416  1.00  0.00     0.159 HD
BRANCH  11  13
HETATM   13  C9  UNL     1      -1.935  -0.883  -0.347  1.00  0.00     0.124 C 
BRANCH  13  14
HETATM   14  C10 UNL     1      -2.426   0.352   0.370  1.00  0.00     0.058 C 
BRANCH  14  15
HETATM   15  C11 UNL     1      -3.906   0.471   0.283  1.00  0.00    -0.057 A 
HETATM   16  C12 UNL     1      -4.664  -0.107   1.253  1.00  0.00     0.007 A 
HETATM   17  C13 UNL     1      -6.056  -0.034   1.234  1.00  0.00     0.001 A 
HETATM   18  C14 UNL     1      -6.620   0.658   0.170  1.00  0.00     0.000 A 
HETATM   19  C15 UNL     1      -5.891   1.249  -0.821  1.00  0.00     0.001 A 
HETATM   20  C16 UNL     1      -4.501   1.152  -0.760  1.00  0.00     0.007 A 
ENDBRANCH  14  15
ENDBRANCH  13  14
ENDBRANCH  11  13
ENDBRANCH   5  11
BRANCH   1  21
HETATM   21  C3  UNL     1       6.306  -1.344   0.585  1.00  0.00     0.053 C 
BRANCH  21  22
HETATM   22  C2  UNL     1       6.583  -0.076   0.317  1.00  0.00    -0.155 C 
HETATM   23  C1  UNL     1       6.569   1.224   0.066  1.00  0.00     0.096 C 
ENDBRANCH  21  22
ENDBRANCH   1  21
TORSDOF 6
