REMARK  2 active torsions:
REMARK  status: ('A' for Active; 'I' for Inactive)
REMARK    1  A    between atoms: C9_9  and  N1_10 
REMARK    2  A    between atoms: N1_10  and  C10_11 
ROOT
HETATM    1  C10 UNL     1      -1.021  -0.165   1.367  1.00  0.00     0.025 A 
HETATM    2  C11 UNL     1      -0.977  -0.685   2.678  1.00  0.00     0.044 A 
HETATM    3  C12 UNL     1      -1.960  -1.253   3.438  1.00  0.00     0.121 A 
HETATM    4  N2  UNL     1      -3.125  -1.302   2.797  1.00  0.00    -0.236 NA
HETATM    5  C13 UNL     1      -3.317  -0.849   1.559  1.00  0.00     0.182 A 
HETATM    6  O1  UNL     1      -4.453  -0.880   0.905  1.00  0.00    -0.290 OA
HETATM    7  C14 UNL     1      -4.296  -0.346  -0.288  1.00  0.00     0.089 A 
HETATM    8  C15 UNL     1      -5.136  -0.123  -1.357  1.00  0.00     0.038 A 
HETATM    9  C16 UNL     1      -4.660   0.489  -2.523  1.00  0.00     0.003 A 
HETATM   10  C17 UNL     1      -3.312   0.870  -2.576  1.00  0.00     0.001 A 
HETATM   11  C18 UNL     1      -2.542   0.611  -1.468  1.00  0.00     0.015 A 
HETATM   12  C19 UNL     1      -2.971   0.014  -0.314  1.00  0.00     0.014 A 
HETATM   13  C20 UNL     1      -2.288  -0.285   0.842  1.00  0.00     0.051 A 
ENDROOT
BRANCH   1  14
HETATM   14  N1  UNL     1       0.010   0.357   0.577  1.00  0.00    -0.283 NA
HETATM   15  H8  UNL     1       0.667   0.294   1.361  1.00  0.00     0.128 HD
BRANCH  14  16
HETATM   16  C9  UNL     1       1.209   0.830   0.069  1.00  0.00     0.097 C 
HETATM   17  C8  UNL     1       2.453   0.016   0.223  1.00  0.00    -0.030 A 
HETATM   18  C3  UNL     1       3.627   0.270  -0.432  1.00  0.00    -0.029 A 
HETATM   19  C7  UNL     1       2.517  -0.956   1.187  1.00  0.00     0.009 A 
HETATM   20  C2  UNL     1       3.717   1.110  -1.621  1.00  0.00     0.008 C 
HETATM   21  C4  UNL     1       4.810  -0.417  -0.121  1.00  0.00     0.012 A 
HETATM   22  C1  UNL     1       2.479   1.527  -1.931  1.00  0.00    -0.024 C 
HETATM   23  C21 UNL     1       1.160   1.309  -1.362  1.00  0.00     0.052 C 
HETATM   24  C5  UNL     1       4.853  -1.391   0.859  1.00  0.00     0.001 A 
HETATM   25  C6  UNL     1       3.652  -1.660   1.527  1.00  0.00     0.001 A 
ENDBRANCH  14  16
ENDBRANCH   1  14
TORSDOF 2
