REMARK  1 active torsions:
REMARK  status: ('A' for Active; 'I' for Inactive)
REMARK    1  A    between atoms: N2_12  and  C10_13 
ROOT
HETATM    1  C1  UNL     1      -1.349   2.678  -0.917  1.00  0.00     0.105 C 
HETATM    2  N1  UNL     1      -2.291   2.350  -0.220  1.00  0.00    -0.278 NA
HETATM    3  C2  UNL     1      -3.678   2.337  -0.266  1.00  0.00     0.323 C 
HETATM    4  O1  UNL     1      -4.086   1.437   0.781  1.00  0.00    -0.330 OA
HETATM    5  C3  UNL     1      -3.611   0.102   0.734  1.00  0.00     0.079 A 
HETATM    6  C4  UNL     1      -4.612  -0.784   0.408  1.00  0.00     0.037 A 
HETATM    7  C5  UNL     1      -4.358  -2.138   0.311  1.00  0.00     0.003 A 
HETATM    8  C6  UNL     1      -3.077  -2.582   0.548  1.00  0.00     0.001 A 
HETATM    9  C7  UNL     1      -2.114  -1.650   0.871  1.00  0.00     0.011 A 
HETATM   10  C8  UNL     1      -2.284  -0.287   0.988  1.00  0.00    -0.007 A 
HETATM   11  C9  UNL     1      -1.195   0.631   1.353  1.00  0.00     0.164 C 
HETATM   12  N2  UNL     1      -0.234   0.958   0.335  1.00  0.00    -0.372 N 
HETATM   13  C20 UNL     1      -0.133   2.356  -0.127  1.00  0.00     0.169 C 
ENDROOT
BRANCH  12  14
HETATM   14  C10 UNL     1       0.677   0.103  -0.333  1.00  0.00     0.030 C 
HETATM   15  C11 UNL     1       1.113  -1.188  -0.421  1.00  0.00     0.029 C 
HETATM   16  C12 UNL     1       2.278  -1.790  -0.106  1.00  0.00     0.002 C 
HETATM   17  C13 UNL     1       3.150  -1.555   0.902  1.00  0.00     0.000 C 
HETATM   18  C14 UNL     1       4.344  -0.900   1.064  1.00  0.00     0.000 C 
HETATM   19  C15 UNL     1       5.214  -0.907  -0.002  1.00  0.00     0.000 C 
HETATM   20  C16 UNL     1       4.816  -0.925  -1.318  1.00  0.00     0.000 C 
HETATM   21  C17 UNL     1       3.975  -0.016  -1.913  1.00  0.00     0.000 C 
HETATM   22  C18 UNL     1       2.906   0.744  -1.497  1.00  0.00     0.002 C 
HETATM   23  C19 UNL     1       1.555   0.577  -1.310  1.00  0.00     0.029 C 
ENDBRANCH  12  14
TORSDOF 1
