REMARK  5 active torsions:
REMARK  status: ('A' for Active; 'I' for Inactive)
REMARK    1  A    between atoms: N1_1  and  C1_2 
REMARK    2  A    between atoms: C1_2  and  C2_3 
REMARK    3  A    between atoms: C3_4  and  C4_5 
REMARK    4  A    between atoms: C10_13  and  N3_14 
REMARK    5  A    between atoms: N3_14  and  S1_15 
ROOT
HETATM    1  C4  UNL     1       1.899  -0.519   0.442  1.00  0.00     0.010 C 
HETATM    2  C5  UNL     1       1.446  -1.462  -0.366  1.00  0.00    -0.017 C 
HETATM    3  C6  UNL     1       2.127  -2.095  -1.524  1.00  0.00     0.217 C 
HETATM    4  O1  UNL     1       1.496  -3.380  -1.515  1.00  0.00    -0.329 OA
HETATM    5  C7  UNL     1       0.203  -3.258  -0.994  1.00  0.00     0.177 A 
HETATM    6  N2  UNL     1      -0.939  -3.981  -1.024  1.00  0.00    -0.236 NA
HETATM    7  C8  UNL     1      -2.055  -3.578  -0.399  1.00  0.00     0.122 A 
HETATM    8  C9  UNL     1      -2.158  -2.417   0.322  1.00  0.00     0.052 A 
HETATM    9  C10 UNL     1      -1.004  -1.662   0.367  1.00  0.00     0.079 A 
HETATM   10  C16 UNL     1       0.138  -2.101  -0.289  1.00  0.00     0.054 A 
ENDROOT
BRANCH   9  11
HETATM   11  N3  UNL     1      -1.061  -0.430   1.114  1.00  0.00    -0.235 NA
BRANCH  11  12
HETATM   12  S1  UNL     1      -1.626   0.795   0.317  1.00  0.00    -0.142 SA
HETATM   13  C11 UNL     1      -2.317   0.320  -1.044  1.00  0.00     0.043 C 
HETATM   14  C12 UNL     1      -3.779   0.435  -1.133  1.00  0.00     0.003 C 
HETATM   15  C13 UNL     1      -4.462   1.338  -0.485  1.00  0.00    -0.025 C 
HETATM   16  C14 UNL     1      -3.790   2.331   0.405  1.00  0.00     0.037 C 
HETATM   17  C15 UNL     1      -2.798   1.641   1.317  1.00  0.00     0.081 C 
HETATM   18  H12 UNL     1      -0.582   1.645   0.036  1.00  0.00     0.108 HD
ENDBRANCH  11  12
ENDBRANCH   9  11
BRANCH   1  19
HETATM   19  C3  UNL     1       3.240   0.008   0.215  1.00  0.00    -0.002 C 
HETATM   20  C2  UNL     1       3.720   0.947   1.002  1.00  0.00     0.003 C 
BRANCH  20  21
HETATM   21  C1  UNL     1       5.014   1.633   0.988  1.00  0.00     0.294 C 
BRANCH  21  22
HETATM   22  N1  UNL     1       4.917   3.068   0.815  1.00  0.00     0.081 N 
HETATM   23  H1  UNL     1       4.277   3.342   0.040  1.00  0.00     0.313 HD
HETATM   24  H2  UNL     1       4.591   3.552   1.681  1.00  0.00     0.313 HD
ENDBRANCH  21  22
ENDBRANCH  20  21
ENDBRANCH   1  19
TORSDOF 5
