REMARK  7 active torsions:
REMARK  status: ('A' for Active; 'I' for Inactive)
REMARK    1  A    between atoms: C2_2  and  C3_3 
REMARK    2  A    between atoms: C3_3  and  C4_4 
REMARK    3  A    between atoms: C5_6  and  C6_7 
REMARK    4  A    between atoms: C6_7  and  N1_8 
REMARK    5  A    between atoms: N1_8  and  C7_9 
REMARK    6  A    between atoms: C12_17  and  C13_18 
REMARK    7  A    between atoms: C13_18  and  O1_20 
ROOT
HETATM    1  C7  UNL     1       1.212   0.805   0.561  1.00  0.00     0.156 A 
HETATM    2  N2  UNL     1       1.956   1.763   1.116  1.00  0.00    -0.222 NA
HETATM    3  C8  UNL     1       1.494   2.975   1.444  1.00  0.00     0.238 A 
HETATM    4  N3  UNL     1       0.208   3.303   1.224  1.00  0.00    -0.215 NA
HETATM    5  C9  UNL     1      -0.639   2.393   0.659  1.00  0.00     0.201 A 
HETATM    6  C10 UNL     1      -0.088   1.147   0.342  1.00  0.00     0.128 A 
HETATM    7  N4  UNL     1      -0.791   0.086  -0.251  1.00  0.00    -0.379 N 
HETATM    8  C11 UNL     1      -2.166  -0.353  -0.239  1.00  0.00     0.159 C 
HETATM    9  C12 UNL     1      -3.146   0.694   0.066  1.00  0.00    -0.012 C 
HETATM   10  C16 UNL     1      -3.077   1.983   0.356  1.00  0.00     0.151 C 
HETATM   11  O2  UNL     1      -1.956   2.833   0.474  1.00  0.00    -0.302 OA
HETATM   12  H9  UNL     1      -0.148  -0.523  -0.842  1.00  0.00     0.160 HD
ENDROOT
BRANCH   1  13
HETATM   13  N1  UNL     1       1.789  -0.455   0.262  1.00  0.00    -0.369 N 
HETATM   14  H7  UNL     1       1.432  -1.341  -0.139  1.00  0.00     0.161 HD
BRANCH  13  15
HETATM   15  C6  UNL     1       3.216  -0.625   0.569  1.00  0.00     0.150 C 
BRANCH  15  16
HETATM   16  C5  UNL     1       3.949   0.368  -0.245  1.00  0.00     0.012 C 
HETATM   17  C4  UNL     1       4.838  -0.039  -1.111  1.00  0.00     0.015 C 
HETATM   18 BR1  UNL     1       5.903   1.031  -2.266  1.00  0.00    -0.051 Br
BRANCH  17  19
HETATM   19  C3  UNL     1       5.148  -1.438  -1.319  1.00  0.00     0.069 C 
BRANCH  19  20
HETATM   20  C2  UNL     1       6.139  -1.985  -0.665  1.00  0.00    -0.154 C 
HETATM   21  C1  UNL     1       7.172  -2.310   0.098  1.00  0.00     0.096 C 
ENDBRANCH  19  20
ENDBRANCH  17  19
ENDBRANCH  15  16
ENDBRANCH  13  15
ENDBRANCH   1  13
BRANCH   9  22
HETATM   22  C13 UNL     1      -4.464   0.021   0.006  1.00  0.00     0.149 C 
HETATM   23  C14 UNL     1      -5.613   0.956   0.289  1.00  0.00     0.044 C 
BRANCH  22  24
HETATM   24  O1  UNL     1      -4.663  -0.743  -1.126  1.00  0.00    -0.387 OA
HETATM   25  C15 UNL     1      -4.834  -2.084  -0.915  1.00  0.00     0.202 C 
ENDBRANCH  22  24
ENDBRANCH   9  22
TORSDOF 7
