REMARK  4 active torsions:
REMARK  status: ('A' for Active; 'I' for Inactive)
REMARK    1  A    between atoms: C4_4  and  C5_5 
REMARK    2  A    between atoms: C5_5  and  C6_6 
REMARK    3  A    between atoms: C6_6  and  N1_7 
REMARK    4  A    between atoms: N1_7  and  C7_8 
ROOT
HETATM    1  C7  UNL     1      -0.899   0.796  -0.223  1.00  0.00     0.045 A 
HETATM    2  C8  UNL     1      -0.054   1.865   0.031  1.00  0.00     0.049 A 
HETATM    3  C9  UNL     1      -0.485   3.081   0.463  1.00  0.00     0.122 A 
HETATM    4  N2  UNL     1      -1.808   3.310   0.671  1.00  0.00    -0.236 NA
HETATM    5  C10 UNL     1      -2.690   2.322   0.446  1.00  0.00     0.183 A 
HETATM    6  O1  UNL     1      -3.993   2.256   0.558  1.00  0.00    -0.290 OA
HETATM    7  C11 UNL     1      -4.441   1.085   0.231  1.00  0.00     0.089 A 
HETATM    8  C12 UNL     1      -5.716   0.567   0.197  1.00  0.00     0.038 A 
HETATM    9  C13 UNL     1      -5.917  -0.739  -0.197  1.00  0.00     0.003 A 
HETATM   10  C14 UNL     1      -4.802  -1.505  -0.554  1.00  0.00     0.001 A 
HETATM   11  C15 UNL     1      -3.540  -0.954  -0.508  1.00  0.00     0.015 A 
HETATM   12  C16 UNL     1      -3.338   0.339  -0.119  1.00  0.00     0.015 A 
HETATM   13  C17 UNL     1      -2.210   1.106   0.010  1.00  0.00     0.057 A 
ENDROOT
BRANCH   1  14
HETATM   14  N1  UNL     1      -0.342  -0.394  -0.697  1.00  0.00    -0.389 N 
HETATM   15  H8  UNL     1      -0.742  -1.292  -0.996  1.00  0.00     0.159 HD
BRANCH  14  16
HETATM   16  C6  UNL     1       1.094  -0.510  -0.839  1.00  0.00     0.124 C 
BRANCH  16  17
HETATM   17  C5  UNL     1       1.724  -0.659   0.493  1.00  0.00     0.058 C 
BRANCH  17  18
HETATM   18  C4  UNL     1       3.172  -0.772   0.567  1.00  0.00    -0.057 A 
HETATM   19  C3  UNL     1       3.843  -1.988   0.516  1.00  0.00     0.007 A 
HETATM   20  C2  UNL     1       5.210  -2.130   0.583  1.00  0.00     0.001 A 
HETATM   21  C1  UNL     1       5.975  -0.989   0.710  1.00  0.00     0.000 A 
HETATM   22  C19 UNL     1       5.348   0.260   0.766  1.00  0.00     0.001 A 
HETATM   23  C18 UNL     1       3.953   0.352   0.694  1.00  0.00     0.007 A 
ENDBRANCH  17  18
ENDBRANCH  16  17
ENDBRANCH  14  16
ENDBRANCH   1  14
TORSDOF 4
