REMARK  6 active torsions:
REMARK  status: ('A' for Active; 'I' for Inactive)
REMARK    1  A    between atoms: C1_1  and  C19_22 
REMARK    2  A    between atoms: C3_3  and  C4_4 
REMARK    3  A    between atoms: C5_5  and  C6_6 
REMARK    4  A    between atoms: C6_6  and  C7_7 
REMARK    5  A    between atoms: C7_7  and  N1_8 
REMARK    6  A    between atoms: N1_8  and  C8_9 
ROOT
HETATM    1  C8  UNL     1      -0.718   0.333   0.335  1.00  0.00     0.045 A 
HETATM    2  C9  UNL     1      -0.036   1.452   0.710  1.00  0.00     0.049 A 
HETATM    3  C10 UNL     1      -0.641   2.688   0.944  1.00  0.00     0.122 A 
HETATM    4  N2  UNL     1      -1.991   2.808   0.796  1.00  0.00    -0.236 NA
HETATM    5  C11 UNL     1      -2.696   1.725   0.428  1.00  0.00     0.183 A 
HETATM    6  O1  UNL     1      -3.976   1.556   0.216  1.00  0.00    -0.290 OA
HETATM    7  C12 UNL     1      -4.259   0.336  -0.132  1.00  0.00     0.089 A 
HETATM    8  C13 UNL     1      -5.448  -0.271  -0.444  1.00  0.00     0.038 A 
HETATM    9  C14 UNL     1      -5.449  -1.593  -0.782  1.00  0.00     0.003 A 
HETATM   10  C15 UNL     1      -4.251  -2.289  -0.801  1.00  0.00     0.001 A 
HETATM   11  C16 UNL     1      -3.086  -1.652  -0.484  1.00  0.00     0.015 A 
HETATM   12  C17 UNL     1      -3.059  -0.338  -0.145  1.00  0.00     0.015 A 
HETATM   13  C18 UNL     1      -2.059   0.526   0.207  1.00  0.00     0.057 A 
ENDROOT
BRANCH   1  14
HETATM   14  N1  UNL     1       0.023  -0.838   0.173  1.00  0.00    -0.389 N 
HETATM   15  H8  UNL     1      -0.317  -1.783  -0.060  1.00  0.00     0.159 HD
BRANCH  14  16
HETATM   16  C7  UNL     1       1.449  -1.027   0.285  1.00  0.00     0.121 C 
BRANCH  16  17
HETATM   17  C6  UNL     1       2.096  -0.452  -0.958  1.00  0.00     0.035 C 
BRANCH  17  18
HETATM   18  C5  UNL     1       3.518  -0.594  -1.039  1.00  0.00     0.006 A 
HETATM   19  C4  UNL     1       3.998   0.526  -0.033  1.00  0.00     0.038 A 
HETATM   20  C19 UNL     1       4.638  -0.403  -0.834  1.00  0.00    -0.060 A 
BRANCH  19  21
HETATM   21  C3  UNL     1       5.527   0.807   0.264  1.00  0.00     0.033 A 
HETATM   22  C2  UNL     1       6.749   0.010  -0.402  1.00  0.00     0.033 A 
HETATM   23  C1  UNL     1       5.649  -0.214  -0.635  1.00  0.00    -0.065 A 
ENDBRANCH  19  21
ENDBRANCH  17  18
ENDBRANCH  16  17
ENDBRANCH  14  16
ENDBRANCH   1  14
TORSDOF 6
