REMARK  4 active torsions:
REMARK  status: ('A' for Active; 'I' for Inactive)
REMARK    1  A    between atoms: C3_4  and  N1_5 
REMARK    2  A    between atoms: N1_5  and  C4_6 
REMARK    3  A    between atoms: C4_6  and  C5_7 
REMARK    4  A    between atoms: C11_13  and  C12_14 
ROOT
HETATM    1  B1  UNL     1      -1.847  -3.664  -1.434  1.00  0.00     0.199 B 
HETATM    2  C1  UNL     1      -0.156  -3.786  -0.745  1.00  0.00    -0.079 C 
HETATM    3  C2  UNL     1       0.153  -2.676  -0.047  1.00  0.00     0.014 C 
HETATM    4  C3  UNL     1      -0.463  -1.494   0.161  1.00  0.00     0.038 C 
HETATM    5  C11 UNL     1      -1.675  -1.109  -0.342  1.00  0.00     0.009 C 
HETATM    6  C17 UNL     1      -2.366  -1.978  -1.141  1.00  0.00    -0.066 C 
ENDROOT
BRANCH   4   7
HETATM    7  N1  UNL     1       0.325  -0.689   1.033  1.00  0.00    -0.389 N 
HETATM    8  H3  UNL     1      -0.008   0.227   1.324  1.00  0.00     0.159 HD
BRANCH   7   9
HETATM    9  C4  UNL     1       1.581  -0.769   1.693  1.00  0.00     0.128 C 
BRANCH   9  10
HETATM   10  C5  UNL     1       2.737  -0.085   1.050  1.00  0.00     0.029 A 
HETATM   11  C6  UNL     1       2.501   1.385   0.890  1.00  0.00    -0.020 A 
HETATM   12  C7  UNL     1       2.714   2.177  -0.143  1.00  0.00    -0.004 A 
HETATM   13  C8  UNL     1       3.266   1.560  -1.339  1.00  0.00    -0.004 A 
HETATM   14  C9  UNL     1       3.500   0.274  -1.277  1.00  0.00    -0.026 A 
HETATM   15  C10 UNL     1       3.303  -0.721  -0.180  1.00  0.00     0.037 A 
ENDBRANCH   9  10
ENDBRANCH   7   9
ENDBRANCH   4   7
BRANCH   5  16
HETATM   16  C12 UNL     1      -2.280   0.185  -0.081  1.00  0.00     0.082 A 
HETATM   17  C13 UNL     1      -3.448   0.482  -0.582  1.00  0.00     0.015 A 
HETATM   18  C14 UNL     1      -4.243   1.718  -0.453  1.00  0.00     0.059 A 
HETATM   19  C15 UNL     1      -3.558   2.725   0.379  1.00  0.00     0.002 A 
HETATM   20  C16 UNL     1      -2.388   2.430   0.882  1.00  0.00     0.139 A 
HETATM   21  O1  UNL     1      -1.784   1.223   0.662  1.00  0.00    -0.323 OA
ENDBRANCH   5  16
TORSDOF 4
