REMARK  8 active torsions:
REMARK  status: ('A' for Active; 'I' for Inactive)
REMARK    1  A    between atoms: O1_1  and  C1_2 
REMARK    2  A    between atoms: C1_2  and  C2_3 
REMARK    3  A    between atoms: C3_4  and  C4_5 
REMARK    4  A    between atoms: C8_9  and  N1_10 
REMARK    5  A    between atoms: N1_10  and  C9_11 
REMARK    6  A    between atoms: C9_11  and  C10_12 
REMARK    7  A    between atoms: C10_12  and  C11_13 
REMARK    8  A    between atoms: C11_13  and  C12_14 
ROOT
HETATM    1  C4  UNL     1       4.574  -1.419   0.294  1.00  0.00     0.033 C 
HETATM    2  C5  UNL     1       3.778  -0.361   0.277  1.00  0.00     0.060 A 
HETATM    3  C6  UNL     1       2.299  -0.378   0.124  1.00  0.00     0.110 A 
HETATM    4  C7  UNL     1       1.995   1.074   0.183  1.00  0.00     0.028 A 
HETATM    5  C8  UNL     1       0.776   1.708   0.097  1.00  0.00     0.040 A 
HETATM    6  C17 UNL     1       0.732   3.091   0.178  1.00  0.00     0.049 A 
HETATM    7  C18 UNL     1       1.891   3.832   0.343  1.00  0.00     0.122 A 
HETATM    8  N2  UNL     1       3.071   3.176   0.424  1.00  0.00    -0.236 NA
HETATM    9  C19 UNL     1       3.139   1.828   0.347  1.00  0.00     0.178 A 
HETATM   10  O2  UNL     1       4.236   0.950   0.405  1.00  0.00    -0.295 OA
ENDROOT
BRANCH   5  11
HETATM   11  N1  UNL     1      -0.415   0.951  -0.072  1.00  0.00    -0.389 N 
HETATM   12  H9  UNL     1      -0.379  -0.073  -0.131  1.00  0.00     0.159 HD
BRANCH  11  13
HETATM   13  C9  UNL     1      -1.715   1.598  -0.165  1.00  0.00     0.120 C 
BRANCH  13  14
HETATM   14  C10 UNL     1      -2.818   0.580  -0.340  1.00  0.00     0.024 C 
BRANCH  14  15
HETATM   15  C11 UNL     1      -4.177   1.239  -0.439  1.00  0.00     0.041 C 
BRANCH  15  16
HETATM   16  C12 UNL     1      -5.265   0.258  -0.610  1.00  0.00    -0.055 A 
HETATM   17  C13 UNL     1      -6.143   0.122  -1.593  1.00  0.00     0.007 A 
HETATM   18  C14 UNL     1      -7.126  -0.927  -1.537  1.00  0.00    -0.003 A 
HETATM   19  C15 UNL     1      -7.238  -1.791  -0.572  1.00  0.00    -0.022 A 
HETATM   20  C16 UNL     1      -6.535  -2.061   0.703  1.00  0.00     0.063 A 
HETATM   21  P1  UNL     1      -5.179  -0.806   0.878  1.00  0.00    -0.096 P 
HETATM   22  H21 UNL     1      -5.380  -0.041   2.091  1.00  0.00     0.062 HD
ENDBRANCH  15  16
ENDBRANCH  14  15
ENDBRANCH  13  14
ENDBRANCH  11  13
ENDBRANCH   5  11
BRANCH   1  23
HETATM   23  C3  UNL     1       6.027  -1.333   0.449  1.00  0.00     0.001 C 
HETATM   24  C2  UNL     1       6.795  -2.407   0.461  1.00  0.00    -0.001 C 
BRANCH  24  25
HETATM   25  C1  UNL     1       8.262  -2.327   0.617  1.00  0.00     0.191 C 
BRANCH  25  26
HETATM   26  O1  UNL     1       8.648  -1.005   0.738  1.00  0.00    -0.397 OA
HETATM   27  H1  UNL     1       9.110  -0.734  -0.073  1.00  0.00     0.209 HD
ENDBRANCH  25  26
ENDBRANCH  24  25
ENDBRANCH   1  23
TORSDOF 8
