REMARK  9 active torsions:
REMARK  status: ('A' for Active; 'I' for Inactive)
REMARK    1  A    between atoms: N1_1  and  C1_2 
REMARK    2  A    between atoms: C1_2  and  C2_3 
REMARK    3  A    between atoms: C3_4  and  C4_5 
REMARK    4  A    between atoms: C3_4  and  N2_14 
REMARK    5  A    between atoms: C5_6  and  O1_7 
REMARK    6  A    between atoms: O1_7  and  C6_8 
REMARK    7  A    between atoms: N2_14  and  C12_15 
REMARK    8  A    between atoms: C12_15  and  C13_16 
REMARK    9  A    between atoms: C13_16  and  C14_17 
ROOT
HETATM    1  C2  UNL     1       0.148   0.470  -1.792  1.00  0.00     0.057 C 
HETATM    2  C3  UNL     1       0.328   0.510  -0.489  1.00  0.00     0.086 C 
ENDROOT
BRANCH   2   3
HETATM    3  C4  UNL     1       1.471  -0.197   0.010  1.00  0.00    -0.018 C 
HETATM    4  C5  UNL     1       2.448  -0.803   0.417  1.00  0.00     0.067 C 
BRANCH   4   5
HETATM    5  O1  UNL     1       3.548  -1.480   0.868  1.00  0.00    -0.261 OA
BRANCH   5   6
HETATM    6  C6  UNL     1       4.818  -0.989   0.645  1.00  0.00     0.087 A 
HETATM    7  C7  UNL     1       5.194   0.154  -0.005  1.00  0.00     0.038 A 
HETATM    8  C8  UNL     1       6.468   0.591  -0.195  1.00  0.00     0.003 A 
HETATM    9  C9  UNL     1       7.482  -0.217   0.329  1.00  0.00     0.000 A 
HETATM   10  C10 UNL     1       7.146  -1.376   0.989  1.00  0.00     0.003 A 
HETATM   11  C11 UNL     1       5.823  -1.784   1.161  1.00  0.00     0.038 A 
ENDBRANCH   5   6
ENDBRANCH   4   5
ENDBRANCH   2   3
BRANCH   2  12
HETATM   12  N2  UNL     1      -0.495   1.180   0.449  1.00  0.00    -0.383 N 
HETATM   13  H9  UNL     1       0.052   2.040   0.727  1.00  0.00     0.160 HD
BRANCH  12  14
HETATM   14  C12 UNL     1      -1.794   0.727   0.886  1.00  0.00     0.125 C 
BRANCH  14  15
HETATM   15  C13 UNL     1      -2.835   0.788  -0.181  1.00  0.00     0.058 C 
BRANCH  15  16
HETATM   16  C14 UNL     1      -4.142   0.311   0.343  1.00  0.00    -0.057 A 
HETATM   17  C15 UNL     1      -5.033   1.220   0.926  1.00  0.00     0.007 A 
HETATM   18  C16 UNL     1      -6.253   0.828   1.424  1.00  0.00     0.001 A 
HETATM   19  C17 UNL     1      -6.648  -0.485   1.367  1.00  0.00     0.000 A 
HETATM   20  C18 UNL     1      -5.776  -1.388   0.794  1.00  0.00     0.001 A 
HETATM   21  C19 UNL     1      -4.546  -1.006   0.289  1.00  0.00     0.007 A 
ENDBRANCH  15  16
ENDBRANCH  14  15
ENDBRANCH  12  14
ENDBRANCH   2  12
BRANCH   1  22
HETATM   22  C1  UNL     1      -0.525   0.771  -3.026  1.00  0.00     0.110 C 
BRANCH  22  23
HETATM   23  N1  UNL     1      -0.793   0.799  -4.270  1.00  0.00    -0.312 NA
HETATM   24  H1  UNL     1      -0.189   0.305  -4.993  1.00  0.00     0.186 HD
ENDBRANCH  22  23
ENDBRANCH   1  22
TORSDOF 9
