REMARK  4 active torsions:
REMARK  status: ('A' for Active; 'I' for Inactive)
REMARK    1  A    between atoms: C3_3  and  N1_4 
REMARK    2  A    between atoms: C3_3  and  C11_12 
REMARK    3  A    between atoms: N1_4  and  C4_5 
REMARK    4  A    between atoms: C4_5  and  C5_6 
ROOT
HETATM    1  C1  UNL     1       0.638   2.978   0.969  1.00  0.00     0.099 C 
HETATM    2  C2  UNL     1       0.516   1.731   0.576  1.00  0.00    -0.125 C 
HETATM    3  C3  UNL     1       0.460   0.479   0.172  1.00  0.00     0.083 C 
ENDROOT
BRANCH   3   4
HETATM    4  N1  UNL     1      -0.832   0.160  -0.377  1.00  0.00    -0.379 N 
HETATM    5  H3  UNL     1      -0.999   0.194  -1.421  1.00  0.00     0.160 HD
BRANCH   4   6
HETATM    6  C4  UNL     1      -1.765  -0.184   0.691  1.00  0.00     0.159 C 
BRANCH   6   7
HETATM    7  C5  UNL     1      -3.105  -0.518   0.163  1.00  0.00    -0.041 A 
HETATM    8  C6  UNL     1      -3.379  -1.813  -0.160  1.00  0.00     0.009 A 
HETATM    9  C7  UNL     1      -4.594  -2.233  -0.660  1.00  0.00     0.001 A 
HETATM   10  C8  UNL     1      -5.560  -1.280  -0.831  1.00  0.00     0.000 A 
HETATM   11  C9  UNL     1      -5.362   0.067  -0.525  1.00  0.00     0.001 A 
HETATM   12  C10 UNL     1      -4.111   0.408  -0.027  1.00  0.00     0.009 A 
ENDBRANCH   6   7
ENDBRANCH   4   6
ENDBRANCH   3   4
BRANCH   3  13
HETATM   13  C11 UNL     1       1.686  -0.284   0.365  1.00  0.00     0.034 A 
HETATM   14  C12 UNL     1       1.771  -1.564   0.894  1.00  0.00     0.157 A 
HETATM   15  O1  UNL     1       3.049  -1.868   0.889  1.00  0.00    -0.321 OA
HETATM   16  C13 UNL     1       3.773  -0.874   0.397  1.00  0.00     0.086 A 
HETATM   17  C14 UNL     1       5.153  -0.850   0.243  1.00  0.00     0.038 A 
HETATM   18  C18 UNL     1       2.939   0.189   0.037  1.00  0.00     0.013 A 
HETATM   19  C15 UNL     1       5.687   0.314  -0.300  1.00  0.00     0.003 A 
HETATM   20  C16 UNL     1       4.872   1.378  -0.663  1.00  0.00     0.001 A 
HETATM   21  C17 UNL     1       3.486   1.314  -0.492  1.00  0.00     0.015 A 
ENDBRANCH   3  13
TORSDOF 4
