REMARK  7 active torsions:
REMARK  status: ('A' for Active; 'I' for Inactive)
REMARK    1  A    between atoms: O1_1  and  C1_2 
REMARK    2  A    between atoms: C2_3  and  C3_4 
REMARK    3  A    between atoms: C4_5  and  C5_6 
REMARK    4  A    between atoms: C5_6  and  C6_7 
REMARK    5  A    between atoms: C10_12  and  N2_13 
REMARK    6  A    between atoms: N2_13  and  C11_14 
REMARK    7  A    between atoms: C11_14  and  C12_15 
ROOT
HETATM    1  C6  UNL     1       0.975   0.865  -0.642  1.00  0.00    -0.011 A 
HETATM    2  C7  UNL     1       1.351   2.012  -1.299  1.00  0.00     0.126 A 
HETATM    3  N1  UNL     1       0.612   3.113  -1.356  1.00  0.00    -0.272 NA
HETATM    4  C8  UNL     1      -0.578   3.136  -0.745  1.00  0.00     0.118 A 
HETATM    5  C9  UNL     1      -0.973   1.997  -0.082  1.00  0.00     0.049 A 
HETATM    6  C10 UNL     1      -0.249   0.833   0.008  1.00  0.00     0.037 A 
ENDROOT
BRANCH   6   7
HETATM    7  N2  UNL     1      -0.749  -0.292   0.708  1.00  0.00    -0.385 N 
HETATM    8  H11 UNL     1      -0.054  -1.101   0.650  1.00  0.00     0.160 HD
BRANCH   7   9
HETATM    9  C11 UNL     1      -1.917  -0.636   1.450  1.00  0.00     0.158 C 
BRANCH   9  10
HETATM   10  C12 UNL     1      -3.180  -0.653   0.701  1.00  0.00    -0.041 A 
HETATM   11  C13 UNL     1      -3.456  -1.852   0.022  1.00  0.00     0.009 A 
HETATM   12  C14 UNL     1      -4.585  -2.094  -0.730  1.00  0.00     0.001 A 
HETATM   13  C15 UNL     1      -5.523  -1.090  -0.833  1.00  0.00     0.000 A 
HETATM   14  C16 UNL     1      -5.296   0.101  -0.186  1.00  0.00     0.001 A 
HETATM   15  C17 UNL     1      -4.167   0.293   0.545  1.00  0.00     0.009 A 
ENDBRANCH   9  10
ENDBRANCH   7   9
ENDBRANCH   6   7
BRANCH   1  16
HETATM   16  C5  UNL     1       1.870  -0.319  -0.605  1.00  0.00     0.069 C 
BRANCH  16  17
HETATM   17  C4  UNL     1       2.617  -0.476   0.647  1.00  0.00    -0.022 C 
HETATM   18  C3  UNL     1       3.933  -0.502   0.779  1.00  0.00    -0.002 C 
BRANCH  18  19
HETATM   19  C2  UNL     1       4.911  -0.381  -0.290  1.00  0.00     0.023 C 
HETATM   20  C1  UNL     1       6.225  -0.407  -0.149  1.00  0.00     0.131 C 
BRANCH  20  21
HETATM   21  O1  UNL     1       7.140  -0.290  -1.180  1.00  0.00    -0.373 OA
HETATM   22  H1  UNL     1       8.076  -0.607  -1.047  1.00  0.00     0.216 HD
ENDBRANCH  20  21
ENDBRANCH  18  19
ENDBRANCH  16  17
ENDBRANCH   1  16
TORSDOF 7
