REMARK  8 active torsions:
REMARK  status: ('A' for Active; 'I' for Inactive)
REMARK    1  A    between atoms: C2_2  and  N1_3 
REMARK    2  A    between atoms: N1_3  and  C3_4 
REMARK    3  A    between atoms: N1_3  and  N2_14 
REMARK    4  A    between atoms: C3_4  and  C4_5 
REMARK    5  A    between atoms: C5_6  and  O1_7 
REMARK    6  A    between atoms: O1_7  and  C6_8 
REMARK    7  A    between atoms: N2_14  and  C12_15 
REMARK    8  A    between atoms: C12_15  and  C13_16 
ROOT
HETATM    1  N1  UNL     1       0.730   0.379   0.252  1.00  0.00    -0.337 N 
ENDROOT
BRANCH   1   2
HETATM    2  C2  UNL     1       0.599   1.603   0.925  1.00  0.00     0.133 C 
HETATM    3  C1  UNL     1       0.817   2.743  -0.051  1.00  0.00     0.028 C 
ENDBRANCH   1   2
BRANCH   1   4
HETATM    4  C3  UNL     1      -0.221  -0.012  -0.706  1.00  0.00     0.232 C 
BRANCH   4   5
HETATM    5  C4  UNL     1      -1.474  -0.275   0.012  1.00  0.00    -0.055 C 
HETATM    6  C5  UNL     1      -2.513  -0.495   0.584  1.00  0.00     0.061 C 
BRANCH   6   7
HETATM    7  O1  UNL     1      -3.702  -0.751   1.213  1.00  0.00    -0.261 OA
BRANCH   7   8
HETATM    8  C6  UNL     1      -4.944  -0.392   0.665  1.00  0.00     0.087 A 
HETATM    9  C7  UNL     1      -6.065  -0.700   1.384  1.00  0.00     0.038 A 
HETATM   10  C8  UNL     1      -7.324  -0.375   0.903  1.00  0.00     0.003 A 
HETATM   11  C9  UNL     1      -7.344   0.263  -0.317  1.00  0.00     0.000 A 
HETATM   12  C10 UNL     1      -6.246   0.577  -1.048  1.00  0.00     0.003 A 
HETATM   13  C11 UNL     1      -4.969   0.253  -0.573  1.00  0.00     0.038 A 
ENDBRANCH   7   8
ENDBRANCH   6   7
ENDBRANCH   4   5
ENDBRANCH   1   4
BRANCH   1  14
HETATM   14  N2  UNL     1       1.934  -0.252   0.230  1.00  0.00    -0.238 NA
HETATM   15  H13 UNL     1       1.759  -1.291   0.150  1.00  0.00     0.146 HD
BRANCH  14  16
HETATM   16  C12 UNL     1       2.744   0.093  -0.923  1.00  0.00     0.148 C 
BRANCH  16  17
HETATM   17  C13 UNL     1       4.009  -0.672  -0.800  1.00  0.00    -0.044 A 
HETATM   18  C14 UNL     1       5.055  -0.046  -0.114  1.00  0.00     0.008 A 
HETATM   19  C15 UNL     1       6.299  -0.623   0.092  1.00  0.00     0.001 A 
HETATM   20  C16 UNL     1       6.539  -1.885  -0.398  1.00  0.00     0.000 A 
HETATM   21  C17 UNL     1       5.514  -2.511  -1.075  1.00  0.00     0.001 A 
HETATM   22  C18 UNL     1       4.279  -1.941  -1.281  1.00  0.00     0.008 A 
ENDBRANCH  16  17
ENDBRANCH  14  16
ENDBRANCH   1  14
TORSDOF 8
