REMARK  5 active torsions:
REMARK  status: ('A' for Active; 'I' for Inactive)
REMARK    1  A    between atoms: C7_7  and  N1_8 
REMARK    2  A    between atoms: N1_8  and  C8_9 
REMARK    3  A    between atoms: C8_9  and  C9_10 
REMARK    4  A    between atoms: C8_9  and  C10_12 
REMARK    5  A    between atoms: C9_10  and  P1_11 
ROOT
HETATM    1  C8  UNL     1       0.197   1.011   0.646  1.00  0.00     0.142 C 
ENDROOT
BRANCH   1   2
HETATM    2  N1  UNL     1      -0.878   0.212   0.137  1.00  0.00    -0.377 N 
HETATM    3  H8  UNL     1      -0.930  -0.074  -0.865  1.00  0.00     0.160 HD
BRANCH   2   4
HETATM    4  C7  UNL     1      -1.933  -0.233   0.978  1.00  0.00     0.034 A 
HETATM    5  C2  UNL     1      -2.985  -1.005   0.521  1.00  0.00    -0.036 A 
HETATM    6  C1  UNL     1      -3.006  -1.387  -0.924  1.00  0.00     0.050 C 
HETATM    7  C3  UNL     1      -4.017  -1.449   1.310  1.00  0.00     0.009 A 
HETATM    8  C4  UNL     1      -4.037  -1.119   2.650  1.00  0.00     0.001 A 
HETATM    9  C5  UNL     1      -3.026  -0.359   3.158  1.00  0.00     0.002 A 
HETATM   10  C6  UNL     1      -2.017   0.058   2.324  1.00  0.00     0.029 A 
ENDBRANCH   2   4
ENDBRANCH   1   2
BRANCH   1  11
HETATM   11  C9  UNL     1       0.926   0.287   1.699  1.00  0.00     0.066 C 
BRANCH  11  12
HETATM   12  P1  UNL     1       1.937   1.177   2.697  1.00  0.00    -0.121 P 
HETATM   13  H11 UNL     1       2.022   2.601   2.452  1.00  0.00     0.055 HD
ENDBRANCH  11  12
ENDBRANCH   1  11
BRANCH   1  14
HETATM   14  C10 UNL     1       1.166   1.402  -0.414  1.00  0.00     0.004 A 
HETATM   15  C11 UNL     1       1.328   2.613  -1.091  1.00  0.00     0.153 A 
HETATM   16  O1  UNL     1       2.316   2.488  -1.944  1.00  0.00    -0.321 OA
HETATM   17  C12 UNL     1       2.831   1.279  -1.890  1.00  0.00     0.085 A 
HETATM   18  C13 UNL     1       3.871   0.653  -2.573  1.00  0.00     0.038 A 
HETATM   19  C17 UNL     1       2.133   0.563  -0.937  1.00  0.00     0.008 A 
HETATM   20  C14 UNL     1       4.196  -0.665  -2.297  1.00  0.00     0.003 A 
HETATM   21  C15 UNL     1       3.488  -1.367  -1.341  1.00  0.00     0.001 A 
HETATM   22  C16 UNL     1       2.442  -0.753  -0.648  1.00  0.00     0.015 A 
ENDBRANCH   1  14
TORSDOF 5
