REMARK  3 active torsions:
REMARK  status: ('A' for Active; 'I' for Inactive)
REMARK    1  A    between atoms: C7_10  and  N2_11 
REMARK    2  A    between atoms: N2_11  and  C8_12 
REMARK    3  A    between atoms: C8_12  and  C9_13 
ROOT
HETATM    1  C1  UNL     1       3.628  -2.058  -1.541  1.00  0.00    -0.002 C 
HETATM    2  C2  UNL     1       4.677  -1.228  -1.371  1.00  0.00     0.002 C 
HETATM    3  C3  UNL     1       4.114   0.107  -1.157  1.00  0.00     0.238 C 
HETATM    4  O1  UNL     1       4.477   0.987  -2.131  1.00  0.00    -0.230 OA
HETATM    5  O2  UNL     1       3.293   1.521  -2.580  1.00  0.00    -0.176 OA
HETATM    6  C4  UNL     1       2.125   1.481  -1.794  1.00  0.00     0.212 A 
HETATM    7  N1  UNL     1       2.038   2.800  -1.570  1.00  0.00    -0.234 NA
HETATM    8  C5  UNL     1       1.062   3.401  -0.835  1.00  0.00     0.122 A 
HETATM    9  C6  UNL     1       0.106   2.577  -0.291  1.00  0.00     0.049 A 
HETATM   10  C7  UNL     1       0.188   1.228  -0.515  1.00  0.00     0.044 A 
HETATM   11  C15 UNL     1       1.164   0.624  -1.251  1.00  0.00     0.046 A 
HETATM   12  C16 UNL     1       1.219  -0.849  -1.454  1.00  0.00     0.018 C 
HETATM   13  C17 UNL     1       2.229  -1.694  -1.538  1.00  0.00     0.001 C 
ENDROOT
BRANCH  10  14
HETATM   14  N2  UNL     1      -0.778   0.361   0.054  1.00  0.00    -0.385 N 
HETATM   15  H7  UNL     1      -0.853  -0.664   0.002  1.00  0.00     0.160 HD
BRANCH  14  16
HETATM   16  C8  UNL     1      -1.843   0.932   0.841  1.00  0.00     0.158 C 
BRANCH  16  17
HETATM   17  C9  UNL     1      -2.772  -0.053   1.386  1.00  0.00    -0.041 A 
HETATM   18  C10 UNL     1      -3.858  -0.357   0.583  1.00  0.00     0.009 A 
HETATM   19  C11 UNL     1      -4.816  -1.278   0.985  1.00  0.00     0.001 A 
HETATM   20  C12 UNL     1      -4.712  -1.922   2.206  1.00  0.00     0.000 A 
HETATM   21  C13 UNL     1      -3.626  -1.609   2.993  1.00  0.00     0.001 A 
HETATM   22  C14 UNL     1      -2.663  -0.686   2.596  1.00  0.00     0.009 A 
ENDBRANCH  16  17
ENDBRANCH  14  16
ENDBRANCH  10  14
TORSDOF 3
