REMARK  3 active torsions:
REMARK  status: ('A' for Active; 'I' for Inactive)
REMARK    1  A    between atoms: C7_10  and  N2_11 
REMARK    2  A    between atoms: N2_11  and  C8_12 
REMARK    3  A    between atoms: C8_12  and  C9_13 
ROOT
HETATM    1  C1  UNL     1      -2.741   1.886  -2.308  1.00  0.00     0.037 A 
HETATM    2  S1  UNL     1      -4.398   1.785  -2.293  1.00  0.00    -0.181 SA
HETATM    3  C2  UNL     1      -4.943   0.613  -1.006  1.00  0.00     0.074 A 
HETATM    4  C3  UNL     1      -3.992   0.046  -0.311  1.00  0.00     0.094 A 
HETATM    5  O1  UNL     1      -4.229  -0.832   0.664  1.00  0.00    -0.290 OA
HETATM    6  C4  UNL     1      -3.090  -1.224   1.174  1.00  0.00     0.183 A 
HETATM    7  N1  UNL     1      -2.941  -2.096   2.166  1.00  0.00    -0.236 NA
HETATM    8  C5  UNL     1      -1.708  -2.410   2.593  1.00  0.00     0.122 A 
HETATM    9  C6  UNL     1      -0.655  -1.790   1.958  1.00  0.00     0.049 A 
HETATM   10  C7  UNL     1      -0.828  -0.888   0.931  1.00  0.00     0.045 A 
HETATM   11  C15 UNL     1      -2.080  -0.574   0.503  1.00  0.00     0.057 A 
HETATM   12  C16 UNL     1      -2.629   0.246  -0.454  1.00  0.00     0.016 A 
HETATM   13  C17 UNL     1      -2.065   1.040  -1.315  1.00  0.00     0.021 A 
HETATM   14  H2  UNL     1      -5.279   2.653  -2.941  1.00  0.00     0.100 HD
ENDROOT
BRANCH  10  15
HETATM   15  N2  UNL     1       0.344  -0.326   0.366  1.00  0.00    -0.385 N 
HETATM   16  H6  UNL     1       0.645   0.331  -0.359  1.00  0.00     0.160 HD
BRANCH  15  17
HETATM   17  C8  UNL     1       1.613  -0.712   0.880  1.00  0.00     0.158 C 
BRANCH  17  18
HETATM   18  C9  UNL     1       2.821  -0.161   0.306  1.00  0.00    -0.041 A 
HETATM   19  C10 UNL     1       3.367   1.005   0.803  1.00  0.00     0.009 A 
HETATM   20  C11 UNL     1       4.513   1.587   0.308  1.00  0.00     0.001 A 
HETATM   21  C12 UNL     1       5.180   0.997  -0.747  1.00  0.00     0.000 A 
HETATM   22  C13 UNL     1       4.658  -0.172  -1.268  1.00  0.00     0.001 A 
HETATM   23  C14 UNL     1       3.499  -0.750  -0.758  1.00  0.00     0.009 A 
ENDBRANCH  17  18
ENDBRANCH  15  17
ENDBRANCH  10  15
TORSDOF 3
