REMARK  0 active torsions:
REMARK  status: ('A' for Active; 'I' for Inactive)
ROOT
HETATM    1  C1  UNL     1       3.338  -0.026   0.012  1.00  0.00    -0.002 C 
HETATM    2  C2  UNL     1       2.670  -0.886   0.743  1.00  0.00     0.001 C 
HETATM    3  C3  UNL     1       1.399  -1.580   0.973  1.00  0.00     0.017 C 
HETATM    4  C4  UNL     1       0.198  -1.686   0.502  1.00  0.00     0.091 C 
HETATM    5  N1  UNL     1      -1.040  -1.635  -0.186  1.00  0.00    -0.350 N 
HETATM    6  C5  UNL     1      -1.586  -2.775  -0.953  1.00  0.00     0.175 A 
HETATM    7  C6  UNL     1      -2.924  -2.355  -1.403  1.00  0.00     0.109 A 
HETATM    8  N2  UNL     1      -3.636  -1.274  -1.307  1.00  0.00    -0.273 NA
HETATM    9  C7  UNL     1      -3.014  -0.185  -0.586  1.00  0.00     0.146 A 
HETATM   10  C8  UNL     1      -1.817  -0.449  -0.114  1.00  0.00     0.065 A 
HETATM   11  C9  UNL     1      -1.255   0.744   0.519  1.00  0.00     0.028 A 
HETATM   12  C10 UNL     1      -1.965   1.187   1.603  1.00  0.00     0.017 A 
HETATM   13  C11 UNL     1      -1.445   2.329   2.225  1.00  0.00     0.001 A 
HETATM   14  C12 UNL     1      -0.294   2.912   1.724  1.00  0.00     0.003 A 
HETATM   15  C13 UNL     1       0.380   2.412   0.619  1.00  0.00     0.040 A 
HETATM   16  C14 UNL     1      -0.086   1.289  -0.037  1.00  0.00     0.111 A 
HETATM   17  O1  UNL     1       0.381   0.614  -1.125  1.00  0.00    -0.241 OA
HETATM   18  N3  UNL     1       1.568   0.717  -1.752  1.00  0.00    -0.286 N 
HETATM   19  C15 UNL     1       2.751   1.470  -2.111  1.00  0.00     0.157 C 
HETATM   20  C16 UNL     1       3.285   0.865  -1.110  1.00  0.00     0.002 C 
HETATM   21  H13 UNL     1       1.047  -0.208  -1.837  1.00  0.00     0.189 HD
ENDROOT
TORSDOF 0
