REMARK  9 active torsions:
REMARK  status: ('A' for Active; 'I' for Inactive)
REMARK    1  A    between atoms: N1_2  and  N2_3 
REMARK    2  A    between atoms: N2_3  and  C2_4 
REMARK    3  A    between atoms: C2_4  and  C3_5 
REMARK    4  A    between atoms: C3_5  and  C4_6 
REMARK    5  A    between atoms: C4_6  and  C5_7 
REMARK    6  A    between atoms: C5_7  and  C6_8 
REMARK    7  A    between atoms: C6_8  and  C7_9 
REMARK    8  A    between atoms: C7_9  and  N3_10 
REMARK    9  A    between atoms: C9_12  and  C10_13 
ROOT
HETATM    1  N3  UNL     1      -1.447   0.983   1.572  1.00  0.00    -0.260 N 
HETATM    2  C8  UNL     1      -2.288   0.721   0.521  1.00  0.00     0.148 A 
HETATM    3  C9  UNL     1      -3.195  -0.272   0.783  1.00  0.00     0.108 A 
HETATM    4  N4  UNL     1      -2.885  -0.619   2.039  1.00  0.00    -0.130 NA
HETATM    5  N5  UNL     1      -1.884   0.102   2.486  1.00  0.00    -0.066 NA
ENDROOT
BRANCH   1   6
HETATM    6  C7  UNL     1      -0.348   1.765   2.023  1.00  0.00     0.152 C 
BRANCH   6   7
HETATM    7  C6  UNL     1       1.036   1.307   1.956  1.00  0.00     0.022 C 
BRANCH   7   8
HETATM    8  C5  UNL     1       1.725   1.008   0.690  1.00  0.00     0.002 C 
BRANCH   8   9
HETATM    9  C4  UNL     1       1.165  -0.112  -0.095  1.00  0.00     0.001 C 
BRANCH   9  10
HETATM   10  C3  UNL     1       1.844  -0.457  -1.383  1.00  0.00     0.015 C 
BRANCH  10  11
HETATM   11  C2  UNL     1       3.247  -0.878  -1.215  1.00  0.00     0.104 C 
BRANCH  11  12
HETATM   12  N2  UNL     1       4.177   0.051  -0.672  1.00  0.00    -0.262 NA
HETATM   13  H5  UNL     1       4.214   0.932  -1.215  1.00  0.00     0.140 HD
BRANCH  12  14
HETATM   14  N1  UNL     1       5.482  -0.431  -0.548  1.00  0.00    -0.266 NA
HETATM   15  C1  UNL     1       6.381   0.708  -0.592  1.00  0.00     0.126 C 
HETATM   16  H4  UNL     1       5.604  -0.911   0.380  1.00  0.00     0.140 HD
ENDBRANCH  12  14
ENDBRANCH  11  12
ENDBRANCH  10  11
ENDBRANCH   9  10
ENDBRANCH   8   9
ENDBRANCH   7   8
ENDBRANCH   6   7
ENDBRANCH   1   6
BRANCH   3  17
HETATM   17  C10 UNL     1      -4.155  -0.659  -0.243  1.00  0.00    -0.004 A 
HETATM   18  C11 UNL     1      -4.271  -0.124  -1.507  1.00  0.00     0.014 A 
HETATM   19  C12 UNL     1      -5.256  -0.641  -2.322  1.00  0.00     0.001 A 
HETATM   20  C13 UNL     1      -6.086  -1.644  -1.899  1.00  0.00     0.000 A 
HETATM   21  C14 UNL     1      -5.991  -2.196  -0.641  1.00  0.00     0.001 A 
HETATM   22  C15 UNL     1      -5.000  -1.684   0.196  1.00  0.00     0.014 A 
ENDBRANCH   3  17
TORSDOF 9
