REMARK  2 active torsions:
REMARK  status: ('A' for Active; 'I' for Inactive)
REMARK    1  A    between atoms: N2_12  and  C10_13 
REMARK    2  A    between atoms: C10_13  and  C11_14 
ROOT
HETATM    1  C1  UNL     1      -0.199  -2.783  -1.073  1.00  0.00     0.112 A 
HETATM    2  N1  UNL     1      -1.496  -2.865  -1.022  1.00  0.00    -0.237 NA
HETATM    3  C2  UNL     1      -2.172  -1.718  -0.497  1.00  0.00     0.197 A 
HETATM    4  O1  UNL     1      -3.450  -1.495  -0.320  1.00  0.00    -0.289 OA
HETATM    5  C3  UNL     1      -3.673  -0.307   0.193  1.00  0.00     0.090 A 
HETATM    6  C4  UNL     1      -4.812   0.380   0.556  1.00  0.00     0.038 A 
HETATM    7  C5  UNL     1      -4.751   1.660   1.089  1.00  0.00     0.003 A 
HETATM    8  C6  UNL     1      -3.484   2.212   1.238  1.00  0.00     0.001 A 
HETATM    9  C7  UNL     1      -2.341   1.531   0.878  1.00  0.00     0.017 A 
HETATM   10  C8  UNL     1      -2.427   0.264   0.351  1.00  0.00     0.029 A 
HETATM   11  C9  UNL     1      -1.455  -0.613  -0.080  1.00  0.00     0.098 A 
HETATM   12  N2  UNL     1      -0.054  -0.526  -0.135  1.00  0.00    -0.368 N 
HETATM   13  C17 UNL     1       0.686  -1.663  -0.661  1.00  0.00     0.170 A 
ENDROOT
BRANCH  12  14
HETATM   14  C10 UNL     1       0.693   0.613   0.294  1.00  0.00     0.162 C 
BRANCH  14  15
HETATM   15  C11 UNL     1       2.176   0.418   0.115  1.00  0.00    -0.040 A 
HETATM   16  C12 UNL     1       3.000  -0.124   1.081  1.00  0.00     0.009 A 
HETATM   17  C13 UNL     1       4.353  -0.279   0.859  1.00  0.00     0.001 A 
HETATM   18  C14 UNL     1       4.865   0.124  -0.357  1.00  0.00     0.000 A 
HETATM   19  C15 UNL     1       4.115   0.674  -1.374  1.00  0.00     0.001 A 
HETATM   20  C16 UNL     1       2.765   0.803  -1.090  1.00  0.00     0.009 A 
ENDBRANCH  14  15
ENDBRANCH  12  14
TORSDOF 2
