REMARK  5 active torsions:
REMARK  status: ('A' for Active; 'I' for Inactive)
REMARK    1  A    between atoms: C4_4  and  C5_5 
REMARK    2  A    between atoms: C5_5  and  N1_6 
REMARK    3  A    between atoms: C9_11  and  N3_12 
REMARK    4  A    between atoms: N3_12  and  C10_13 
REMARK    5  A    between atoms: C13_19  and  N7_20 
ROOT
HETATM    1  N3  UNL     1      -1.360  -1.318   1.237  1.00  0.00    -0.339 N 
HETATM    2  H8  UNL     1      -1.571  -2.332   1.409  1.00  0.00     0.167 HD
ENDROOT
BRANCH   1   3
HETATM    3  C9  UNL     1      -0.204  -0.887   0.625  1.00  0.00     0.034 A 
HETATM    4  C8  UNL     1       0.043   0.455   0.419  1.00  0.00     0.044 A 
HETATM    5  C7  UNL     1       1.225   0.853  -0.203  1.00  0.00     0.014 A 
HETATM    6  C6  UNL     1       1.795   2.064  -0.564  1.00  0.00     0.152 A 
HETATM    7  C19 UNL     1       2.132  -0.123  -0.603  1.00  0.00     0.065 A 
HETATM    8  N2  UNL     1       2.977   1.793  -1.145  1.00  0.00    -0.183 NA
HETATM    9  N1  UNL     1       3.190   0.481  -1.175  1.00  0.00    -0.265 N 
HETATM   10  C18 UNL     1       1.933  -1.477  -0.421  1.00  0.00     0.034 A 
HETATM   11  C17 UNL     1       0.736  -1.838   0.206  1.00  0.00     0.032 A 
BRANCH   9  12
HETATM   12  C5  UNL     1       4.418  -0.024  -1.766  1.00  0.00     0.191 C 
BRANCH  12  13
HETATM   13  C4  UNL     1       5.447  -0.113  -0.700  1.00  0.00    -0.028 A 
HETATM   14  C2  UNL     1       6.285   0.507   0.341  1.00  0.00    -0.037 A 
HETATM   15  C1  UNL     1       6.598   1.643   0.954  1.00  0.00     0.024 C 
HETATM   16  C3  UNL     1       6.325  -0.887   0.035  1.00  0.00     0.021 A 
ENDBRANCH  12  13
ENDBRANCH   9  12
ENDBRANCH   1   3
BRANCH   1  17
HETATM   17  C10 UNL     1      -2.377  -0.480   1.696  1.00  0.00     0.159 A 
HETATM   18  N4  UNL     1      -2.280  -0.013   2.980  1.00  0.00    -0.220 NA
HETATM   19  C11 UNL     1      -3.281   0.807   3.422  1.00  0.00     0.258 A 
HETATM   20  N5  UNL     1      -4.329   1.158   2.652  1.00  0.00    -0.161 NA
HETATM   21  N6  UNL     1      -4.408   0.698   1.414  1.00  0.00    -0.237 N 
HETATM   22  C12 UNL     1      -5.387   0.945   0.500  1.00  0.00     0.148 A 
HETATM   23  C16 UNL     1      -3.458  -0.111   0.920  1.00  0.00     0.112 A 
HETATM   24  C13 UNL     1      -4.972   0.221  -0.617  1.00  0.00     0.051 A 
HETATM   25  C14 UNL     1      -3.781  -0.441  -0.382  1.00  0.00    -0.002 A 
HETATM   26  C15 UNL     1      -2.986  -1.311  -1.260  1.00  0.00     0.053 C 
BRANCH  24  27
HETATM   27  N7  UNL     1      -5.693   0.182  -1.823  1.00  0.00    -0.397 N 
HETATM   28  H11 UNL     1      -5.780   1.002  -2.494  1.00  0.00     0.156 HD
HETATM   29  H12 UNL     1      -6.275  -0.433  -2.427  1.00  0.00     0.156 HD
ENDBRANCH  24  27
ENDBRANCH   1  17
TORSDOF 5
