REMARK  5 active torsions:
REMARK  status: ('A' for Active; 'I' for Inactive)
REMARK    1  A    between atoms: N1_1  and  C1_2 
REMARK    2  A    between atoms: N2_5  and  C4_6 
REMARK    3  A    between atoms: C4_6  and  C5_7 
REMARK    4  A    between atoms: C9_14  and  C10_15 
REMARK    5  A    between atoms: C16_23  and  C17_24 
ROOT
HETATM    1  C5  UNL     1      -1.939  -2.085   1.123  1.00  0.00    -0.008 A 
HETATM    2  C6  UNL     1      -3.128  -2.133   1.886  1.00  0.00     0.030 A 
HETATM    3  C7  UNL     1      -2.898  -1.842   3.210  1.00  0.00     0.119 A 
HETATM    4  N3  UNL     1      -1.580  -1.618   3.269  1.00  0.00    -0.241 N 
HETATM    5  N4  UNL     1      -0.832  -1.254   4.271  1.00  0.00    -0.161 NA
HETATM    6  C8  UNL     1       0.454  -1.022   4.150  1.00  0.00     0.256 A 
HETATM    7  N5  UNL     1       1.028  -1.163   2.968  1.00  0.00    -0.237 NA
HETATM    8  C9  UNL     1       0.326  -1.541   1.876  1.00  0.00     0.096 A 
HETATM    9  C22 UNL     1      -1.014  -1.760   2.067  1.00  0.00     0.095 A 
ENDROOT
BRANCH   8  10
HETATM   10  C10 UNL     1       1.108  -1.665   0.671  1.00  0.00     0.001 C 
HETATM   11  C11 UNL     1       1.270  -2.397  -0.395  1.00  0.00     0.013 C 
HETATM   12  C12 UNL     1       2.080  -2.461  -1.584  1.00  0.00     0.018 C 
HETATM   13  C13 UNL     1       2.955  -1.483  -1.660  1.00  0.00     0.089 C 
HETATM   14  N6  UNL     1       2.934  -0.576  -0.581  1.00  0.00    -0.353 N 
HETATM   15  C14 UNL     1       2.032  -0.486   0.514  1.00  0.00     0.162 C 
HETATM   16  C16 UNL     1       3.728   0.534  -0.166  1.00  0.00     0.221 C 
HETATM   17  C15 UNL     1       2.797  -0.240   1.736  1.00  0.00     0.116 C 
HETATM   18  N7  UNL     1       3.824   0.384   1.282  1.00  0.00    -0.276 NA
BRANCH  16  19
HETATM   19  C17 UNL     1       3.184   1.881  -0.505  1.00  0.00     0.115 A 
HETATM   20  C18 UNL     1       3.023   2.042  -1.990  1.00  0.00    -0.011 A 
HETATM   21  C19 UNL     1       3.818   2.992  -2.455  1.00  0.00    -0.000 A 
HETATM   22  C20 UNL     1       4.596   3.570  -1.338  1.00  0.00     0.038 A 
HETATM   23  C21 UNL     1       4.214   2.920  -0.244  1.00  0.00     0.105 A 
HETATM   24  F1  UNL     1       4.597   3.037   1.054  1.00  0.00    -0.210 F 
ENDBRANCH  16  19
ENDBRANCH   8  10
BRANCH   1  25
HETATM   25  C4  UNL     1      -2.047  -2.239  -0.305  1.00  0.00     0.158 C 
BRANCH  25  26
HETATM   26  N2  UNL     1      -2.275  -0.972  -0.952  1.00  0.00    -0.408 N 
HETATM   27  C3  UNL     1      -1.321   0.047  -0.798  1.00  0.00     0.119 C 
HETATM   28  C2  UNL     1      -1.798   1.335  -1.474  1.00  0.00     0.055 C 
HETATM   29  C1  UNL     1      -3.123   1.806  -0.946  1.00  0.00     0.221 C 
HETATM   30  C24 UNL     1      -3.783   0.695  -0.131  1.00  0.00     0.055 C 
HETATM   31  C23 UNL     1      -3.652  -0.561  -0.965  1.00  0.00     0.119 C 
BRANCH  29  32
HETATM   32  N1  UNL     1      -3.965   2.137  -2.075  1.00  0.00     0.083 N 
HETATM   33  H1  UNL     1      -4.208   3.136  -2.111  1.00  0.00     0.313 HD
HETATM   34  H2  UNL     1      -4.842   1.554  -2.105  1.00  0.00     0.313 HD
ENDBRANCH  29  32
ENDBRANCH  25  26
ENDBRANCH   1  25
TORSDOF 5
