REMARK  3 active torsions:
REMARK  status: ('A' for Active; 'I' for Inactive)
REMARK    1  A    between atoms: C5_6  and  N1_7 
REMARK    2  A    between atoms: N1_7  and  C6_8 
REMARK    3  A    between atoms: C6_8  and  N2_9 
ROOT
HETATM    1  N2  UNL     1      -0.538   2.063  -0.587  1.00  0.00    -0.254 NA
HETATM    2  C7  UNL     1       0.699   1.695  -0.358  1.00  0.00     0.153 C 
HETATM    3  C8  UNL     1       1.639   2.558  -1.133  1.00  0.00     0.349 C 
HETATM    4  N3  UNL     1       2.996   2.089  -0.865  1.00  0.00     0.091 N 
HETATM    5  C9  UNL     1       3.234   0.790  -1.451  1.00  0.00     0.283 C 
HETATM    6  C10 UNL     1       3.102  -0.362  -0.517  1.00  0.00     0.094 C 
HETATM    7  C11 UNL     1       4.397  -0.683   0.207  1.00  0.00     0.043 C 
HETATM    8  C12 UNL     1       4.170  -1.621   1.329  1.00  0.00    -0.001 C 
HETATM    9  C13 UNL     1       2.987  -1.806   1.894  1.00  0.00     0.140 C 
HETATM   10  O1  UNL     1       1.851  -1.127   1.476  1.00  0.00    -0.308 OA
HETATM   11  C14 UNL     1       1.963  -0.223   0.428  1.00  0.00     0.153 C 
HETATM   12  N4  UNL     1       0.954   0.611   0.526  1.00  0.00    -0.211 NA
HETATM   13  H9  UNL     1       3.136   2.100   0.160  1.00  0.00     0.316 HD
ENDROOT
BRANCH   1  14
HETATM   14  C6  UNL     1      -1.676   1.441  -0.000  1.00  0.00     0.272 C 
BRANCH  14  15
HETATM   15  N1  UNL     1      -2.182   0.443  -0.922  1.00  0.00    -0.372 N 
HETATM   16  H4  UNL     1      -1.803   0.197  -1.862  1.00  0.00     0.161 HD
BRANCH  15  17
HETATM   17  C5  UNL     1      -3.326  -0.296  -0.516  1.00  0.00     0.030 A 
HETATM   18  C4  UNL     1      -3.924  -1.280  -1.284  1.00  0.00     0.029 A 
HETATM   19  C3  UNL     1      -5.038  -1.987  -0.868  1.00  0.00     0.004 A 
HETATM   20  C2  UNL     1      -5.581  -1.711   0.355  1.00  0.00     0.019 A 
HETATM   21  C1  UNL     1      -5.049  -0.748   1.182  1.00  0.00     0.013 A 
HETATM   22 BR1  UNL     1      -5.756  -0.306   2.909  1.00  0.00    -0.051 Br
HETATM   23  C15 UNL     1      -3.955  -0.090   0.713  1.00  0.00     0.048 A 
ENDBRANCH  15  17
ENDBRANCH  14  15
ENDBRANCH   1  14
TORSDOF 3
