REMARK  4 active torsions:
REMARK  status: ('A' for Active; 'I' for Inactive)
REMARK    1  A    between atoms: N1_1  and  C1_2 
REMARK    2  A    between atoms: N2_5  and  C4_6 
REMARK    3  A    between atoms: C4_6  and  C5_7 
REMARK    4  A    between atoms: C10_14  and  C11_15 
ROOT
HETATM    1  C5  UNL     1      -1.866   1.622  -0.818  1.00  0.00    -0.023 A 
HETATM    2  C6  UNL     1      -0.857   0.789  -0.880  1.00  0.00    -0.034 A 
HETATM    3  C7  UNL     1       0.206  -0.255  -0.776  1.00  0.00    -0.040 A 
HETATM    4  C8  UNL     1       0.512  -1.505  -0.547  1.00  0.00     0.042 A 
HETATM    5  C9  UNL     1       1.946  -1.730  -0.667  1.00  0.00     0.085 A 
HETATM    6  N3  UNL     1       2.578  -2.843  -0.510  1.00  0.00    -0.178 NA
HETATM    7  N4  UNL     1       3.945  -2.632  -0.712  1.00  0.00    -0.300 N 
HETATM    8  C10 UNL     1       4.231  -1.250  -1.051  1.00  0.00     0.169 A 
HETATM    9  C17 UNL     1       2.865  -0.648  -0.995  1.00  0.00    -0.002 A 
HETATM   10  C18 UNL     1       2.411   0.596  -1.180  1.00  0.00    -0.004 A 
HETATM   11  C19 UNL     1       1.052   1.040  -1.082  1.00  0.00     0.054 A 
HETATM   12  C20 UNL     1       0.059   1.152  -2.119  1.00  0.00     0.054 A 
HETATM   13  C21 UNL     1      -0.580   2.331  -2.635  1.00  0.00    -0.016 A 
HETATM   14  C22 UNL     1      -1.677   2.581  -1.901  1.00  0.00     0.006 A 
HETATM   15  H11 UNL     1       4.701  -3.367  -0.635  1.00  0.00     0.183 HD
ENDROOT
BRANCH   1  16
HETATM   16  C4  UNL     1      -2.946   1.588   0.180  1.00  0.00     0.311 C 
BRANCH  16  17
HETATM   17  N2  UNL     1      -2.804   0.477   1.070  1.00  0.00     0.092 N 
HETATM   18  C3  UNL     1      -3.683   0.618   2.236  1.00  0.00     0.275 C 
HETATM   19  C2  UNL     1      -5.120   0.660   1.855  1.00  0.00     0.065 C 
HETATM   20  C1  UNL     1      -5.465  -0.653   1.193  1.00  0.00     0.221 C 
HETATM   21  C24 UNL     1      -4.601  -0.868   0.001  1.00  0.00     0.065 C 
HETATM   22  C23 UNL     1      -3.159  -0.745   0.357  1.00  0.00     0.275 C 
BRANCH  20  23
HETATM   23  N1  UNL     1      -6.873  -0.578   0.843  1.00  0.00     0.083 N 
HETATM   24  H1  UNL     1      -7.071  -1.188   0.043  1.00  0.00     0.313 HD
HETATM   25  H2  UNL     1      -7.459  -0.769   1.681  1.00  0.00     0.313 HD
ENDBRANCH  20  23
ENDBRANCH  16  17
ENDBRANCH   1  16
BRANCH   8  26
HETATM   26  C11 UNL     1       5.194  -0.600  -0.155  1.00  0.00    -0.027 A 
HETATM   27  C12 UNL     1       6.195   0.160  -0.736  1.00  0.00     0.010 A 
HETATM   28  C13 UNL     1       7.138   0.802   0.025  1.00  0.00     0.004 A 
HETATM   29  C14 UNL     1       7.047   0.659   1.393  1.00  0.00     0.042 A 
HETATM   30  C15 UNL     1       6.047  -0.101   1.961  1.00  0.00     0.117 A 
HETATM   31  F1  UNL     1       6.042  -0.181   3.316  1.00  0.00    -0.206 F 
HETATM   32  C16 UNL     1       5.092  -0.752   1.203  1.00  0.00     0.051 A 
ENDBRANCH   8  26
TORSDOF 4
