REMARK  5 active torsions:
REMARK  status: ('A' for Active; 'I' for Inactive)
REMARK    1  A    between atoms: C3_3  and  C4_4 
REMARK    2  A    between atoms: C7_8  and  C8_9 
REMARK    3  A    between atoms: C8_9  and  O1_10 
REMARK    4  A    between atoms: O1_10  and  C9_11 
REMARK    5  A    between atoms: C9_11  and  C10_12 
ROOT
HETATM    1  C4  UNL     1      -3.576   0.924  -0.258  1.00  0.00     0.224 C 
HETATM    2  N1  UNL     1      -2.340   0.987   0.371  1.00  0.00    -0.276 NA
HETATM    3  C5  UNL     1      -1.776   0.408   1.338  1.00  0.00     0.090 C 
HETATM    4  C6  UNL     1      -0.408   0.773   1.717  1.00  0.00     0.085 C 
HETATM    5  C7  UNL     1       0.594  -0.281   1.768  1.00  0.00    -0.020 C 
HETATM    6  C14 UNL     1       0.763  -1.589   1.666  1.00  0.00     0.100 A 
HETATM    7  N3  UNL     1       2.072  -2.068   1.823  1.00  0.00    -0.273 N 
HETATM    8  N4  UNL     1       2.493  -3.378   1.661  1.00  0.00    -0.167 NA
HETATM    9  C15 UNL     1       1.618  -4.266   1.339  1.00  0.00     0.257 A 
HETATM   10  N5  UNL     1       0.261  -3.904   1.159  1.00  0.00    -0.221 NA
HETATM   11  C16 UNL     1      -0.156  -2.714   1.300  1.00  0.00     0.154 A 
HETATM   12  N6  UNL     1      -1.546  -3.174   1.029  1.00  0.00    -0.362 N 
HETATM   13  C17 UNL     1      -2.189  -2.582  -0.132  1.00  0.00     0.049 A 
HETATM   14  C18 UNL     1      -1.474  -2.354  -1.271  1.00  0.00     0.030 A 
HETATM   15  C19 UNL     1      -2.501  -1.479  -1.498  1.00  0.00     0.050 A 
HETATM   16  C20 UNL     1      -3.518  -1.329  -0.627  1.00  0.00     0.045 A 
HETATM   17  C21 UNL     1      -4.327  -1.467   0.453  1.00  0.00     0.030 A 
HETATM   18  C22 UNL     1      -3.289  -2.317   0.646  1.00  0.00     0.050 A 
HETATM   19  N7  UNL     1      -3.844  -0.063  -1.281  1.00  0.00    -0.387 N 
HETATM   20  H22 UNL     1       2.932  -1.601   2.101  1.00  0.00     0.189 HD
HETATM   21  H24 UNL     1      -2.019  -3.895   1.698  1.00  0.00     0.162 HD
HETATM   22  H29 UNL     1      -4.205   0.250  -2.242  1.00  0.00     0.156 HD
ENDROOT
BRANCH   5  23
HETATM   23  C8  UNL     1       1.783   0.648   1.879  1.00  0.00     0.204 C 
BRANCH  23  24
HETATM   24  O1  UNL     1       1.846   1.576   0.891  1.00  0.00    -0.384 OA
BRANCH  24  25
HETATM   25  C9  UNL     1       1.992   1.264  -0.390  1.00  0.00     0.201 C 
BRANCH  25  26
HETATM   26  C10 UNL     1       3.328   0.711  -0.746  1.00  0.00     0.173 C 
HETATM   27  C11 UNL     1       4.365   1.814  -0.529  1.00  0.00     0.303 C 
HETATM   28  N2  UNL     1       5.547   1.378  -1.256  1.00  0.00     0.088 N 
HETATM   29  C12 UNL     1       5.902   0.026  -0.907  1.00  0.00     0.295 C 
HETATM   30  H17 UNL     1       5.328   1.493  -2.268  1.00  0.00     0.316 HD
HETATM   31  C13 UNL     1       5.056  -0.470   0.235  1.00  0.00     0.198 C 
HETATM   32  O2  UNL     1       3.720  -0.433  -0.149  1.00  0.00    -0.380 OA
ENDBRANCH  25  26
ENDBRANCH  24  25
ENDBRANCH  23  24
ENDBRANCH   5  23
BRANCH   1  33
HETATM   33  C3  UNL     1      -3.768   2.281  -0.932  1.00  0.00     0.016 C 
HETATM   34  C2  UNL     1      -4.760   3.107  -0.625  1.00  0.00    -0.031 C 
HETATM   35  C1  UNL     1      -5.280   4.442  -1.017  1.00  0.00     0.036 C 
ENDBRANCH   1  33
TORSDOF 5
