REMARK  8 active torsions:
REMARK  status: ('A' for Active; 'I' for Inactive)
REMARK    1  A    between atoms: C2_2  and  C3_3 
REMARK    2  A    between atoms: C3_3  and  C4_4 
REMARK    3  A    between atoms: C4_4  and  C5_5 
REMARK    4  A    between atoms: C5_5  and  N1_6 
REMARK    5  A    between atoms: N1_6  and  C6_7 
REMARK    6  A    between atoms: C6_7  and  C7_8 
REMARK    7  A    between atoms: C11_15  and  N5_16 
REMARK    8  A    between atoms: N5_16  and  C12_17 
ROOT
HETATM    1  C7  UNL     1      -0.156   0.128  -1.495  1.00  0.00     0.004 A 
HETATM    2  C8  UNL     1       0.573   0.082  -2.685  1.00  0.00     0.030 A 
HETATM    3  C9  UNL     1      -0.276  -0.046  -3.761  1.00  0.00     0.119 A 
HETATM    4  N2  UNL     1      -1.498  -0.075  -3.213  1.00  0.00    -0.240 N 
HETATM    5  N3  UNL     1      -2.658  -0.189  -3.859  1.00  0.00    -0.161 NA
HETATM    6  C10 UNL     1      -3.827  -0.209  -3.209  1.00  0.00     0.258 A 
HETATM    7  N4  UNL     1      -3.830  -0.111  -1.877  1.00  0.00    -0.220 NA
HETATM    8  C11 UNL     1      -2.675   0.004  -1.211  1.00  0.00     0.159 A 
HETATM    9  C18 UNL     1      -1.474   0.025  -1.873  1.00  0.00     0.112 A 
ENDROOT
BRANCH   8  10
HETATM   10  N5  UNL     1      -2.721   0.107   0.202  1.00  0.00    -0.339 N 
HETATM   11  H18 UNL     1      -1.991   0.252   0.922  1.00  0.00     0.167 HD
BRANCH  10  12
HETATM   12  C12 UNL     1      -3.923   0.013   0.951  1.00  0.00     0.035 A 
HETATM   13  C13 UNL     1      -5.006  -0.734   0.539  1.00  0.00     0.029 A 
HETATM   14  C14 UNL     1      -6.198  -0.833   1.222  1.00  0.00     0.004 A 
HETATM   15  C15 UNL     1      -6.367  -0.154   2.410  1.00  0.00     0.019 A 
HETATM   16  C16 UNL     1      -5.337   0.618   2.899  1.00  0.00     0.013 A 
HETATM   17 BR1  UNL     1      -5.491   1.583   4.526  1.00  0.00    -0.051 Br
HETATM   18  C17 UNL     1      -4.181   0.666   2.160  1.00  0.00     0.048 A 
ENDBRANCH  10  12
ENDBRANCH   8  10
BRANCH   1  19
HETATM   19  C6  UNL     1       0.393   0.257  -0.124  1.00  0.00     0.310 C 
BRANCH  19  20
HETATM   20  N1  UNL     1       1.848   0.349  -0.240  1.00  0.00     0.087 N 
HETATM   21  H12 UNL     1       2.095   1.221  -0.754  1.00  0.00     0.316 HD
BRANCH  20  22
HETATM   22  C5  UNL     1       2.348   0.473   1.108  1.00  0.00     0.270 C 
BRANCH  22  23
HETATM   23  C4  UNL     1       3.839   0.580   1.175  1.00  0.00     0.030 C 
BRANCH  23  24
HETATM   24  C3  UNL     1       4.551  -0.610   0.593  1.00  0.00     0.001 C 
BRANCH  24  25
HETATM   25  C2  UNL     1       6.058  -0.373   0.727  1.00  0.00    -0.005 C 
HETATM   26  C1  UNL     1       6.841  -1.524   0.165  1.00  0.00     0.005 C 
ENDBRANCH  24  25
ENDBRANCH  23  24
ENDBRANCH  22  23
ENDBRANCH  20  22
ENDBRANCH  19  20
ENDBRANCH   1  19
TORSDOF 8
