REMARK  6 active torsions:
REMARK  status: ('A' for Active; 'I' for Inactive)
REMARK    1  A    between atoms: C7_8  and  N2_9 
REMARK    2  A    between atoms: N2_9  and  C8_10 
REMARK    3  A    between atoms: C8_10  and  C9_11 
REMARK    4  A    between atoms: C10_13  and  C11_14 
REMARK    5  A    between atoms: C11_14  and  N3_15 
REMARK    6  A    between atoms: N3_15  and  C12_16 
ROOT
HETATM    1  C9  UNL     1       0.423  -0.128   1.677  1.00  0.00     0.027 C 
HETATM    2 CL1  UNL     1      -0.371   0.597   3.063  1.00  0.00    -0.087 Cl
HETATM    3  C10 UNL     1       1.769  -0.015   1.685  1.00  0.00     0.014 C 
ENDROOT
BRANCH   1   4
HETATM    4  C8  UNL     1      -0.274  -0.820   0.575  1.00  0.00     0.165 C 
BRANCH   4   5
HETATM    5  N2  UNL     1      -1.199  -0.046  -0.170  1.00  0.00    -0.412 N 
HETATM    6  H15 UNL     1      -0.792   0.712  -0.723  1.00  0.00     0.153 HD
BRANCH   5   7
HETATM    7  C7  UNL     1      -2.392   0.375   0.481  1.00  0.00     0.082 C 
HETATM    8  C2  UNL     1      -3.196   1.165  -0.525  1.00  0.00     0.021 C 
HETATM    9  C1  UNL     1      -2.884   0.723  -1.930  1.00  0.00     0.014 C 
HETATM   10  C3  UNL     1      -4.669   1.153  -0.315  1.00  0.00     0.120 C 
HETATM   11  N1  UNL     1      -5.362  -0.019  -0.724  1.00  0.00    -0.421 N 
HETATM   12  C4  UNL     1      -5.290  -1.147   0.139  1.00  0.00     0.113 C 
HETATM   13  H7  UNL     1      -5.464  -0.189  -1.725  1.00  0.00     0.153 HD
HETATM   14  C5  UNL     1      -3.883  -1.652   0.291  1.00  0.00     0.021 C 
HETATM   15  C6  UNL     1      -3.152  -0.700   1.175  1.00  0.00     0.027 C 
ENDBRANCH   5   7
ENDBRANCH   4   5
ENDBRANCH   1   4
BRANCH   3  16
HETATM   16  C11 UNL     1       2.897  -0.429   0.808  1.00  0.00     0.148 C 
BRANCH  16  17
HETATM   17  N3  UNL     1       3.668   0.721   0.333  1.00  0.00    -0.386 N 
HETATM   18  H21 UNL     1       3.448   1.702   0.576  1.00  0.00     0.160 HD
BRANCH  17  19
HETATM   19  C12 UNL     1       4.781   0.468  -0.510  1.00  0.00     0.029 A 
HETATM   20  C13 UNL     1       5.132  -0.813  -0.872  1.00  0.00     0.029 A 
HETATM   21  C14 UNL     1       6.226  -1.082  -1.701  1.00  0.00     0.004 A 
HETATM   22  C15 UNL     1       6.961  -0.007  -2.158  1.00  0.00     0.019 A 
HETATM   23  C16 UNL     1       6.653   1.284  -1.827  1.00  0.00     0.013 A 
HETATM   24 BR1  UNL     1       7.705   2.721  -2.490  1.00  0.00    -0.051 Br
HETATM   25  C17 UNL     1       5.563   1.490  -1.006  1.00  0.00     0.048 A 
ENDBRANCH  17  19
ENDBRANCH  16  17
ENDBRANCH   3  16
TORSDOF 6
