REMARK  5 active torsions:
REMARK  status: ('A' for Active; 'I' for Inactive)
REMARK    1  A    between atoms: O1_2  and  C2_3 
REMARK    2  A    between atoms: C2_3  and  O2_4 
REMARK    3  A    between atoms: O2_4  and  C3_5 
REMARK    4  A    between atoms: C11_16  and  N3_17 
REMARK    5  A    between atoms: N3_17  and  C12_18 
ROOT
HETATM    1  C3  UNL     1      -4.076   0.626  -0.341  1.00  0.00     0.074 A 
HETATM    2  C4  UNL     1      -3.777   0.638   1.005  1.00  0.00     0.037 A 
HETATM    3  C5  UNL     1      -2.491   0.878   1.435  1.00  0.00     0.014 A 
HETATM    4  C6  UNL     1      -1.448   1.116   0.567  1.00  0.00    -0.006 A 
HETATM    5  C7  UNL     1      -1.744   1.104  -0.790  1.00  0.00     0.088 A 
HETATM    6  C8  UNL     1      -3.036   0.863  -1.226  1.00  0.00     0.074 A 
HETATM    7  O3  UNL     1      -0.830   1.322  -1.843  1.00  0.00    -0.289 OA
HETATM    8  C9  UNL     1       0.531   0.951  -1.773  1.00  0.00     0.202 A 
HETATM    9  N1  UNL     1       1.088   0.991  -2.997  1.00  0.00    -0.215 NA
HETATM   10  C10 UNL     1       2.386   0.671  -3.148  1.00  0.00     0.238 A 
HETATM   11  N2  UNL     1       3.086   0.324  -2.083  1.00  0.00    -0.222 NA
HETATM   12  C11 UNL     1       2.625   0.254  -0.831  1.00  0.00     0.160 A 
HETATM   13  C18 UNL     1       1.308   0.576  -0.666  1.00  0.00     0.129 A 
HETATM   14  N4  UNL     1       0.814   0.473   0.676  1.00  0.00    -0.379 N 
HETATM   15  C19 UNL     1      -0.165   1.343   1.325  1.00  0.00     0.161 C 
HETATM   16  H15 UNL     1       1.277  -0.363   1.149  1.00  0.00     0.160 HD
ENDROOT
BRANCH  12  17
HETATM   17  N3  UNL     1       3.406  -0.118   0.293  1.00  0.00    -0.339 N 
HETATM   18  H10 UNL     1       3.107  -0.068   1.285  1.00  0.00     0.167 HD
BRANCH  17  19
HETATM   19  C12 UNL     1       4.742  -0.604   0.272  1.00  0.00     0.035 A 
HETATM   20  C13 UNL     1       5.577  -0.684   1.376  1.00  0.00     0.029 A 
HETATM   21  C14 UNL     1       6.862  -1.160   1.366  1.00  0.00     0.004 A 
HETATM   22  C15 UNL     1       7.409  -1.606   0.181  1.00  0.00     0.019 A 
HETATM   23  C16 UNL     1       6.643  -1.559  -0.962  1.00  0.00     0.013 A 
HETATM   24 BR1  UNL     1       7.438  -2.189  -2.573  1.00  0.00    -0.051 Br
HETATM   25  C17 UNL     1       5.360  -1.067  -0.869  1.00  0.00     0.048 A 
ENDBRANCH  17  19
ENDBRANCH  12  17
BRANCH   1  26
HETATM   26  O2  UNL     1      -5.297   0.405  -0.956  1.00  0.00    -0.326 OA
BRANCH  26  27
HETATM   27  C2  UNL     1      -6.508   0.140  -0.322  1.00  0.00     0.344 C 
BRANCH  27  28
HETATM   28  O1  UNL     1      -6.494  -1.014   0.455  1.00  0.00    -0.371 OA
HETATM   29  C1  UNL     1      -7.750  -1.218   1.061  1.00  0.00     0.204 C 
ENDBRANCH  27  28
ENDBRANCH  26  27
ENDBRANCH   1  26
TORSDOF 5
