REMARK  0 active torsions:
REMARK  status: ('A' for Active; 'I' for Inactive)
ROOT
HETATM    1  C1  UNL     1       4.072  -2.938   0.830  1.00  0.00     0.038 C 
HETATM    2  C2  UNL     1       3.517  -1.622   0.539  1.00  0.00    -0.002 C 
HETATM    3  C3  UNL     1       2.989  -0.525   0.188  1.00  0.00     0.030 C 
HETATM    4  C4  UNL     1       2.409   0.771  -0.155  1.00  0.00     0.049 C 
HETATM    5  C5  UNL     1       2.607   1.732   0.737  1.00  0.00     0.019 C 
HETATM    6 CL1  UNL     1       3.443   1.775   2.252  1.00  0.00    -0.088 Cl
HETATM    7  C6  UNL     1       1.707   2.878   0.330  1.00  0.00     0.109 C 
HETATM    8  C7  UNL     1       0.280   2.331   0.297  1.00  0.00     0.030 C 
HETATM    9  C8  UNL     1      -0.445   2.551  -0.864  1.00  0.00     0.029 C 
HETATM   10  C9  UNL     1      -1.764   2.171  -1.188  1.00  0.00     0.299 C 
HETATM   11  N1  UNL     1      -3.051   1.792  -1.513  1.00  0.00     0.086 NA
HETATM   12  C10 UNL     1      -3.132   0.464  -0.986  1.00  0.00     0.272 C 
HETATM   13  C11 UNL     1      -3.919  -0.679  -0.872  1.00  0.00     0.054 C 
HETATM   14  C12 UNL     1      -3.088  -1.549   0.114  1.00  0.00     0.107 C 
HETATM   15 CL2  UNL     1      -2.827  -0.673   1.631  1.00  0.00    -0.121 Cl
HETATM   16  C13 UNL     1      -1.869  -2.163  -0.386  1.00  0.00     0.008 C 
HETATM   17  C14 UNL     1      -0.598  -1.902  -0.407  1.00  0.00     0.032 A 
HETATM   18  C15 UNL     1      -0.680  -0.645   0.318  1.00  0.00     0.224 A 
HETATM   19  N2  UNL     1      -0.359   0.403   0.839  1.00  0.00    -0.208 N 
HETATM   20  N3  UNL     1      -0.214   1.550   1.452  1.00  0.00    -0.289 N 
HETATM   21  N4  UNL     1       0.671  -0.425   0.274  1.00  0.00    -0.119 NA
HETATM   22  C16 UNL     1       0.780  -1.524  -0.364  1.00  0.00     0.116 A 
HETATM   23  N5  UNL     1       2.155  -1.521  -0.562  1.00  0.00    -0.345 N 
HETATM   24  H11 UNL     1      -3.248   1.809  -2.520  1.00  0.00     0.316 HD
HETATM   25  H18 UNL     1      -0.415   1.745   2.443  1.00  0.00     0.188 HD
HETATM   26  H19 UNL     1       1.879  -2.326  -1.224  1.00  0.00     0.167 HD
ENDROOT
TORSDOF 0
