REMARK  4 active torsions:
REMARK  status: ('A' for Active; 'I' for Inactive)
REMARK    1  A    between atoms: O1_2  and  C2_3 
REMARK    2  A    between atoms: C4_5  and  O2_6 
REMARK    3  A    between atoms: C11_16  and  N3_17 
REMARK    4  A    between atoms: N3_17  and  C12_18 
ROOT
HETATM    1  C2  UNL     1       4.565   0.269  -0.525  1.00  0.00     0.073 A 
HETATM    2  C3  UNL     1       4.172   0.146   0.792  1.00  0.00     0.074 A 
HETATM    3  C4  UNL     1       2.896   0.349   1.257  1.00  0.00     0.081 A 
HETATM    4  C6  UNL     1       1.921   0.707   0.330  1.00  0.00     0.027 A 
HETATM    5  C7  UNL     1       2.296   0.834  -0.989  1.00  0.00     0.091 A 
HETATM    6  C8  UNL     1       3.582   0.626  -1.440  1.00  0.00     0.074 A 
HETATM    7  O3  UNL     1       1.373   1.192  -1.995  1.00  0.00    -0.289 OA
HETATM    8  C9  UNL     1       0.072   0.678  -2.131  1.00  0.00     0.202 A 
HETATM    9  N1  UNL     1      -0.417   0.579  -3.400  1.00  0.00    -0.215 NA
HETATM   10  C10 UNL     1      -1.665   0.090  -3.604  1.00  0.00     0.238 A 
HETATM   11  N2  UNL     1      -2.449  -0.307  -2.585  1.00  0.00    -0.222 NA
HETATM   12  C11 UNL     1      -2.032  -0.238  -1.307  1.00  0.00     0.160 A 
HETATM   13  C18 UNL     1      -0.764   0.261  -1.121  1.00  0.00     0.129 A 
HETATM   14  N4  UNL     1      -0.487   0.280   0.272  1.00  0.00    -0.379 N 
HETATM   15  C19 UNL     1       0.613   0.885   0.999  1.00  0.00     0.164 C 
HETATM   16  H15 UNL     1      -1.165  -0.205   0.895  1.00  0.00     0.160 HD
ENDROOT
BRANCH  12  17
HETATM   17  N3  UNL     1      -2.934  -0.685  -0.329  1.00  0.00    -0.339 N 
HETATM   18  H10 UNL     1      -2.686  -1.388   0.416  1.00  0.00     0.167 HD
BRANCH  17  19
HETATM   19  C12 UNL     1      -4.282  -0.221  -0.278  1.00  0.00     0.035 A 
HETATM   20  C13 UNL     1      -4.790   0.730  -1.140  1.00  0.00     0.029 A 
HETATM   21  C14 UNL     1      -6.091   1.150  -1.064  1.00  0.00     0.004 A 
HETATM   22  C15 UNL     1      -6.965   0.643  -0.120  1.00  0.00     0.019 A 
HETATM   23  C16 UNL     1      -6.513  -0.310   0.768  1.00  0.00     0.013 A 
HETATM   24 BR1  UNL     1      -7.606  -1.091   2.114  1.00  0.00    -0.051 Br
HETATM   25  C17 UNL     1      -5.199  -0.689   0.640  1.00  0.00     0.048 A 
ENDBRANCH  17  19
ENDBRANCH  12  17
BRANCH   3  26
HETATM   26  O2  UNL     1       2.504   0.226   2.575  1.00  0.00    -0.355 OA
HETATM   27  C5  UNL     1       3.304  -0.118   3.659  1.00  0.00     0.210 C 
ENDBRANCH   3  26
BRANCH   1  28
HETATM   28  O1  UNL     1       5.866   0.051  -0.928  1.00  0.00    -0.356 OA
HETATM   29  C1  UNL     1       6.812  -0.309   0.057  1.00  0.00     0.210 C 
ENDBRANCH   1  28
TORSDOF 4
