REMARK  1 active torsions:
REMARK  status: ('A' for Active; 'I' for Inactive)
REMARK    1  A    between atoms: C13_19  and  N7_20 
ROOT
HETATM    1  C1  UNL     1      -0.104   4.004   1.787  1.00  0.00     0.024 C 
HETATM    2  C2  UNL     1      -0.362   3.527   0.569  1.00  0.00    -0.031 C 
HETATM    3  C3  UNL     1      -1.278   4.360  -0.175  1.00  0.00     0.025 C 
HETATM    4  C4  UNL     1      -1.468   3.772  -1.360  1.00  0.00    -0.007 C 
HETATM    5  C5  UNL     1      -2.470   2.880  -1.161  1.00  0.00     0.119 C 
HETATM    6  N1  UNL     1      -2.523   2.136   0.008  1.00  0.00    -0.310 N 
HETATM    7  N2  UNL     1      -2.575   1.428   1.124  1.00  0.00    -0.286 N 
HETATM    8  C6  UNL     1      -2.889   0.080   1.449  1.00  0.00     0.139 C 
HETATM    9  N3  UNL     1      -3.940  -0.242   0.782  1.00  0.00    -0.224 NA
HETATM   10  C7  UNL     1      -4.119  -1.610   0.310  1.00  0.00     0.256 C 
HETATM   11  N4  UNL     1      -3.217  -2.502   0.563  1.00  0.00    -0.170 NA
HETATM   12  N5  UNL     1      -2.168  -2.242   1.454  1.00  0.00    -0.297 N 
HETATM   13  C8  UNL     1      -1.025  -3.114   1.468  1.00  0.00     0.147 C 
HETATM   14  C9  UNL     1       0.106  -2.702   0.553  1.00  0.00     0.052 C 
HETATM   15  C10 UNL     1       0.662  -1.349   0.863  1.00  0.00     0.274 C 
HETATM   16  N6  UNL     1       1.750  -0.877   0.110  1.00  0.00     0.094 N 
HETATM   17  C11 UNL     1       2.556  -1.897  -0.445  1.00  0.00     0.275 C 
HETATM   18  C12 UNL     1       3.828  -1.392  -1.091  1.00  0.00     0.065 C 
HETATM   19  C13 UNL     1       3.332  -0.634  -2.329  1.00  0.00     0.221 C 
HETATM   20  C14 UNL     1       2.508   0.495  -1.806  1.00  0.00     0.072 C 
HETATM   21  C15 UNL     1       1.372   0.091  -0.903  1.00  0.00     0.243 C 
HETATM   22  C16 UNL     1       0.780   1.294  -0.358  1.00  0.00     0.125 A 
HETATM   23  C17 UNL     1       0.401   2.319   0.360  1.00  0.00     0.004 A 
HETATM   24 BR1  UNL     1       1.633   1.626   1.632  1.00  0.00    -0.119 Br
HETATM   25  C18 UNL     1      -2.414  -1.055   2.293  1.00  0.00     0.224 C 
HETATM   26  H5  UNL     1      -2.137   1.456  -0.571  1.00  0.00     0.186 HD
HETATM   27  H6  UNL     1      -2.411   1.622   2.100  1.00  0.00     0.188 HD
ENDROOT
BRANCH  19  28
HETATM   28  N7  UNL     1       2.610  -1.528  -3.186  1.00  0.00     0.083 N 
HETATM   29  H19 UNL     1       1.663  -1.191  -3.453  1.00  0.00     0.313 HD
HETATM   30  H20 UNL     1       3.163  -1.662  -4.078  1.00  0.00     0.313 HD
ENDBRANCH  19  28
TORSDOF 1
