REMARK  5 active torsions:
REMARK  status: ('A' for Active; 'I' for Inactive)
REMARK    1  A    between atoms: N1_1  and  C1_2 
REMARK    2  A    between atoms: C2_3  and  C3_4 
REMARK    3  A    between atoms: C4_5  and  C5_6 
REMARK    4  A    between atoms: C10_13  and  C11_14 
REMARK    5  A    between atoms: C14_17  and  N4_18 
ROOT
HETATM    1  C5  UNL     1       1.825  -1.269  -0.102  1.00  0.00    -0.005 A 
HETATM    2  C6  UNL     1       3.021  -1.909  -0.292  1.00  0.00     0.034 A 
HETATM    3  C7  UNL     1       3.061  -3.283  -0.321  1.00  0.00     0.140 A 
HETATM    4  N2  UNL     1       1.888  -3.959  -0.157  1.00  0.00    -0.180 NA
HETATM    5  N3  UNL     1       0.767  -3.282   0.022  1.00  0.00    -0.244 N 
HETATM    6  C8  UNL     1      -0.451  -3.814   0.196  1.00  0.00     0.119 A 
HETATM    7  C9  UNL     1      -1.320  -2.759   0.346  1.00  0.00     0.029 A 
HETATM    8  C10 UNL     1      -0.646  -1.534   0.266  1.00  0.00    -0.023 A 
HETATM    9  C17 UNL     1       0.641  -1.924   0.064  1.00  0.00     0.075 A 
ENDROOT
BRANCH   8  10
HETATM   10  C11 UNL     1      -1.261  -0.229   0.401  1.00  0.00     0.021 C 
HETATM   11  C12 UNL     1      -1.581   0.308  -0.984  1.00  0.00     0.011 C 
HETATM   12  C13 UNL     1      -2.362   1.602  -0.889  1.00  0.00     0.036 C 
HETATM   13  C14 UNL     1      -3.677   1.321  -0.202  1.00  0.00     0.218 C 
HETATM   14  C15 UNL     1      -3.343   0.885   1.225  1.00  0.00     0.036 C 
HETATM   15  C16 UNL     1      -2.618  -0.447   1.132  1.00  0.00     0.011 C 
BRANCH  13  16
HETATM   16  N4  UNL     1      -4.466   2.533  -0.083  1.00  0.00     0.082 N 
HETATM   17  H17 UNL     1      -5.211   2.435   0.633  1.00  0.00     0.313 HD
HETATM   18  H18 UNL     1      -4.850   2.844  -1.002  1.00  0.00     0.313 HD
ENDBRANCH  13  16
ENDBRANCH   8  10
BRANCH   1  19
HETATM   19  C4  UNL     1       1.818   0.167  -0.091  1.00  0.00     0.014 C 
HETATM   20  C3  UNL     1       2.882   0.935  -0.224  1.00  0.00     0.002 C 
BRANCH  20  21
HETATM   21  C2  UNL     1       3.188   2.355  -0.253  1.00  0.00     0.011 C 
HETATM   22  C1  UNL     1       4.309   2.985  -0.394  1.00  0.00     0.054 C 
BRANCH  22  23
HETATM   23  N1  UNL     1       5.563   2.343  -0.562  1.00  0.00    -0.312 NA
HETATM   24  H1  UNL     1       5.657   1.321  -0.580  1.00  0.00     0.123 HD
HETATM   25  H2  UNL     1       5.658   1.307  -0.581  1.00  0.00     0.123 HD
ENDBRANCH  22  23
ENDBRANCH  20  21
ENDBRANCH   1  19
TORSDOF 5
