REMARK  4 active torsions:
REMARK  status: ('A' for Active; 'I' for Inactive)
REMARK    1  A    between atoms: N1_1  and  C1_2 
REMARK    2  A    between atoms: N2_5  and  N3_6 
REMARK    3  A    between atoms: C5_10  and  N6_11 
REMARK    4  A    between atoms: N6_11  and  P1_12 
ROOT
HETATM    1  N3  UNL     1      -0.787  -0.980   0.008  1.00  0.00    -0.217 NA
HETATM    2  C4  UNL     1      -0.334  -2.206   0.686  1.00  0.00     0.217 C 
HETATM    3  N4  UNL     1       1.032  -1.986   1.122  1.00  0.00    -0.245 NA
HETATM    4  N5  UNL     1       1.620  -0.861   0.528  1.00  0.00    -0.240 NA
HETATM    5  C5  UNL     1       1.406  -0.934  -0.908  1.00  0.00     0.161 C 
HETATM    6  C10 UNL     1      -0.076  -0.946  -1.226  1.00  0.00     0.151 C 
HETATM    7  H10 UNL     1       1.129  -1.989   2.146  1.00  0.00     0.142 HD
HETATM    8  H11 UNL     1       1.123  -0.027   0.935  1.00  0.00     0.142 HD
ENDROOT
BRANCH   1   9
HETATM    9  N2  UNL     1      -2.152  -0.926  -0.083  1.00  0.00    -0.344 N 
HETATM   10  C3  UNL     1      -2.780  -0.615   1.160  1.00  0.00     0.139 C 
HETATM   11  C2  UNL     1      -3.296   0.775   1.304  1.00  0.00     0.056 C 
HETATM   12  C1  UNL     1      -3.889   1.374   0.072  1.00  0.00     0.221 C 
HETATM   13  C12 UNL     1      -2.986   1.147  -1.118  1.00  0.00     0.056 C 
HETATM   14  C11 UNL     1      -2.727  -0.332  -1.232  1.00  0.00     0.139 C 
BRANCH  12  15
HETATM   15  N1  UNL     1      -4.021   2.803   0.291  1.00  0.00     0.083 N 
HETATM   16  H1  UNL     1      -4.814   3.039   0.932  1.00  0.00     0.313 HD
HETATM   17  H2  UNL     1      -3.993   3.374  -0.566  1.00  0.00     0.313 HD
ENDBRANCH  12  15
ENDBRANCH   1   9
BRANCH   5  18
HETATM   18  N6  UNL     1       2.071   0.216  -1.490  1.00  0.00    -0.277 NA
HETATM   19  H13 UNL     1       1.898   0.254  -2.539  1.00  0.00     0.128 HD
BRANCH  18  20
HETATM   20  P1  UNL     1       3.822   0.167  -1.125  1.00  0.00    -0.019 P 
HETATM   21  C6  UNL     1       4.056  -1.047   0.237  1.00  0.00     0.037 C 
HETATM   22  C7  UNL     1       4.761  -0.370   1.138  1.00  0.00    -0.009 C 
HETATM   23 BR1  UNL     1       5.241  -1.289   2.772  1.00  0.00    -0.056 Br
HETATM   24  C8  UNL     1       5.163   1.015   0.901  1.00  0.00     0.052 C 
HETATM   25  C9  UNL     1       4.194   1.675  -0.056  1.00  0.00     0.059 C 
ENDBRANCH  18  20
ENDBRANCH   5  18
TORSDOF 4
