REMARK  4 active torsions:
REMARK  status: ('A' for Active; 'I' for Inactive)
REMARK    1  A    between atoms: C7_8  and  C8_9 
REMARK    2  A    between atoms: C12_16  and  C13_17 
REMARK    3  A    between atoms: C16_21  and  N5_22 
REMARK    4  A    between atoms: C17_23  and  N6_24 
ROOT
HETATM    1  C8  UNL     1       1.959  -1.311   0.413  1.00  0.00     0.098 A 
HETATM    2  N1  UNL     1       3.150  -1.735   0.841  1.00  0.00    -0.237 NA
HETATM    3  C9  UNL     1       3.261  -3.010   1.318  1.00  0.00     0.256 A 
HETATM    4  N2  UNL     1       2.164  -3.753   1.325  1.00  0.00    -0.161 NA
HETATM    5  N3  UNL     1       1.005  -3.290   0.895  1.00  0.00    -0.241 N 
HETATM    6  C10 UNL     1      -0.177  -3.926   0.888  1.00  0.00     0.119 A 
HETATM    7  C11 UNL     1      -1.060  -3.016   0.392  1.00  0.00     0.031 A 
HETATM    8  C12 UNL     1      -0.483  -1.760   0.061  1.00  0.00     0.009 A 
HETATM    9  C18 UNL     1       0.817  -2.052   0.414  1.00  0.00     0.096 A 
ENDROOT
BRANCH   8  10
HETATM   10  C13 UNL     1      -1.122  -0.554  -0.436  1.00  0.00     0.290 C 
HETATM   11  N4  UNL     1      -0.983  -0.070  -1.744  1.00  0.00     0.094 NA
HETATM   12  C14 UNL     1      -2.314   0.450  -2.182  1.00  0.00     0.272 C 
HETATM   13  H11 UNL     1      -0.477   0.884  -1.795  1.00  0.00     0.316 HD
HETATM   14  C15 UNL     1      -2.693   1.590  -1.258  1.00  0.00     0.067 C 
HETATM   15  C16 UNL     1      -2.669   1.205   0.202  1.00  0.00     0.254 C 
HETATM   16  C17 UNL     1      -1.362   0.530   0.595  1.00  0.00     0.288 C 
BRANCH  15  17
HETATM   17  N5  UNL     1      -3.032   2.310   1.021  1.00  0.00     0.085 N 
HETATM   18  H17 UNL     1      -3.984   2.207   1.480  1.00  0.00     0.313 HD
HETATM   19  H18 UNL     1      -3.101   3.176   0.439  1.00  0.00     0.313 HD
ENDBRANCH  15  17
BRANCH  16  20
HETATM   20  N6  UNL     1      -1.508  -0.018   1.906  1.00  0.00     0.087 N 
HETATM   21  H20 UNL     1      -2.418   0.180   2.382  1.00  0.00     0.313 HD
HETATM   22  H21 UNL     1      -1.346  -1.041   1.975  1.00  0.00     0.313 HD
ENDBRANCH  16  20
ENDBRANCH   8  10
BRANCH   1  23
HETATM   23  C7  UNL     1       2.052   0.049  -0.080  1.00  0.00     0.002 A 
HETATM   24  C2  UNL     1       2.239   1.320   0.414  1.00  0.00    -0.032 A 
HETATM   25  C1  UNL     1       2.120   1.227   1.902  1.00  0.00     0.050 C 
HETATM   26  C3  UNL     1       2.472   2.397  -0.410  1.00  0.00     0.017 A 
HETATM   27 BR1  UNL     1       2.695   4.028   0.540  1.00  0.00    -0.051 Br
HETATM   28  C4  UNL     1       2.526   2.234  -1.779  1.00  0.00     0.019 A 
HETATM   29  C5  UNL     1       2.343   0.973  -2.326  1.00  0.00     0.002 A 
HETATM   30  C6  UNL     1       2.109  -0.103  -1.482  1.00  0.00     0.014 A 
ENDBRANCH   1  23
TORSDOF 4
