REMARK  5 active torsions:
REMARK  status: ('A' for Active; 'I' for Inactive)
REMARK    1  A    between atoms: C2_2  and  C3_4 
REMARK    2  A    between atoms: C4_5  and  C5_6 
REMARK    3  A    between atoms: C6_7  and  N1_8 
REMARK    4  A    between atoms: N1_8  and  C7_9 
REMARK    5  A    between atoms: C13_18  and  N5_19 
ROOT
HETATM    1  C7  UNL     1       0.197   0.910   0.313  1.00  0.00     0.105 C 
HETATM    2  N2  UNL     1      -0.392  -0.072  -0.170  1.00  0.00    -0.227 NA
HETATM    3  C8  UNL     1      -0.358  -1.028  -1.109  1.00  0.00     0.257 C 
HETATM    4  N3  UNL     1      -1.291  -1.898  -1.069  1.00  0.00    -0.164 NA
HETATM    5  N4  UNL     1      -2.357  -2.006  -0.179  1.00  0.00    -0.252 N 
HETATM    6  C9  UNL     1      -1.739  -1.882   1.061  1.00  0.00     0.111 C 
HETATM    7  C10 UNL     1      -1.756  -0.621   1.451  1.00  0.00    -0.001 C 
HETATM    8  C11 UNL     1      -1.990   0.807   1.484  1.00  0.00     0.049 C 
HETATM    9  C12 UNL     1      -0.570   1.478   1.495  1.00  0.00     0.089 C 
HETATM   10  C13 UNL     1      -2.791   1.499   0.449  1.00  0.00     0.227 C 
HETATM   11  C14 UNL     1      -4.284   1.177   0.597  1.00  0.00     0.066 C 
HETATM   12  C15 UNL     1      -4.521  -0.277   0.429  1.00  0.00     0.274 C 
HETATM   13  N6  UNL     1      -4.192  -0.752  -0.916  1.00  0.00     0.102 N 
HETATM   14  C16 UNL     1      -3.724  -2.151  -0.770  1.00  0.00     0.419 C 
HETATM   15  H23 UNL     1      -5.029  -0.816  -1.535  1.00  0.00     0.318 HD
ENDROOT
BRANCH   1  16
HETATM   16  N1  UNL     1       1.440   1.424  -0.159  1.00  0.00    -0.354 N 
HETATM   17  H9  UNL     1       1.818   2.183   0.479  1.00  0.00     0.166 HD
BRANCH  16  18
HETATM   18  C6  UNL     1       2.001   0.896  -1.358  1.00  0.00     0.089 C 
HETATM   19  C5  UNL     1       3.177   0.343  -1.137  1.00  0.00     0.017 C 
BRANCH  19  20
HETATM   20  C4  UNL     1       3.750   0.320   0.186  1.00  0.00    -0.001 C 
HETATM   21  C3  UNL     1       4.928  -0.227   0.436  1.00  0.00    -0.007 C 
BRANCH  21  22
HETATM   22  C2  UNL     1       5.821  -0.879  -0.542  1.00  0.00     0.101 C 
HETATM   23  C1  UNL     1       7.226  -0.300  -0.353  1.00  0.00     0.031 C 
HETATM   24 CL1  UNL     1       5.862  -2.629  -0.163  1.00  0.00    -0.121 Cl
ENDBRANCH  21  22
ENDBRANCH  19  20
ENDBRANCH  16  18
ENDBRANCH   1  16
BRANCH  10  25
HETATM   25  N5  UNL     1      -2.375   1.485  -0.903  1.00  0.00     0.083 N 
HETATM   26  H17 UNL     1      -1.825   2.322  -1.200  1.00  0.00     0.313 HD
HETATM   27  H18 UNL     1      -3.242   1.516  -1.508  1.00  0.00     0.313 HD
ENDBRANCH  10  25
TORSDOF 5
