REMARK  4 active torsions:
REMARK  status: ('A' for Active; 'I' for Inactive)
REMARK    1  A    between atoms: N4_13  and  C9_14 
REMARK    2  A    between atoms: C10_15  and  C11_16 
REMARK    3  A    between atoms: C11_16  and  N5_17 
REMARK    4  A    between atoms: N5_17  and  S1_18 
ROOT
HETATM    1 CL1  UNL     1      -6.508  -2.105  -2.177  1.00  0.00    -0.084 Cl
HETATM    2  C1  UNL     1      -5.295  -1.297  -1.188  1.00  0.00     0.036 A 
HETATM    3  C2  UNL     1      -4.521  -2.058  -0.311  1.00  0.00     0.024 A 
HETATM    4  C3  UNL     1      -3.530  -1.519   0.516  1.00  0.00     0.013 A 
HETATM    5  C4  UNL     1      -3.366  -0.164   0.404  1.00  0.00     0.001 A 
HETATM    6  C5  UNL     1      -4.111   0.621  -0.441  1.00  0.00     0.044 A 
HETATM    7  C6  UNL     1      -5.098   0.085  -1.268  1.00  0.00     0.054 A 
HETATM    8  N1  UNL     1      -3.946   2.024  -0.271  1.00  0.00    -0.342 N 
HETATM    9  C7  UNL     1      -3.006   2.177   0.818  1.00  0.00     0.135 C 
HETATM   10  N2  UNL     1      -2.510   3.103   1.562  1.00  0.00    -0.224 NA
HETATM   11  C8  UNL     1      -1.575   2.895   2.610  1.00  0.00     0.257 C 
HETATM   12  N3  UNL     1      -1.209   1.679   2.849  1.00  0.00    -0.165 NA
HETATM   13  N4  UNL     1      -1.735   0.621   2.103  1.00  0.00    -0.264 N 
HETATM   14  C17 UNL     1      -2.408   0.826   0.872  1.00  0.00     0.214 C 
HETATM   15  H4  UNL     1      -4.360   2.842  -0.763  1.00  0.00     0.167 HD
ENDROOT
BRANCH  13  16
HETATM   16  C9  UNL     1      -1.507  -0.658   2.733  1.00  0.00     0.111 C 
HETATM   17  C10 UNL     1      -0.277  -1.096   2.565  1.00  0.00     0.007 C 
BRANCH  17  18
HETATM   18  C11 UNL     1       0.823  -0.433   1.833  1.00  0.00     0.127 C 
BRANCH  18  19
HETATM   19  N5  UNL     1       1.321  -1.226   0.732  1.00  0.00    -0.270 NA
HETATM   20  H10 UNL     1       1.729  -2.101   1.158  1.00  0.00     0.134 HD
BRANCH  19  21
HETATM   21  S1  UNL     1       2.602  -0.410  -0.089  1.00  0.00    -0.130 SA
HETATM   22  C12 UNL     1       3.995  -1.163  -0.054  1.00  0.00     0.025 C 
HETATM   23  C13 UNL     1       5.324  -0.861  -0.598  1.00  0.00     0.064 C 
HETATM   24  C14 UNL     1       5.200  -0.087  -1.871  1.00  0.00     0.273 C 
HETATM   25  N6  UNL     1       4.401   1.078  -1.640  1.00  0.00     0.084 N 
HETATM   26  C15 UNL     1       3.141   1.042  -2.353  1.00  0.00     0.280 C 
HETATM   27  H16 UNL     1       4.296   1.335  -0.644  1.00  0.00     0.315 HD
HETATM   28  C16 UNL     1       2.136   0.139  -1.726  1.00  0.00     0.113 C 
ENDBRANCH  19  21
ENDBRANCH  18  19
ENDBRANCH  17  18
ENDBRANCH  13  16
TORSDOF 4
