REMARK  4 active torsions:
REMARK  status: ('A' for Active; 'I' for Inactive)
REMARK    1  A    between atoms: C2_2  and  C3_3 
REMARK    2  A    between atoms: C3_3  and  N1_4 
REMARK    3  A    between atoms: N1_4  and  C4_5 
REMARK    4  A    between atoms: C12_17  and  N6_18 
ROOT
HETATM    1  C4  UNL     1       2.405  -0.696  -0.348  1.00  0.00     0.129 C 
HETATM    2  N2  UNL     1       2.934  -1.883  -0.300  1.00  0.00    -0.223 NA
HETATM    3  C5  UNL     1       2.592  -2.936  -1.184  1.00  0.00     0.257 C 
HETATM    4  N3  UNL     1       1.601  -3.785  -1.239  1.00  0.00    -0.168 NA
HETATM    5  N4  UNL     1       0.640  -3.660  -0.214  1.00  0.00    -0.288 N 
HETATM    6  C6  UNL     1      -0.510  -3.044  -0.727  1.00  0.00     0.117 C 
HETATM    7  C7  UNL     1      -1.128  -1.932  -1.098  1.00  0.00    -0.026 C 
HETATM    8  C8  UNL     1      -2.531  -1.952  -1.628  1.00  0.00     0.060 C 
HETATM    9  C9  UNL     1      -3.439  -1.057  -0.811  1.00  0.00     0.127 C 
HETATM   10  N5  UNL     1      -2.701   0.001  -0.157  1.00  0.00    -0.383 N 
HETATM   11  C10 UNL     1      -3.290   0.752   0.918  1.00  0.00     0.125 C 
HETATM   12  C11 UNL     1      -2.818   2.143   1.073  1.00  0.00     0.055 C 
HETATM   13  C12 UNL     1      -1.856   2.673   0.073  1.00  0.00     0.225 C 
HETATM   14  C13 UNL     1      -0.856   1.709  -0.472  1.00  0.00     0.093 C 
HETATM   15  C14 UNL     1      -1.368   0.326  -0.565  1.00  0.00     0.021 C 
HETATM   16  C15 UNL     1      -0.541  -0.596  -1.041  1.00  0.00     0.004 C 
HETATM   17  P1  UNL     1       1.143  -0.200  -1.559  1.00  0.00    -0.019 P 
HETATM   18  H8  UNL     1       0.674  -3.948   0.803  1.00  0.00     0.188 HD
HETATM   19  H23 UNL     1       1.439  -0.591  -2.909  1.00  0.00     0.070 HD
ENDROOT
BRANCH   1  20
HETATM   20  N1  UNL     1       2.851   0.280   0.619  1.00  0.00    -0.371 N 
HETATM   21  H6  UNL     1       2.377   1.222   0.620  1.00  0.00     0.161 HD
BRANCH  20  22
HETATM   22  C3  UNL     1       3.929  -0.073   1.547  1.00  0.00     0.148 C 
BRANCH  22  23
HETATM   23  C2  UNL     1       4.157   1.124   2.405  1.00  0.00    -0.018 C 
HETATM   24  C1  UNL     1       5.340   1.729   2.431  1.00  0.00     0.008 C 
ENDBRANCH  22  23
ENDBRANCH  20  22
ENDBRANCH   1  20
BRANCH  13  25
HETATM   25  N6  UNL     1      -2.545   3.284  -1.068  1.00  0.00     0.083 N 
HETATM   26  H19 UNL     1      -3.148   4.059  -0.672  1.00  0.00     0.313 HD
HETATM   27  H20 UNL     1      -1.800   3.781  -1.605  1.00  0.00     0.313 HD
ENDBRANCH  13  25
TORSDOF 4
