REMARK  5 active torsions:
REMARK  status: ('A' for Active; 'I' for Inactive)
REMARK    1  A    between atoms: C7_7  and  N1_8 
REMARK    2  A    between atoms: N1_8  and  C8_9 
REMARK    3  A    between atoms: C12_16  and  C13_17 
REMARK    4  A    between atoms: C13_17  and  N5_18 
REMARK    5  A    between atoms: C16_21  and  N6_22 
ROOT
HETATM    1  C1  UNL     1       5.669   3.396   1.747  1.00  0.00     0.018 C 
HETATM    2  C2  UNL     1       5.002   2.668   1.064  1.00  0.00    -0.078 C 
HETATM    3  C3  UNL     1       4.226   1.781   0.247  1.00  0.00     0.019 A 
HETATM    4  C4  UNL     1       4.517   1.431  -1.041  1.00  0.00     0.021 A 
HETATM    5  C5  UNL     1       3.715   0.557  -1.722  1.00  0.00     0.004 A 
HETATM    6  C6  UNL     1       2.602   0.010  -1.133  1.00  0.00     0.029 A 
HETATM    7  C7  UNL     1       2.223   0.300   0.162  1.00  0.00     0.035 A 
HETATM    8  C19 UNL     1       3.104   1.206   0.783  1.00  0.00     0.050 A 
ENDROOT
BRANCH   7   9
HETATM    9  N1  UNL     1       1.108  -0.259   0.892  1.00  0.00    -0.339 N 
HETATM   10  H5  UNL     1       0.705   0.524   1.433  1.00  0.00     0.167 HD
BRANCH   9  11
HETATM   11  C8  UNL     1       1.071  -1.626   0.529  1.00  0.00     0.159 A 
HETATM   12  N2  UNL     1       2.161  -2.288   1.000  1.00  0.00    -0.220 NA
HETATM   13  C9  UNL     1       2.251  -3.616   0.693  1.00  0.00     0.258 A 
HETATM   14  N3  UNL     1       1.315  -4.221  -0.032  1.00  0.00    -0.161 NA
HETATM   15  N4  UNL     1       0.246  -3.612  -0.505  1.00  0.00    -0.240 N 
HETATM   16  C10 UNL     1      -0.816  -3.940  -1.245  1.00  0.00     0.119 A 
HETATM   17  C18 UNL     1       0.154  -2.319  -0.206  1.00  0.00     0.112 A 
HETATM   18  C11 UNL     1      -1.557  -2.787  -1.376  1.00  0.00     0.030 A 
HETATM   19  C12 UNL     1      -0.955  -1.697  -0.705  1.00  0.00     0.004 A 
BRANCH  19  20
HETATM   20  C13 UNL     1      -1.721  -0.443  -0.712  1.00  0.00     0.313 C 
BRANCH  20  21
HETATM   21  N5  UNL     1      -2.688  -0.295   0.328  1.00  0.00     0.094 N 
HETATM   22  C14 UNL     1      -2.388   0.528   1.448  1.00  0.00     0.275 C 
HETATM   23  C15 UNL     1      -2.618   1.954   0.938  1.00  0.00     0.067 C 
HETATM   24  C16 UNL     1      -3.573   1.752  -0.250  1.00  0.00     0.247 C 
HETATM   25  C17 UNL     1      -3.954   0.306  -0.109  1.00  0.00     0.307 C 
BRANCH  24  26
HETATM   26  N6  UNL     1      -4.703   2.638  -0.022  1.00  0.00     0.084 N 
HETATM   27  H16 UNL     1      -5.580   2.099   0.202  1.00  0.00     0.313 HD
HETATM   28  H17 UNL     1      -4.833   3.263  -0.848  1.00  0.00     0.313 HD
ENDBRANCH  24  26
ENDBRANCH  20  21
ENDBRANCH  19  20
ENDBRANCH   9  11
ENDBRANCH   7   9
TORSDOF 5
