REMARK  2 active torsions:
REMARK  status: ('A' for Active; 'I' for Inactive)
REMARK    1  A    between atoms: C7_7  and  N1_8 
REMARK    2  A    between atoms: N1_8  and  B1_9 
ROOT
HETATM    1  C1  UNL     1       6.167   1.929  -2.123  1.00  0.00     0.018 C 
HETATM    2  C2  UNL     1       5.738   1.283  -1.178  1.00  0.00    -0.078 C 
HETATM    3  C3  UNL     1       5.234   0.543  -0.060  1.00  0.00     0.019 A 
HETATM    4  C4  UNL     1       6.077  -0.102   0.854  1.00  0.00     0.021 A 
HETATM    5  C5  UNL     1       5.581  -0.818   1.920  1.00  0.00     0.004 A 
HETATM    6  C6  UNL     1       4.229  -0.932   2.136  1.00  0.00     0.028 A 
HETATM    7  C7  UNL     1       3.350  -0.314   1.263  1.00  0.00     0.015 A 
HETATM    8  C18 UNL     1       3.865   0.404   0.194  1.00  0.00     0.048 A 
ENDROOT
BRANCH   7   9
HETATM    9  N1  UNL     1       1.918  -0.290   1.260  1.00  0.00    -0.429 N 
HETATM   10  H5  UNL     1       1.391   0.378   1.834  1.00  0.00     0.139 HD
BRANCH   9  11
HETATM   11  B1  UNL     1       1.176  -1.286   0.379  1.00  0.00     0.375 B 
HETATM   12  C8  UNL     1       2.083  -2.163  -0.588  1.00  0.00     0.071 A 
HETATM   13  N2  UNL     1       1.812  -2.554  -1.799  1.00  0.00    -0.265 NA
HETATM   14  C9  UNL     1       0.672  -2.337  -2.615  1.00  0.00     0.253 A 
HETATM   15  N3  UNL     1      -0.418  -1.678  -2.445  1.00  0.00    -0.163 NA
HETATM   16  N4  UNL     1      -0.877  -0.921  -1.363  1.00  0.00    -0.268 N 
HETATM   17  C10 UNL     1      -2.083  -0.187  -1.478  1.00  0.00     0.132 C 
HETATM   18  C15 UNL     1      -0.263  -0.766  -0.056  1.00  0.00    -0.015 A 
HETATM   19  C11 UNL     1      -3.231  -0.782  -1.521  1.00  0.00     0.102 C 
HETATM   20  N5  UNL     1      -4.255   0.220  -1.636  1.00  0.00    -0.393 N 
HETATM   21  C12 UNL     1      -4.623   0.817  -0.352  1.00  0.00     0.084 C 
HETATM   22  H10 UNL     1      -4.434   0.215  -2.664  1.00  0.00     0.159 HD
HETATM   23  C13 UNL     1      -3.906   2.081  -0.089  1.00  0.00     0.043 C 
HETATM   24  C17 UNL     1      -4.558  -0.243   0.706  1.00  0.00     0.043 C 
HETATM   25  C14 UNL     1      -2.792   2.078   0.896  1.00  0.00     0.101 C 
HETATM   26  N6  UNL     1      -2.499   0.742   1.357  1.00  0.00    -0.462 N 
HETATM   27  B2  UNL     1      -1.003   0.027   1.290  1.00  0.00     0.320 B 
HETATM   28  C16 UNL     1      -3.740   0.205   1.873  1.00  0.00     0.101 C 
ENDBRANCH   9  11
ENDBRANCH   7   9
TORSDOF 2
