REMARK  8 active torsions:
REMARK  status: ('A' for Active; 'I' for Inactive)
REMARK    1  A    between atoms: C7_7  and  N1_8 
REMARK    2  A    between atoms: N1_8  and  C8_9 
REMARK    3  A    between atoms: C11_15  and  C12_16 
REMARK    4  A    between atoms: C12_16  and  N5_17 
REMARK    5  A    between atoms: N5_17  and  C13_18 
REMARK    6  A    between atoms: C13_18  and  C14_19 
REMARK    7  A    between atoms: C14_19  and  C15_20 
REMARK    8  A    between atoms: C15_20  and  N6_22 
ROOT
HETATM    1  C1  UNL     1       8.381   1.158   2.202  1.00  0.00     0.018 C 
HETATM    2  C2  UNL     1       7.517   0.742   1.456  1.00  0.00    -0.078 C 
HETATM    3  C3  UNL     1       6.524   0.247   0.573  1.00  0.00     0.019 A 
HETATM    4  C4  UNL     1       6.986  -0.305  -0.618  1.00  0.00     0.021 A 
HETATM    5  C5  UNL     1       6.077  -0.807  -1.525  1.00  0.00     0.004 A 
HETATM    6  C6  UNL     1       4.751  -0.731  -1.187  1.00  0.00     0.029 A 
HETATM    7  C7  UNL     1       4.299  -0.175   0.010  1.00  0.00     0.035 A 
HETATM    8  C19 UNL     1       5.194   0.322   0.907  1.00  0.00     0.050 A 
ENDROOT
BRANCH   7   9
HETATM    9  N1  UNL     1       2.861  -0.195   0.144  1.00  0.00    -0.339 N 
HETATM   10  H5  UNL     1       2.353  -0.712   0.875  1.00  0.00     0.167 HD
BRANCH   9  11
HETATM   11  C8  UNL     1       2.111   0.573  -0.827  1.00  0.00     0.158 A 
HETATM   12  N2  UNL     1       2.762   1.454  -1.494  1.00  0.00    -0.220 NA
HETATM   13  C9  UNL     1       2.074   2.234  -2.458  1.00  0.00     0.257 A 
HETATM   14  N3  UNL     1       0.789   2.068  -2.677  1.00  0.00    -0.165 NA
HETATM   15  N4  UNL     1       0.097   1.097  -1.934  1.00  0.00    -0.261 N 
HETATM   16  C10 UNL     1      -1.172   0.485  -1.701  1.00  0.00     0.190 A 
HETATM   17  C18 UNL     1       0.668   0.262  -0.950  1.00  0.00     0.104 A 
HETATM   18  C11 UNL     1      -0.504  -0.360  -0.696  1.00  0.00    -0.011 A 
BRANCH  18  19
HETATM   19  C12 UNL     1      -0.678  -1.452   0.292  1.00  0.00     0.152 C 
BRANCH  19  20
HETATM   20  N5  UNL     1      -1.591  -1.154   1.305  1.00  0.00    -0.417 N 
HETATM   21  H11 UNL     1      -1.175  -0.845   2.212  1.00  0.00     0.153 HD
BRANCH  20  22
HETATM   22  C13 UNL     1      -2.968  -1.156   1.206  1.00  0.00     0.116 C 
BRANCH  22  23
HETATM   23  C14 UNL     1      -3.713  -0.184   0.363  1.00  0.00     0.054 C 
BRANCH  23  24
HETATM   24  C15 UNL     1      -5.223  -0.384   0.517  1.00  0.00     0.217 C 
HETATM   25  C16 UNL     1      -5.554  -1.790   0.093  1.00  0.00     0.042 C 
BRANCH  24  26
HETATM   26  N6  UNL     1      -5.944   0.486  -0.388  1.00  0.00     0.083 N 
HETATM   27  C17 UNL     1      -5.685   1.880  -0.215  1.00  0.00     0.307 C 
HETATM   28  H20 UNL     1      -6.937   0.217  -0.455  1.00  0.00     0.315 HD
ENDBRANCH  24  26
ENDBRANCH  23  24
ENDBRANCH  22  23
ENDBRANCH  20  22
ENDBRANCH  19  20
ENDBRANCH  18  19
ENDBRANCH   9  11
ENDBRANCH   7   9
TORSDOF 8
