REMARK  5 active torsions:
REMARK  status: ('A' for Active; 'I' for Inactive)
REMARK    1  A    between atoms: O1_2  and  C2_3 
REMARK    2  A    between atoms: C4_5  and  O2_6 
REMARK    3  A    between atoms: C11_16  and  N3_17 
REMARK    4  A    between atoms: N3_17  and  C12_18 
REMARK    5  A    between atoms: C12_18  and  C13_19 
ROOT
HETATM    1  C13 UNL     1       5.409  -0.335   1.176  1.00  0.00     0.000 C 
HETATM    2  C14 UNL     1       6.095  -1.347   0.664  1.00  0.00     0.162 C 
HETATM    3 BR1  UNL     1       7.074  -2.831   0.008  1.00  0.00    -0.172 Br
ENDROOT
BRANCH   1   4
HETATM    4  C12 UNL     1       5.002   0.870   0.363  1.00  0.00     0.149 C 
BRANCH   4   5
HETATM    5  N3  UNL     1       3.567   0.963   0.377  1.00  0.00    -0.369 N 
HETATM    6  H10 UNL     1       3.289   1.871   0.789  1.00  0.00     0.161 HD
BRANCH   5   7
HETATM    7  C11 UNL     1       2.843  -0.139  -0.152  1.00  0.00     0.156 A 
HETATM    8  N2  UNL     1       3.498  -1.196  -0.651  1.00  0.00    -0.222 NA
HETATM    9  C10 UNL     1       2.851  -2.248  -1.170  1.00  0.00     0.238 A 
HETATM   10  N1  UNL     1       1.511  -2.336  -1.235  1.00  0.00    -0.215 NA
HETATM   11  C9  UNL     1       0.782  -1.297  -0.745  1.00  0.00     0.202 A 
HETATM   12  O3  UNL     1      -0.592  -1.513  -0.873  1.00  0.00    -0.289 OA
HETATM   13  C15 UNL     1       1.468  -0.202  -0.205  1.00  0.00     0.128 A 
HETATM   14  C7  UNL     1      -1.594  -0.650  -0.460  1.00  0.00     0.091 A 
HETATM   15  C6  UNL     1      -1.497   0.695  -0.110  1.00  0.00     0.027 A 
HETATM   16  C8  UNL     1      -2.797  -1.325  -0.430  1.00  0.00     0.074 A 
HETATM   17  C4  UNL     1      -2.666   1.358   0.278  1.00  0.00     0.081 A 
HETATM   18  C16 UNL     1      -0.357   1.621  -0.061  1.00  0.00     0.164 C 
HETATM   19  C3  UNL     1      -3.873   0.669   0.305  1.00  0.00     0.074 A 
HETATM   20  C2  UNL     1      -3.954  -0.678  -0.048  1.00  0.00     0.073 A 
HETATM   21  N4  UNL     1       0.870   0.979   0.367  1.00  0.00    -0.379 N 
HETATM   22  H15 UNL     1       1.489   1.305   1.170  1.00  0.00     0.160 HD
BRANCH  17  23
HETATM   23  O2  UNL     1      -2.595   2.702   0.632  1.00  0.00    -0.355 OA
HETATM   24  C5  UNL     1      -3.744   3.427   1.033  1.00  0.00     0.210 C 
ENDBRANCH  17  23
BRANCH  20  25
HETATM   25  O1  UNL     1      -5.229  -1.209   0.034  1.00  0.00    -0.356 OA
HETATM   26  C1  UNL     1      -5.474  -2.553  -0.288  1.00  0.00     0.210 C 
ENDBRANCH  20  25
ENDBRANCH   5   7
ENDBRANCH   4   5
ENDBRANCH   1   4
TORSDOF 5
