REMARK  4 active torsions:
REMARK  status: ('A' for Active; 'I' for Inactive)
REMARK    1  A    between atoms: C7_7  and  C8_8 
REMARK    2  A    between atoms: C12_15  and  C13_16 
REMARK    3  A    between atoms: C13_16  and  N4_17 
REMARK    4  A    between atoms: C16_20  and  N5_21 
ROOT
HETATM    1  C1  UNL     1       6.797   0.415   1.116  1.00  0.00     0.018 C 
HETATM    2  C2  UNL     1       5.698  -0.056   0.972  1.00  0.00    -0.078 C 
HETATM    3  C3  UNL     1       4.376  -0.603   0.812  1.00  0.00     0.017 A 
HETATM    4  C4  UNL     1       3.982  -1.464   1.809  1.00  0.00     0.020 A 
HETATM    5  C5  UNL     1       2.723  -1.999   1.685  1.00  0.00     0.002 A 
HETATM    6  C6  UNL     1       1.913  -1.687   0.629  1.00  0.00     0.014 A 
HETATM    7  C7  UNL     1       2.227  -0.844  -0.397  1.00  0.00    -0.004 A 
HETATM    8  C20 UNL     1       3.533  -0.311  -0.240  1.00  0.00     0.034 A 
ENDROOT
BRANCH   7   9
HETATM    9  C8  UNL     1       1.650  -0.237  -1.585  1.00  0.00     0.098 A 
HETATM   10  N1  UNL     1       2.277  -0.681  -2.718  1.00  0.00    -0.237 NA
HETATM   11  C9  UNL     1       1.977  -0.201  -3.937  1.00  0.00     0.256 A 
HETATM   12  N2  UNL     1       1.030   0.744  -4.011  1.00  0.00    -0.161 NA
HETATM   13  N3  UNL     1       0.403   1.203  -2.947  1.00  0.00    -0.241 N 
HETATM   14  C10 UNL     1      -0.513   2.170  -2.764  1.00  0.00     0.119 A 
HETATM   15  C19 UNL     1       0.687   0.737  -1.746  1.00  0.00     0.095 A 
HETATM   16  C11 UNL     1      -0.773   2.274  -1.416  1.00  0.00     0.030 A 
HETATM   17  C12 UNL     1       0.003   1.336  -0.716  1.00  0.00    -0.008 A 
BRANCH  17  18
HETATM   18  C13 UNL     1      -0.166   1.150   0.714  1.00  0.00     0.158 C 
BRANCH  18  19
HETATM   19  N4  UNL     1      -1.360   0.421   0.993  1.00  0.00    -0.408 N 
HETATM   20  C14 UNL     1      -2.546   1.255   0.911  1.00  0.00     0.119 C 
HETATM   21  C15 UNL     1      -3.657   0.581   1.713  1.00  0.00     0.055 C 
HETATM   22  C16 UNL     1      -3.937  -0.787   1.094  1.00  0.00     0.221 C 
HETATM   23  C17 UNL     1      -2.950  -1.087   0.008  1.00  0.00     0.055 C 
HETATM   24  C18 UNL     1      -1.536  -0.875   0.496  1.00  0.00     0.119 C 
BRANCH  22  25
HETATM   25  N5  UNL     1      -5.299  -0.780   0.595  1.00  0.00     0.083 N 
HETATM   26  H15 UNL     1      -5.473  -0.010  -0.090  1.00  0.00     0.313 HD
HETATM   27  H16 UNL     1      -5.650  -1.701   0.286  1.00  0.00     0.313 HD
ENDBRANCH  22  25
ENDBRANCH  18  19
ENDBRANCH  17  18
ENDBRANCH   7   9
TORSDOF 4
