REMARK  8 active torsions:
REMARK  status: ('A' for Active; 'I' for Inactive)
REMARK    1  A    between atoms: C2_2  and  N1_3 
REMARK    2  A    between atoms: C2_2  and  C3_4 
REMARK    3  A    between atoms: C3_4  and  C4_5 
REMARK    4  A    between atoms: C4_5  and  N2_6 
REMARK    5  A    between atoms: N2_6  and  C5_7 
REMARK    6  A    between atoms: C5_7  and  C6_8 
REMARK    7  A    between atoms: C10_15  and  N6_16 
REMARK    8  A    between atoms: N6_16  and  C11_17 
ROOT
HETATM    1  C6  UNL     1       0.338   1.234   1.349  1.00  0.00    -0.007 A 
HETATM    2  C7  UNL     1       0.929   2.291   2.037  1.00  0.00     0.030 A 
HETATM    3  C8  UNL     1       0.087   3.384   2.041  1.00  0.00     0.119 A 
HETATM    4  N3  UNL     1      -0.997   2.980   1.360  1.00  0.00    -0.240 N 
HETATM    5  N4  UNL     1      -2.096   3.665   1.088  1.00  0.00    -0.161 NA
HETATM    6  C9  UNL     1      -3.116   3.137   0.393  1.00  0.00     0.258 A 
HETATM    7  N5  UNL     1      -2.987   1.870  -0.025  1.00  0.00    -0.220 NA
HETATM    8  C10 UNL     1      -1.895   1.141   0.228  1.00  0.00     0.159 A 
HETATM    9  C17 UNL     1      -0.872   1.711   0.940  1.00  0.00     0.112 A 
ENDROOT
BRANCH   1  10
HETATM   10  C5  UNL     1       0.970  -0.099   1.158  1.00  0.00     0.155 C 
BRANCH  10  11
HETATM   11  N2  UNL     1       1.440  -0.160  -0.205  1.00  0.00    -0.417 N 
HETATM   12  H11 UNL     1       0.818   0.260  -0.891  1.00  0.00     0.153 HD
BRANCH  11  13
HETATM   13  C4  UNL     1       2.047  -1.384  -0.590  1.00  0.00     0.116 C 
BRANCH  13  14
HETATM   14  C3  UNL     1       3.361  -1.702   0.039  1.00  0.00     0.054 C 
BRANCH  14  15
HETATM   15  C2  UNL     1       4.461  -0.732  -0.218  1.00  0.00     0.215 C 
HETATM   16  C1  UNL     1       4.226   0.663   0.243  1.00  0.00     0.042 C 
BRANCH  15  17
HETATM   17  N1  UNL     1       5.636  -1.220   0.523  1.00  0.00     0.082 N 
HETATM   18  H5  UNL     1       6.125  -1.953  -0.026  1.00  0.00     0.313 HD
HETATM   19  H6  UNL     1       5.306  -1.597   1.451  1.00  0.00     0.313 HD
ENDBRANCH  15  17
ENDBRANCH  14  15
ENDBRANCH  13  14
ENDBRANCH  11  13
ENDBRANCH  10  11
ENDBRANCH   1  10
BRANCH   8  20
HETATM   20  N6  UNL     1      -1.849  -0.189  -0.259  1.00  0.00    -0.339 N 
HETATM   21  H17 UNL     1      -1.187  -0.961  -0.305  1.00  0.00     0.167 HD
BRANCH  20  22
HETATM   22  C11 UNL     1      -2.977  -0.773  -0.906  1.00  0.00     0.035 A 
HETATM   23  C12 UNL     1      -2.987  -1.677  -1.976  1.00  0.00     0.032 A 
HETATM   24  C13 UNL     1      -4.112  -2.219  -2.541  1.00  0.00     0.046 A 
HETATM   25  C14 UNL     1      -5.346  -1.870  -2.042  1.00  0.00     0.138 A 
HETATM   26  F1  UNL     1      -6.413  -2.440  -2.643  1.00  0.00    -0.204 F 
HETATM   27  C15 UNL     1      -5.385  -0.983  -0.988  1.00  0.00     0.074 A 
HETATM   28 CL1  UNL     1      -7.032  -0.624  -0.448  1.00  0.00    -0.081 Cl
HETATM   29  C16 UNL     1      -4.237  -0.455  -0.441  1.00  0.00     0.056 A 
ENDBRANCH  20  22
ENDBRANCH   8  20
TORSDOF 8
