REMARK  4 active torsions:
REMARK  status: ('A' for Active; 'I' for Inactive)
REMARK    1  A    between atoms: N1_8  and  C8_9 
REMARK    2  A    between atoms: C12_16  and  C13_17 
REMARK    3  A    between atoms: C13_17  and  N5_18 
REMARK    4  A    between atoms: C16_21  and  N6_22 
ROOT
HETATM    1  C8  UNL     1       1.877  -1.653   1.047  1.00  0.00     0.165 A 
HETATM    2  N2  UNL     1       2.933  -2.262   1.661  1.00  0.00    -0.220 NA
HETATM    3  C9  UNL     1       2.875  -3.616   1.819  1.00  0.00     0.258 A 
HETATM    4  N3  UNL     1       1.829  -4.344   1.394  1.00  0.00    -0.161 NA
HETATM    5  N4  UNL     1       0.833  -3.695   0.804  1.00  0.00    -0.240 N 
HETATM    6  C10 UNL     1      -0.282  -4.269   0.320  1.00  0.00     0.119 A 
HETATM    7  C11 UNL     1      -1.014  -3.220  -0.193  1.00  0.00     0.030 A 
HETATM    8  C12 UNL     1      -0.376  -2.011  -0.037  1.00  0.00     0.004 A 
HETATM    9  C19 UNL     1       0.791  -2.369   0.601  1.00  0.00     0.112 A 
ENDROOT
BRANCH   8  10
HETATM   10  C13 UNL     1      -0.750  -0.629  -0.413  1.00  0.00     0.313 C 
BRANCH  10  11
HETATM   11  N5  UNL     1      -2.023  -0.468  -1.020  1.00  0.00     0.092 N 
HETATM   12  C14 UNL     1      -2.126   0.965  -1.337  1.00  0.00     0.275 C 
HETATM   13  C15 UNL     1      -2.463   1.713  -0.074  1.00  0.00     0.065 C 
HETATM   14  C16 UNL     1      -3.974   1.564   0.123  1.00  0.00     0.221 C 
HETATM   15  C17 UNL     1      -4.313   0.219  -0.426  1.00  0.00     0.065 C 
HETATM   16  C18 UNL     1      -3.175  -0.805  -0.264  1.00  0.00     0.275 C 
BRANCH  14  17
HETATM   17  N6  UNL     1      -4.563   2.579  -0.742  1.00  0.00     0.083 N 
HETATM   18  H21 UNL     1      -5.583   2.529  -0.802  1.00  0.00     0.313 HD
HETATM   19  H22 UNL     1      -4.171   3.531  -0.564  1.00  0.00     0.313 HD
ENDBRANCH  14  17
ENDBRANCH  10  11
ENDBRANCH   8  10
BRANCH   1  20
HETATM   20  N1  UNL     1       2.058  -0.253   0.935  1.00  0.00    -0.310 N 
HETATM   21  C2  UNL     1       2.690   0.086  -0.322  1.00  0.00     0.011 A 
HETATM   22  C1  UNL     1       3.080  -0.916  -1.378  1.00  0.00     0.068 C 
HETATM   23  C3  UNL     1       2.963   1.359  -0.603  1.00  0.00     0.006 A 
HETATM   24  C4  UNL     1       2.667   2.488   0.283  1.00  0.00     0.030 A 
HETATM   25  C5  UNL     1       3.953   3.251   0.529  1.00  0.00     0.018 C 
HETATM   26  C6  UNL     1       2.027   2.058   1.534  1.00  0.00    -0.001 A 
HETATM   27  C7  UNL     1       1.743   0.805   1.844  1.00  0.00     0.095 A 
ENDBRANCH   1  20
TORSDOF 4
