REMARK  4 active torsions:
REMARK  status: ('A' for Active; 'I' for Inactive)
REMARK    1  A    between atoms: O1_2  and  C2_3 
REMARK    2  A    between atoms: C2_3  and  C3_4 
REMARK    3  A    between atoms: C3_4  and  C4_5 
REMARK    4  A    between atoms: C4_5  and  O2_6 
ROOT
HETATM    1  C4  UNL     1       1.478   0.898   0.567  1.00  0.00     0.073 C 
HETATM    2  C6  UNL     1       0.301   0.494   0.123  1.00  0.00     0.019 C 
HETATM    3  C7  UNL     1      -0.234  -0.512   1.010  1.00  0.00     0.161 C 
HETATM    4  N1  UNL     1      -0.779  -1.663   0.321  1.00  0.00    -0.381 N 
HETATM    5  C8  UNL     1      -1.388  -1.634  -0.969  1.00  0.00     0.107 A 
HETATM    6  C9  UNL     1      -2.410  -2.462  -1.173  1.00  0.00     0.067 A 
HETATM    7  N2  UNL     1      -3.024  -2.593  -2.343  1.00  0.00    -0.244 NA
HETATM    8  C10 UNL     1      -2.753  -1.949  -3.455  1.00  0.00     0.236 A 
HETATM    9  N3  UNL     1      -1.730  -1.078  -3.316  1.00  0.00    -0.216 NA
HETATM   10  C11 UNL     1      -1.117  -0.957  -2.131  1.00  0.00     0.197 A 
HETATM   11  O3  UNL     1      -0.081   0.024  -2.106  1.00  0.00    -0.302 OA
HETATM   12  C12 UNL     1      -0.277   1.071  -1.093  1.00  0.00     0.271 C 
HETATM   13  N4  UNL     1      -1.705   1.384  -0.941  1.00  0.00    -0.324 N 
HETATM   14  C13 UNL     1      -2.594   0.646  -0.238  1.00  0.00    -0.028 C 
HETATM   15  C14 UNL     1      -3.370  -0.010   0.405  1.00  0.00     0.063 A 
HETATM   16  C15 UNL     1      -4.276  -0.810   1.158  1.00  0.00     0.082 A 
HETATM   17 BR1  UNL     1      -4.687   0.883   1.671  1.00  0.00    -0.103 Br
HETATM   18  C16 UNL     1      -3.806  -1.955   0.665  1.00  0.00     0.024 C 
HETATM   19  C17 UNL     1      -3.107  -3.130  -0.036  1.00  0.00     0.069 C 
HETATM   20  H11 UNL     1      -0.756  -2.634   0.759  1.00  0.00     0.160 HD
HETATM   21  H14 UNL     1      -2.591   1.848  -1.001  1.00  0.00     0.172 HD
ENDROOT
BRANCH   1  22
HETATM   22  C3  UNL     1       2.469   1.858   0.111  1.00  0.00     0.016 C 
BRANCH  22  23
HETATM   23  C2  UNL     1       3.484   2.689  -0.112  1.00  0.00     0.027 C 
BRANCH  23  24
HETATM   24  O1  UNL     1       4.451   2.705   0.928  1.00  0.00     0.000 OA
HETATM   25  C1  UNL     1       5.363   3.819   0.931  1.00  0.00     0.000 C 
ENDBRANCH  23  24
ENDBRANCH  22  23
ENDBRANCH   1  22
BRANCH   1  26
HETATM   26  O2  UNL     1       2.080   0.406   1.725  1.00  0.00    -0.356 OA
HETATM   27  C5  UNL     1       3.035  -0.637   1.613  1.00  0.00     0.210 C 
ENDBRANCH   1  26
TORSDOF 4
