REMARK  6 active torsions:
REMARK  status: ('A' for Active; 'I' for Inactive)
REMARK    1  A    between atoms: N1_1  and  C1_2 
REMARK    2  A    between atoms: N2_5  and  C4_6 
REMARK    3  A    between atoms: C4_6  and  C5_7 
REMARK    4  A    between atoms: C5_7  and  C6_8 
REMARK    5  A    between atoms: C9_15  and  N6_16 
REMARK    6  A    between atoms: N6_16  and  C10_17 
ROOT
HETATM    1  C5  UNL     1      -0.021  -1.346  -0.902  1.00  0.00    -0.017 C 
HETATM    2  C7  UNL     1       1.042  -1.937  -0.379  1.00  0.00     0.101 A 
HETATM    3  N3  UNL     1       1.297  -3.315  -0.582  1.00  0.00    -0.273 N 
HETATM    4  N4  UNL     1       2.433  -3.885  -0.037  1.00  0.00    -0.167 NA
HETATM    5  C8  UNL     1       3.308  -3.263   0.658  1.00  0.00     0.257 A 
HETATM    6  N5  UNL     1       3.105  -1.888   0.894  1.00  0.00    -0.220 NA
HETATM    7  C9  UNL     1       2.066  -1.234   0.433  1.00  0.00     0.158 A 
HETATM    8  H12 UNL     1       0.769  -4.023  -1.094  1.00  0.00     0.189 HD
ENDROOT
BRANCH   1   9
HETATM    9  C4  UNL     1      -0.686  -0.030  -0.984  1.00  0.00     0.154 C 
BRANCH   9  10
HETATM   10  N2  UNL     1      -2.016  -0.001  -0.482  1.00  0.00    -0.408 N 
HETATM   11  C3  UNL     1      -2.254  -0.168   0.886  1.00  0.00     0.119 C 
HETATM   12  C2  UNL     1      -3.400   0.546   1.504  1.00  0.00     0.055 C 
HETATM   13  C1  UNL     1      -4.371   1.192   0.582  1.00  0.00     0.221 C 
HETATM   14  C17 UNL     1      -3.553   1.878  -0.521  1.00  0.00     0.055 C 
HETATM   15  C16 UNL     1      -2.957   0.685  -1.284  1.00  0.00     0.119 C 
BRANCH  13  16
HETATM   16  N1  UNL     1      -5.161   0.191  -0.092  1.00  0.00     0.083 N 
HETATM   17  H1  UNL     1      -5.796  -0.326   0.553  1.00  0.00     0.313 HD
HETATM   18  H2  UNL     1      -5.665   0.624  -0.916  1.00  0.00     0.313 HD
ENDBRANCH  13  16
ENDBRANCH   9  10
ENDBRANCH   1   9
BRANCH   1  19
HETATM   19  C6  UNL     1      -0.972  -2.172  -1.680  1.00  0.00     0.152 C 
HETATM   20 CL1  UNL     1      -1.089  -1.528  -3.357  1.00  0.00    -0.126 Cl
ENDBRANCH   1  19
BRANCH   7  21
HETATM   21  N6  UNL     1       1.925   0.149   0.766  1.00  0.00    -0.339 N 
HETATM   22  H14 UNL     1       0.943   0.256   1.137  1.00  0.00     0.167 HD
BRANCH  21  23
HETATM   23  C10 UNL     1       3.088   0.961   0.523  1.00  0.00     0.035 A 
HETATM   24  C11 UNL     1       3.165   1.810  -0.564  1.00  0.00     0.032 A 
HETATM   25  C12 UNL     1       4.338   2.523  -0.742  1.00  0.00     0.046 A 
HETATM   26  C13 UNL     1       5.356   2.330   0.190  1.00  0.00     0.138 A 
HETATM   27  F1  UNL     1       6.513   3.038  -0.005  1.00  0.00    -0.204 F 
HETATM   28  C14 UNL     1       5.269   1.480   1.275  1.00  0.00     0.074 A 
HETATM   29 CL2  UNL     1       6.650   1.352   2.353  1.00  0.00    -0.081 Cl
HETATM   30  C15 UNL     1       4.104   0.768   1.459  1.00  0.00     0.056 A 
ENDBRANCH  21  23
ENDBRANCH   7  21
TORSDOF 6
