REMARK  4 active torsions:
REMARK  status: ('A' for Active; 'I' for Inactive)
REMARK    1  A    between atoms: C7_7  and  N1_8 
REMARK    2  A    between atoms: C11_14  and  C12_15 
REMARK    3  A    between atoms: C12_15  and  N4_16 
REMARK    4  A    between atoms: C15_19  and  N5_20 
ROOT
HETATM    1  C1  UNL     1       3.053   3.203  -2.622  1.00  0.00     0.018 C 
HETATM    2  C2  UNL     1       3.253   2.111  -2.109  1.00  0.00    -0.078 C 
HETATM    3  C3  UNL     1       3.481   0.834  -1.497  1.00  0.00     0.019 A 
HETATM    4  C4  UNL     1       4.723   0.251  -1.521  1.00  0.00     0.021 A 
HETATM    5  C5  UNL     1       4.929  -0.972  -0.934  1.00  0.00     0.004 A 
HETATM    6  C6  UNL     1       3.832  -1.550  -0.339  1.00  0.00     0.030 A 
HETATM    7  C7  UNL     1       2.517  -1.044  -0.255  1.00  0.00     0.043 A 
HETATM    8  C19 UNL     1       2.455   0.172  -0.876  1.00  0.00     0.050 A 
ENDROOT
BRANCH   7   9
HETATM    9  N1  UNL     1       1.591  -1.830   0.413  1.00  0.00    -0.288 N 
HETATM   10  C8  UNL     1       1.644  -3.197   0.370  1.00  0.00     0.239 A 
HETATM   11  N2  UNL     1       0.682  -3.738   1.127  1.00  0.00    -0.161 NA
HETATM   12  N3  UNL     1      -0.005  -2.750   1.667  1.00  0.00    -0.227 N 
HETATM   13  C9  UNL     1      -1.033  -2.518   2.499  1.00  0.00     0.121 A 
HETATM   14  C18 UNL     1       0.548  -1.608   1.230  1.00  0.00     0.144 A 
HETATM   15  C10 UNL     1      -1.178  -1.153   2.623  1.00  0.00     0.032 A 
HETATM   16  C11 UNL     1      -0.190  -0.615   1.826  1.00  0.00     0.018 A 
BRANCH  16  17
HETATM   17  C12 UNL     1      -0.016   0.817   1.567  1.00  0.00     0.315 C 
BRANCH  17  18
HETATM   18  N4  UNL     1      -0.823   1.282   0.417  1.00  0.00     0.092 N 
HETATM   19  C13 UNL     1      -2.049   1.884   0.932  1.00  0.00     0.275 C 
HETATM   20  C14 UNL     1      -3.291   1.101   0.718  1.00  0.00     0.065 C 
HETATM   21  C15 UNL     1      -3.561   0.708  -0.718  1.00  0.00     0.221 C 
HETATM   22  C16 UNL     1      -2.241   0.575  -1.413  1.00  0.00     0.065 C 
HETATM   23  C17 UNL     1      -1.247   0.098  -0.343  1.00  0.00     0.275 C 
BRANCH  21  24
HETATM   24  N5  UNL     1      -4.452   1.662  -1.387  1.00  0.00     0.083 N 
HETATM   25  H15 UNL     1      -4.390   1.441  -2.412  1.00  0.00     0.313 HD
HETATM   26  H16 UNL     1      -5.445   1.441  -1.120  1.00  0.00     0.313 HD
ENDBRANCH  21  24
ENDBRANCH  17  18
ENDBRANCH  16  17
ENDBRANCH   7   9
TORSDOF 4
