REMARK  2 active torsions:
REMARK  status: ('A' for Active; 'I' for Inactive)
REMARK    1  A    between atoms: C2_2  and  C3_4 
REMARK    2  A    between atoms: C13_17  and  N4_18 
ROOT
HETATM    1  C3  UNL     1       2.146   0.533   0.207  1.00  0.00     0.073 A 
HETATM    2  C4  UNL     1       1.824  -0.253  -0.793  1.00  0.00    -0.029 A 
HETATM    3  C5  UNL     1       1.038   0.032  -1.972  1.00  0.00     0.013 A 
HETATM    4  C6  UNL     1       0.587   1.264  -1.987  1.00  0.00     0.053 A 
HETATM    5  C7  UNL     1       0.949   2.089  -0.862  1.00  0.00     0.148 A 
HETATM    6  N1  UNL     1       0.346   3.234  -0.641  1.00  0.00    -0.157 NA
HETATM    7  N2  UNL     1      -0.690   3.638  -1.536  1.00  0.00    -0.288 N 
HETATM    8  C8  UNL     1      -1.627   2.910  -0.702  1.00  0.00     0.107 C 
HETATM    9  C9  UNL     1      -2.372   1.899  -0.215  1.00  0.00     0.011 C 
HETATM   10  C10 UNL     1      -3.314   1.114   0.603  1.00  0.00     0.143 C 
HETATM   11  N3  UNL     1      -2.755   0.054   1.289  1.00  0.00    -0.418 N 
HETATM   12  C11 UNL     1      -2.261  -1.153   0.873  1.00  0.00     0.116 C 
HETATM   13  C12 UNL     1      -0.962  -1.086   0.041  1.00  0.00     0.043 C 
HETATM   14  C13 UNL     1      -0.307  -2.419  -0.126  1.00  0.00     0.075 C 
HETATM   15  C14 UNL     1       0.807  -2.505  -1.097  1.00  0.00     0.029 C 
HETATM   16  C15 UNL     1       2.049  -1.715  -0.857  1.00  0.00     0.043 C 
HETATM   17  N5  UNL     1       1.719   1.875   0.300  1.00  0.00    -0.337 N 
HETATM   18  H5  UNL     1      -1.394   3.963  -2.223  1.00  0.00     0.188 HD
HETATM   19  H10 UNL     1      -2.543   0.262   2.320  1.00  0.00     0.153 HD
HETATM   20  H22 UNL     1       2.015   2.417   1.125  1.00  0.00     0.167 HD
ENDROOT
BRANCH   1  21
HETATM   21  C2  UNL     1       2.970  -0.147   1.181  1.00  0.00     0.105 A 
HETATM   22  C1  UNL     1       3.317   0.600   2.212  1.00  0.00     0.252 A 
HETATM   23  F1  UNL     1       3.740  -0.776   2.095  1.00  0.00    -0.364 F 
ENDBRANCH   1  21
BRANCH  14  24
HETATM   24  N4  UNL     1       0.016  -2.993   1.163  1.00  0.00    -0.426 N 
HETATM   25  H16 UNL     1      -0.635  -3.652   1.556  1.00  0.00     0.150 HD
HETATM   26  H17 UNL     1       0.790  -2.611   1.669  1.00  0.00     0.150 HD
ENDBRANCH  14  24
TORSDOF 2
