REMARK  3 active torsions:
REMARK  status: ('A' for Active; 'I' for Inactive)
REMARK    1  A    between atoms: N1_1  and  C1_2 
REMARK    2  A    between atoms: N2_5  and  C4_6 
REMARK    3  A    between atoms: C4_6  and  C5_7 
ROOT
HETATM    1  C5  UNL     1       0.564  -0.194  -1.470  1.00  0.00    -0.023 A 
HETATM    2  C6  UNL     1       1.062   1.110  -1.760  1.00  0.00     0.013 A 
HETATM    3  C7  UNL     1       2.392   0.785  -1.831  1.00  0.00     0.096 A 
HETATM    4  N3  UNL     1       3.050  -0.328  -1.703  1.00  0.00    -0.207 NA
HETATM    5  N4  UNL     1       3.216  -1.596  -1.464  1.00  0.00     0.000 N 
HETATM    6  C8  UNL     1       4.333  -2.237  -1.463  1.00  0.00     0.093 A 
HETATM    7  N5  UNL     1       3.138  -2.903  -1.155  1.00  0.00    -0.190 NA
HETATM    8  C9  UNL     1       2.025  -2.106  -1.196  1.00  0.00     0.145 A 
HETATM    9  C10 UNL     1       1.810  -0.741  -1.493  1.00  0.00     0.122 A 
HETATM   10  N6  UNL     1       0.995  -2.832  -0.368  1.00  0.00    -0.274 NA
HETATM   11  C11 UNL     1       1.477  -1.650   0.354  1.00  0.00     0.110 A 
HETATM   12  C12 UNL     1       1.897  -0.645   0.944  1.00  0.00    -0.119 C 
HETATM   13  C13 UNL     1       2.389   0.494   1.590  1.00  0.00     0.243 A 
HETATM   14  C14 UNL     1       2.903   1.173   0.580  1.00  0.00     0.182 A 
HETATM   15  F1  UNL     1       3.093   1.864   1.759  1.00  0.00    -0.366 F 
HETATM   16  C15 UNL     1       3.571   2.036  -0.362  1.00  0.00     0.054 C 
HETATM   17 CL1  UNL     1       4.700   3.344  -0.150  1.00  0.00    -0.086 Cl
HETATM   18  C16 UNL     1       3.365   1.901  -1.713  1.00  0.00     0.029 C 
HETATM   19  H12 UNL     1       0.720  -2.551   0.553  1.00  0.00     0.168 HD
ENDROOT
BRANCH   1  20
HETATM   20  C4  UNL     1      -0.828  -0.508  -1.260  1.00  0.00     0.308 C 
BRANCH  20  21
HETATM   21  N2  UNL     1      -1.340  -0.514   0.072  1.00  0.00     0.092 NA
HETATM   22  C3  UNL     1      -2.692  -1.027   0.011  1.00  0.00     0.275 C 
HETATM   23  C2  UNL     1      -3.749   0.045  -0.121  1.00  0.00     0.065 C 
HETATM   24  C1  UNL     1      -3.720   0.978   1.080  1.00  0.00     0.221 C 
HETATM   25  C18 UNL     1      -2.346   0.843   1.767  1.00  0.00     0.065 C 
HETATM   26  C17 UNL     1      -1.353   0.849   0.635  1.00  0.00     0.275 C 
BRANCH  24  27
HETATM   27  N1  UNL     1      -4.735   0.679   2.057  1.00  0.00     0.083 N 
HETATM   28  H1  UNL     1      -5.676   0.992   1.772  1.00  0.00     0.313 HD
HETATM   29  H2  UNL     1      -4.638  -0.317   2.298  1.00  0.00     0.313 HD
ENDBRANCH  24  27
ENDBRANCH  20  21
ENDBRANCH   1  20
TORSDOF 3
