REMARK  7 active torsions:
REMARK  status: ('A' for Active; 'I' for Inactive)
REMARK    1  A    between atoms: C2_2  and  C3_4 
REMARK    2  A    between atoms: C4_6  and  C5_7 
REMARK    3  A    between atoms: C5_7  and  N1_8 
REMARK    4  A    between atoms: N1_8  and  C6_9 
REMARK    5  A    between atoms: C10_16  and  C11_17 
REMARK    6  A    between atoms: C11_17  and  N5_18 
REMARK    7  A    between atoms: C14_21  and  N6_22 
ROOT
HETATM    1  C6  UNL     1       1.746  -1.076   0.138  1.00  0.00     0.180 A 
HETATM    2  N2  UNL     1       2.758  -1.961   0.210  1.00  0.00    -0.218 NA
HETATM    3  C7  UNL     1       3.117  -2.607  -0.926  1.00  0.00     0.258 A 
HETATM    4  N3  UNL     1       2.457  -2.344  -2.067  1.00  0.00    -0.161 NA
HETATM    5  N4  UNL     1       1.460  -1.465  -2.108  1.00  0.00    -0.240 N 
HETATM    6  C8  UNL     1       0.708  -1.098  -3.169  1.00  0.00     0.119 A 
HETATM    7  C9  UNL     1      -0.175  -0.169  -2.679  1.00  0.00     0.030 A 
HETATM    8  C10 UNL     1       0.007   0.058  -1.317  1.00  0.00     0.004 A 
HETATM    9  C17 UNL     1       1.048  -0.783  -1.015  1.00  0.00     0.113 A 
ENDROOT
BRANCH   8  10
HETATM   10  C11 UNL     1      -0.683   0.950  -0.359  1.00  0.00     0.313 C 
BRANCH  10  11
HETATM   11  N5  UNL     1      -1.553   0.155   0.465  1.00  0.00     0.092 N 
HETATM   12  C12 UNL     1      -2.252   0.944   1.453  1.00  0.00     0.275 C 
HETATM   13  C13 UNL     1      -3.548   0.241   1.826  1.00  0.00     0.065 C 
HETATM   14  C14 UNL     1      -4.469   0.400   0.633  1.00  0.00     0.221 C 
HETATM   15  C15 UNL     1      -3.764  -0.218  -0.553  1.00  0.00     0.065 C 
HETATM   16  C16 UNL     1      -2.399  -0.762  -0.237  1.00  0.00     0.275 C 
BRANCH  14  17
HETATM   17  N6  UNL     1      -5.754  -0.224   0.877  1.00  0.00     0.083 N 
HETATM   18  H15 UNL     1      -5.823  -0.465   1.883  1.00  0.00     0.313 HD
HETATM   19  H16 UNL     1      -6.512   0.381   0.547  1.00  0.00     0.313 HD
ENDBRANCH  14  17
ENDBRANCH  10  11
ENDBRANCH   8  10
BRANCH   1  20
HETATM   20  N1  UNL     1       1.442  -0.450   1.376  1.00  0.00    -0.239 NA
BRANCH  20  21
HETATM   21  C5  UNL     1       2.240   0.447   1.814  1.00  0.00     0.122 C 
BRANCH  21  22
HETATM   22  C4  UNL     1       3.277   1.410   2.089  1.00  0.00     0.063 C 
HETATM   23  C3  UNL     1       4.303   1.647   1.314  1.00  0.00     0.136 C 
HETATM   24  F1  UNL     1       5.236   2.569   1.642  1.00  0.00    -0.204 F 
BRANCH  23  25
HETATM   25  C2  UNL     1       5.222   1.575   0.203  1.00  0.00     0.038 C 
HETATM   26  C1  UNL     1       6.095   1.564  -0.768  1.00  0.00     0.206 C 
HETATM   27 CL1  UNL     1       4.832   0.422  -1.076  1.00  0.00    -0.221 Cl
ENDBRANCH  23  25
ENDBRANCH  21  22
ENDBRANCH  20  21
ENDBRANCH   1  20
TORSDOF 7
