REMARK  5 active torsions:
REMARK  status: ('A' for Active; 'I' for Inactive)
REMARK    1  A    between atoms: N1_1  and  C1_2 
REMARK    2  A    between atoms: N2_5  and  C4_6 
REMARK    3  A    between atoms: C4_6  and  C5_7 
REMARK    4  A    between atoms: C9_14  and  N5_15 
REMARK    5  A    between atoms: N5_15  and  C10_16 
ROOT
HETATM    1  C5  UNL     1       0.339  -1.599   0.448  1.00  0.00     0.001 A 
HETATM    2  C6  UNL     1       1.077  -2.772   0.395  1.00  0.00     0.030 A 
HETATM    3  C7  UNL     1       0.277  -3.776  -0.045  1.00  0.00     0.119 A 
HETATM    4  N3  UNL     1      -0.964  -3.294  -0.281  1.00  0.00    -0.245 N 
HETATM    5  N4  UNL     1      -1.905  -4.081  -0.720  1.00  0.00    -0.196 NA
HETATM    6  C8  UNL     1      -3.145  -3.820  -1.011  1.00  0.00     0.055 C 
HETATM    7  B1  UNL     1      -3.278  -1.938  -1.290  1.00  0.00     0.263 B 
HETATM    8  C9  UNL     1      -2.073  -1.265  -0.120  1.00  0.00    -0.008 C 
HETATM    9  C16 UNL     1      -0.919  -1.974   0.021  1.00  0.00     0.076 A 
ENDROOT
BRANCH   1  10
HETATM   10  C4  UNL     1       0.710  -0.216   0.859  1.00  0.00     0.313 C 
BRANCH  10  11
HETATM   11  N2  UNL     1       2.149  -0.038   0.717  1.00  0.00     0.092 N 
HETATM   12  C3  UNL     1       2.430   1.311   1.193  1.00  0.00     0.275 C 
HETATM   13  C2  UNL     1       3.933   1.459   1.243  1.00  0.00     0.065 C 
HETATM   14  C1  UNL     1       4.410   1.406  -0.197  1.00  0.00     0.221 C 
HETATM   15  C18 UNL     1       3.926   0.203  -0.948  1.00  0.00     0.065 C 
HETATM   16  C17 UNL     1       2.472  -0.140  -0.697  1.00  0.00     0.275 C 
BRANCH  14  17
HETATM   17  N1  UNL     1       5.868   1.351  -0.099  1.00  0.00     0.083 N 
HETATM   18  H1  UNL     1       6.278   0.435  -0.292  1.00  0.00     0.313 HD
HETATM   19  H2  UNL     1       6.320   2.157  -0.539  1.00  0.00     0.313 HD
ENDBRANCH  14  17
ENDBRANCH  10  11
ENDBRANCH   1  10
BRANCH   8  20
HETATM   20  N5  UNL     1      -2.361  -0.095   0.564  1.00  0.00    -0.368 N 
HETATM   21  H13 UNL     1      -1.893   0.400   1.344  1.00  0.00     0.165 HD
BRANCH  20  22
HETATM   22  C10 UNL     1      -3.464   0.756   0.337  1.00  0.00     0.033 A 
HETATM   23  C11 UNL     1      -3.695   0.936  -1.024  1.00  0.00     0.032 A 
HETATM   24  C12 UNL     1      -4.714   1.711  -1.511  1.00  0.00     0.046 A 
HETATM   25  C13 UNL     1      -5.569   2.355  -0.642  1.00  0.00     0.138 A 
HETATM   26  F1  UNL     1      -6.604   3.150  -1.057  1.00  0.00    -0.204 F 
HETATM   27  C14 UNL     1      -5.343   2.179   0.713  1.00  0.00     0.074 A 
HETATM   28 CL1  UNL     1      -6.365   2.946   1.900  1.00  0.00    -0.081 Cl
HETATM   29  C15 UNL     1      -4.319   1.400   1.212  1.00  0.00     0.056 A 
ENDBRANCH  20  22
ENDBRANCH   8  20
TORSDOF 5
