REMARK  5 active torsions:
REMARK  status: ('A' for Active; 'I' for Inactive)
REMARK    1  A    between atoms: C6_8  and  N2_9 
REMARK    2  A    between atoms: N2_9  and  C7_10 
REMARK    3  A    between atoms: C7_10  and  C8_11 
REMARK    4  A    between atoms: C12_18  and  N6_19 
REMARK    5  A    between atoms: N6_19  and  C13_20 
ROOT
HETATM    1  C8  UNL     1      -0.185  -1.247   0.898  1.00  0.00    -0.007 A 
HETATM    2  C9  UNL     1       0.494  -2.442   1.022  1.00  0.00     0.030 A 
HETATM    3  C10 UNL     1      -0.292  -3.525   0.707  1.00  0.00     0.119 A 
HETATM    4  N3  UNL     1      -1.479  -2.978   0.383  1.00  0.00    -0.240 N 
HETATM    5  N4  UNL     1      -2.596  -3.621   0.001  1.00  0.00    -0.161 NA
HETATM    6  C11 UNL     1      -3.716  -2.963  -0.289  1.00  0.00     0.258 A 
HETATM    7  N5  UNL     1      -3.694  -1.627  -0.187  1.00  0.00    -0.220 NA
HETATM    8  C12 UNL     1      -2.607  -0.972   0.187  1.00  0.00     0.159 A 
HETATM    9  C19 UNL     1      -1.441  -1.637   0.489  1.00  0.00     0.112 A 
ENDROOT
BRANCH   1  10
HETATM   10  C7  UNL     1       0.289   0.138   1.132  1.00  0.00     0.156 C 
BRANCH  10  11
HETATM   11  N2  UNL     1       1.663   0.251   1.517  1.00  0.00    -0.410 N 
HETATM   12  H12 UNL     1       1.789  -0.192   2.439  1.00  0.00     0.154 HD
BRANCH  11  13
HETATM   13  C6  UNL     1       2.671   0.042   0.571  1.00  0.00     0.112 C 
HETATM   14  C1  UNL     1       4.005   0.194   1.320  1.00  0.00     0.220 C 
HETATM   15  F1  UNL     1       3.788  -0.433   2.555  1.00  0.00    -0.245 F 
HETATM   16  C2  UNL     1       5.088  -0.599   0.651  1.00  0.00     0.308 C 
HETATM   17  N1  UNL     1       5.907   0.244  -0.199  1.00  0.00     0.086 N 
HETATM   18  C3  UNL     1       5.048   0.626  -1.316  1.00  0.00     0.270 C 
HETATM   19  H4  UNL     1       6.689  -0.311  -0.587  1.00  0.00     0.315 HD
HETATM   20  C4  UNL     1       3.969   1.589  -0.934  1.00  0.00     0.032 C 
HETATM   21  C5  UNL     1       2.635   0.928  -0.642  1.00  0.00     0.029 C 
ENDBRANCH  11  13
ENDBRANCH  10  11
ENDBRANCH   1  10
BRANCH   8  22
HETATM   22  N6  UNL     1      -2.708   0.439   0.280  1.00  0.00    -0.339 N 
HETATM   23  H18 UNL     1      -2.099   1.242   0.519  1.00  0.00     0.167 HD
BRANCH  22  24
HETATM   24  C13 UNL     1      -3.935   1.122   0.019  1.00  0.00     0.035 A 
HETATM   25  C14 UNL     1      -5.153   0.556   0.385  1.00  0.00     0.029 A 
HETATM   26  C15 UNL     1      -6.380   1.136   0.147  1.00  0.00     0.004 A 
HETATM   27  C16 UNL     1      -6.439   2.355  -0.492  1.00  0.00     0.024 A 
HETATM   28  C17 UNL     1      -5.277   2.980  -0.885  1.00  0.00     0.036 A 
HETATM   29 CL1  UNL     1      -5.277   4.511  -1.692  1.00  0.00    -0.084 Cl
HETATM   30  C18 UNL     1      -4.107   2.349  -0.617  1.00  0.00     0.053 A 
ENDBRANCH  22  24
ENDBRANCH   8  22
TORSDOF 5
