REMARK  7 active torsions:
REMARK  status: ('A' for Active; 'I' for Inactive)
REMARK    1  A    between atoms: C2_2  and  N1_3 
REMARK    2  A    between atoms: C4_7  and  N4_8 
REMARK    3  A    between atoms: N4_8  and  C5_9 
REMARK    4  A    between atoms: C6_10  and  C7_11 
REMARK    5  A    between atoms: C8_12  and  C9_13 
REMARK    6  A    between atoms: C11_17  and  C12_18 
REMARK    7  A    between atoms: C12_18  and  N6_19 
ROOT
HETATM    1  N1  UNL     1      -0.211  -0.253  -1.655  1.00  0.00    -0.231 N 
HETATM    2  N2  UNL     1       0.686   0.788  -2.010  1.00  0.00    -0.159 NA
HETATM    3  C3  UNL     1       1.844   1.054  -1.461  1.00  0.00     0.275 C 
HETATM    4  N3  UNL     1       2.519   0.414  -0.397  1.00  0.00    -0.056 NA
HETATM    5  C4  UNL     1       2.118  -0.486   0.428  1.00  0.00     0.707 C 
HETATM    6  N5  UNL     1       0.823  -1.116   0.502  1.00  0.00    -0.173 N 
HETATM    7  C10 UNL     1      -0.283  -0.848  -0.366  1.00  0.00     0.141 C 
HETATM    8  C11 UNL     1      -1.466  -1.182   0.095  1.00  0.00     0.054 C 
HETATM    9  H12 UNL     1       0.690  -1.827   1.258  1.00  0.00     0.186 HD
ENDROOT
BRANCH   5  10
HETATM   10  N4  UNL     1       3.057  -0.926   1.395  1.00  0.00    -0.200 N 
HETATM   11  H5  UNL     1       2.673  -1.200   2.332  1.00  0.00     0.183 HD
BRANCH  10  12
HETATM   12  C5  UNL     1       4.432  -0.971   1.050  1.00  0.00     0.106 C 
HETATM   13  C6  UNL     1       5.181  -0.039   0.486  1.00  0.00     0.017 C 
BRANCH  13  14
HETATM   14  C7  UNL     1       6.579  -0.353   0.240  1.00  0.00    -0.000 C 
HETATM   15  C8  UNL     1       7.385   0.531  -0.321  1.00  0.00     0.004 C 
BRANCH  15  16
HETATM   16  C9  UNL     1       7.111   1.909  -0.790  1.00  0.00     0.249 C 
HETATM   17  F1  UNL     1       7.945   2.763  -0.072  1.00  0.00    -0.251 F 
ENDBRANCH  15  16
ENDBRANCH  13  14
ENDBRANCH  10  12
ENDBRANCH   5  10
BRANCH   1  18
HETATM   18  C2  UNL     1      -1.144  -0.807  -2.607  1.00  0.00     0.094 C 
HETATM   19  C1  UNL     1      -1.268  -2.093  -2.969  1.00  0.00     0.052 C 
ENDBRANCH   1  18
BRANCH   8  20
HETATM   20  C12 UNL     1      -2.904  -1.186  -0.221  1.00  0.00     0.303 C 
BRANCH  20  21
HETATM   21  N6  UNL     1      -3.607  -0.398   0.802  1.00  0.00     0.091 N 
HETATM   22  C13 UNL     1      -3.195   0.974   0.608  1.00  0.00     0.272 C 
HETATM   23  C14 UNL     1      -4.038   1.981   1.328  1.00  0.00     0.030 C 
HETATM   24  C15 UNL     1      -5.514   1.720   1.264  1.00  0.00     0.003 C 
HETATM   25  C16 UNL     1      -5.752   0.277   1.644  1.00  0.00     0.030 C 
HETATM   26  C17 UNL     1      -5.035  -0.580   0.640  1.00  0.00     0.272 C 
ENDBRANCH  20  21
ENDBRANCH   8  20
TORSDOF 7
