REMARK  5 active torsions:
REMARK  status: ('A' for Active; 'I' for Inactive)
REMARK    1  A    between atoms: O1_1  and  C1_2 
REMARK    2  A    between atoms: C5_6  and  N1_7 
REMARK    3  A    between atoms: N1_7  and  C6_8 
REMARK    4  A    between atoms: C6_8  and  C7_9 
REMARK    5  A    between atoms: C11_13  and  C12_14 
ROOT
HETATM    1  C1  UNL     1       0.562  -1.444   3.032  1.00  0.00     0.099 C 
HETATM    2  C2  UNL     1       1.511  -1.865   2.141  1.00  0.00     0.031 C 
HETATM    3  C3  UNL     1       0.600  -1.127   1.189  1.00  0.00     0.015 C 
HETATM    4  C4  UNL     1       1.296   0.221   0.911  1.00  0.00     0.078 C 
HETATM    5  C5  UNL     1       0.376   1.085   0.304  1.00  0.00     0.101 C 
HETATM    6  N2  UNL     1      -0.335   2.061   0.202  1.00  0.00    -0.230 N 
HETATM    7  C13 UNL     1      -1.143   3.089  -0.011  1.00  0.00     0.235 A 
HETATM    8  N3  UNL     1      -1.810   2.146   0.303  1.00  0.00    -0.241 N 
HETATM    9  C14 UNL     1      -2.595   1.170   0.637  1.00  0.00     0.194 C 
HETATM   10  N4  UNL     1      -3.406   0.132   0.820  1.00  0.00    -0.197 NA
HETATM   11  N5  UNL     1      -3.800  -0.153   2.222  1.00  0.00    -0.199 NA
HETATM   12  S1  UNL     1      -2.844   0.480   3.659  1.00  0.00    -0.164 SA
HETATM   13  C15 UNL     1      -1.233  -0.448   3.494  1.00  0.00     0.172 C 
HETATM   14  C16 UNL     1      -0.264  -1.141   4.182  1.00  0.00     0.086 C 
HETATM   15  H14 UNL     1      -4.157  -0.351   1.219  1.00  0.00     0.270 HD
ENDROOT
BRANCH   5  16
HETATM   16  N1  UNL     1       0.018   0.740  -1.144  1.00  0.00    -0.377 N 
HETATM   17  H7  UNL     1      -0.485  -0.196  -1.398  1.00  0.00     0.160 HD
BRANCH  16  18
HETATM   18  C6  UNL     1       0.391   1.606  -2.273  1.00  0.00     0.138 C 
BRANCH  18  19
HETATM   19  C7  UNL     1       0.110   0.815  -3.480  1.00  0.00     0.037 A 
HETATM   20  C8  UNL     1       1.079   0.066  -3.038  1.00  0.00    -0.052 A 
HETATM   21  C9  UNL     1       1.940  -0.578  -2.668  1.00  0.00     0.017 A 
HETATM   22  C12 UNL     1       0.754  -0.432  -3.957  1.00  0.00     0.066 A 
HETATM   23  C10 UNL     1       2.869  -1.261  -2.295  1.00  0.00     0.014 A 
HETATM   24  C11 UNL     1       1.916  -1.467  -3.614  1.00  0.00     0.034 A 
HETATM   25 CL1  UNL     1      -0.509  -0.263  -5.254  1.00  0.00    -0.114 Cl
ENDBRANCH  18  19
ENDBRANCH  16  18
ENDBRANCH   5  16
BRANCH   1  26
HETATM   26  O1  UNL     1       1.359  -2.111   4.051  1.00  0.00    -0.386 OA
HETATM   27  H1  UNL     1       2.039  -1.424   4.503  1.00  0.00     0.210 HD
ENDBRANCH   1  26
TORSDOF 5
