REMARK  8 active torsions:
REMARK  status: ('A' for Active; 'I' for Inactive)
REMARK    1  A    between atoms: C11_15  and  C12_16 
REMARK    2  A    between atoms: C12_16  and  N5_17 
REMARK    3  A    between atoms: N5_17  and  C13_18 
REMARK    4  A    between atoms: C13_18  and  C14_19 
REMARK    5  A    between atoms: C14_19  and  C15_20 
REMARK    6  A    between atoms: C15_20  and  C16_21 
REMARK    7  A    between atoms: C16_21  and  C17_22 
REMARK    8  A    between atoms: C17_22  and  N6_23 
ROOT
HETATM    1  C1  UNL     1      -0.161  -2.007  -2.664  1.00  0.00     0.049 C 
HETATM    2  C2  UNL     1      -1.346  -1.198  -2.393  1.00  0.00    -0.050 C 
HETATM    3  C3  UNL     1      -2.537  -0.523  -2.539  1.00  0.00     0.007 C 
HETATM    4  C4  UNL     1      -3.549   0.337  -1.858  1.00  0.00    -0.002 C 
HETATM    5  C5  UNL     1      -3.825   0.970  -0.696  1.00  0.00    -0.007 C 
HETATM    6  C6  UNL     1      -3.819   1.520   0.645  1.00  0.00     0.148 C 
HETATM    7  N1  UNL     1      -2.639   1.318   1.489  1.00  0.00    -0.369 N 
HETATM    8  C7  UNL     1      -2.562  -0.029   1.830  1.00  0.00     0.154 A 
HETATM    9  N2  UNL     1      -3.238  -0.405   2.949  1.00  0.00    -0.221 NA
HETATM   10  C8  UNL     1      -3.502  -1.762   3.007  1.00  0.00     0.258 A 
HETATM   11  N3  UNL     1      -3.044  -2.455   1.943  1.00  0.00    -0.161 NA
HETATM   12  N4  UNL     1      -2.408  -1.901   0.959  1.00  0.00    -0.239 N 
HETATM   13  C9  UNL     1      -2.021  -2.381  -0.288  1.00  0.00     0.131 A 
HETATM   14  C10 UNL     1      -1.527  -1.214  -0.900  1.00  0.00    -0.002 A 
HETATM   15  C11 UNL     1      -1.497  -0.038  -0.284  1.00  0.00     0.015 A 
HETATM   16  C18 UNL     1      -2.052  -0.651   0.725  1.00  0.00     0.112 A 
HETATM   17  H9  UNL     1      -1.787   1.593   2.012  1.00  0.00     0.161 HD
ENDROOT
BRANCH  15  18
HETATM   18  C12 UNL     1      -0.870   1.186  -0.750  1.00  0.00     0.311 C 
BRANCH  18  19
HETATM   19  N5  UNL     1       0.593   1.157  -0.551  1.00  0.00     0.087 N 
HETATM   20  H14 UNL     1       1.076   0.569  -1.230  1.00  0.00     0.316 HD
BRANCH  19  21
HETATM   21  C13 UNL     1       0.924   0.988   0.826  1.00  0.00     0.270 C 
BRANCH  21  22
HETATM   22  C14 UNL     1       2.418   0.945   1.111  1.00  0.00     0.030 C 
BRANCH  22  23
HETATM   23  C15 UNL     1       3.101  -0.167   0.406  1.00  0.00     0.003 C 
BRANCH  23  24
HETATM   24  C16 UNL     1       4.559  -0.194   0.738  1.00  0.00     0.030 C 
BRANCH  24  25
HETATM   25  C17 UNL     1       5.255   1.077   0.336  1.00  0.00     0.267 C 
BRANCH  25  26
HETATM   26  N6  UNL     1       6.683   0.992   0.657  1.00  0.00     0.078 N 
HETATM   27  H25 UNL     1       7.262   1.201  -0.202  1.00  0.00     0.312 HD
HETATM   28  H26 UNL     1       6.892   0.012   0.991  1.00  0.00     0.312 HD
ENDBRANCH  25  26
ENDBRANCH  24  25
ENDBRANCH  23  24
ENDBRANCH  22  23
ENDBRANCH  21  22
ENDBRANCH  19  21
ENDBRANCH  18  19
ENDBRANCH  15  18
TORSDOF 8
