REMARK  5 active torsions:
REMARK  status: ('A' for Active; 'I' for Inactive)
REMARK    1  A    between atoms: P1_2  and  C2_3 
REMARK    2  A    between atoms: N1_7  and  C6_8 
REMARK    3  A    between atoms: C10_15  and  C11_16 
REMARK    4  A    between atoms: C11_16  and  N5_17 
REMARK    5  A    between atoms: C14_20  and  N6_21 
ROOT
HETATM    1  C6  UNL     1       0.731  -0.872  -1.447  1.00  0.00     0.161 A 
HETATM    2  N2  UNL     1       0.991  -1.756  -2.427  1.00  0.00    -0.220 NA
HETATM    3  C7  UNL     1       0.542  -1.475  -3.689  1.00  0.00     0.258 A 
HETATM    4  N3  UNL     1      -0.140  -0.342  -3.935  1.00  0.00    -0.161 NA
HETATM    5  N4  UNL     1      -0.403   0.532  -2.981  1.00  0.00    -0.240 N 
HETATM    6  C8  UNL     1      -1.030   1.739  -2.875  1.00  0.00     0.119 A 
HETATM    7  C9  UNL     1      -0.949   2.156  -1.541  1.00  0.00     0.030 A 
HETATM    8  C10 UNL     1      -0.257   1.190  -0.788  1.00  0.00     0.004 A 
HETATM    9  C17 UNL     1       0.029   0.263  -1.756  1.00  0.00     0.112 A 
ENDROOT
BRANCH   8  10
HETATM   10  C11 UNL     1      -0.233   1.491   0.628  1.00  0.00     0.313 C 
BRANCH  10  11
HETATM   11  N5  UNL     1      -1.399   1.088   1.389  1.00  0.00     0.092 NA
HETATM   12  C12 UNL     1      -2.620   1.729   1.042  1.00  0.00     0.275 C 
HETATM   13  C13 UNL     1      -3.549   0.815   0.247  1.00  0.00     0.065 C 
HETATM   14  C14 UNL     1      -3.929  -0.366   1.116  1.00  0.00     0.221 C 
HETATM   15  C15 UNL     1      -2.829  -0.726   2.075  1.00  0.00     0.065 C 
HETATM   16  C16 UNL     1      -1.474  -0.320   1.510  1.00  0.00     0.275 C 
BRANCH  14  17
HETATM   17  N6  UNL     1      -4.180  -1.491   0.242  1.00  0.00     0.083 N 
HETATM   18  H18 UNL     1      -3.746  -1.396  -0.681  1.00  0.00     0.313 HD
HETATM   19  H19 UNL     1      -3.896  -2.363   0.742  1.00  0.00     0.313 HD
ENDBRANCH  14  17
ENDBRANCH  10  11
ENDBRANCH   8  10
BRANCH   1  20
HETATM   20  N1  UNL     1       1.381  -1.296  -0.264  1.00  0.00    -0.336 N 
HETATM   21  C5  UNL     1       1.129  -2.239   0.770  1.00  0.00     0.093 A 
HETATM   22  C4  UNL     1       1.949  -2.419   1.787  1.00  0.00     0.018 A 
HETATM   23  C3  UNL     1       3.190  -1.677   1.951  1.00  0.00     0.011 A 
HETATM   24  C2  UNL     1       3.429  -0.807   0.989  1.00  0.00    -0.038 A 
HETATM   25  C18 UNL     1       2.635  -0.519  -0.204  1.00  0.00     0.169 A 
BRANCH  24  26
HETATM   26  P1  UNL     1       4.971   0.124   1.186  1.00  0.00    -0.101 P 
HETATM   27  C1  UNL     1       5.145   1.494  -0.048  1.00  0.00     0.045 C 
HETATM   28  H4  UNL     1       5.130   0.712   2.509  1.00  0.00     0.062 HD
ENDBRANCH  24  26
ENDBRANCH   1  20
TORSDOF 5
