REMARK  8 active torsions:
REMARK  status: ('A' for Active; 'I' for Inactive)
REMARK    1  A    between atoms: C2_2  and  B1_3 
REMARK    2  A    between atoms: B1_3  and  N1_4 
REMARK    3  A    between atoms: C4_8  and  N4_9 
REMARK    4  A    between atoms: N4_9  and  C5_10 
REMARK    5  A    between atoms: C12_17  and  C13_18 
REMARK    6  A    between atoms: C13_18  and  C14_19 
REMARK    7  A    between atoms: C14_19  and  N5_20 
REMARK    8  A    between atoms: C17_23  and  N6_24 
ROOT
HETATM    1  N1  UNL     1      -0.938   2.955   0.390  1.00  0.00    -0.308 N 
HETATM    2  N2  UNL     1      -2.179   3.503   0.708  1.00  0.00    -0.180 NA
HETATM    3  C3  UNL     1      -3.273   2.864   0.650  1.00  0.00     0.256 A 
HETATM    4  N3  UNL     1      -3.216   1.521   0.236  1.00  0.00    -0.220 NA
HETATM    5  C4  UNL     1      -2.133   0.908  -0.083  1.00  0.00     0.156 A 
HETATM    6  C12 UNL     1      -0.858   1.603  -0.029  1.00  0.00     0.081 A 
ENDROOT
BRANCH   6   7
HETATM    7  C13 UNL     1       0.262   1.010  -0.337  1.00  0.00     0.036 C 
BRANCH   7   8
HETATM    8  C14 UNL     1       1.690   1.159  -0.453  1.00  0.00     0.302 C 
BRANCH   8   9
HETATM    9  N5  UNL     1       2.494   0.247   0.352  1.00  0.00     0.091 NA
HETATM   10  C15 UNL     1       3.893   0.659   0.241  1.00  0.00     0.275 C 
HETATM   11  C16 UNL     1       4.732  -0.253   1.122  1.00  0.00     0.065 C 
HETATM   12  C17 UNL     1       4.762  -1.608   0.451  1.00  0.00     0.221 C 
HETATM   13  C18 UNL     1       3.659  -1.751  -0.537  1.00  0.00     0.065 C 
HETATM   14  C19 UNL     1       2.349  -1.125  -0.122  1.00  0.00     0.275 C 
BRANCH  12  15
HETATM   15  N6  UNL     1       6.048  -1.748  -0.217  1.00  0.00     0.083 N 
HETATM   16  H20 UNL     1       6.042  -1.301  -1.159  1.00  0.00     0.313 HD
HETATM   17  H21 UNL     1       6.367  -2.737  -0.237  1.00  0.00     0.313 HD
ENDBRANCH  12  15
ENDBRANCH   8   9
ENDBRANCH   7   8
ENDBRANCH   6   7
BRANCH   1  18
HETATM   18  B1  UNL     1       0.451   3.947   0.508  1.00  0.00     0.393 B 
BRANCH  18  19
HETATM   19  C2  UNL     1       1.810   5.060   0.024  1.00  0.00    -0.216 C 
HETATM   20  C1  UNL     1       2.621   5.873  -0.595  1.00  0.00     0.076 C 
ENDBRANCH  18  19
ENDBRANCH   1  18
BRANCH   5  21
HETATM   21  N4  UNL     1      -2.237  -0.463  -0.487  1.00  0.00    -0.339 N 
HETATM   22  H4  UNL     1      -1.536  -0.807  -1.166  1.00  0.00     0.167 HD
BRANCH  21  23
HETATM   23  C5  UNL     1      -3.278  -1.315   0.036  1.00  0.00     0.034 A 
HETATM   24  C6  UNL     1      -3.169  -2.050   1.196  1.00  0.00     0.029 A 
HETATM   25  C7  UNL     1      -4.216  -2.843   1.625  1.00  0.00     0.003 A 
HETATM   26  C8  UNL     1      -5.387  -2.939   0.941  1.00  0.00     0.007 A 
HETATM   27  C9  UNL     1      -5.500  -2.209  -0.213  1.00  0.00    -0.060 A 
HETATM   28  C10 UNL     1      -6.712  -2.194  -1.083  1.00  0.00     0.048 C 
HETATM   29  C11 UNL     1      -4.473  -1.408  -0.668  1.00  0.00     0.036 A 
ENDBRANCH  21  23
ENDBRANCH   5  21
TORSDOF 8
