REMARK  5 active torsions:
REMARK  status: ('A' for Active; 'I' for Inactive)
REMARK    1  A    between atoms: N1_1  and  C1_2 
REMARK    2  A    between atoms: N2_5  and  C4_6 
REMARK    3  A    between atoms: C4_6  and  C5_7 
REMARK    4  A    between atoms: C9_14  and  N6_15 
REMARK    5  A    between atoms: N6_15  and  C10_16 
ROOT
HETATM    1  C5  UNL     1      -0.213   1.865   0.649  1.00  0.00     0.004 A 
HETATM    2  C6  UNL     1       0.025   3.160   1.121  1.00  0.00     0.030 A 
HETATM    3  C7  UNL     1      -0.388   4.089   0.171  1.00  0.00     0.119 A 
HETATM    4  N3  UNL     1      -0.875   3.349  -0.875  1.00  0.00    -0.240 N 
HETATM    5  N4  UNL     1      -1.370   3.822  -2.003  1.00  0.00    -0.161 NA
HETATM    6  C8  UNL     1      -1.811   2.979  -2.957  1.00  0.00     0.258 A 
HETATM    7  N5  UNL     1      -1.741   1.671  -2.746  1.00  0.00    -0.220 NA
HETATM    8  C9  UNL     1      -1.241   1.173  -1.604  1.00  0.00     0.158 A 
HETATM    9  C15 UNL     1      -0.776   2.033  -0.602  1.00  0.00     0.112 A 
ENDROOT
BRANCH   1  10
HETATM   10  C4  UNL     1       0.068   0.546   1.281  1.00  0.00     0.313 C 
BRANCH  10  11
HETATM   11  N2  UNL     1       1.235  -0.077   0.727  1.00  0.00     0.092 N 
HETATM   12  C3  UNL     1       2.437   0.700   0.956  1.00  0.00     0.275 C 
HETATM   13  C2  UNL     1       3.638  -0.239   0.858  1.00  0.00     0.065 C 
HETATM   14  C1  UNL     1       3.312  -1.288  -0.193  1.00  0.00     0.221 C 
HETATM   15  C17 UNL     1       2.231  -2.183   0.333  1.00  0.00     0.065 C 
HETATM   16  C16 UNL     1       1.428  -1.366   1.355  1.00  0.00     0.275 C 
BRANCH  14  17
HETATM   17  N1  UNL     1       4.491  -2.057  -0.507  1.00  0.00     0.083 N 
HETATM   18  H1  UNL     1       4.365  -2.480  -1.471  1.00  0.00     0.313 HD
HETATM   19  H2  UNL     1       5.308  -1.401  -0.542  1.00  0.00     0.313 HD
ENDBRANCH  14  17
ENDBRANCH  10  11
ENDBRANCH   1  10
BRANCH   8  20
HETATM   20  N6  UNL     1      -1.178  -0.253  -1.382  1.00  0.00    -0.353 N 
HETATM   21  H13 UNL     1      -0.357  -0.924  -1.442  1.00  0.00     0.166 HD
BRANCH  20  22
HETATM   22  C10 UNL     1      -2.325  -0.945  -1.019  1.00  0.00    -0.035 C 
HETATM   23  C11 UNL     1      -2.540  -2.260  -0.695  1.00  0.00     0.015 C 
HETATM   24  C12 UNL     1      -3.590  -2.813  -0.054  1.00  0.00     0.043 C 
HETATM   25  C13 UNL     1      -4.658  -2.130   0.398  1.00  0.00     0.122 C 
HETATM   26  F1  UNL     1      -5.662  -2.793   1.034  1.00  0.00    -0.206 F 
HETATM   27  C14 UNL     1      -4.918  -0.802   0.322  1.00  0.00     0.006 C 
HETATM   28 CL1  UNL     1      -6.002   0.200   1.203  1.00  0.00    -0.099 Cl
HETATM   29  B1  UNL     1      -3.915   0.032  -0.946  1.00  0.00     0.267 B 
ENDBRANCH  20  22
ENDBRANCH   8  20
TORSDOF 5
