REMARK  5 active torsions:
REMARK  status: ('A' for Active; 'I' for Inactive)
REMARK    1  A    between atoms: C2_2  and  C3_3 
REMARK    2  A    between atoms: N2_9  and  C8_10 
REMARK    3  A    between atoms: C8_10  and  C9_11 
REMARK    4  A    between atoms: C11_13  and  N3_14 
REMARK    5  A    between atoms: N3_14  and  C12_15 
ROOT
HETATM    1  C9  UNL     1      -0.828  -1.012   0.807  1.00  0.00     0.061 A 
HETATM    2  C10 UNL     1       0.343  -0.884   0.202  1.00  0.00     0.105 A 
HETATM    3  C11 UNL     1       1.642  -0.684  -0.425  1.00  0.00     0.154 A 
HETATM    4  N4  UNL     1       2.080  -1.512  -1.318  1.00  0.00    -0.221 NA
HETATM    5  C19 UNL     1       1.280  -2.624  -1.685  1.00  0.00     0.252 A 
HETATM    6  N5  UNL     1       0.109  -2.848  -1.154  1.00  0.00    -0.182 NA
HETATM    7  N6  UNL     1      -0.442  -1.996  -0.174  1.00  0.00    -0.133 NA
ENDROOT
BRANCH   1   8
HETATM    8  C8  UNL     1      -1.932  -0.665   1.737  1.00  0.00     0.173 C 
BRANCH   8   9
HETATM    9  N2  UNL     1      -3.113  -0.455   1.015  1.00  0.00    -0.398 N 
HETATM   10  C3  UNL     1      -3.100  -0.591  -0.375  1.00  0.00     0.130 C 
HETATM   11  C4  UNL     1      -4.101   0.155  -1.159  1.00  0.00     0.298 C 
HETATM   12  N1  UNL     1      -4.828   1.172  -0.467  1.00  0.00     0.085 N 
HETATM   13  C5  UNL     1      -4.044   1.972   0.434  1.00  0.00     0.271 C 
HETATM   14  H7  UNL     1      -5.256   1.837  -1.154  1.00  0.00     0.315 HD
HETATM   15  C6  UNL     1      -4.280   1.417   1.834  1.00  0.00     0.049 C 
HETATM   16  C7  UNL     1      -4.302  -0.110   1.686  1.00  0.00     0.119 C 
BRANCH  10  17
HETATM   17  C2  UNL     1      -3.272  -2.061  -0.680  1.00  0.00    -0.011 C 
HETATM   18  C1  UNL     1      -3.328  -2.295  -1.997  1.00  0.00     0.009 C 
ENDBRANCH  10  17
ENDBRANCH   8   9
ENDBRANCH   1   8
BRANCH   3  19
HETATM   19  N3  UNL     1       2.471   0.403  -0.100  1.00  0.00    -0.339 N 
HETATM   20  H16 UNL     1       1.999   1.333   0.096  1.00  0.00     0.167 HD
BRANCH  19  21
HETATM   21  C12 UNL     1       3.884   0.339  -0.011  1.00  0.00     0.034 A 
HETATM   22  C13 UNL     1       4.682  -0.751  -0.175  1.00  0.00     0.029 A 
HETATM   23  C14 UNL     1       6.055  -0.743  -0.082  1.00  0.00     0.003 A 
HETATM   24  C15 UNL     1       6.712   0.432   0.196  1.00  0.00     0.007 A 
HETATM   25  C16 UNL     1       5.966   1.579   0.374  1.00  0.00    -0.060 A 
HETATM   26  C17 UNL     1       6.610   2.903   0.681  1.00  0.00     0.048 C 
HETATM   27  C18 UNL     1       4.602   1.503   0.268  1.00  0.00     0.036 A 
ENDBRANCH  19  21
ENDBRANCH   3  19
TORSDOF 5
