REMARK  3 active torsions:
REMARK  status: ('A' for Active; 'I' for Inactive)
REMARK    1  A    between atoms: N1_1  and  C1_2 
REMARK    2  A    between atoms: N2_5  and  C4_6 
REMARK    3  A    between atoms: C4_6  and  C5_7 
ROOT
HETATM    1  C5  UNL     1      -0.133  -0.547  -0.382  1.00  0.00    -0.017 A 
HETATM    2  C6  UNL     1      -1.338   0.040  -0.305  1.00  0.00     0.051 A 
HETATM    3  C7  UNL     1      -2.174   1.008  -1.176  1.00  0.00     0.099 C 
HETATM    4  C8  UNL     1      -3.595   0.679  -0.914  1.00  0.00    -0.050 A 
HETATM    5  C9  UNL     1      -4.618   0.188  -1.680  1.00  0.00     0.007 A 
HETATM    6  C10 UNL     1      -5.755  -0.209  -1.016  1.00  0.00     0.003 A 
HETATM    7  C11 UNL     1      -5.889  -0.135   0.350  1.00  0.00     0.029 A 
HETATM    8  C12 UNL     1      -4.835   0.364   1.076  1.00  0.00     0.034 A 
HETATM    9  C13 UNL     1      -3.662   0.792   0.449  1.00  0.00     0.037 A 
HETATM   10  N3  UNL     1      -4.619   0.374   2.522  1.00  0.00    -0.340 N 
HETATM   11  C14 UNL     1      -3.437  -0.524   2.623  1.00  0.00     0.302 C 
HETATM   12  N4  UNL     1      -2.554  -0.532   1.802  1.00  0.00    -0.319 NA
HETATM   13  N5  UNL     1      -1.565  -0.616   0.985  1.00  0.00    -0.226 N 
HETATM   14  C15 UNL     1      -0.294  -1.288   0.863  1.00  0.00     0.201 A 
HETATM   15  H16 UNL     1      -5.403   0.996   2.694  1.00  0.00     0.167 HD
ENDROOT
BRANCH   1  16
HETATM   16  C4  UNL     1       1.050  -0.618  -1.282  1.00  0.00     0.155 C 
BRANCH  16  17
HETATM   17  N2  UNL     1       2.236  -0.157  -0.682  1.00  0.00    -0.408 N 
HETATM   18  C3  UNL     1       2.836  -0.872   0.356  1.00  0.00     0.119 C 
HETATM   19  C2  UNL     1       4.335  -1.102   0.153  1.00  0.00     0.055 C 
HETATM   20  C1  UNL     1       4.931   0.272   0.061  1.00  0.00     0.221 C 
HETATM   21  C17 UNL     1       4.296   1.175  -0.930  1.00  0.00     0.055 C 
HETATM   22  C16 UNL     1       2.831   1.027  -1.136  1.00  0.00     0.119 C 
BRANCH  20  23
HETATM   23  N1  UNL     1       6.333   0.099  -0.311  1.00  0.00     0.083 N 
HETATM   24  H1  UNL     1       6.885  -0.311   0.457  1.00  0.00     0.313 HD
HETATM   25  H2  UNL     1       6.728   0.970  -0.730  1.00  0.00     0.313 HD
ENDBRANCH  20  23
ENDBRANCH  16  17
ENDBRANCH   1  16
TORSDOF 3
