REMARK  5 active torsions:
REMARK  status: ('A' for Active; 'I' for Inactive)
REMARK    1  A    between atoms: N1_1  and  C1_2 
REMARK    2  A    between atoms: N2_5  and  C4_6 
REMARK    3  A    between atoms: C4_6  and  C5_7 
REMARK    4  A    between atoms: C9_14  and  N6_15 
REMARK    5  A    between atoms: N6_15  and  C10_16 
ROOT
HETATM    1  C5  UNL     1      -0.044  -1.538  -0.236  1.00  0.00     0.004 A 
HETATM    2  C6  UNL     1       0.500  -2.640  -0.862  1.00  0.00     0.030 A 
HETATM    3  C7  UNL     1      -0.370  -3.730  -0.858  1.00  0.00     0.119 A 
HETATM    4  N3  UNL     1      -1.456  -3.259  -0.214  1.00  0.00    -0.240 N 
HETATM    5  N4  UNL     1      -2.565  -3.926   0.044  1.00  0.00    -0.161 NA
HETATM    6  C8  UNL     1      -3.595  -3.399   0.685  1.00  0.00     0.258 A 
HETATM    7  N5  UNL     1      -3.505  -2.106   1.097  1.00  0.00    -0.220 NA
HETATM    8  C9  UNL     1      -2.354  -1.419   0.827  1.00  0.00     0.158 A 
HETATM    9  C15 UNL     1      -1.288  -1.979   0.159  1.00  0.00     0.112 A 
ENDROOT
BRANCH   1  10
HETATM   10  C4  UNL     1       0.463  -0.200   0.005  1.00  0.00     0.313 C 
BRANCH  10  11
HETATM   11  N2  UNL     1       1.791   0.068  -0.444  1.00  0.00     0.092 N 
HETATM   12  C3  UNL     1       2.060   1.463  -0.086  1.00  0.00     0.275 C 
HETATM   13  C2  UNL     1       3.293   1.914  -0.799  1.00  0.00     0.065 C 
HETATM   14  C1  UNL     1       4.454   1.087  -0.340  1.00  0.00     0.221 C 
HETATM   15  C17 UNL     1       3.987   0.079   0.680  1.00  0.00     0.065 C 
HETATM   16  C16 UNL     1       2.834  -0.737   0.079  1.00  0.00     0.275 C 
BRANCH  14  17
HETATM   17  N1  UNL     1       5.482   1.913   0.210  1.00  0.00     0.083 N 
HETATM   18  H1  UNL     1       5.304   2.308   1.142  1.00  0.00     0.313 HD
HETATM   19  H2  UNL     1       6.410   1.406   0.272  1.00  0.00     0.313 HD
ENDBRANCH  14  17
ENDBRANCH  10  11
ENDBRANCH   1  10
BRANCH   8  20
HETATM   20  N6  UNL     1      -2.325  -0.076   1.285  1.00  0.00    -0.353 N 
HETATM   21  H13 UNL     1      -1.967   0.310   2.200  1.00  0.00     0.166 HD
BRANCH  20  22
HETATM   22  C10 UNL     1      -2.775   1.076   0.615  1.00  0.00    -0.034 C 
HETATM   23  B1  UNL     1      -2.794   2.847   1.107  1.00  0.00     0.234 B 
HETATM   24  C11 UNL     1      -5.210   2.763   0.792  1.00  0.00    -0.076 C 
HETATM   25  C12 UNL     1      -5.301   2.343  -0.512  1.00  0.00     0.027 C 
HETATM   26  C13 UNL     1      -4.436   1.525  -1.155  1.00  0.00     0.116 C 
HETATM   27  F1  UNL     1      -4.884   1.352  -2.426  1.00  0.00    -0.206 F 
HETATM   28  C14 UNL     1      -3.309   0.961  -0.646  1.00  0.00     0.054 C 
ENDBRANCH  20  22
ENDBRANCH   8  20
TORSDOF 5
