REMARK  7 active torsions:
REMARK  status: ('A' for Active; 'I' for Inactive)
REMARK    1  A    between atoms: C2_2  and  N1_3 
REMARK    2  A    between atoms: C4_7  and  N4_8 
REMARK    3  A    between atoms: N4_8  and  C5_9 
REMARK    4  A    between atoms: C13_17  and  P1_18 
REMARK    5  A    between atoms: P1_18  and  C14_19 
REMARK    6  A    between atoms: C14_19  and  N5_20 
REMARK    7  A    between atoms: C17_23  and  N6_24 
ROOT
HETATM    1  N1  UNL     1       0.323   2.493  -0.268  1.00  0.00    -0.241 N 
HETATM    2  N2  UNL     1       1.054   3.681  -0.346  1.00  0.00    -0.161 NA
HETATM    3  C3  UNL     1       2.362   3.642  -0.404  1.00  0.00     0.258 A 
HETATM    4  N3  UNL     1       3.093   2.423  -0.391  1.00  0.00    -0.220 NA
HETATM    5  C4  UNL     1       2.464   1.297  -0.320  1.00  0.00     0.158 A 
HETATM    6  C12 UNL     1       1.011   1.250  -0.252  1.00  0.00     0.104 A 
HETATM    7  C13 UNL     1       0.396   0.095  -0.182  1.00  0.00     0.041 C 
ENDROOT
BRANCH   1   8
HETATM    8  C2  UNL     1      -1.097   2.518  -0.205  1.00  0.00     0.108 C 
HETATM    9  C1  UNL     1      -1.636   2.802   0.984  1.00  0.00     0.032 C 
ENDBRANCH   1   8
BRANCH   5  10
HETATM   10  N4  UNL     1       3.242   0.126  -0.311  1.00  0.00    -0.339 N 
HETATM   11  H5  UNL     1       2.821  -0.712  -0.793  1.00  0.00     0.167 HD
BRANCH  10  12
HETATM   12  C5  UNL     1       4.518  -0.008   0.291  1.00  0.00     0.034 A 
HETATM   13  C6  UNL     1       5.219   0.930   1.003  1.00  0.00     0.029 A 
HETATM   14  C7  UNL     1       6.454   0.738   1.556  1.00  0.00     0.003 A 
HETATM   15  C8  UNL     1       7.081  -0.480   1.412  1.00  0.00     0.007 A 
HETATM   16  C9  UNL     1       6.433  -1.471   0.706  1.00  0.00    -0.060 A 
HETATM   17  C10 UNL     1       7.081  -2.810   0.525  1.00  0.00     0.048 C 
HETATM   18  C11 UNL     1       5.194  -1.217   0.174  1.00  0.00     0.036 A 
ENDBRANCH  10  12
ENDBRANCH   5  10
BRANCH   7  19
HETATM   19  P1  UNL     1      -1.413  -0.132  -0.093  1.00  0.00    -0.085 P 
HETATM   20  H14 UNL     1      -1.898  -0.103   1.258  1.00  0.00     0.063 HD
BRANCH  19  21
HETATM   21  C14 UNL     1      -1.989  -1.563  -1.090  1.00  0.00     0.152 C 
BRANCH  21  22
HETATM   22  N5  UNL     1      -3.419  -1.695  -1.024  1.00  0.00    -0.408 N 
HETATM   23  C15 UNL     1      -3.944  -1.907   0.286  1.00  0.00     0.119 C 
HETATM   24  C16 UNL     1      -5.467  -1.761   0.179  1.00  0.00     0.055 C 
HETATM   25  C17 UNL     1      -5.701  -0.262   0.036  1.00  0.00     0.221 C 
HETATM   26  C18 UNL     1      -4.848   0.313  -1.048  1.00  0.00     0.055 C 
HETATM   27  C19 UNL     1      -4.148  -0.762  -1.821  1.00  0.00     0.119 C 
BRANCH  25  28
HETATM   28  N6  UNL     1      -7.126  -0.004  -0.147  1.00  0.00     0.083 N 
HETATM   29  H22 UNL     1      -7.215   1.036  -0.310  1.00  0.00     0.313 HD
HETATM   30  H23 UNL     1      -7.544  -0.146   0.818  1.00  0.00     0.313 HD
ENDBRANCH  25  28
ENDBRANCH  21  22
ENDBRANCH  19  21
ENDBRANCH   7  19
TORSDOF 7
