REMARK  5 active torsions:
REMARK  status: ('A' for Active; 'I' for Inactive)
REMARK    1  A    between atoms: N1_1  and  C1_2 
REMARK    2  A    between atoms: N2_5  and  C4_6 
REMARK    3  A    between atoms: C4_6  and  C5_7 
REMARK    4  A    between atoms: C9_14  and  N6_15 
REMARK    5  A    between atoms: N6_15  and  C10_16 
ROOT
HETATM    1  C5  UNL     1      -0.408  -1.517  -0.167  1.00  0.00     0.004 A 
HETATM    2  C6  UNL     1       0.250  -2.692  -0.399  1.00  0.00     0.030 A 
HETATM    3  C7  UNL     1      -0.580  -3.748  -0.150  1.00  0.00     0.119 A 
HETATM    4  N3  UNL     1      -1.769  -3.243   0.242  1.00  0.00    -0.240 N 
HETATM    5  N4  UNL     1      -2.865  -3.885   0.585  1.00  0.00    -0.161 NA
HETATM    6  C8  UNL     1      -3.969  -3.222   0.953  1.00  0.00     0.258 A 
HETATM    7  N5  UNL     1      -3.966  -1.867   0.976  1.00  0.00    -0.220 NA
HETATM    8  C9  UNL     1      -2.818  -1.237   0.615  1.00  0.00     0.159 A 
HETATM    9  C15 UNL     1      -1.672  -1.903   0.233  1.00  0.00     0.112 A 
ENDROOT
BRANCH   1  10
HETATM   10  C4  UNL     1       0.066  -0.131  -0.312  1.00  0.00     0.313 C 
BRANCH  10  11
HETATM   11  N2  UNL     1       1.510  -0.096  -0.460  1.00  0.00     0.092 N 
HETATM   12  C3  UNL     1       1.950   1.276  -0.757  1.00  0.00     0.275 C 
HETATM   13  C2  UNL     1       3.396   1.128  -1.209  1.00  0.00     0.065 C 
HETATM   14  C1  UNL     1       4.185   0.738   0.025  1.00  0.00     0.221 C 
HETATM   15  C17 UNL     1       3.287   0.412   1.189  1.00  0.00     0.065 C 
HETATM   16  C16 UNL     1       2.180  -0.502   0.766  1.00  0.00     0.275 C 
BRANCH  14  17
HETATM   17  N1  UNL     1       5.128   1.803   0.400  1.00  0.00     0.083 N 
HETATM   18  H1  UNL     1       5.784   1.888  -0.404  1.00  0.00     0.313 HD
HETATM   19  H2  UNL     1       5.676   1.436   1.209  1.00  0.00     0.313 HD
ENDBRANCH  14  17
ENDBRANCH  10  11
ENDBRANCH   1  10
BRANCH   8  20
HETATM   20  N6  UNL     1      -2.837   0.189   0.648  1.00  0.00    -0.338 N 
HETATM   21  H13 UNL     1      -2.531   0.330   1.627  1.00  0.00     0.167 HD
BRANCH  20  22
HETATM   22  C10 UNL     1      -3.113   1.326  -0.151  1.00  0.00     0.044 C 
HETATM   23  C11 UNL     1      -2.720   1.935  -1.233  1.00  0.00     0.003 C 
HETATM   24  C12 UNL     1      -3.559   2.817  -1.713  1.00  0.00     0.014 C 
HETATM   25  C13 UNL     1      -4.486   3.082  -0.618  1.00  0.00     0.003 C 
HETATM   26  C14 UNL     1      -4.201   2.173   0.314  1.00  0.00     0.030 C 
ENDBRANCH  20  22
ENDBRANCH   8  20
TORSDOF 5
