REMARK  2 active torsions:
REMARK  status: ('A' for Active; 'I' for Inactive)
REMARK    1  A    between atoms: N1_2  and  C2_3 
REMARK    2  A    between atoms: C5_6  and  C6_7 
ROOT
HETATM    1  C6  UNL     1      -0.697  -0.752   0.421  1.00  0.00    -0.017 C 
HETATM    2  C7  UNL     1      -1.640  -0.435   1.292  1.00  0.00    -0.006 A 
HETATM    3  C8  UNL     1      -2.606   0.019   2.358  1.00  0.00     0.111 A 
HETATM    4  C9  UNL     1      -1.527   0.897   2.016  1.00  0.00     0.205 A 
HETATM    5  F1  UNL     1      -0.470   1.129   2.813  1.00  0.00    -0.214 F 
HETATM    6  N2  UNL     1      -1.724   1.860   0.894  1.00  0.00    -0.345 N 
HETATM    7  C10 UNL     1      -2.348   1.453  -0.359  1.00  0.00     0.201 C 
HETATM    8  N3  UNL     1      -3.079   0.489  -0.079  1.00  0.00    -0.266 NA
HETATM    9  C11 UNL     1      -3.909  -0.295  -0.891  1.00  0.00     0.270 C 
HETATM   10  N4  UNL     1      -3.596  -1.730  -0.677  1.00  0.00    -0.381 N 
HETATM   11  C12 UNL     1      -2.229  -1.806  -1.121  1.00  0.00     0.085 C 
HETATM   12  C13 UNL     1      -0.995  -1.473  -0.806  1.00  0.00     0.026 C 
HETATM   13  H11 UNL     1      -1.408   2.862   1.000  1.00  0.00     0.163 HD
HETATM   14  H15 UNL     1      -4.134  -2.544  -0.309  1.00  0.00     0.160 HD
ENDROOT
BRANCH   1  15
HETATM   15  C5  UNL     1       0.721  -0.320   0.355  1.00  0.00     0.254 C 
HETATM   16  C4  UNL     1       1.051   0.575  -0.785  1.00  0.00     0.042 C 
HETATM   17  C3  UNL     1       2.452   0.437  -1.300  1.00  0.00     0.024 C 
HETATM   18  C2  UNL     1       3.437   0.016  -0.247  1.00  0.00     0.093 C 
HETATM   19  C14 UNL     1       2.918  -0.966   0.748  1.00  0.00     0.290 C 
HETATM   20  N5  UNL     1       1.624  -1.463   0.290  1.00  0.00     0.094 N 
HETATM   21  H18 UNL     1       1.747  -1.709  -0.717  1.00  0.00     0.316 HD
BRANCH  18  22
HETATM   22  N1  UNL     1       4.035   1.137   0.419  1.00  0.00    -0.327 NA
HETATM   23  C1  UNL     1       5.073   1.691  -0.039  1.00  0.00     0.221 C 
ENDBRANCH  18  22
ENDBRANCH   1  15
TORSDOF 2
