REMARK  5 active torsions:
REMARK  status: ('A' for Active; 'I' for Inactive)
REMARK    1  A    between atoms: B1_1  and  C1_2 
REMARK    2  A    between atoms: N1_5  and  C4_6 
REMARK    3  A    between atoms: C4_6  and  C5_7 
REMARK    4  A    between atoms: C9_14  and  N5_15 
REMARK    5  A    between atoms: N5_15  and  C10_16 
ROOT
HETATM    1  C5  UNL     1       0.085  -1.466  -0.190  1.00  0.00    -0.007 A 
HETATM    2  C6  UNL     1       0.635  -2.663  -0.617  1.00  0.00     0.030 A 
HETATM    3  C7  UNL     1      -0.333  -3.494  -1.134  1.00  0.00     0.119 A 
HETATM    4  N2  UNL     1      -1.510  -2.820  -1.035  1.00  0.00    -0.240 N 
HETATM    5  N3  UNL     1      -2.686  -3.276  -1.422  1.00  0.00    -0.161 NA
HETATM    6  C8  UNL     1      -3.758  -2.486  -1.255  1.00  0.00     0.258 A 
HETATM    7  N4  UNL     1      -3.598  -1.269  -0.704  1.00  0.00    -0.220 NA
HETATM    8  C9  UNL     1      -2.381  -0.854  -0.327  1.00  0.00     0.159 A 
HETATM    9  C15 UNL     1      -1.252  -1.625  -0.477  1.00  0.00     0.112 A 
ENDROOT
BRANCH   1  10
HETATM   10  C4  UNL     1       0.668  -0.254   0.430  1.00  0.00     0.161 C 
BRANCH  10  11
HETATM   11  N1  UNL     1       2.084  -0.407   0.531  1.00  0.00    -0.380 N 
HETATM   12  C3  UNL     1       2.807  -0.537  -0.675  1.00  0.00     0.119 C 
HETATM   13  C2  UNL     1       3.536   0.721  -1.095  1.00  0.00     0.013 C 
HETATM   14  C1  UNL     1       4.437   1.207   0.004  1.00  0.00    -0.057 C 
HETATM   15  C17 UNL     1       3.663   1.357   1.275  1.00  0.00     0.052 C 
HETATM   16  C16 UNL     1       2.728   0.252   1.604  1.00  0.00     0.267 C 
HETATM   17  F1  UNL     1       3.374  -0.648   2.458  1.00  0.00    -0.227 F 
BRANCH  14  18
HETATM   18  B1  UNL     1       5.717   0.314   0.142  1.00  0.00     0.139 B 
HETATM   19  H1  UNL     1       6.606   0.501  -0.644  1.00  0.00    -0.031 HD
HETATM   20  H2  UNL     1       5.676  -0.798   0.570  1.00  0.00    -0.031 HD
ENDBRANCH  14  18
ENDBRANCH  10  11
ENDBRANCH   1  10
BRANCH   8  21
HETATM   21  N5  UNL     1      -2.324   0.441   0.244  1.00  0.00    -0.342 N 
HETATM   22  H13 UNL     1      -1.632   1.100   0.644  1.00  0.00     0.167 HD
BRANCH  21  23
HETATM   23  C10 UNL     1      -3.508   1.218   0.387  1.00  0.00     0.014 A 
HETATM   24  C11 UNL     1      -4.093   1.574  -0.758  1.00  0.00     0.025 A 
HETATM   25  C12 UNL     1      -5.297   2.368  -0.472  1.00  0.00    -0.002 A 
HETATM   26  C13 UNL     1      -5.385   2.456   0.862  1.00  0.00    -0.021 A 
HETATM   27  C14 UNL     1      -4.265   1.739   1.530  1.00  0.00     0.084 A 
ENDBRANCH  21  23
ENDBRANCH   8  21
TORSDOF 5
