REMARK  5 active torsions:
REMARK  status: ('A' for Active; 'I' for Inactive)
REMARK    1  A    between atoms: N1_1  and  C1_2 
REMARK    2  A    between atoms: N3_7  and  C5_8 
REMARK    3  A    between atoms: C5_8  and  C6_9 
REMARK    4  A    between atoms: C10_16  and  N7_17 
REMARK    5  A    between atoms: N7_17  and  C11_18 
ROOT
HETATM    1  C6  UNL     1      -0.854  -1.145   0.268  1.00  0.00    -0.007 A 
HETATM    2  C7  UNL     1      -1.695  -2.228   0.466  1.00  0.00     0.030 A 
HETATM    3  C8  UNL     1      -0.956  -3.383   0.641  1.00  0.00     0.119 A 
HETATM    4  N4  UNL     1       0.340  -3.007   0.548  1.00  0.00    -0.240 N 
HETATM    5  N5  UNL     1       1.377  -3.841   0.660  1.00  0.00    -0.161 NA
HETATM    6  C9  UNL     1       2.611  -3.357   0.547  1.00  0.00     0.258 A 
HETATM    7  N6  UNL     1       2.715  -2.059   0.327  1.00  0.00    -0.220 NA
HETATM    8  C10 UNL     1       1.704  -1.187   0.209  1.00  0.00     0.159 A 
HETATM    9  C17 UNL     1       0.421  -1.665   0.323  1.00  0.00     0.112 A 
ENDROOT
BRANCH   1  10
HETATM   10  C5  UNL     1      -1.213   0.278   0.046  1.00  0.00     0.160 C 
BRANCH  10  11
HETATM   11  N3  UNL     1      -2.616   0.439   0.078  1.00  0.00    -0.383 N 
HETATM   12  C1  UNL     1      -3.240   1.299  -0.851  1.00  0.00     0.193 C 
HETATM   13  C2  UNL     1      -4.447   0.553  -1.378  1.00  0.00     0.194 C 
HETATM   14  N2  UNL     1      -5.142  -0.009  -0.268  1.00  0.00    -0.300 NA
HETATM   15  C3  UNL     1      -4.700  -0.157   0.917  1.00  0.00     0.102 C 
HETATM   16  C4  UNL     1      -3.305   0.276   1.299  1.00  0.00     0.165 C 
BRANCH  12  17
HETATM   17  N1  UNL     1      -3.769   2.505  -0.240  1.00  0.00    -0.409 N 
HETATM   18  H1  UNL     1      -3.280   2.821   0.604  1.00  0.00     0.152 HD
HETATM   19  H2  UNL     1      -4.023   3.230  -0.923  1.00  0.00     0.152 HD
ENDBRANCH  12  17
ENDBRANCH  10  11
ENDBRANCH   1  10
BRANCH   8  20
HETATM   20  N7  UNL     1       1.935   0.181  -0.042  1.00  0.00    -0.339 N 
HETATM   21  H14 UNL     1       1.287   0.968  -0.150  1.00  0.00     0.167 HD
BRANCH  20  22
HETATM   22  C11 UNL     1       3.207   0.773  -0.225  1.00  0.00     0.036 A 
HETATM   23  C12 UNL     1       4.263   0.032  -0.706  1.00  0.00     0.029 A 
HETATM   24  C13 UNL     1       5.526   0.544  -0.884  1.00  0.00     0.005 A 
HETATM   25  C14 UNL     1       5.805   1.853  -0.584  1.00  0.00     0.042 A 
HETATM   26  C15 UNL     1       4.802   2.657  -0.098  1.00  0.00     0.118 A 
HETATM   27  F1  UNL     1       4.985   3.963   0.225  1.00  0.00    -0.206 F 
HETATM   28  C16 UNL     1       3.562   2.090   0.058  1.00  0.00     0.071 A 
ENDBRANCH  20  22
ENDBRANCH   8  20
TORSDOF 5
