REMARK  7 active torsions:
REMARK  status: ('A' for Active; 'I' for Inactive)
REMARK    1  A    between atoms: C2_2  and  C3_3 
REMARK    2  A    between atoms: C3_3  and  C4_4 
REMARK    3  A    between atoms: C4_4  and  N1_6 
REMARK    4  A    between atoms: N1_6  and  C5_7 
REMARK    5  A    between atoms: C7_9  and  C8_10 
REMARK    6  A    between atoms: C11_15  and  C12_16 
REMARK    7  A    between atoms: N4_23  and  O3_24 
ROOT
HETATM    1  C5  UNL     1       1.633   0.625  -0.421  1.00  0.00     0.155 C 
HETATM    2  C6  UNL     1       1.641   1.816   0.211  1.00  0.00     0.063 C 
HETATM    3  C7  UNL     1       0.235   2.168   0.601  1.00  0.00     0.188 C 
HETATM    4  O1  UNL     1      -0.600   1.785  -0.403  1.00  0.00    -0.376 OA
HETATM    5  C9  UNL     1      -1.913   1.738  -0.640  1.00  0.00     0.110 C 
HETATM    6  C10 UNL     1      -2.313   0.490  -0.255  1.00  0.00     0.122 A 
HETATM    7  C11 UNL     1      -3.672   0.078  -0.373  1.00  0.00    -0.044 A 
HETATM    8  C13 UNL     1      -3.020  -1.035   0.157  1.00  0.00     0.086 A 
HETATM    9  C14 UNL     1      -1.565  -1.219   0.517  1.00  0.00     0.083 A 
HETATM   10  C15 UNL     1      -0.331  -0.960   0.227  1.00  0.00     0.096 A 
HETATM   11  C16 UNL     1       0.163  -1.735   1.360  1.00  0.00     0.237 A 
HETATM   12  O2  UNL     1      -1.178  -1.961   1.621  1.00  0.00    -0.346 OA
HETATM   13  N4  UNL     1       0.522  -0.255  -0.717  1.00  0.00    -0.206 N 
ENDROOT
BRANCH   1  14
HETATM   14  N1  UNL     1       2.878   0.109  -0.876  1.00  0.00    -0.221 NA
BRANCH  14  15
HETATM   15  C4  UNL     1       3.025  -0.844  -1.720  1.00  0.00     0.112 C 
HETATM   16 BR1  UNL     1       2.423  -2.195  -2.917  1.00  0.00    -0.029 Br
BRANCH  15  17
HETATM   17  C3  UNL     1       4.450  -0.820  -1.697  1.00  0.00     0.090 C 
BRANCH  17  18
HETATM   18  C2  UNL     1       5.187  -1.382  -0.753  1.00  0.00    -0.152 C 
HETATM   19  C1  UNL     1       5.567  -1.889   0.411  1.00  0.00     0.096 C 
ENDBRANCH  17  18
ENDBRANCH  15  17
ENDBRANCH  14  15
ENDBRANCH   1  14
BRANCH  13  20
HETATM   20  O3  UNL     1       0.269  -0.441  -2.017  1.00  0.00    -0.281 OA
HETATM   21  H15 UNL     1      -0.512  -1.027  -2.123  1.00  0.00     0.245 HD
ENDBRANCH  13  20
BRANCH   3  22
HETATM   22  C8  UNL     1      -0.089   1.624   1.923  1.00  0.00     0.116 C 
HETATM   23  N2  UNL     1      -0.916   1.964   2.811  1.00  0.00    -0.314 NA
HETATM   24  H7  UNL     1      -1.563   2.770   2.728  1.00  0.00     0.185 HD
ENDBRANCH   3  22
BRANCH   7  25
HETATM   25  C12 UNL     1      -5.083  -0.318  -0.505  1.00  0.00     0.111 C 
HETATM   26  N3  UNL     1      -5.455   0.835  -0.899  1.00  0.00    -0.312 NA
HETATM   27  H11 UNL     1      -6.418   1.106  -1.144  1.00  0.00     0.186 HD
ENDBRANCH   7  25
TORSDOF 7
