REMARK  2 active torsions:
REMARK  status: ('A' for Active; 'I' for Inactive)
REMARK    1  A    between atoms: N1_2  and  N2_3 
REMARK    2  A    between atoms: C14_18  and  N4_19 
ROOT
HETATM    1  N2  UNL     1       3.541  -0.160   0.575  1.00  0.00    -0.280 N 
HETATM    2  C2  UNL     1       3.644   1.033   1.137  1.00  0.00     0.116 A 
HETATM    3  C3  UNL     1       2.578   1.778   0.701  1.00  0.00     0.030 A 
HETATM    4  C4  UNL     1       1.846   0.965  -0.143  1.00  0.00    -0.003 A 
HETATM    5  C5  UNL     1       2.432  -0.264  -0.241  1.00  0.00     0.058 A 
HETATM    6  C6  UNL     1       2.182  -1.513  -0.942  1.00  0.00     0.179 C 
HETATM    7  N3  UNL     1       1.638  -2.620  -0.137  1.00  0.00    -0.384 N 
HETATM    8  C7  UNL     1       0.323  -2.111   0.218  1.00  0.00     0.031 A 
HETATM    9  C8  UNL     1      -0.091  -1.406   1.335  1.00  0.00     0.030 A 
HETATM   10  C9  UNL     1      -1.422  -1.087   1.205  1.00  0.00     0.012 A 
HETATM   11  C10 UNL     1      -2.366  -1.315   0.241  1.00  0.00    -0.018 A 
HETATM   12  C11 UNL     1      -1.922  -2.018  -0.847  1.00  0.00     0.124 A 
HETATM   13  F1  UNL     1      -2.823  -2.270  -1.814  1.00  0.00    -0.205 F 
HETATM   14  C12 UNL     1      -0.580  -2.404  -0.838  1.00  0.00     0.072 A 
HETATM   15  C13 UNL     1      -3.650  -0.631   0.583  1.00  0.00     0.066 C 
HETATM   16  C14 UNL     1      -3.582   0.755  -0.139  1.00  0.00     0.080 C 
HETATM   17  C15 UNL     1      -2.258   1.285  -0.090  1.00  0.00     0.055 C 
HETATM   18  C16 UNL     1      -1.620   2.485  -0.608  1.00  0.00     0.272 C 
HETATM   19  N5  UNL     1      -0.200   2.335  -0.220  1.00  0.00     0.087 N 
HETATM   20  C17 UNL     1       0.573   1.331  -0.852  1.00  0.00     0.310 C 
HETATM   21  H7  UNL     1       2.150  -3.512   0.071  1.00  0.00     0.160 HD
HETATM   22  H20 UNL     1       0.256   3.270  -0.171  1.00  0.00     0.316 HD
ENDROOT
BRANCH  16  23
HETATM   23  N4  UNL     1      -4.636   1.539   0.347  1.00  0.00    -0.426 N 
HETATM   24  H14 UNL     1      -4.929   2.326  -0.241  1.00  0.00     0.150 HD
HETATM   25  H15 UNL     1      -5.445   1.037   0.743  1.00  0.00     0.150 HD
ENDBRANCH  16  23
BRANCH   1  26
HETATM   26  N1  UNL     1       4.579  -1.068   0.927  1.00  0.00    -0.338 NA
HETATM   27  C1  UNL     1       5.765  -0.938   0.407  1.00  0.00     0.358 C 
ENDBRANCH   1  26
TORSDOF 2
