REMARK  3 active torsions:
REMARK  status: ('A' for Active; 'I' for Inactive)
REMARK    1  A    between atoms: N1_5  and  C5_6 
REMARK    2  A    between atoms: C9_13  and  N5_14 
REMARK    3  A    between atoms: C16_21  and  N6_22 
ROOT
HETATM    1  C5  UNL     1      -0.190   1.612   0.465  1.00  0.00     0.066 A 
HETATM    2  C6  UNL     1      -0.955   2.775   0.645  1.00  0.00     0.051 A 
HETATM    3  C7  UNL     1      -0.092   3.859   0.511  1.00  0.00     0.121 A 
HETATM    4  N2  UNL     1       1.156   3.410   0.259  1.00  0.00    -0.238 N 
HETATM    5  N3  UNL     1       2.331   3.974   0.046  1.00  0.00    -0.161 NA
HETATM    6  C8  UNL     1       3.439   3.217  -0.193  1.00  0.00     0.258 A 
HETATM    7  N4  UNL     1       3.337   1.861  -0.213  1.00  0.00    -0.220 NA
HETATM    8  C9  UNL     1       2.131   1.253   0.005  1.00  0.00     0.166 A 
HETATM    9  C15 UNL     1       1.083   2.074   0.235  1.00  0.00     0.131 A 
ENDROOT
BRANCH   1  10
HETATM   10  N1  UNL     1      -0.897   0.387   0.585  1.00  0.00    -0.349 N 
HETATM   11  C4  UNL     1      -0.937  -0.758   1.509  1.00  0.00     0.126 C 
HETATM   12  C3  UNL     1      -1.230  -1.938   0.618  1.00  0.00     0.028 C 
HETATM   13  C2  UNL     1      -1.653  -1.402  -0.710  1.00  0.00     0.036 C 
HETATM   14  C1  UNL     1      -2.963  -1.989  -1.192  1.00  0.00     0.014 C 
HETATM   15  C16 UNL     1      -1.907   0.042  -0.421  1.00  0.00     0.323 C 
BRANCH  15  16
HETATM   16  N6  UNL     1      -3.188   0.111   0.290  1.00  0.00     0.101 N 
HETATM   17  H17 UNL     1      -3.488  -0.829   0.638  1.00  0.00     0.315 HD
HETATM   18  H18 UNL     1      -3.125   0.721   1.139  1.00  0.00     0.315 HD
ENDBRANCH  15  16
ENDBRANCH   1  10
BRANCH   8  19
HETATM   19  N5  UNL     1       2.205  -0.161  -0.064  1.00  0.00    -0.315 N 
HETATM   20  C10 UNL     1       2.528  -1.122   0.933  1.00  0.00     0.110 A 
HETATM   21  C11 UNL     1       2.572  -2.395   0.673  1.00  0.00    -0.009 A 
HETATM   22  C12 UNL     1       2.320  -2.841  -0.521  1.00  0.00     0.015 A 
HETATM   23  C13 UNL     1       1.972  -1.962  -1.632  1.00  0.00     0.019 A 
HETATM   24  C14 UNL     1       1.919  -0.644  -1.397  1.00  0.00     0.098 A 
ENDBRANCH   8  19
TORSDOF 3
