REMARK  6 active torsions:
REMARK  status: ('A' for Active; 'I' for Inactive)
REMARK    1  A    between atoms: N1_1  and  C1_2 
REMARK    2  A    between atoms: N2_5  and  C4_6 
REMARK    3  A    between atoms: C4_6  and  C5_7 
REMARK    4  A    between atoms: C9_14  and  N6_15 
REMARK    5  A    between atoms: N6_15  and  C10_16 
REMARK    6  A    between atoms: C15_21  and  O1_22 
ROOT
HETATM    1  C5  UNL     1       0.325  -1.326   0.202  1.00  0.00     0.004 A 
HETATM    2  C6  UNL     1       1.208  -2.403   0.161  1.00  0.00     0.030 A 
HETATM    3  C7  UNL     1       0.496  -3.570   0.035  1.00  0.00     0.119 A 
HETATM    4  N3  UNL     1      -0.786  -3.195   0.002  1.00  0.00    -0.240 N 
HETATM    5  N4  UNL     1      -1.810  -4.058  -0.118  1.00  0.00    -0.161 NA
HETATM    6  C8  UNL     1      -3.059  -3.583  -0.141  1.00  0.00     0.258 A 
HETATM    7  N5  UNL     1      -3.240  -2.271  -0.045  1.00  0.00    -0.220 NA
HETATM    8  C9  UNL     1      -2.237  -1.403   0.074  1.00  0.00     0.159 A 
HETATM    9  C16 UNL     1      -0.936  -1.847   0.101  1.00  0.00     0.112 A 
ENDROOT
BRANCH   1  10
HETATM   10  C4  UNL     1       0.667   0.103   0.322  1.00  0.00     0.313 C 
BRANCH  10  11
HETATM   11  N2  UNL     1       2.120   0.220   0.274  1.00  0.00     0.092 N 
HETATM   12  C3  UNL     1       2.694  -0.058  -1.006  1.00  0.00     0.275 C 
HETATM   13  C2  UNL     1       4.153  -0.390  -0.779  1.00  0.00     0.065 C 
HETATM   14  C1  UNL     1       4.805   0.895  -0.248  1.00  0.00     0.221 C 
HETATM   15  C18 UNL     1       4.123   1.270   1.031  1.00  0.00     0.065 C 
HETATM   16  C17 UNL     1       2.621   1.410   0.892  1.00  0.00     0.275 C 
BRANCH  14  17
HETATM   17  N1  UNL     1       6.200   0.651   0.076  1.00  0.00     0.083 N 
HETATM   18  H1  UNL     1       6.579   1.543   0.461  1.00  0.00     0.313 HD
HETATM   19  H2  UNL     1       6.775   0.326  -0.707  1.00  0.00     0.313 HD
ENDBRANCH  14  17
ENDBRANCH  10  11
ENDBRANCH   1  10
BRANCH   8  20
HETATM   20  N6  UNL     1      -2.463  -0.018   0.188  1.00  0.00    -0.337 N 
HETATM   21  H13 UNL     1      -1.727   0.668   0.383  1.00  0.00     0.167 HD
BRANCH  20  22
HETATM   22  C10 UNL     1      -3.662   0.727   0.097  1.00  0.00     0.067 A 
HETATM   23  C11 UNL     1      -4.864   0.105  -0.152  1.00  0.00     0.032 A 
HETATM   24  C12 UNL     1      -6.080   0.773  -0.249  1.00  0.00     0.002 A 
HETATM   25  C13 UNL     1      -6.144   2.121  -0.097  1.00  0.00     0.003 A 
HETATM   26  C14 UNL     1      -4.969   2.787   0.153  1.00  0.00     0.039 A 
HETATM   27  C15 UNL     1      -3.794   2.088   0.240  1.00  0.00     0.092 A 
BRANCH  27  28
HETATM   28  O1  UNL     1      -2.625   2.827   0.498  1.00  0.00    -0.358 OA
HETATM   29  H18 UNL     1      -2.080   3.159  -0.274  1.00  0.00     0.217 HD
ENDBRANCH  27  28
ENDBRANCH  20  22
ENDBRANCH   8  20
TORSDOF 6
