REMARK  5 active torsions:
REMARK  status: ('A' for Active; 'I' for Inactive)
REMARK    1  A    between atoms: N1_1  and  C1_2 
REMARK    2  A    between atoms: N2_5  and  C4_6 
REMARK    3  A    between atoms: C4_6  and  C5_7 
REMARK    4  A    between atoms: C9_12  and  N4_13 
REMARK    5  A    between atoms: N4_13  and  C10_14 
ROOT
HETATM    1  C5  UNL     1      -0.421  -1.334  -0.931  1.00  0.00     0.002 A 
HETATM    2  C6  UNL     1      -1.088  -2.438  -1.488  1.00  0.00     0.029 A 
HETATM    3  C7  UNL     1      -0.416  -3.624  -1.284  1.00  0.00     0.096 A 
HETATM    4  N3  UNL     1       0.676  -3.268  -0.599  1.00  0.00    -0.329 N 
HETATM    5  C8  UNL     1       0.691  -1.942  -0.384  1.00  0.00     0.092 A 
HETATM    6  C9  UNL     1       1.818  -1.380   0.345  1.00  0.00     0.151 A 
HETATM    7  N5  UNL     1       2.836  -1.961   0.837  1.00  0.00    -0.265 NA
HETATM    8  C16 UNL     1       3.226  -3.329   0.848  1.00  0.00     0.204 A 
HETATM    9  P1  UNL     1       1.976  -4.362  -0.026  1.00  0.00    -0.002 P 
HETATM   10  H20 UNL     1       2.511  -5.183  -1.075  1.00  0.00     0.082 HD
ENDROOT
BRANCH   1  11
HETATM   11  C4  UNL     1      -0.924   0.019  -0.995  1.00  0.00     0.313 C 
BRANCH  11  12
HETATM   12  N2  UNL     1      -1.583   0.595   0.105  1.00  0.00     0.092 NA
HETATM   13  C3  UNL     1      -2.003   1.940  -0.221  1.00  0.00     0.275 C 
HETATM   14  C2  UNL     1      -3.347   2.291   0.367  1.00  0.00     0.065 C 
HETATM   15  C1  UNL     1      -4.444   1.380  -0.086  1.00  0.00     0.221 C 
HETATM   16  C18 UNL     1      -3.907  -0.031  -0.144  1.00  0.00     0.065 C 
HETATM   17  C17 UNL     1      -2.648  -0.113   0.713  1.00  0.00     0.275 C 
BRANCH  15  18
HETATM   18  N1  UNL     1      -5.554   1.445   0.874  1.00  0.00     0.083 N 
HETATM   19  H1  UNL     1      -5.875   0.477   1.118  1.00  0.00     0.313 HD
HETATM   20  H2  UNL     1      -6.305   2.071   0.546  1.00  0.00     0.313 HD
ENDBRANCH  15  18
ENDBRANCH  11  12
ENDBRANCH   1  11
BRANCH   6  21
HETATM   21  N4  UNL     1       1.870   0.043   0.600  1.00  0.00    -0.339 N 
HETATM   22  H12 UNL     1       0.974   0.513   0.869  1.00  0.00     0.167 HD
BRANCH  21  23
HETATM   23  C10 UNL     1       3.031   0.886   0.528  1.00  0.00     0.033 A 
HETATM   24  C11 UNL     1       2.922   2.242   0.832  1.00  0.00     0.029 A 
HETATM   25  C12 UNL     1       4.005   3.074   0.772  1.00  0.00     0.002 A 
HETATM   26  C13 UNL     1       5.258   2.627   0.412  1.00  0.00     0.000 A 
HETATM   27  C14 UNL     1       5.382   1.288   0.108  1.00  0.00     0.002 A 
HETATM   28  C15 UNL     1       4.275   0.470   0.176  1.00  0.00     0.029 A 
ENDBRANCH  21  23
ENDBRANCH   6  21
TORSDOF 5
