REMARK  1 active torsions:
REMARK  status: ('A' for Active; 'I' for Inactive)
REMARK    1  A    between atoms: C3_4  and  C4_5 
ROOT
HETATM    1  C4  UNL     1       0.113   1.185  -0.256  1.00  0.00     0.090 C 
HETATM    2  C5  UNL     1       1.079   1.879  -1.206  1.00  0.00     0.023 C 
HETATM    3  C6  UNL     1       2.395   1.901  -1.225  1.00  0.00     0.107 C 
HETATM    4  N1  UNL     1       3.455   1.358  -0.464  1.00  0.00    -0.292 N 
HETATM    5  N2  UNL     1       4.047   0.202   0.108  1.00  0.00    -0.188 NA
HETATM    6  C7  UNL     1       3.703  -0.942  -0.319  1.00  0.00     0.272 C 
HETATM    7  N3  UNL     1       3.474  -2.287  -0.633  1.00  0.00    -0.375 N 
HETATM    8  C8  UNL     1       2.091  -2.083  -0.678  1.00  0.00     0.069 C 
HETATM    9  C9  UNL     1       0.916  -1.520  -0.655  1.00  0.00     0.088 C 
HETATM   10  C10 UNL     1       0.172  -0.279  -0.502  1.00  0.00     0.043 C 
HETATM   11  N4  UNL     1      -0.904  -0.780  -0.638  1.00  0.00    -0.290 NA
HETATM   12  C11 UNL     1      -1.683  -1.916  -0.866  1.00  0.00     0.111 C 
HETATM   13  C12 UNL     1      -2.857  -1.519  -1.773  1.00  0.00     0.047 C 
HETATM   14  C13 UNL     1      -3.766  -0.600  -0.957  1.00  0.00     0.119 C 
HETATM   15  N5  UNL     1      -3.145  -0.241   0.274  1.00  0.00    -0.404 N 
HETATM   16  C14 UNL     1      -2.977  -1.294   1.164  1.00  0.00     0.119 C 
HETATM   17  C15 UNL     1      -2.267  -2.438   0.457  1.00  0.00     0.047 C 
HETATM   18  C16 UNL     1      -2.752   1.066   0.506  1.00  0.00     0.193 C 
HETATM   19  S1  UNL     1      -1.524   1.809  -0.537  1.00  0.00    -0.125 SA
HETATM   20  H7  UNL     1       4.235   1.922  -0.066  1.00  0.00     0.188 HD
HETATM   21  H9  UNL     1       3.937  -3.162  -0.798  1.00  0.00     0.160 HD
ENDROOT
BRANCH   1  22
HETATM   22  C3  UNL     1       0.606   1.557   1.114  1.00  0.00     0.041 C 
HETATM   23  C2  UNL     1       1.360   2.186   2.023  1.00  0.00     0.088 C 
HETATM   24  C1  UNL     1       2.458   3.166   2.101  1.00  0.00     0.082 C 
HETATM   25  F1  UNL     1       1.147   1.917   3.354  1.00  0.00    -0.211 F 
ENDBRANCH   1  22
TORSDOF 1
