REMARK  2 active torsions:
REMARK  status: ('A' for Active; 'I' for Inactive)
REMARK    1  A    between atoms: C4_7  and  N4_8 
REMARK    2  A    between atoms: N4_8  and  C5_9 
ROOT
HETATM    1  C1  UNL     1      -2.814  -0.916   1.177  1.00  0.00    -0.001 C 
HETATM    2  C2  UNL     1      -1.965  -1.856   0.799  1.00  0.00     0.117 C 
HETATM    3  N1  UNL     1      -0.575  -1.784   0.690  1.00  0.00    -0.223 N 
HETATM    4  N2  UNL     1       0.068  -2.621   1.536  1.00  0.00    -0.159 NA
HETATM    5  C3  UNL     1       1.331  -2.771   1.660  1.00  0.00     0.258 A 
HETATM    6  N3  UNL     1       2.350  -2.087   0.930  1.00  0.00    -0.219 NA
HETATM    7  C4  UNL     1       1.912  -1.241   0.070  1.00  0.00     0.177 A 
HETATM    8  C11 UNL     1       0.482  -1.145   0.006  1.00  0.00     0.192 A 
HETATM    9  N5  UNL     1      -0.303  -0.511  -0.623  1.00  0.00    -0.266 NA
HETATM   10  C12 UNL     1      -0.608   0.427  -1.574  1.00  0.00     0.170 C 
HETATM   11  C13 UNL     1      -2.118   0.467  -1.867  1.00  0.00     0.138 C 
HETATM   12  N6  UNL     1      -2.800   0.738  -0.686  1.00  0.00    -0.410 N 
HETATM   13  C14 UNL     1      -4.164   1.090  -0.703  1.00  0.00     0.117 C 
HETATM   14  C15 UNL     1      -4.864   0.935   0.598  1.00  0.00     0.020 C 
HETATM   15  C16 UNL     1      -4.038   1.140   1.831  1.00  0.00     0.012 C 
HETATM   16  C17 UNL     1      -2.663   0.492   1.608  1.00  0.00     0.027 C 
HETATM   17  C18 UNL     1      -2.143   1.318   0.418  1.00  0.00     0.125 C 
ENDROOT
BRANCH   7  18
HETATM   18  N4  UNL     1       2.615  -0.401  -0.814  1.00  0.00    -0.338 N 
HETATM   19  H4  UNL     1       2.116   0.031  -1.618  1.00  0.00     0.167 HD
BRANCH  18  20
HETATM   20  C5  UNL     1       3.986  -0.180  -0.556  1.00  0.00     0.033 A 
HETATM   21  C6  UNL     1       4.626   0.611  -1.503  1.00  0.00     0.029 A 
HETATM   22  C7  UNL     1       5.958   0.953  -1.446  1.00  0.00     0.002 A 
HETATM   23  C8  UNL     1       6.741   0.520  -0.427  1.00  0.00     0.000 A 
HETATM   24  C9  UNL     1       6.153  -0.269   0.542  1.00  0.00     0.002 A 
HETATM   25  C10 UNL     1       4.818  -0.579   0.433  1.00  0.00     0.029 A 
ENDBRANCH  18  20
ENDBRANCH   7  18
TORSDOF 2
