REMARK  5 active torsions:
REMARK  status: ('A' for Active; 'I' for Inactive)
REMARK    1  A    between atoms: O1_2  and  C2_3 
REMARK    2  A    between atoms: C4_5  and  O2_6 
REMARK    3  A    between atoms: C11_16  and  N3_17 
REMARK    4  A    between atoms: N3_17  and  C12_18 
REMARK    5  A    between atoms: C16_22  and  S1_23 
ROOT
HETATM    1  C2  UNL     1      -4.919  -0.073  -0.127  1.00  0.00     0.073 A 
HETATM    2  C3  UNL     1      -4.558   0.125   1.190  1.00  0.00     0.074 A 
HETATM    3  C4  UNL     1      -3.235   0.147   1.645  1.00  0.00     0.081 A 
HETATM    4  C6  UNL     1      -2.216  -0.044   0.707  1.00  0.00     0.027 A 
HETATM    5  C7  UNL     1      -2.609  -0.239  -0.602  1.00  0.00     0.091 A 
HETATM    6  C8  UNL     1      -3.913  -0.261  -1.052  1.00  0.00     0.074 A 
HETATM    7  O3  UNL     1      -1.787  -0.451  -1.722  1.00  0.00    -0.289 OA
HETATM    8  C9  UNL     1      -0.396  -0.436  -1.721  1.00  0.00     0.202 A 
HETATM    9  N1  UNL     1       0.040  -0.878  -2.938  1.00  0.00    -0.215 NA
HETATM   10  C10 UNL     1       1.389  -0.940  -3.149  1.00  0.00     0.238 A 
HETATM   11  N2  UNL     1       2.234  -0.575  -2.176  1.00  0.00    -0.222 NA
HETATM   12  C11 UNL     1       1.881  -0.134  -0.961  1.00  0.00     0.160 A 
HETATM   13  C18 UNL     1       0.522  -0.070  -0.750  1.00  0.00     0.129 A 
HETATM   14  N4  UNL     1       0.191   0.418   0.547  1.00  0.00    -0.379 N 
HETATM   15  C19 UNL     1      -0.923   0.016   1.383  1.00  0.00     0.164 C 
HETATM   16  H16 UNL     1       0.913   1.156   0.817  1.00  0.00     0.160 HD
ENDROOT
BRANCH  12  17
HETATM   17  N3  UNL     1       2.813   0.235   0.036  1.00  0.00    -0.339 N 
HETATM   18  H10 UNL     1       2.664   0.561   1.005  1.00  0.00     0.167 HD
BRANCH  17  19
HETATM   19  C12 UNL     1       4.224   0.208  -0.101  1.00  0.00     0.035 A 
HETATM   20  C13 UNL     1       4.794  -0.660  -1.000  1.00  0.00     0.029 A 
HETATM   21  C14 UNL     1       6.153  -0.726  -1.203  1.00  0.00     0.004 A 
HETATM   22  C15 UNL     1       7.031   0.081  -0.509  1.00  0.00     0.018 A 
HETATM   23  C16 UNL     1       6.504   0.968   0.405  1.00  0.00    -0.001 A 
HETATM   24  C17 UNL     1       5.140   0.993   0.568  1.00  0.00     0.047 A 
BRANCH  23  25
HETATM   25  S1  UNL     1       7.533   2.084   1.383  1.00  0.00    -0.143 SA
HETATM   26  H14 UNL     1       8.879   1.788   1.027  1.00  0.00     0.107 HD
ENDBRANCH  23  25
ENDBRANCH  17  19
ENDBRANCH  12  17
BRANCH   3  27
HETATM   27  O2  UNL     1      -2.933   0.350   2.981  1.00  0.00    -0.355 OA
HETATM   28  C5  UNL     1      -4.000   0.537   3.885  1.00  0.00     0.210 C 
ENDBRANCH   3  27
BRANCH   1  29
HETATM   29  O1  UNL     1      -6.270  -0.073  -0.452  1.00  0.00    -0.356 OA
HETATM   30  C1  UNL     1      -6.619  -0.280  -1.824  1.00  0.00     0.210 C 
ENDBRANCH   1  29
TORSDOF 5
