REMARK  3 active torsions:
REMARK  status: ('A' for Active; 'I' for Inactive)
REMARK    1  A    between atoms: N1_1  and  C1_2 
REMARK    2  A    between atoms: N2_5  and  C4_6 
REMARK    3  A    between atoms: C4_6  and  C5_7 
ROOT
HETATM    1  C5  UNL     1      -0.272   1.254   0.135  1.00  0.00    -0.032 C 
HETATM    2  C6  UNL     1       0.501   2.209   0.591  1.00  0.00    -0.073 C 
HETATM    3  B1  UNL     1       2.043   1.778   1.357  1.00  0.00     0.316 B 
HETATM    4  N3  UNL     1       2.690   0.223   1.300  1.00  0.00    -0.438 N 
HETATM    5  C7  UNL     1       4.019  -0.124   0.917  1.00  0.00     0.040 A 
HETATM    6  C8  UNL     1       4.693  -0.870   1.855  1.00  0.00     0.030 A 
HETATM    7  C9  UNL     1       6.007  -1.349   1.758  1.00  0.00     0.002 A 
HETATM    8  C10 UNL     1       6.699  -1.036   0.588  1.00  0.00     0.002 A 
HETATM    9  C11 UNL     1       5.994  -0.276  -0.354  1.00  0.00     0.032 A 
HETATM   10  C12 UNL     1       4.695   0.189  -0.242  1.00  0.00     0.058 A 
HETATM   11  N4  UNL     1       4.274   0.923  -1.384  1.00  0.00    -0.348 N 
HETATM   12  C13 UNL     1       3.361   0.209  -2.224  1.00  0.00     0.229 C 
HETATM   13  N5  UNL     1       2.219   0.360  -1.697  1.00  0.00    -0.170 NA
HETATM   14  N6  UNL     1       1.012  -0.136  -2.129  1.00  0.00    -0.288 N 
HETATM   15  C14 UNL     1       0.735  -0.804  -0.923  1.00  0.00     0.110 C 
HETATM   16  C15 UNL     1       0.158  -0.142   0.065  1.00  0.00     0.027 C 
HETATM   17  H10 UNL     1       2.152  -0.630   1.556  1.00  0.00     0.138 HD
HETATM   18  H15 UNL     1       4.792   1.822  -1.267  1.00  0.00     0.167 HD
HETATM   19  H17 UNL     1       0.146  -0.410  -2.631  1.00  0.00     0.188 HD
ENDROOT
BRANCH   1  20
HETATM   20  C4  UNL     1      -1.629   1.530  -0.337  1.00  0.00     0.310 C 
BRANCH  20  21
HETATM   21  N2  UNL     1      -2.700   0.888   0.358  1.00  0.00     0.092 N 
HETATM   22  C3  UNL     1      -2.757  -0.549   0.180  1.00  0.00     0.275 C 
HETATM   23  C2  UNL     1      -4.166  -1.034  -0.081  1.00  0.00     0.065 C 
HETATM   24  C1  UNL     1      -5.148  -0.419   0.889  1.00  0.00     0.221 C 
HETATM   25  C17 UNL     1      -5.155   1.057   0.610  1.00  0.00     0.065 C 
HETATM   26  C16 UNL     1      -3.934   1.432  -0.186  1.00  0.00     0.275 C 
BRANCH  24  27
HETATM   27  N1  UNL     1      -6.436  -1.056   0.649  1.00  0.00     0.083 N 
HETATM   28  H1  UNL     1      -6.552  -1.907   1.239  1.00  0.00     0.313 HD
HETATM   29  H2  UNL     1      -6.520  -1.263  -0.372  1.00  0.00     0.313 HD
ENDBRANCH  24  27
ENDBRANCH  20  21
ENDBRANCH   1  20
TORSDOF 3
