REMARK  3 active torsions:
REMARK  status: ('A' for Active; 'I' for Inactive)
REMARK    1  A    between atoms: O1_2  and  C2_3 
REMARK    2  A    between atoms: C9_13  and  N3_14 
REMARK    3  A    between atoms: N3_14  and  C10_15 
ROOT
HETATM    1  C2  UNL     1      -3.686  -0.326   0.066  1.00  0.00     0.144 C 
HETATM    2  C3  UNL     1      -3.758  -1.515   1.002  1.00  0.00     0.038 C 
HETATM    3  C4  UNL     1      -3.314  -0.685   1.925  1.00  0.00     0.017 A 
HETATM    4  C5  UNL     1      -2.813   0.451   2.726  1.00  0.00     0.020 A 
HETATM    5  C6  UNL     1      -2.161   1.014   1.709  1.00  0.00     0.066 A 
HETATM    6  O2  UNL     1      -1.383   2.182   1.546  1.00  0.00    -0.294 OA
HETATM    7  C7  UNL     1      -0.261   2.202   0.690  1.00  0.00     0.201 A 
HETATM    8  N1  UNL     1       0.278   3.442   0.584  1.00  0.00    -0.215 NA
HETATM    9  C8  UNL     1       1.359   3.664  -0.191  1.00  0.00     0.238 A 
HETATM   10  N2  UNL     1       1.961   2.669  -0.901  1.00  0.00    -0.222 NA
HETATM   11  C9  UNL     1       1.474   1.413  -0.838  1.00  0.00     0.160 A 
HETATM   12  C16 UNL     1       0.378   1.196  -0.049  1.00  0.00     0.128 A 
HETATM   13  N4  UNL     1      -0.145  -0.146   0.018  1.00  0.00    -0.382 N 
HETATM   14  C17 UNL     1      -1.278  -0.888   0.434  1.00  0.00     0.140 C 
HETATM   15  C18 UNL     1      -2.511  -0.020   0.790  1.00  0.00     0.064 A 
HETATM   16  H13 UNL     1       0.556  -0.836  -0.387  1.00  0.00     0.160 HD
ENDROOT
BRANCH  11  17
HETATM   17  N3  UNL     1       1.975   0.269  -1.514  1.00  0.00    -0.339 N 
HETATM   18  H8  UNL     1       1.614  -0.098  -2.417  1.00  0.00     0.167 HD
BRANCH  17  19
HETATM   19  C10 UNL     1       3.054  -0.457  -0.940  1.00  0.00     0.035 A 
HETATM   20  C11 UNL     1       3.561  -1.636  -1.453  1.00  0.00     0.029 A 
HETATM   21  C12 UNL     1       4.619  -2.308  -0.870  1.00  0.00     0.004 A 
HETATM   22  C13 UNL     1       5.195  -1.792   0.261  1.00  0.00     0.019 A 
HETATM   23  C14 UNL     1       4.740  -0.606   0.842  1.00  0.00     0.013 A 
HETATM   24 BR1  UNL     1       5.550   0.102   2.415  1.00  0.00    -0.051 Br
HETATM   25  C15 UNL     1       3.687   0.017   0.218  1.00  0.00     0.048 A 
ENDBRANCH  17  19
ENDBRANCH  11  17
BRANCH   1  26
HETATM   26  O1  UNL     1      -3.636  -0.701  -1.271  1.00  0.00    -0.389 OA
HETATM   27  C1  UNL     1      -4.756  -0.134  -1.875  1.00  0.00     0.202 C 
ENDBRANCH   1  26
TORSDOF 3
