REMARK  5 active torsions:
REMARK  status: ('A' for Active; 'I' for Inactive)
REMARK    1  A    between atoms: N1_1  and  C1_2 
REMARK    2  A    between atoms: C4_8  and  P1_9 
REMARK    3  A    between atoms: P1_9  and  C5_10 
REMARK    4  A    between atoms: C12_17  and  C13_18 
REMARK    5  A    between atoms: C13_18  and  N5_19 
ROOT
HETATM    1  C1  UNL     1      -1.667   2.010   1.555  1.00  0.00     0.053 A 
HETATM    2  C2  UNL     1      -1.124   3.213   1.230  1.00  0.00     0.148 A 
HETATM    3  N2  UNL     1      -0.064   3.015   0.438  1.00  0.00    -0.239 N 
HETATM    4  N3  UNL     1       0.758   3.885  -0.109  1.00  0.00    -0.161 NA
HETATM    5  C3  UNL     1       1.757   3.433  -0.866  1.00  0.00     0.256 A 
HETATM    6  N4  UNL     1       1.932   2.108  -1.075  1.00  0.00    -0.237 NA
HETATM    7  C4  UNL     1       1.075   1.254  -0.502  1.00  0.00     0.092 A 
HETATM    8  C11 UNL     1       0.051   1.686   0.272  1.00  0.00     0.097 A 
HETATM    9  C12 UNL     1      -0.925   0.985   0.946  1.00  0.00     0.018 A 
ENDROOT
BRANCH   7  10
HETATM   10  P1  UNL     1       1.358  -0.501  -0.797  1.00  0.00    -0.038 P 
HETATM   11  H5  UNL     1       0.912  -0.869  -2.113  1.00  0.00     0.069 HD
BRANCH  10  12
HETATM   12  C5  UNL     1       3.127  -0.960  -0.545  1.00  0.00    -0.028 A 
HETATM   13  C6  UNL     1       3.490  -1.538   0.660  1.00  0.00     0.012 A 
HETATM   14  C7  UNL     1       4.829  -1.882   0.854  1.00  0.00     0.001 A 
HETATM   15  C8  UNL     1       5.767  -1.649  -0.136  1.00  0.00     0.000 A 
HETATM   16  C9  UNL     1       5.363  -1.066  -1.334  1.00  0.00     0.001 A 
HETATM   17  C10 UNL     1       4.061  -0.720  -1.548  1.00  0.00     0.012 A 
ENDBRANCH  10  12
ENDBRANCH   7  10
BRANCH   9  18
HETATM   18  C13 UNL     1      -1.220  -0.448   1.080  1.00  0.00     0.160 C 
BRANCH  18  19
HETATM   19  N5  UNL     1      -2.372  -0.714   0.275  1.00  0.00    -0.408 N 
HETATM   20  C14 UNL     1      -2.309  -0.497  -1.109  1.00  0.00     0.117 C 
HETATM   21  C15 UNL     1      -3.722  -0.924  -1.543  1.00  0.00     0.021 C 
HETATM   22  C16 UNL     1      -4.259  -1.794  -0.426  1.00  0.00     0.021 C 
HETATM   23  C17 UNL     1      -3.135  -1.865   0.600  1.00  0.00     0.117 C 
ENDBRANCH  18  19
ENDBRANCH   9  18
BRANCH   1  24
HETATM   24  N1  UNL     1      -2.822   1.777   2.390  1.00  0.00    -0.397 N 
HETATM   25  H1  UNL     1      -3.719   1.544   1.921  1.00  0.00     0.156 HD
HETATM   26  H2  UNL     1      -2.805   1.831   3.443  1.00  0.00     0.156 HD
ENDBRANCH   1  24
TORSDOF 5
