REMARK  5 active torsions:
REMARK  status: ('A' for Active; 'I' for Inactive)
REMARK    1  A    between atoms: N1_1  and  C1_2 
REMARK    2  A    between atoms: N2_5  and  C4_6 
REMARK    3  A    between atoms: C4_6  and  C5_7 
REMARK    4  A    between atoms: C9_14  and  N6_15 
REMARK    5  A    between atoms: N6_15  and  C10_16 
ROOT
HETATM    1  C5  UNL     1      -0.120  -1.359  -1.168  1.00  0.00     0.070 C 
HETATM    2  C6  UNL     1      -1.183  -2.331  -1.607  1.00  0.00     0.001 C 
HETATM    3  C7  UNL     1      -0.658  -3.512  -1.238  1.00  0.00     0.110 C 
HETATM    4  N3  UNL     1       0.644  -3.424  -0.602  1.00  0.00    -0.267 N 
HETATM    5  N4  UNL     1       1.785  -4.224  -0.510  1.00  0.00    -0.165 NA
HETATM    6  C8  UNL     1       2.854  -3.672   0.016  1.00  0.00     0.257 C 
HETATM    7  N5  UNL     1       2.910  -2.342   0.497  1.00  0.00    -0.225 NA
HETATM    8  C9  UNL     1       1.831  -1.601   0.433  1.00  0.00     0.131 C 
HETATM    9  C16 UNL     1       0.532  -2.077  -0.012  1.00  0.00     0.188 C 
ENDROOT
BRANCH   1  10
HETATM   10  C4  UNL     1      -0.587  -0.002  -0.853  1.00  0.00     0.283 C 
BRANCH  10  11
HETATM   11  N2  UNL     1      -1.513   0.202   0.190  1.00  0.00     0.089 N 
HETATM   12  C3  UNL     1      -2.841  -0.263   0.051  1.00  0.00     0.274 C 
HETATM   13  C2  UNL     1      -3.719   0.677  -0.756  1.00  0.00     0.065 C 
HETATM   14  C1  UNL     1      -4.077   1.842   0.177  1.00  0.00     0.221 C 
HETATM   15  C18 UNL     1      -2.897   2.050   1.077  1.00  0.00     0.065 C 
HETATM   16  C17 UNL     1      -1.627   1.664   0.358  1.00  0.00     0.274 C 
BRANCH  14  17
HETATM   17  N1  UNL     1      -5.280   1.513   0.930  1.00  0.00     0.083 N 
HETATM   18  H1  UNL     1      -5.279   0.499   1.202  1.00  0.00     0.313 HD
HETATM   19  H2  UNL     1      -6.139   1.668   0.368  1.00  0.00     0.313 HD
ENDBRANCH  14  17
ENDBRANCH  10  11
ENDBRANCH   1  10
BRANCH   8  20
HETATM   20  N6  UNL     1       1.997  -0.284   0.931  1.00  0.00    -0.343 N 
HETATM   21  H14 UNL     1       1.231   0.126   1.550  1.00  0.00     0.167 HD
BRANCH  20  22
HETATM   22  C10 UNL     1       3.105   0.540   0.672  1.00  0.00     0.033 A 
HETATM   23  C11 UNL     1       4.195   0.235  -0.110  1.00  0.00     0.029 A 
HETATM   24  C12 UNL     1       5.272   1.038  -0.355  1.00  0.00     0.002 A 
HETATM   25  C13 UNL     1       5.298   2.283   0.223  1.00  0.00     0.000 A 
HETATM   26  C14 UNL     1       4.245   2.666   1.021  1.00  0.00     0.002 A 
HETATM   27  C15 UNL     1       3.198   1.813   1.225  1.00  0.00     0.029 A 
ENDBRANCH  20  22
ENDBRANCH   8  20
TORSDOF 5
