REMARK  7 active torsions:
REMARK  status: ('A' for Active; 'I' for Inactive)
REMARK    1  A    between atoms: C2_2  and  N1_9 
REMARK    2  A    between atoms: C3_3  and  C4_4 
REMARK    3  A    between atoms: C5_6  and  C6_7 
REMARK    4  A    between atoms: N1_9  and  C7_10 
REMARK    5  A    between atoms: C11_17  and  C12_18 
REMARK    6  A    between atoms: C12_18  and  N5_19 
REMARK    7  A    between atoms: C15_22  and  N6_23 
ROOT
HETATM    1  C7  UNL     1       0.653   1.070  -1.020  1.00  0.00     0.159 A 
HETATM    2  N2  UNL     1       1.304   1.746  -2.005  1.00  0.00    -0.220 NA
HETATM    3  C8  UNL     1       0.815   2.984  -2.300  1.00  0.00     0.258 A 
HETATM    4  N3  UNL     1      -0.245   3.485  -1.646  1.00  0.00    -0.161 NA
HETATM    5  N4  UNL     1      -0.862   2.810  -0.693  1.00  0.00    -0.240 N 
HETATM    6  C9  UNL     1      -1.905   3.038   0.138  1.00  0.00     0.119 A 
HETATM    7  C10 UNL     1      -2.096   1.935   0.974  1.00  0.00     0.030 A 
HETATM    8  C11 UNL     1      -1.144   0.982   0.659  1.00  0.00    -0.007 A 
HETATM    9  C18 UNL     1      -0.439   1.585  -0.350  1.00  0.00     0.112 A 
ENDROOT
BRANCH   1  10
HETATM   10  N1  UNL     1       1.325  -0.190  -0.798  1.00  0.00    -0.343 N 
HETATM   11  H8  UNL     1       1.260  -1.205  -1.026  1.00  0.00     0.167 HD
BRANCH  10  12
HETATM   12  C2  UNL     1       2.489   0.086   0.023  1.00  0.00     0.008 C 
HETATM   13  C1  UNL     1       2.581   1.123   1.104  1.00  0.00     0.068 C 
HETATM   14  C3  UNL     1       3.593  -0.631  -0.192  1.00  0.00     0.048 C 
BRANCH  14  15
HETATM   15  C4  UNL     1       4.855  -0.530   0.484  1.00  0.00     0.033 C 
HETATM   16 CL1  UNL     1       5.235   0.602   1.791  1.00  0.00    -0.085 Cl
HETATM   17  C5  UNL     1       5.894  -1.321   0.166  1.00  0.00     0.012 C 
BRANCH  17  18
HETATM   18  C6  UNL     1       7.226  -1.284   0.811  1.00  0.00     0.143 C 
HETATM   19 CL2  UNL     1       8.530  -0.920  -0.334  1.00  0.00    -0.126 Cl
ENDBRANCH  17  18
ENDBRANCH  14  15
ENDBRANCH  10  12
ENDBRANCH   1  10
BRANCH   8  20
HETATM   20  C12 UNL     1      -1.114  -0.343   1.270  1.00  0.00     0.158 C 
BRANCH  20  21
HETATM   21  N5  UNL     1      -1.924  -1.346   0.709  1.00  0.00    -0.408 N 
HETATM   22  C13 UNL     1      -1.951  -1.624  -0.654  1.00  0.00     0.119 C 
HETATM   23  C14 UNL     1      -3.025  -0.866  -1.423  1.00  0.00     0.055 C 
HETATM   24  C15 UNL     1      -4.352  -0.919  -0.692  1.00  0.00     0.221 C 
HETATM   25  C16 UNL     1      -4.296  -1.911   0.459  1.00  0.00     0.055 C 
HETATM   26  C17 UNL     1      -3.174  -1.571   1.403  1.00  0.00     0.119 C 
BRANCH  24  27
HETATM   27  N6  UNL     1      -4.750   0.365  -0.169  1.00  0.00     0.083 N 
HETATM   28  H19 UNL     1      -4.769   0.384   0.875  1.00  0.00     0.313 HD
HETATM   29  H20 UNL     1      -5.669   0.621  -0.577  1.00  0.00     0.313 HD
ENDBRANCH  24  27
ENDBRANCH  20  21
ENDBRANCH   8  20
TORSDOF 7
