REMARK  5 active torsions:
REMARK  status: ('A' for Active; 'I' for Inactive)
REMARK    1  A    between atoms: N1_1  and  C1_2 
REMARK    2  A    between atoms: N2_5  and  C4_6 
REMARK    3  A    between atoms: C4_6  and  C5_7 
REMARK    4  A    between atoms: C9_12  and  N4_13 
REMARK    5  A    between atoms: N4_13  and  C10_14 
ROOT
HETATM    1  C5  UNL     1       0.367  -0.912   1.195  1.00  0.00     0.004 A 
HETATM    2  C6  UNL     1       0.965  -1.777   2.106  1.00  0.00     0.031 A 
HETATM    3  C7  UNL     1       0.148  -2.819   2.476  1.00  0.00     0.124 A 
HETATM    4  N3  UNL     1      -0.991  -2.612   1.789  1.00  0.00    -0.228 N 
HETATM    5  C8  UNL     1      -0.876  -1.505   1.041  1.00  0.00     0.116 A 
HETATM    6  C9  UNL     1      -2.014  -1.098   0.230  1.00  0.00     0.155 A 
HETATM    7  N5  UNL     1      -3.119  -1.765   0.208  1.00  0.00    -0.242 NA
HETATM    8  C16 UNL     1      -3.300  -2.965   0.991  1.00  0.00     0.352 A 
HETATM    9  O1  UNL     1      -2.165  -3.302   1.739  1.00  0.00    -0.252 OA
ENDROOT
BRANCH   1  10
HETATM   10  C4  UNL     1       0.997   0.253   0.605  1.00  0.00     0.313 C 
BRANCH  10  11
HETATM   11  N2  UNL     1       1.549   0.017  -0.715  1.00  0.00     0.092 N 
HETATM   12  C3  UNL     1       2.142   1.173  -1.297  1.00  0.00     0.275 C 
HETATM   13  C2  UNL     1       3.383   1.644  -0.615  1.00  0.00     0.065 C 
HETATM   14  C1  UNL     1       4.384   0.522  -0.469  1.00  0.00     0.221 C 
HETATM   15  C18 UNL     1       3.753  -0.740   0.068  1.00  0.00     0.065 C 
HETATM   16  C17 UNL     1       2.465  -1.079  -0.640  1.00  0.00     0.275 C 
BRANCH  14  17
HETATM   17  N1  UNL     1       5.403   0.949   0.464  1.00  0.00     0.083 N 
HETATM   18  H1  UNL     1       5.646   0.178   1.138  1.00  0.00     0.313 HD
HETATM   19  H2  UNL     1       6.264   1.195  -0.059  1.00  0.00     0.313 HD
ENDBRANCH  14  17
ENDBRANCH  10  11
ENDBRANCH   1  10
BRANCH   6  20
HETATM   20  N4  UNL     1      -1.973   0.074  -0.575  1.00  0.00    -0.339 N 
HETATM   21  H12 UNL     1      -1.093   0.302  -1.031  1.00  0.00     0.167 HD
BRANCH  20  22
HETATM   22  C10 UNL     1      -3.072   0.955  -0.788  1.00  0.00     0.033 A 
HETATM   23  C11 UNL     1      -2.933   2.042  -1.636  1.00  0.00     0.029 A 
HETATM   24  C12 UNL     1      -3.947   2.943  -1.885  1.00  0.00     0.002 A 
HETATM   25  C13 UNL     1      -5.171   2.794  -1.284  1.00  0.00     0.000 A 
HETATM   26  C14 UNL     1      -5.358   1.728  -0.431  1.00  0.00     0.002 A 
HETATM   27  C15 UNL     1      -4.321   0.860  -0.215  1.00  0.00     0.029 A 
ENDBRANCH  20  22
ENDBRANCH   6  20
TORSDOF 5
