REMARK  4 active torsions:
REMARK  status: ('A' for Active; 'I' for Inactive)
REMARK    1  A    between atoms: N1_6  and  C6_7 
REMARK    2  A    between atoms: C10_14  and  C11_15 
REMARK    3  A    between atoms: C11_15  and  N5_16 
REMARK    4  A    between atoms: C14_19  and  N6_20 
ROOT
HETATM    1  C6  UNL     1      -1.937  -1.598   0.005  1.00  0.00     0.157 A 
HETATM    2  N2  UNL     1      -3.050  -2.301   0.350  1.00  0.00    -0.220 NA
HETATM    3  C7  UNL     1      -3.028  -3.640   0.231  1.00  0.00     0.258 A 
HETATM    4  N3  UNL     1      -1.912  -4.232  -0.223  1.00  0.00    -0.161 NA
HETATM    5  N4  UNL     1      -0.812  -3.589  -0.569  1.00  0.00    -0.240 N 
HETATM    6  C8  UNL     1       0.401  -3.913  -1.050  1.00  0.00     0.119 A 
HETATM    7  C9  UNL     1       1.140  -2.763  -1.231  1.00  0.00     0.030 A 
HETATM    8  C10 UNL     1       0.360  -1.662  -0.846  1.00  0.00    -0.007 A 
HETATM    9  C17 UNL     1      -0.819  -2.255  -0.455  1.00  0.00     0.111 A 
ENDROOT
BRANCH   8  10
HETATM   10  C11 UNL     1       0.847  -0.286  -0.878  1.00  0.00     0.158 C 
BRANCH  10  11
HETATM   11  N5  UNL     1       1.332   0.256   0.338  1.00  0.00    -0.408 N 
HETATM   12  C12 UNL     1       1.799   1.594   0.293  1.00  0.00     0.119 C 
HETATM   13  C13 UNL     1       3.280   1.545  -0.030  1.00  0.00     0.055 C 
HETATM   14  C14 UNL     1       3.947   0.922   1.181  1.00  0.00     0.221 C 
HETATM   15  C15 UNL     1       3.454  -0.472   1.347  1.00  0.00     0.055 C 
HETATM   16  C16 UNL     1       1.961  -0.621   1.241  1.00  0.00     0.119 C 
BRANCH  14  17
HETATM   17  N6  UNL     1       5.380   0.915   1.072  1.00  0.00     0.083 N 
HETATM   18  H19 UNL     1       5.746   1.729   1.638  1.00  0.00     0.313 HD
HETATM   19  H20 UNL     1       5.650   1.077   0.067  1.00  0.00     0.313 HD
ENDBRANCH  14  17
ENDBRANCH  10  11
ENDBRANCH   8  10
BRANCH   1  20
HETATM   20  N1  UNL     1      -2.143  -0.183   0.204  1.00  0.00    -0.360 N 
HETATM   21  C5  UNL     1      -1.707   0.918   1.036  1.00  0.00     0.151 C 
HETATM   22  C4  UNL     1      -2.852   1.524   1.779  1.00  0.00    -0.011 C 
HETATM   23  C3  UNL     1      -3.808   1.888   0.932  1.00  0.00    -0.023 C 
HETATM   24  C2  UNL     1      -3.627   1.662  -0.534  1.00  0.00     0.022 C 
HETATM   25  C1  UNL     1      -2.782   2.774  -1.052  1.00  0.00     0.016 C 
HETATM   26  C18 UNL     1      -3.103   0.286  -0.759  1.00  0.00     0.133 C 
ENDBRANCH   1  20
TORSDOF 4
