REMARK  5 active torsions:
REMARK  status: ('A' for Active; 'I' for Inactive)
REMARK    1  A    between atoms: N1_1  and  C1_2 
REMARK    2  A    between atoms: N2_5  and  C4_6 
REMARK    3  A    between atoms: C4_6  and  C5_7 
REMARK    4  A    between atoms: C9_14  and  N6_15 
REMARK    5  A    between atoms: N6_15  and  C10_16 
ROOT
HETATM    1  C5  UNL     1      -0.025   1.667  -1.391  1.00  0.00    -0.007 A 
HETATM    2  C6  UNL     1      -0.589   2.230  -2.550  1.00  0.00     0.030 A 
HETATM    3  C7  UNL     1       0.273   2.157  -3.625  1.00  0.00     0.119 A 
HETATM    4  N3  UNL     1       1.358   1.549  -3.113  1.00  0.00    -0.240 N 
HETATM    5  N4  UNL     1       2.485   1.235  -3.728  1.00  0.00    -0.161 NA
HETATM    6  C8  UNL     1       3.477   0.624  -3.057  1.00  0.00     0.258 A 
HETATM    7  N5  UNL     1       3.333   0.318  -1.732  1.00  0.00    -0.221 NA
HETATM    8  C9  UNL     1       2.197   0.628  -1.089  1.00  0.00     0.155 A 
HETATM    9  C15 UNL     1       1.213   1.254  -1.822  1.00  0.00     0.111 A 
ENDROOT
BRANCH   1  10
HETATM   10  C4  UNL     1      -0.742   1.635  -0.129  1.00  0.00     0.158 C 
BRANCH  10  11
HETATM   11  N2  UNL     1      -1.282   0.383   0.286  1.00  0.00    -0.408 N 
HETATM   12  C3  UNL     1      -2.199  -0.226  -0.586  1.00  0.00     0.119 C 
HETATM   13  C2  UNL     1      -3.515  -0.644  -0.037  1.00  0.00     0.055 C 
HETATM   14  C1  UNL     1      -3.254  -1.401   1.260  1.00  0.00     0.221 C 
HETATM   15  C17 UNL     1      -2.712  -0.317   2.194  1.00  0.00     0.055 C 
HETATM   16  C16 UNL     1      -1.431   0.229   1.680  1.00  0.00     0.119 C 
BRANCH  14  17
HETATM   17  N1  UNL     1      -4.458  -1.948   1.829  1.00  0.00     0.083 N 
HETATM   18  H1  UNL     1      -4.707  -2.868   1.382  1.00  0.00     0.313 HD
HETATM   19  H2  UNL     1      -5.279  -1.322   1.650  1.00  0.00     0.313 HD
ENDBRANCH  14  17
ENDBRANCH  10  11
ENDBRANCH   1  10
BRANCH   8  20
HETATM   20  N6  UNL     1       2.068   0.295   0.287  1.00  0.00    -0.362 N 
HETATM   21  H13 UNL     1       1.372   0.382   1.020  1.00  0.00     0.162 HD
BRANCH  20  22
HETATM   22  C10 UNL     1       3.246  -0.355   0.816  1.00  0.00     0.131 A 
HETATM   23  C11 UNL     1       3.534  -1.628   0.069  1.00  0.00     0.004 A 
HETATM   24  C12 UNL     1       3.516  -2.631   0.913  1.00  0.00     0.022 A 
HETATM   25  C13 UNL     1       3.224  -2.137   2.253  1.00  0.00     0.032 A 
HETATM   26 CL1  UNL     1       3.041  -2.853   3.847  1.00  0.00    -0.085 Cl
HETATM   27  C14 UNL     1       3.070  -0.826   2.190  1.00  0.00     0.026 A 
ENDBRANCH  20  22
ENDBRANCH   8  20
TORSDOF 5
