REMARK  6 active torsions:
REMARK  status: ('A' for Active; 'I' for Inactive)
REMARK    1  A    between atoms: C2_2  and  C19_24 
REMARK    2  A    between atoms: C3_3  and  C4_4 
REMARK    3  A    between atoms: C5_5  and  C6_6 
REMARK    4  A    between atoms: C10_13  and  C11_14 
REMARK    5  A    between atoms: C11_14  and  N4_15 
REMARK    6  A    between atoms: C14_18  and  N5_19 
ROOT
HETATM    1  C6  UNL     1       1.839  -1.341   0.175  1.00  0.00     0.087 A 
HETATM    2  N1  UNL     1       2.933  -2.095   0.195  1.00  0.00    -0.238 NA
HETATM    3  C7  UNL     1       2.950  -3.376   0.425  1.00  0.00     0.256 A 
HETATM    4  N2  UNL     1       1.765  -3.961   0.658  1.00  0.00    -0.161 NA
HETATM    5  N3  UNL     1       0.674  -3.217   0.639  1.00  0.00    -0.241 N 
HETATM    6  C8  UNL     1      -0.594  -3.634   0.904  1.00  0.00     0.119 A 
HETATM    7  C9  UNL     1      -1.400  -2.498   0.812  1.00  0.00     0.030 A 
HETATM    8  C10 UNL     1      -0.662  -1.359   0.487  1.00  0.00     0.002 A 
HETATM    9  C18 UNL     1       0.604  -1.897   0.405  1.00  0.00     0.094 A 
ENDROOT
BRANCH   8  10
HETATM   10  C11 UNL     1      -1.147  -0.036   0.171  1.00  0.00     0.314 C 
BRANCH  10  11
HETATM   11  N4  UNL     1      -2.270   0.047  -0.781  1.00  0.00     0.097 N 
HETATM   12  C12 UNL     1      -2.345   1.449  -1.156  1.00  0.00     0.275 C 
HETATM   13  C13 UNL     1      -3.305   2.271  -0.374  1.00  0.00     0.065 C 
HETATM   14  C14 UNL     1      -4.692   1.741  -0.701  1.00  0.00     0.221 C 
HETATM   15  C15 UNL     1      -4.659   0.264  -0.932  1.00  0.00     0.070 C 
HETATM   16  C16 UNL     1      -3.486  -0.427  -0.204  1.00  0.00     0.221 C 
HETATM   17  C17 UNL     1      -3.706  -0.179   1.242  1.00  0.00     0.043 C 
BRANCH  14  18
HETATM   18  N5  UNL     1      -5.600   2.201   0.296  1.00  0.00     0.083 N 
HETATM   19  H17 UNL     1      -6.405   1.577   0.377  1.00  0.00     0.313 HD
HETATM   20  H18 UNL     1      -5.976   3.141   0.048  1.00  0.00     0.313 HD
ENDBRANCH  14  18
ENDBRANCH  10  11
ENDBRANCH   8  10
BRANCH   1  21
HETATM   21  C5  UNL     1       1.941   0.072  -0.000  1.00  0.00     0.034 C 
HETATM   22  C4  UNL     1       3.009   0.825  -0.141  1.00  0.00     0.003 C 
BRANCH  22  23
HETATM   23  C3  UNL     1       4.401   0.464  -0.161  1.00  0.00     0.004 C 
HETATM   24  C2  UNL     1       5.662   0.810  -0.260  1.00  0.00    -0.070 C 
HETATM   25  C1  UNL     1       6.723  -0.259  -0.177  1.00  0.00     0.044 C 
BRANCH  24  26
HETATM   26  C19 UNL     1       6.353   2.142  -0.443  1.00  0.00     0.148 C 
HETATM   27 CL1  UNL     1       5.240   3.498  -0.541  1.00  0.00    -0.126 Cl
ENDBRANCH  24  26
ENDBRANCH  22  23
ENDBRANCH   1  21
TORSDOF 6
