REMARK  5 active torsions:
REMARK  status: ('A' for Active; 'I' for Inactive)
REMARK    1  A    between atoms: C1_2  and  O1_3 
REMARK    2  A    between atoms: O1_3  and  C2_4 
REMARK    3  A    between atoms: C5_7  and  C6_8 
REMARK    4  A    between atoms: C9_13  and  N4_14 
REMARK    5  A    between atoms: C10_15  and  N5_16 
ROOT
HETATM    1  C6  UNL     1       1.611  -1.984   1.109  1.00  0.00     0.085 A 
HETATM    2  C7  UNL     1       1.333  -3.124   0.216  1.00  0.00     0.125 A 
HETATM    3  N2  UNL     1       0.211  -3.458  -0.327  1.00  0.00    -0.183 NA
HETATM    4  N3  UNL     1      -0.916  -2.670  -0.068  1.00  0.00    -0.246 N 
HETATM    5  C8  UNL     1      -2.270  -2.705  -0.461  1.00  0.00     0.145 A 
HETATM    6  C9  UNL     1      -2.965  -1.692   0.076  1.00  0.00     0.049 A 
HETATM    7  C10 UNL     1      -2.067  -0.864   0.913  1.00  0.00     0.182 A 
HETATM    8  C16 UNL     1      -0.774  -1.537   0.782  1.00  0.00     0.061 A 
HETATM    9  C17 UNL     1       0.376  -1.196   1.339  1.00  0.00     0.018 A 
ENDROOT
BRANCH   1  10
HETATM   10  C5  UNL     1       2.742  -1.184   0.603  1.00  0.00    -0.043 A 
HETATM   11  C4  UNL     1       3.931  -1.012   1.278  1.00  0.00     0.011 A 
HETATM   12  C3  UNL     1       4.923  -0.230   0.689  1.00  0.00     0.039 A 
HETATM   13  C2  UNL     1       4.735   0.373  -0.556  1.00  0.00     0.098 A 
HETATM   14  C19 UNL     1       3.528   0.172  -1.192  1.00  0.00     0.068 A 
HETATM   15  C18 UNL     1       2.549  -0.591  -0.627  1.00  0.00     0.035 A 
HETATM   16 CL1  UNL     1       3.467   1.003  -2.747  1.00  0.00    -0.081 Cl
BRANCH  13  17
HETATM   17  O1  UNL     1       5.871   1.083  -0.894  1.00  0.00    -0.303 OA
BRANCH  17  18
HETATM   18  C1  UNL     1       5.977   1.785  -2.071  1.00  0.00     0.249 C 
HETATM   19  N1  UNL     1       5.359   2.790  -1.501  1.00  0.00    -0.289 NA
HETATM   20  H1  UNL     1       5.217   3.624  -2.118  1.00  0.00     0.188 HD
ENDBRANCH  17  18
ENDBRANCH  13  17
ENDBRANCH   1  10
BRANCH   7  21
HETATM   21  N5  UNL     1      -2.058   0.521   0.610  1.00  0.00    -0.398 N 
HETATM   22  C11 UNL     1      -1.674   0.933  -0.675  1.00  0.00     0.118 C 
HETATM   23  C12 UNL     1      -2.627   1.755  -1.466  1.00  0.00     0.019 C 
HETATM   24  C13 UNL     1      -3.894   2.122  -0.736  1.00  0.00     0.003 C 
HETATM   25  C14 UNL     1      -3.510   2.520   0.663  1.00  0.00     0.019 C 
HETATM   26  C15 UNL     1      -2.908   1.355   1.374  1.00  0.00     0.118 C 
ENDBRANCH   7  21
BRANCH   6  27
HETATM   27  N4  UNL     1      -4.359  -1.554  -0.203  1.00  0.00    -0.399 N 
HETATM   28  H8  UNL     1      -4.963  -1.661   0.635  1.00  0.00     0.156 HD
HETATM   29  H9  UNL     1      -4.589  -1.366  -1.200  1.00  0.00     0.156 HD
ENDBRANCH   6  27
TORSDOF 5
