REMARK  4 active torsions:
REMARK  status: ('A' for Active; 'I' for Inactive)
REMARK    1  A    between atoms: N1_4  and  C4_5 
REMARK    2  A    between atoms: C8_12  and  N5_13 
REMARK    3  A    between atoms: N5_13  and  C9_14 
REMARK    4  A    between atoms: C17_24  and  N6_25 
ROOT
HETATM    1  C4  UNL     1       1.020   1.782  -0.284  1.00  0.00     0.064 A 
HETATM    2  C5  UNL     1       1.862   2.879  -0.506  1.00  0.00     0.051 A 
HETATM    3  C6  UNL     1       1.066   3.996  -0.789  1.00  0.00     0.121 A 
HETATM    4  N2  UNL     1      -0.200   3.558  -0.733  1.00  0.00    -0.238 N 
HETATM    5  N3  UNL     1      -1.330   4.223  -0.925  1.00  0.00    -0.161 NA
HETATM    6  C7  UNL     1      -2.529   3.634  -0.834  1.00  0.00     0.258 A 
HETATM    7  N4  UNL     1      -2.530   2.328  -0.537  1.00  0.00    -0.220 NA
HETATM    8  C8  UNL     1      -1.447   1.569  -0.326  1.00  0.00     0.160 A 
HETATM    9  C15 UNL     1      -0.262   2.254  -0.438  1.00  0.00     0.130 A 
ENDROOT
BRANCH   8  10
HETATM   10  N5  UNL     1      -1.432   0.191  -0.034  1.00  0.00    -0.339 N 
HETATM   11  H10 UNL     1      -0.540  -0.310   0.070  1.00  0.00     0.167 HD
BRANCH  10  12
HETATM   12  C9  UNL     1      -2.518  -0.694   0.136  1.00  0.00     0.036 A 
HETATM   13  C10 UNL     1      -3.787  -0.319  -0.189  1.00  0.00     0.053 A 
HETATM   14  C11 UNL     1      -4.866  -1.148  -0.029  1.00  0.00     0.037 A 
HETATM   15 CL1  UNL     1      -6.509  -0.688  -0.441  1.00  0.00    -0.084 Cl
HETATM   16  C12 UNL     1      -4.748  -2.423   0.472  1.00  0.00     0.048 A 
HETATM   17  C13 UNL     1      -3.460  -2.840   0.816  1.00  0.00     0.037 A 
HETATM   18 CL2  UNL     1      -3.140  -4.432   1.464  1.00  0.00    -0.084 Cl
HETATM   19  C14 UNL     1      -2.416  -1.966   0.634  1.00  0.00     0.053 A 
ENDBRANCH  10  12
ENDBRANCH   8  10
BRANCH   1  20
HETATM   20  N1  UNL     1       1.670   0.592   0.062  1.00  0.00    -0.376 N 
HETATM   21  C3  UNL     1       1.897  -0.171   1.308  1.00  0.00     0.129 C 
HETATM   22  C2  UNL     1       2.088  -1.545   0.754  1.00  0.00     0.034 C 
HETATM   23  C1  UNL     1       2.628  -2.544   1.738  1.00  0.00     0.014 C 
HETATM   24  C17 UNL     1       3.035  -1.286  -0.394  1.00  0.00     0.240 C 
HETATM   25  C16 UNL     1       2.302  -0.118  -1.068  1.00  0.00     0.159 C 
BRANCH  24  26
HETATM   26  N6  UNL     1       4.316  -0.790   0.017  1.00  0.00     0.085 N 
HETATM   27  H17 UNL     1       4.578   0.119  -0.410  1.00  0.00     0.313 HD
HETATM   28  H18 UNL     1       4.477  -0.743   1.025  1.00  0.00     0.313 HD
ENDBRANCH  24  26
ENDBRANCH   1  20
TORSDOF 4
