REMARK  0 active torsions:
REMARK  status: ('A' for Active; 'I' for Inactive)
ROOT
HETATM    1  C1  UNL     1      -3.452   2.010  -0.192  1.00  0.00     0.010 C 
HETATM    2  C2  UNL     1      -2.777   0.806  -0.773  1.00  0.00    -0.016 C 
HETATM    3  C3  UNL     1      -2.764  -0.254   0.332  1.00  0.00     0.034 C 
HETATM    4  C4  UNL     1      -2.222  -1.563  -0.107  1.00  0.00     0.273 C 
HETATM    5  N1  UNL     1      -1.612  -2.395   0.893  1.00  0.00     0.112 N 
HETATM    6  C5  UNL     1      -0.257  -1.935   1.209  1.00  0.00     0.368 C 
HETATM    7  C6  UNL     1      -0.290  -0.679   1.934  1.00  0.00     0.058 C 
HETATM    8  C7  UNL     1      -0.233  -0.064   0.789  1.00  0.00     0.038 C 
HETATM    9  C8  UNL     1      -0.458   1.195   0.059  1.00  0.00     0.049 C 
HETATM   10  C9  UNL     1       0.690   2.113   0.127  1.00  0.00     0.105 C 
HETATM   11  C10 UNL     1       1.975   1.537  -0.055  1.00  0.00    -0.104 C 
HETATM   12  C11 UNL     1       3.023   1.072  -0.182  1.00  0.00    -0.087 C 
HETATM   13  C12 UNL     1       4.309   0.504  -0.313  1.00  0.00     0.215 C 
HETATM   14  N2  UNL     1       4.284  -0.929  -0.430  1.00  0.00    -0.373 N 
HETATM   15  C13 UNL     1       3.721  -1.465   0.787  1.00  0.00     0.228 C 
HETATM   16  N3  UNL     1       2.622  -1.864   0.160  1.00  0.00    -0.143 NA
HETATM   17  N4  UNL     1       2.721  -1.525  -1.229  1.00  0.00    -0.123 NA
HETATM   18  C14 UNL     1       1.587  -1.551  -1.849  1.00  0.00     0.242 C 
HETATM   19  N5  UNL     1       0.710  -0.885  -1.226  1.00  0.00    -0.144 NA
HETATM   20  N6  UNL     1       0.213  -1.178   0.014  1.00  0.00    -0.234 N 
HETATM   21  C15 UNL     1      -1.314   1.115  -1.146  1.00  0.00     0.016 C 
HETATM   22  H9  UNL     1      -1.691  -3.403   0.741  1.00  0.00     0.319 HD
HETATM   23  H17 UNL     1       4.624  -1.524  -1.207  1.00  0.00     0.161 HD
ENDROOT
TORSDOF 0
