REMARK  6 active torsions:
REMARK  status: ('A' for Active; 'I' for Inactive)
REMARK    1  A    between atoms: N1_1  and  C1_2 
REMARK    2  A    between atoms: N2_5  and  C4_6 
REMARK    3  A    between atoms: C4_6  and  C5_7 
REMARK    4  A    between atoms: C7_9  and  C8_10 
REMARK    5  A    between atoms: C10_16  and  N6_17 
REMARK    6  A    between atoms: N6_17  and  C11_18 
ROOT
HETATM    1  C5  UNL     1       0.340  -1.922   0.514  1.00  0.00    -0.006 A 
HETATM    2  C6  UNL     1       0.582  -3.232   0.066  1.00  0.00     0.039 A 
HETATM    3  C7  UNL     1      -0.469  -3.708  -0.684  1.00  0.00     0.051 A 
HETATM    4  N3  UNL     1      -1.351  -2.722  -0.706  1.00  0.00    -0.232 N 
HETATM    5  N4  UNL     1      -2.540  -2.643  -1.273  1.00  0.00    -0.160 NA
HETATM    6  C9  UNL     1      -3.302  -1.545  -1.173  1.00  0.00     0.258 A 
HETATM    7  N5  UNL     1      -2.851  -0.464  -0.464  1.00  0.00    -0.221 NA
HETATM    8  C10 UNL     1      -1.649  -0.521   0.120  1.00  0.00     0.155 A 
HETATM    9  C16 UNL     1      -0.904  -1.673  -0.016  1.00  0.00     0.112 A 
ENDROOT
BRANCH   1  10
HETATM   10  C4  UNL     1       1.340  -1.167   1.293  1.00  0.00     0.158 C 
BRANCH  10  11
HETATM   11  N2  UNL     1       2.218  -0.331   0.588  1.00  0.00    -0.408 N 
HETATM   12  C3  UNL     1       1.770   0.643  -0.309  1.00  0.00     0.119 C 
HETATM   13  C2  UNL     1       2.890   1.054  -1.255  1.00  0.00     0.055 C 
HETATM   14  C1  UNL     1       4.074   1.586  -0.481  1.00  0.00     0.221 C 
HETATM   15  C18 UNL     1       3.978   1.228   0.987  1.00  0.00     0.055 C 
HETATM   16  C17 UNL     1       3.549  -0.217   1.085  1.00  0.00     0.119 C 
BRANCH  14  17
HETATM   17  N1  UNL     1       4.232   3.015  -0.666  1.00  0.00     0.083 N 
HETATM   18  H1  UNL     1       4.807   3.160  -1.525  1.00  0.00     0.313 HD
HETATM   19  H2  UNL     1       4.779   3.374   0.148  1.00  0.00     0.313 HD
ENDBRANCH  14  17
ENDBRANCH  10  11
ENDBRANCH   1  10
BRANCH   3  20
HETATM   20  C8  UNL     1      -0.648  -5.023  -1.354  1.00  0.00     0.173 C 
HETATM   21 CL1  UNL     1      -0.025  -4.952  -3.011  1.00  0.00    -0.124 Cl
ENDBRANCH   3  20
BRANCH   8  22
HETATM   22  N6  UNL     1      -1.241   0.638   0.872  1.00  0.00    -0.363 N 
HETATM   23  H14 UNL     1      -0.432   0.931   1.435  1.00  0.00     0.162 HD
BRANCH  22  24
HETATM   24  C11 UNL     1      -2.224   1.694   0.853  1.00  0.00     0.130 C 
HETATM   25  C12 UNL     1      -3.517   1.226   1.467  1.00  0.00    -0.002 C 
HETATM   26  C13 UNL     1      -4.739   1.589   1.060  1.00  0.00    -0.003 C 
HETATM   27  C14 UNL     1      -4.711   2.521  -0.085  1.00  0.00     0.195 C 
HETATM   28  O1  UNL     1      -3.759   2.041  -0.988  1.00  0.00    -0.385 OA
HETATM   29  C15 UNL     1      -2.461   2.224  -0.545  1.00  0.00     0.197 C 
ENDBRANCH  22  24
ENDBRANCH   8  22
TORSDOF 6
