REMARK  7 active torsions:
REMARK  status: ('A' for Active; 'I' for Inactive)
REMARK    1  A    between atoms: C2_2  and  C3_3 
REMARK    2  A    between atoms: C3_3  and  N1_4 
REMARK    3  A    between atoms: C3_3  and  C4_5 
REMARK    4  A    between atoms: C4_5  and  N2_6 
REMARK    5  A    between atoms: C8_13  and  N6_14 
REMARK    6  A    between atoms: N6_14  and  C9_15 
REMARK    7  A    between atoms: C12_18  and  O1_19 
ROOT
HETATM    1  N2  UNL     1       2.702   0.484  -0.197  1.00  0.00    -0.383 N 
HETATM    2  C5  UNL     1       2.879   1.916  -0.179  1.00  0.00     0.105 C 
HETATM    3  C6  UNL     1       1.918   2.825   0.025  1.00  0.00     0.136 C 
HETATM    4  N3  UNL     1       0.532   2.627   0.267  1.00  0.00    -0.239 N 
HETATM    5  N4  UNL     1      -0.249   3.787   0.211  1.00  0.00    -0.161 NA
HETATM    6  C7  UNL     1      -1.541   3.704   0.420  1.00  0.00     0.258 A 
HETATM    7  N5  UNL     1      -2.165   2.458   0.702  1.00  0.00    -0.220 NA
HETATM    8  C8  UNL     1      -1.482   1.341   0.766  1.00  0.00     0.158 A 
HETATM    9  C16 UNL     1      -0.043   1.357   0.545  1.00  0.00     0.101 A 
HETATM   10  C17 UNL     1       0.433   0.130   0.661  1.00  0.00     0.028 C 
HETATM   11  C18 UNL     1       1.806  -0.325   0.529  1.00  0.00     0.152 C 
ENDROOT
BRANCH   8  12
HETATM   12  N6  UNL     1      -2.215   0.176   1.055  1.00  0.00    -0.339 N 
HETATM   13  H14 UNL     1      -1.753  -0.471   1.736  1.00  0.00     0.167 HD
BRANCH  12  14
HETATM   14  C9  UNL     1      -3.482  -0.125   0.490  1.00  0.00     0.035 A 
HETATM   15  C10 UNL     1      -4.112  -1.303   0.898  1.00  0.00     0.032 A 
HETATM   16  C11 UNL     1      -5.339  -1.706   0.417  1.00  0.00     0.041 A 
HETATM   17  C12 UNL     1      -6.011  -0.948  -0.507  1.00  0.00     0.090 A 
HETATM   18  C14 UNL     1      -5.414   0.228  -0.934  1.00  0.00     0.069 A 
HETATM   19 CL1  UNL     1      -6.158   1.312  -2.122  1.00  0.00    -0.081 Cl
HETATM   20  C15 UNL     1      -4.177   0.609  -0.432  1.00  0.00     0.056 A 
BRANCH  17  21
HETATM   21  O1  UNL     1      -7.240  -1.179  -1.105  1.00  0.00    -0.354 OA
HETATM   22  C13 UNL     1      -7.980  -2.338  -0.779  1.00  0.00     0.210 C 
ENDBRANCH  17  21
ENDBRANCH  12  14
ENDBRANCH   8  12
BRANCH   1  23
HETATM   23  C4  UNL     1       3.621  -0.194  -1.131  1.00  0.00     0.157 C 
BRANCH  23  24
HETATM   24  C3  UNL     1       4.631  -1.021  -0.410  1.00  0.00     0.235 C 
BRANCH  24  25
HETATM   25  C2  UNL     1       5.454  -0.136   0.506  1.00  0.00     0.032 C 
HETATM   26  C1  UNL     1       6.534  -0.880   1.216  1.00  0.00     0.007 C 
ENDBRANCH  24  25
BRANCH  24  27
HETATM   27  N1  UNL     1       5.540  -1.583  -1.390  1.00  0.00     0.084 N 
HETATM   28  H7  UNL     1       5.511  -1.000  -2.256  1.00  0.00     0.313 HD
HETATM   29  H8  UNL     1       5.288  -2.554  -1.656  1.00  0.00     0.313 HD
ENDBRANCH  24  27
ENDBRANCH  23  24
ENDBRANCH   1  23
TORSDOF 7
