REMARK  6 active torsions:
REMARK  status: ('A' for Active; 'I' for Inactive)
REMARK    1  A    between atoms: O1_2  and  C2_3 
REMARK    2  A    between atoms: C5_6  and  N1_7 
REMARK    3  A    between atoms: N1_7  and  C6_8 
REMARK    4  A    between atoms: C10_15  and  C11_16 
REMARK    5  A    between atoms: C11_16  and  N5_17 
REMARK    6  A    between atoms: C14_20  and  N6_21 
ROOT
HETATM    1  C6  UNL     1       0.605  -1.061  -1.078  1.00  0.00     0.159 A 
HETATM    2  N2  UNL     1       1.214  -1.776  -2.069  1.00  0.00    -0.220 NA
HETATM    3  C7  UNL     1       0.915  -3.101  -2.145  1.00  0.00     0.258 A 
HETATM    4  N3  UNL     1       0.057  -3.663  -1.276  1.00  0.00    -0.161 NA
HETATM    5  N4  UNL     1      -0.546  -2.970  -0.301  1.00  0.00    -0.240 N 
HETATM    6  C8  UNL     1      -1.391  -3.190   0.701  1.00  0.00     0.119 A 
HETATM    7  C9  UNL     1      -1.645  -2.037   1.414  1.00  0.00     0.030 A 
HETATM    8  C10 UNL     1      -0.904  -1.009   0.814  1.00  0.00    -0.007 A 
HETATM    9  C17 UNL     1      -0.265  -1.667  -0.214  1.00  0.00     0.112 A 
ENDROOT
BRANCH   1  10
HETATM   10  N1  UNL     1       1.131   0.280  -1.167  1.00  0.00    -0.339 N 
HETATM   11  H6  UNL     1       0.812   1.223  -1.474  1.00  0.00     0.167 HD
BRANCH  10  12
HETATM   12  C5  UNL     1       2.507   0.458  -0.739  1.00  0.00     0.035 A 
HETATM   13  C4  UNL     1       3.211   1.673  -0.704  1.00  0.00     0.032 A 
HETATM   14  C3  UNL     1       4.526   1.786  -0.319  1.00  0.00     0.041 A 
HETATM   15  C2  UNL     1       5.230   0.666   0.062  1.00  0.00     0.090 A 
HETATM   16  C19 UNL     1       4.583  -0.557   0.045  1.00  0.00     0.069 A 
HETATM   17  C18 UNL     1       3.264  -0.633  -0.347  1.00  0.00     0.056 A 
HETATM   18 CL1  UNL     1       5.446  -2.007   0.528  1.00  0.00    -0.081 Cl
BRANCH  15  19
HETATM   19  O1  UNL     1       6.551   0.675   0.462  1.00  0.00    -0.354 OA
HETATM   20  C1  UNL     1       7.400   1.770   0.561  1.00  0.00     0.210 C 
ENDBRANCH  15  19
ENDBRANCH  10  12
ENDBRANCH   1  10
BRANCH   8  21
HETATM   21  C11 UNL     1      -1.039   0.385   1.218  1.00  0.00     0.158 C 
BRANCH  21  22
HETATM   22  N5  UNL     1      -2.200   1.079   0.721  1.00  0.00    -0.408 N 
HETATM   23  C12 UNL     1      -3.378   0.819   1.492  1.00  0.00     0.119 C 
HETATM   24  C13 UNL     1      -4.445  -0.001   0.896  1.00  0.00     0.055 C 
HETATM   25  C14 UNL     1      -4.680   0.366  -0.547  1.00  0.00     0.221 C 
HETATM   26  C15 UNL     1      -3.413   0.435  -1.325  1.00  0.00     0.055 C 
HETATM   27  C16 UNL     1      -2.371   1.263  -0.644  1.00  0.00     0.119 C 
BRANCH  25  28
HETATM   28  N6  UNL     1      -5.483   1.555  -0.621  1.00  0.00     0.083 N 
HETATM   29  H17 UNL     1      -6.104   1.575   0.230  1.00  0.00     0.313 HD
HETATM   30  H18 UNL     1      -6.134   1.522  -1.446  1.00  0.00     0.313 HD
ENDBRANCH  25  28
ENDBRANCH  21  22
ENDBRANCH   8  21
TORSDOF 6
