REMARK  3 active torsions:
REMARK  status: ('A' for Active; 'I' for Inactive)
REMARK    1  A    between atoms: O1_2  and  C2_3 
REMARK    2  A    between atoms: C5_6  and  N1_7 
REMARK    3  A    between atoms: N1_7  and  C6_8 
ROOT
HETATM    1  C6  UNL     1       0.868   0.169   1.250  1.00  0.00     0.134 C 
HETATM    2  C7  UNL     1      -0.349   1.064   1.547  1.00  0.00     0.019 C 
HETATM    3  C8  UNL     1      -1.397   1.859   1.880  1.00  0.00     0.111 C 
HETATM    4  N2  UNL     1      -2.596   2.484   1.324  1.00  0.00    -0.270 N 
HETATM    5  N3  UNL     1      -2.378   3.860   1.166  1.00  0.00    -0.165 NA
HETATM    6  C9  UNL     1      -3.379   4.470   0.551  1.00  0.00     0.254 A 
HETATM    7  N4  UNL     1      -4.550   3.795   0.117  1.00  0.00    -0.254 NA
HETATM    8  C10 UNL     1      -4.725   2.507   0.313  1.00  0.00     0.118 A 
HETATM    9  C11 UNL     1      -3.766   1.676   0.986  1.00  0.00     0.150 A 
HETATM   10  C12 UNL     1      -3.326   0.386   0.382  1.00  0.00     0.033 C 
HETATM   11  C13 UNL     1      -4.337  -0.458  -0.277  1.00  0.00     0.002 C 
HETATM   12  C14 UNL     1      -3.908  -1.837  -0.601  1.00  0.00     0.002 C 
HETATM   13  C15 UNL     1      -2.675  -2.193  -1.310  1.00  0.00     0.030 C 
HETATM   14  C16 UNL     1      -1.377  -2.183  -0.581  1.00  0.00     0.269 C 
HETATM   15  N5  UNL     1      -0.788  -0.998  -0.134  1.00  0.00     0.085 N 
HETATM   16  C17 UNL     1       0.263  -1.169   0.848  1.00  0.00     0.298 C 
HETATM   17  H23 UNL     1      -0.528  -0.310  -0.874  1.00  0.00     0.315 HD
ENDROOT
BRANCH   1  18
HETATM   18  N1  UNL     1       1.642   0.758   0.215  1.00  0.00    -0.380 N 
HETATM   19  H6  UNL     1       1.300   1.562  -0.343  1.00  0.00     0.160 HD
BRANCH  18  20
HETATM   20  C5  UNL     1       2.950   0.222  -0.072  1.00  0.00     0.030 A 
HETATM   21  C4  UNL     1       3.778   0.679  -1.109  1.00  0.00     0.032 A 
HETATM   22  C3  UNL     1       5.020   0.126  -1.293  1.00  0.00     0.040 A 
HETATM   23  C2  UNL     1       5.472  -0.877  -0.471  1.00  0.00     0.090 A 
HETATM   24  C19 UNL     1       4.710  -1.368   0.562  1.00  0.00     0.069 A 
HETATM   25  C18 UNL     1       3.455  -0.802   0.739  1.00  0.00     0.056 A 
HETATM   26 CL1  UNL     1       5.347  -2.643   1.561  1.00  0.00    -0.081 Cl
BRANCH  23  27
HETATM   27  O1  UNL     1       6.751  -1.394  -0.720  1.00  0.00    -0.354 OA
HETATM   28  C1  UNL     1       7.570  -0.942  -1.744  1.00  0.00     0.210 C 
ENDBRANCH  23  27
ENDBRANCH  18  20
ENDBRANCH   1  18
TORSDOF 3
