REMARK  1 active torsions:
REMARK  status: ('A' for Active; 'I' for Inactive)
REMARK    1  A    between atoms: C7_9  and  C8_10 
ROOT
HETATM    1  C1  UNL     1      -2.656   0.982  -1.385  1.00  0.00     0.119 C 
HETATM    2  N1  UNL     1      -2.872  -0.005  -0.580  1.00  0.00    -0.282 NA
HETATM    3  C2  UNL     1      -3.953   0.046   0.391  1.00  0.00     0.264 C 
HETATM    4  N2  UNL     1      -3.596   0.964   1.395  1.00  0.00    -0.404 N 
HETATM    5  C3  UNL     1      -2.577   0.710   2.322  1.00  0.00     0.119 C 
HETATM    6  C4  UNL     1      -1.210   0.658   1.809  1.00  0.00     0.053 C 
HETATM    7  C5  UNL     1      -0.753  -0.417   0.958  1.00  0.00    -0.074 C 
HETATM    8  C6  UNL     1       0.303   0.121   0.306  1.00  0.00     0.035 C 
HETATM    9  C7  UNL     1       1.565  -0.446  -0.230  1.00  0.00     0.063 C 
HETATM   10  N3  UNL     1       1.866  -1.676  -0.581  1.00  0.00    -0.274 NA
HETATM   11  C14 UNL     1       1.033  -2.897  -0.658  1.00  0.00     0.253 C 
HETATM   12  N4  UNL     1      -0.206  -2.634  -1.308  1.00  0.00    -0.228 NA
HETATM   13  C15 UNL     1      -1.357  -2.355  -0.546  1.00  0.00     0.145 A 
HETATM   14  C16 UNL     1      -1.236  -1.794   0.799  1.00  0.00     0.066 C 
HETATM   15  S1  UNL     1      -0.845  -1.129  -1.767  1.00  0.00    -0.102 SA
HETATM   16  C17 UNL     1      -1.530   0.310  -2.016  1.00  0.00     0.070 C 
HETATM   17  H4  UNL     1      -4.200   1.789   1.538  1.00  0.00     0.154 HD
ENDROOT
BRANCH   9  18
HETATM   18  C8  UNL     1       2.669   0.479  -0.411  1.00  0.00    -0.008 A 
HETATM   19  C9  UNL     1       3.808  -0.105  -0.925  1.00  0.00     0.014 A 
HETATM   20  C10 UNL     1       4.958   0.657  -1.150  1.00  0.00     0.001 A 
HETATM   21  C11 UNL     1       4.997   2.005  -0.870  1.00  0.00     0.000 A 
HETATM   22  C12 UNL     1       3.854   2.574  -0.358  1.00  0.00     0.001 A 
HETATM   23  C13 UNL     1       2.745   1.801  -0.150  1.00  0.00     0.014 A 
ENDBRANCH   9  18
TORSDOF 1
