REMARK  9 active torsions:
REMARK  status: ('A' for Active; 'I' for Inactive)
REMARK    1  A    between atoms: C2_2  and  C3_3 
REMARK    2  A    between atoms: C3_3  and  N1_4 
REMARK    3  A    between atoms: C3_3  and  C4_5 
REMARK    4  A    between atoms: C4_5  and  C5_6 
REMARK    5  A    between atoms: N2_7  and  C6_8 
REMARK    6  A    between atoms: C6_8  and  C7_9 
REMARK    7  A    between atoms: C11_16  and  N6_17 
REMARK    8  A    between atoms: N6_17  and  C12_18 
REMARK    9  A    between atoms: C15_21  and  O1_22 
ROOT
HETATM    1  C7  UNL     1      -0.782  -1.755  -0.682  1.00  0.00    -0.004 A 
HETATM    2  C8  UNL     1      -1.701  -2.797  -0.566  1.00  0.00     0.030 A 
HETATM    3  C9  UNL     1      -1.042  -3.844   0.039  1.00  0.00     0.119 A 
HETATM    4  N3  UNL     1       0.212  -3.421   0.265  1.00  0.00    -0.240 N 
HETATM    5  N4  UNL     1       1.139  -4.173   0.836  1.00  0.00    -0.161 NA
HETATM    6  C10 UNL     1       2.374  -3.664   1.020  1.00  0.00     0.258 A 
HETATM    7  N5  UNL     1       2.567  -2.409   0.598  1.00  0.00    -0.220 NA
HETATM    8  C11 UNL     1       1.654  -1.626   0.019  1.00  0.00     0.159 A 
HETATM    9  C19 UNL     1       0.403  -2.162  -0.159  1.00  0.00     0.112 A 
ENDROOT
BRANCH   8  10
HETATM   10  N6  UNL     1       1.922  -0.310  -0.409  1.00  0.00    -0.339 N 
HETATM   11  H17 UNL     1       1.289   0.390  -0.816  1.00  0.00     0.167 HD
BRANCH  10  12
HETATM   12  C12 UNL     1       3.189   0.327  -0.358  1.00  0.00     0.035 A 
HETATM   13  C13 UNL     1       4.352  -0.400  -0.316  1.00  0.00     0.032 A 
HETATM   14  C14 UNL     1       5.608   0.154  -0.248  1.00  0.00     0.041 A 
HETATM   15  C15 UNL     1       5.772   1.521  -0.218  1.00  0.00     0.090 A 
HETATM   16  C17 UNL     1       4.645   2.311  -0.258  1.00  0.00     0.069 A 
HETATM   17 CL1  UNL     1       4.773   4.045  -0.223  1.00  0.00    -0.081 Cl
HETATM   18  C18 UNL     1       3.421   1.688  -0.326  1.00  0.00     0.056 A 
BRANCH  15  19
HETATM   19  O1  UNL     1       6.987   2.165  -0.150  1.00  0.00    -0.354 OA
HETATM   20  C16 UNL     1       8.206   1.439  -0.105  1.00  0.00     0.210 C 
ENDBRANCH  15  19
ENDBRANCH  10  12
ENDBRANCH   8  10
BRANCH   1  21
HETATM   21  C6  UNL     1      -1.102  -0.441  -1.279  1.00  0.00     0.189 C 
BRANCH  21  22
HETATM   22  N2  UNL     1      -2.441  -0.463  -1.825  1.00  0.00    -0.301 NA
HETATM   23  C5  UNL     1      -3.449   0.105  -1.292  1.00  0.00     0.086 C 
BRANCH  23  24
HETATM   24  C4  UNL     1      -3.463   0.882  -0.041  1.00  0.00     0.081 C 
BRANCH  24  25
HETATM   25  C3  UNL     1      -4.790   1.521   0.247  1.00  0.00     0.222 C 
BRANCH  25  26
HETATM   26  C2  UNL     1      -5.914   0.546   0.384  1.00  0.00     0.031 C 
HETATM   27  C1  UNL     1      -7.146   1.296   0.847  1.00  0.00     0.007 C 
ENDBRANCH  25  26
BRANCH  25  28
HETATM   28  N1  UNL     1      -5.078   2.571  -0.712  1.00  0.00     0.083 N 
HETATM   29  H7  UNL     1      -4.570   3.441  -0.407  1.00  0.00     0.313 HD
HETATM   30  H8  UNL     1      -4.852   2.307  -1.679  1.00  0.00     0.313 HD
ENDBRANCH  25  28
ENDBRANCH  24  25
ENDBRANCH  23  24
ENDBRANCH  21  22
ENDBRANCH   1  21
TORSDOF 9
