REMARK  5 active torsions:
REMARK  status: ('A' for Active; 'I' for Inactive)
REMARK    1  A    between atoms: C7_7  and  N1_8 
REMARK    2  A    between atoms: N1_8  and  C8_9 
REMARK    3  A    between atoms: C11_16  and  C12_17 
REMARK    4  A    between atoms: C12_17  and  N5_18 
REMARK    5  A    between atoms: C15_21  and  N6_22 
ROOT
HETATM    1  C8  UNL     1      -1.650  -0.993  -1.015  1.00  0.00     0.159 A 
HETATM    2  N2  UNL     1      -2.545  -1.395  -1.885  1.00  0.00    -0.220 NA
HETATM    3  C9  UNL     1      -2.511  -2.685  -2.471  1.00  0.00     0.258 A 
HETATM    4  N3  UNL     1      -1.559  -3.470  -2.118  1.00  0.00    -0.160 NA
HETATM    5  N4  UNL     1      -0.584  -3.095  -1.196  1.00  0.00    -0.234 N 
HETATM    6  C10 UNL     1       0.462  -4.019  -0.835  1.00  0.00     0.155 A 
HETATM    7  S1  UNL     1       1.466  -3.098   0.372  1.00  0.00    -0.155 SA
HETATM    8  C11 UNL     1       0.410  -1.573   0.292  1.00  0.00     0.021 A 
HETATM    9  C18 UNL     1      -0.542  -1.842  -0.570  1.00  0.00     0.118 A 
HETATM   10  H11 UNL     1       2.079  -3.714   1.414  1.00  0.00     0.102 HD
ENDROOT
BRANCH   8  11
HETATM   11  C12 UNL     1       0.755  -0.450   1.156  1.00  0.00     0.164 C 
BRANCH  11  12
HETATM   12  N5  UNL     1       2.011   0.089   0.813  1.00  0.00    -0.408 N 
HETATM   13  C13 UNL     1       3.199  -0.589   1.079  1.00  0.00     0.119 C 
HETATM   14  C14 UNL     1       4.045  -0.705  -0.152  1.00  0.00     0.055 C 
HETATM   15  C15 UNL     1       3.871   0.525  -1.018  1.00  0.00     0.221 C 
HETATM   16  C16 UNL     1       3.380   1.734  -0.260  1.00  0.00     0.055 C 
HETATM   17  C17 UNL     1       2.162   1.467   0.596  1.00  0.00     0.119 C 
BRANCH  15  18
HETATM   18  N6  UNL     1       5.155   0.878  -1.610  1.00  0.00     0.083 N 
HETATM   19  H19 UNL     1       5.513   0.026  -2.100  1.00  0.00     0.313 HD
HETATM   20  H20 UNL     1       5.856   1.182  -0.901  1.00  0.00     0.313 HD
ENDBRANCH  15  18
ENDBRANCH  11  12
ENDBRANCH   8  11
BRANCH   1  21
HETATM   21  N1  UNL     1      -1.856   0.334  -0.545  1.00  0.00    -0.339 N 
HETATM   22  H8  UNL     1      -0.965   0.895  -0.678  1.00  0.00     0.167 HD
BRANCH  21  23
HETATM   23  C7  UNL     1      -3.114   0.791   0.017  1.00  0.00     0.039 A 
HETATM   24  C2  UNL     1      -3.369   2.064   0.442  1.00  0.00    -0.035 A 
HETATM   25  C1  UNL     1      -2.303   3.099   0.293  1.00  0.00     0.050 C 
HETATM   26  C3  UNL     1      -4.564   2.437   0.995  1.00  0.00     0.009 A 
HETATM   27  C4  UNL     1      -5.582   1.526   1.151  1.00  0.00     0.001 A 
HETATM   28  C5  UNL     1      -5.355   0.245   0.733  1.00  0.00     0.002 A 
HETATM   29  C6  UNL     1      -4.161  -0.082   0.192  1.00  0.00     0.030 A 
ENDBRANCH  21  23
ENDBRANCH   1  21
TORSDOF 5
