REMARK  8 active torsions:
REMARK  status: ('A' for Active; 'I' for Inactive)
REMARK    1  A    between atoms: C2_2  and  C3_3 
REMARK    2  A    between atoms: C3_3  and  C4_4 
REMARK    3  A    between atoms: C4_4  and  C5_5 
REMARK    4  A    between atoms: C5_5  and  N1_6 
REMARK    5  A    between atoms: N1_6  and  C6_7 
REMARK    6  A    between atoms: C6_7  and  C7_8 
REMARK    7  A    between atoms: C11_13  and  N3_14 
REMARK    8  A    between atoms: N3_14  and  C12_15 
ROOT
HETATM    1  C7  UNL     1      -0.168  -1.350  -0.534  1.00  0.00     0.004 A 
HETATM    2  C8  UNL     1       0.710  -2.415  -0.839  1.00  0.00     0.030 A 
HETATM    3  C9  UNL     1       0.234  -3.590  -0.229  1.00  0.00     0.119 A 
HETATM    4  N2  UNL     1      -0.903  -3.318   0.446  1.00  0.00    -0.247 N 
HETATM    5  C10 UNL     1      -1.082  -2.004   0.229  1.00  0.00     0.111 A 
HETATM    6  C11 UNL     1      -2.245  -1.245   0.717  1.00  0.00     0.159 C 
HETATM    7  N4  UNL     1      -3.407  -1.681   1.101  1.00  0.00    -0.220 NA
HETATM    8  C19 UNL     1      -3.825  -3.061   1.134  1.00  0.00     0.259 C 
HETATM    9  N5  UNL     1      -3.119  -4.139   1.161  1.00  0.00    -0.152 NA
HETATM   10  N6  UNL     1      -1.694  -4.223   1.165  1.00  0.00    -0.212 N 
HETATM   11  H26 UNL     1      -1.080  -4.946   1.672  1.00  0.00     0.211 HD
ENDROOT
BRANCH   6  12
HETATM   12  N3  UNL     1      -2.140   0.152   0.801  1.00  0.00    -0.339 N 
HETATM   13  H17 UNL     1      -1.202   0.468   1.111  1.00  0.00     0.167 HD
BRANCH  12  14
HETATM   14  C12 UNL     1      -3.200   1.086   0.513  1.00  0.00     0.039 A 
HETATM   15  C13 UNL     1      -3.332   2.100   1.422  1.00  0.00     0.030 A 
HETATM   16  C14 UNL     1      -4.220   3.142   1.367  1.00  0.00     0.002 A 
HETATM   17  C15 UNL     1      -5.071   3.148   0.250  1.00  0.00     0.001 A 
HETATM   18  C16 UNL     1      -4.957   2.124  -0.693  1.00  0.00     0.009 A 
HETATM   19  C17 UNL     1      -4.036   1.097  -0.575  1.00  0.00    -0.035 A 
HETATM   20  C18 UNL     1      -3.907  -0.015  -1.552  1.00  0.00     0.050 C 
ENDBRANCH  12  14
ENDBRANCH   6  12
BRANCH   1  21
HETATM   21  C6  UNL     1       0.122  -0.027  -0.997  1.00  0.00     0.310 C 
BRANCH  21  22
HETATM   22  N1  UNL     1       1.053   0.821  -0.327  1.00  0.00     0.087 NA
HETATM   23  H12 UNL     1       0.936   0.985   0.686  1.00  0.00     0.316 HD
BRANCH  22  24
HETATM   24  C5  UNL     1       2.424   0.299  -0.439  1.00  0.00     0.270 C 
BRANCH  24  25
HETATM   25  C4  UNL     1       3.424   1.331   0.016  1.00  0.00     0.030 C 
BRANCH  25  26
HETATM   26  C3  UNL     1       4.804   0.704  -0.135  1.00  0.00     0.001 C 
BRANCH  26  27
HETATM   27  C2  UNL     1       5.890   1.697   0.229  1.00  0.00    -0.005 C 
HETATM   28  C1  UNL     1       7.224   1.000   0.063  1.00  0.00     0.005 C 
ENDBRANCH  26  27
ENDBRANCH  25  26
ENDBRANCH  24  25
ENDBRANCH  22  24
ENDBRANCH  21  22
ENDBRANCH   1  21
TORSDOF 8
