REMARK  5 active torsions:
REMARK  status: ('A' for Active; 'I' for Inactive)
REMARK    1  A    between atoms: C4_4  and  C5_5 
REMARK    2  A    between atoms: C6_6  and  C7_7 
REMARK    3  A    between atoms: C10_12  and  C11_13 
REMARK    4  A    between atoms: C11_13  and  O1_14 
REMARK    5  A    between atoms: O1_14  and  C12_15 
ROOT
HETATM    1  C1  UNL     1       6.531  -1.975   2.721  1.00  0.00     0.017 C 
HETATM    2  C2  UNL     1       6.286  -1.103   1.896  1.00  0.00    -0.089 C 
HETATM    3  C3  UNL     1       5.976  -0.078   0.937  1.00  0.00     0.063 C 
HETATM    4  C4  UNL     1       4.728   0.121   0.508  1.00  0.00     0.009 C 
ENDROOT
BRANCH   4   5
HETATM    5  C5  UNL     1       3.629  -0.699   0.997  1.00  0.00     0.003 C 
HETATM    6  C6  UNL     1       2.359  -0.599   0.649  1.00  0.00     0.027 C 
BRANCH   6   7
HETATM    7  C7  UNL     1       1.813   0.362  -0.302  1.00  0.00     0.038 C 
HETATM    8  N1  UNL     1       2.439   1.272  -0.968  1.00  0.00    -0.264 NA
HETATM    9  C8  UNL     1       1.717   2.142  -1.875  1.00  0.00     0.417 C 
HETATM   10  N2  UNL     1       0.660   2.765  -1.083  1.00  0.00     0.103 N 
HETATM   11  C9  UNL     1      -0.126   1.800  -0.383  1.00  0.00     0.284 C 
HETATM   12  H8  UNL     1       0.135   3.469  -1.612  1.00  0.00     0.318 HD
HETATM   13  C10 UNL     1       0.380   0.409  -0.637  1.00  0.00     0.089 C 
BRANCH  13  14
HETATM   14  C11 UNL     1      -0.438  -0.645   0.053  1.00  0.00     0.184 C 
BRANCH  14  15
HETATM   15  O1  UNL     1      -1.767  -0.442  -0.388  1.00  0.00    -0.355 OA
BRANCH  15  16
HETATM   16  C12 UNL     1      -2.655  -1.345   0.165  1.00  0.00     0.309 C 
HETATM   17  O2  UNL     1      -3.308  -2.104  -0.807  1.00  0.00    -0.354 OA
HETATM   18  C13 UNL     1      -3.907  -1.287  -1.748  1.00  0.00     0.191 C 
HETATM   19  C14 UNL     1      -5.137  -0.634  -1.162  1.00  0.00     0.146 C 
HETATM   20  N3  UNL     1      -4.786  -0.167   0.166  1.00  0.00    -0.388 N 
HETATM   21  C15 UNL     1      -3.658  -0.576   0.929  1.00  0.00     0.051 C 
HETATM   22  H19 UNL     1      -5.463   0.543   0.564  1.00  0.00     0.159 HD
HETATM   23  C16 UNL     1      -3.529  -0.285   2.214  1.00  0.00     0.043 C 
ENDBRANCH  15  16
ENDBRANCH  14  15
ENDBRANCH  13  14
ENDBRANCH   6   7
ENDBRANCH   4   5
TORSDOF 5
