REMARK  3 active torsions:
REMARK  status: ('A' for Active; 'I' for Inactive)
REMARK    1  A    between atoms: C11_14  and  N4_15 
REMARK    2  A    between atoms: N4_15  and  C12_16 
REMARK    3  A    between atoms: C13_17  and  C14_18 
ROOT
HETATM    1  C1  UNL     1      -2.495  -3.501   0.214  1.00  0.00     0.046 C 
HETATM    2  C2  UNL     1      -1.916  -2.343   0.326  1.00  0.00     0.068 C 
HETATM    3  C3  UNL     1      -3.017  -1.408   0.362  1.00  0.00     0.143 C 
HETATM    4  N1  UNL     1      -4.112  -0.795   0.375  1.00  0.00    -0.280 NA
HETATM    5  C4  UNL     1      -4.192   0.684   0.477  1.00  0.00     0.267 C 
HETATM    6  N2  UNL     1      -3.043   1.208  -0.223  1.00  0.00    -0.395 N 
HETATM    7  C5  UNL     1      -2.831   0.803  -1.533  1.00  0.00     0.120 C 
HETATM    8  C6  UNL     1      -1.442   0.884  -2.033  1.00  0.00     0.047 C 
HETATM    9  C7  UNL     1      -0.419   0.890  -0.940  1.00  0.00     0.113 C 
HETATM   10  C8  UNL     1      -0.752   2.036  -0.003  1.00  0.00     0.047 C 
HETATM   11  C9  UNL     1      -2.172   2.053   0.457  1.00  0.00     0.120 C 
HETATM   12  N3  UNL     1      -0.281  -0.344  -0.359  1.00  0.00    -0.263 NA
HETATM   13  C10 UNL     1       0.467  -1.157   0.120  1.00  0.00     0.193 A 
HETATM   14  C11 UNL     1       1.884  -1.199   0.346  1.00  0.00     0.176 A 
HETATM   15  N5  UNL     1       2.328  -2.274   0.890  1.00  0.00    -0.219 NA
HETATM   16  C16 UNL     1       1.350  -3.263   1.188  1.00  0.00     0.258 A 
HETATM   17  N6  UNL     1       0.127  -3.106   0.940  1.00  0.00    -0.159 NA
HETATM   18  N7  UNL     1      -0.529  -2.098   0.395  1.00  0.00    -0.211 N 
ENDROOT
BRANCH  14  19
HETATM   19  N4  UNL     1       2.634  -0.067  -0.028  1.00  0.00    -0.348 N 
HETATM   20  H15 UNL     1       2.149   0.854   0.046  1.00  0.00     0.167 HD
BRANCH  19  21
HETATM   21  C12 UNL     1       3.976  -0.317  -0.457  1.00  0.00     0.089 C 
HETATM   22  C13 UNL     1       4.860   0.407   0.167  1.00  0.00     0.014 C 
BRANCH  22  23
HETATM   23  C14 UNL     1       4.473   1.367   1.195  1.00  0.00    -0.008 C 
HETATM   24  C15 UNL     1       5.347   2.123   1.852  1.00  0.00     0.206 C 
HETATM   25 BR1  UNL     1       7.107   1.708   1.202  1.00  0.00    -0.193 Br
ENDBRANCH  22  23
ENDBRANCH  19  21
ENDBRANCH  14  19
TORSDOF 3
