REMARK  6 active torsions:
REMARK  status: ('A' for Active; 'I' for Inactive)
REMARK    1  A    between atoms: O1_2  and  C2_3 
REMARK    2  A    between atoms: C6_7  and  N1_8 
REMARK    3  A    between atoms: N1_8  and  C7_9 
REMARK    4  A    between atoms: C10_15  and  C11_16 
REMARK    5  A    between atoms: C11_16  and  O2_17 
REMARK    6  A    between atoms: O2_17  and  C12_18 
ROOT
HETATM    1  C7  UNL     1       1.359  -1.707   0.777  1.00  0.00     0.158 A 
HETATM    2  N2  UNL     1       2.166  -2.592   1.310  1.00  0.00    -0.220 NA
HETATM    3  C8  UNL     1       2.159  -2.816   2.729  1.00  0.00     0.257 A 
HETATM    4  N3  UNL     1       1.399  -2.205   3.603  1.00  0.00    -0.165 NA
HETATM    5  N4  UNL     1       0.501  -1.232   3.094  1.00  0.00    -0.261 N 
HETATM    6  C9  UNL     1      -0.535  -0.241   3.302  1.00  0.00     0.190 A 
HETATM    7  C10 UNL     1      -0.459  -0.073   1.809  1.00  0.00    -0.004 A 
HETATM    8  C16 UNL     1       0.486  -0.990   1.692  1.00  0.00     0.105 A 
ENDROOT
BRANCH   1   9
HETATM    9  N1  UNL     1       1.386  -1.503  -0.644  1.00  0.00    -0.339 N 
HETATM   10  H7  UNL     1       0.438  -1.251  -1.054  1.00  0.00     0.167 HD
BRANCH   9  11
HETATM   11  C6  UNL     1       2.639  -1.655  -1.332  1.00  0.00     0.036 A 
HETATM   12  C5  UNL     1       3.191  -2.789  -1.890  1.00  0.00     0.029 A 
HETATM   13  C4  UNL     1       4.421  -2.681  -2.504  1.00  0.00     0.005 A 
HETATM   14  C3  UNL     1       5.106  -1.489  -2.575  1.00  0.00     0.037 A 
HETATM   15  C2  UNL     1       4.566  -0.349  -2.021  1.00  0.00     0.070 A 
HETATM   16  C17 UNL     1       3.345  -0.451  -1.411  1.00  0.00     0.066 A 
BRANCH  15  17
HETATM   17  O1  UNL     1       5.278   0.843  -2.106  1.00  0.00    -0.356 OA
HETATM   18  C1  UNL     1       4.780   2.054  -1.557  1.00  0.00     0.210 C 
ENDBRANCH  15  17
ENDBRANCH   9  11
ENDBRANCH   1   9
BRANCH   7  19
HETATM   19  C11 UNL     1      -1.215   0.823   0.902  1.00  0.00     0.209 C 
BRANCH  19  20
HETATM   20  O2  UNL     1      -2.583   0.584   0.963  1.00  0.00    -0.355 OA
BRANCH  20  21
HETATM   21  C12 UNL     1      -3.314   1.399   0.135  1.00  0.00     0.287 C 
HETATM   22  C13 UNL     1      -4.093   0.602  -0.911  1.00  0.00     0.330 C 
HETATM   23  N5  UNL     1      -5.431   0.368  -0.384  1.00  0.00     0.090 N 
HETATM   24  C14 UNL     1      -6.136   1.629  -0.401  1.00  0.00     0.295 C 
HETATM   25  H16 UNL     1      -5.384   0.060   0.622  1.00  0.00     0.316 HD
HETATM   26  C15 UNL     1      -5.179   2.712   0.033  1.00  0.00     0.201 C 
HETATM   27  O3  UNL     1      -4.187   2.214   0.871  1.00  0.00    -0.358 OA
ENDBRANCH  20  21
ENDBRANCH  19  20
ENDBRANCH   7  19
TORSDOF 6
