REMARK  3 active torsions:
REMARK  status: ('A' for Active; 'I' for Inactive)
REMARK    1  A    between atoms: C12_17  and  C13_18 
REMARK    2  A    between atoms: C13_18  and  N5_19 
REMARK    3  A    between atoms: N5_19  and  C14_20 
ROOT
HETATM    1  C1  UNL     1       3.957  -2.817  -0.291  1.00  0.00     0.014 C 
HETATM    2  C2  UNL     1       2.742  -2.380  -0.592  1.00  0.00    -0.006 C 
HETATM    3  C3  UNL     1       2.704  -0.927  -0.931  1.00  0.00     0.041 C 
HETATM    4  C4  UNL     1       4.015  -0.259  -0.820  1.00  0.00    -0.009 C 
HETATM    5  C5  UNL     1       4.126   0.659   0.128  1.00  0.00     0.086 C 
HETATM    6  N1  UNL     1       3.089   1.010   1.002  1.00  0.00    -0.349 N 
HETATM    7  C6  UNL     1       2.324   2.112   1.458  1.00  0.00     0.160 A 
HETATM    8  N2  UNL     1       3.246   2.965   1.920  1.00  0.00    -0.220 NA
HETATM    9  C7  UNL     1       2.931   4.171   2.459  1.00  0.00     0.258 A 
HETATM   10  N3  UNL     1       1.623   4.469   2.507  1.00  0.00    -0.161 NA
HETATM   11  N4  UNL     1       0.756   3.591   2.037  1.00  0.00    -0.237 N 
HETATM   12  C8  UNL     1      -0.568   3.817   2.053  1.00  0.00     0.122 A 
HETATM   13  C9  UNL     1      -1.192   2.725   1.503  1.00  0.00     0.058 A 
HETATM   14  C10 UNL     1      -0.184   1.819   1.150  1.00  0.00     0.103 A 
HETATM   15  C11 UNL     1       0.990   2.394   1.497  1.00  0.00     0.137 A 
HETATM   16  O1  UNL     1      -0.372   0.582   0.562  1.00  0.00    -0.342 OA
HETATM   17  C12 UNL     1      -1.611  -0.048   0.580  1.00  0.00     0.159 C 
HETATM   18  C16 UNL     1      -1.641  -1.471   1.026  1.00  0.00     0.060 C 
HETATM   19  C17 UNL     1      -0.803  -2.375   0.142  1.00  0.00     0.170 C 
HETATM   20  O2  UNL     1       0.533  -2.008   0.181  1.00  0.00    -0.390 OA
HETATM   21  C18 UNL     1       1.291  -2.808  -0.687  1.00  0.00     0.178 C 
HETATM   22  H7  UNL     1       2.603   0.330   1.618  1.00  0.00     0.167 HD
ENDROOT
BRANCH  17  23
HETATM   23  C13 UNL     1      -2.201   0.124  -0.814  1.00  0.00     0.301 C 
BRANCH  23  24
HETATM   24  N5  UNL     1      -3.494  -0.484  -0.948  1.00  0.00     0.085 N 
HETATM   25  H14 UNL     1      -3.448  -1.543  -0.867  1.00  0.00     0.315 HD
BRANCH  24  26
HETATM   26  C14 UNL     1      -3.943  -0.245  -2.328  1.00  0.00     0.265 C 
HETATM   27  C15 UNL     1      -5.295  -0.841  -2.589  1.00  0.00     0.037 C 
ENDBRANCH  24  26
ENDBRANCH  23  24
ENDBRANCH  17  23
TORSDOF 3
