REMARK  5 active torsions:
REMARK  status: ('A' for Active; 'I' for Inactive)
REMARK    1  A    between atoms: C5_5  and  N1_6 
REMARK    2  A    between atoms: N1_6  and  C6_7 
REMARK    3  A    between atoms: C10_14  and  C11_15 
REMARK    4  A    between atoms: C11_15  and  N5_16 
REMARK    5  A    between atoms: C14_19  and  N6_20 
ROOT
HETATM    1  C6  UNL     1       1.737   0.054   0.909  1.00  0.00     0.159 A 
HETATM    2  N2  UNL     1       2.814  -0.133   1.730  1.00  0.00    -0.220 NA
HETATM    3  C7  UNL     1       2.998   0.765   2.742  1.00  0.00     0.258 A 
HETATM    4  N3  UNL     1       2.188   1.790   2.953  1.00  0.00    -0.161 NA
HETATM    5  N4  UNL     1       1.156   1.988   2.185  1.00  0.00    -0.240 N 
HETATM    6  C8  UNL     1       0.159   2.921   2.124  1.00  0.00     0.119 A 
HETATM    7  C9  UNL     1      -0.688   2.644   1.075  1.00  0.00     0.030 A 
HETATM    8  C10 UNL     1      -0.185   1.505   0.480  1.00  0.00     0.004 A 
HETATM    9  C17 UNL     1       0.923   1.133   1.168  1.00  0.00     0.112 A 
ENDROOT
BRANCH   8  10
HETATM   10  C11 UNL     1      -0.819   0.868  -0.676  1.00  0.00     0.313 C 
BRANCH  10  11
HETATM   11  N5  UNL     1      -1.589  -0.282  -0.292  1.00  0.00     0.092 N 
HETATM   12  C12 UNL     1      -2.140  -1.001  -1.386  1.00  0.00     0.275 C 
HETATM   13  C13 UNL     1      -3.594  -1.363  -1.192  1.00  0.00     0.065 C 
HETATM   14  C14 UNL     1      -4.453  -0.227  -0.735  1.00  0.00     0.221 C 
HETATM   15  C15 UNL     1      -3.727   0.666   0.240  1.00  0.00     0.065 C 
HETATM   16  C16 UNL     1      -2.522  -0.077   0.757  1.00  0.00     0.275 C 
BRANCH  14  17
HETATM   17  N6  UNL     1      -5.574  -0.829  -0.010  1.00  0.00     0.083 N 
HETATM   18  H17 UNL     1      -6.292  -1.192  -0.683  1.00  0.00     0.313 HD
HETATM   19  H18 UNL     1      -5.934  -0.199   0.716  1.00  0.00     0.313 HD
ENDBRANCH  14  17
ENDBRANCH  10  11
ENDBRANCH   8  10
BRANCH   1  20
HETATM   20  N1  UNL     1       1.671  -0.927  -0.107  1.00  0.00    -0.338 N 
HETATM   21  H6  UNL     1       0.778  -1.398  -0.358  1.00  0.00     0.167 HD
BRANCH  20  22
HETATM   22  C5  UNL     1       2.871  -1.347  -0.863  1.00  0.00     0.044 A 
HETATM   23  C3  UNL     1       4.301  -1.407  -1.362  1.00  0.00    -0.011 A 
HETATM   24  C2  UNL     1       5.228  -0.576  -0.891  1.00  0.00    -0.017 C 
HETATM   25  C4  UNL     1       3.178  -2.261  -1.800  1.00  0.00     0.043 A 
HETATM   26  C1  UNL     1       6.520  -0.911  -1.540  1.00  0.00     0.037 C 
ENDBRANCH  20  22
ENDBRANCH   1  20
TORSDOF 5
