REMARK  8 active torsions:
REMARK  status: ('A' for Active; 'I' for Inactive)
REMARK    1  A    between atoms: N1_1  and  C1_2 
REMARK    2  A    between atoms: C1_2  and  C2_3 
REMARK    3  A    between atoms: C2_3  and  C3_4 
REMARK    4  A    between atoms: C3_4  and  C4_5 
REMARK    5  A    between atoms: C4_5  and  N2_6 
REMARK    6  A    between atoms: N2_6  and  C5_7 
REMARK    7  A    between atoms: C9_14  and  C10_15 
REMARK    8  A    between atoms: C10_15  and  N6_16 
ROOT
HETATM    1  C5  UNL     1       1.056  -1.713  -0.232  1.00  0.00     0.159 A 
HETATM    2  N3  UNL     1       1.839  -2.659  -0.786  1.00  0.00    -0.220 NA
HETATM    3  C6  UNL     1       1.809  -3.936  -0.310  1.00  0.00     0.258 A 
HETATM    4  N4  UNL     1       0.969  -4.151   0.712  1.00  0.00    -0.161 NA
HETATM    5  N5  UNL     1       0.199  -3.230   1.260  1.00  0.00    -0.240 N 
HETATM    6  C7  UNL     1      -0.690  -3.265   2.271  1.00  0.00     0.119 A 
HETATM    7  C8  UNL     1      -1.231  -2.001   2.442  1.00  0.00     0.030 A 
HETATM    8  C9  UNL     1      -0.664  -1.134   1.503  1.00  0.00     0.004 A 
HETATM    9  C16 UNL     1       0.200  -1.959   0.818  1.00  0.00     0.112 A 
ENDROOT
BRANCH   1  10
HETATM   10  N2  UNL     1       1.197  -0.443  -0.841  1.00  0.00    -0.342 N 
HETATM   11  H7  UNL     1       0.931   0.555  -0.897  1.00  0.00     0.167 HD
BRANCH  10  12
HETATM   12  C4  UNL     1       2.088  -0.234  -1.920  1.00  0.00     0.141 C 
BRANCH  12  13
HETATM   13  C3  UNL     1       3.360   0.003  -1.639  1.00  0.00    -0.131 C 
BRANCH  13  14
HETATM   14  C2  UNL     1       4.530   0.343  -1.130  1.00  0.00     0.102 C 
BRANCH  14  15
HETATM   15  C1  UNL     1       4.718   1.781  -0.847  1.00  0.00     0.284 C 
BRANCH  15  16
HETATM   16  N1  UNL     1       6.157   2.016  -0.718  1.00  0.00     0.079 N 
HETATM   17  H1  UNL     1       6.345   3.011  -0.548  1.00  0.00     0.312 HD
HETATM   18  H2  UNL     1       6.639   1.717  -1.571  1.00  0.00     0.312 HD
ENDBRANCH  15  16
ENDBRANCH  14  15
ENDBRANCH  13  14
ENDBRANCH  12  13
ENDBRANCH  10  12
ENDBRANCH   1  10
BRANCH   8  19
HETATM   19  C10 UNL     1      -0.909   0.297   1.297  1.00  0.00     0.313 C 
BRANCH  19  20
HETATM   20  N6  UNL     1      -1.713   0.604   0.125  1.00  0.00     0.092 N 
HETATM   21  C11 UNL     1      -1.893   2.014   0.020  1.00  0.00     0.272 C 
HETATM   22  C12 UNL     1      -3.310   2.478   0.201  1.00  0.00     0.030 C 
HETATM   23  C13 UNL     1      -4.282   1.746  -0.688  1.00  0.00     0.003 C 
HETATM   24  C14 UNL     1      -4.022   0.277  -0.697  1.00  0.00     0.030 C 
HETATM   25  C15 UNL     1      -2.907  -0.181   0.183  1.00  0.00     0.272 C 
ENDBRANCH  19  20
ENDBRANCH   8  19
TORSDOF 8
