REMARK  0 active torsions:
REMARK  status: ('A' for Active; 'I' for Inactive)
ROOT
HETATM    1  C1  UNL     1      -3.406  -2.144  -0.226  1.00  0.00     0.049 C 
HETATM    2  C2  UNL     1      -3.187  -0.678  -0.300  1.00  0.00    -0.049 A 
HETATM    3  C3  UNL     1      -4.225   0.074  -0.799  1.00  0.00     0.007 A 
HETATM    4  C4  UNL     1      -4.157   1.445  -0.924  1.00  0.00     0.003 A 
HETATM    5  C5  UNL     1      -2.936   1.985  -0.495  1.00  0.00     0.030 A 
HETATM    6  C6  UNL     1      -1.885   1.245   0.010  1.00  0.00     0.044 A 
HETATM    7  C7  UNL     1      -2.003  -0.117   0.113  1.00  0.00     0.005 A 
HETATM    8  C8  UNL     1      -1.010  -1.053   0.613  1.00  0.00    -0.020 A 
HETATM    9  C9  UNL     1      -0.319  -1.759   1.585  1.00  0.00     0.013 A 
HETATM   10  C10 UNL     1      -0.039  -1.883   0.128  1.00  0.00     0.137 A 
HETATM   11  N1  UNL     1       1.260  -1.551  -0.209  1.00  0.00    -0.393 N 
HETATM   12  C11 UNL     1       1.695  -1.543  -1.566  1.00  0.00     0.120 C 
HETATM   13  C12 UNL     1       2.130  -0.137  -2.082  1.00  0.00     0.041 C 
HETATM   14  C13 UNL     1       2.286   0.519  -0.786  1.00  0.00     0.082 C 
HETATM   15  C14 UNL     1       3.224  -0.423  -0.049  1.00  0.00     0.050 C 
HETATM   16  C15 UNL     1       2.223  -1.229   0.803  1.00  0.00     0.106 C 
HETATM   17  C16 UNL     1       1.754  -0.133   1.743  1.00  0.00     0.018 C 
HETATM   18  C17 UNL     1       2.265   1.099   2.013  1.00  0.00     0.131 C 
HETATM   19  N2  UNL     1       2.014   1.961   0.857  1.00  0.00    -0.206 N 
HETATM   20  N3  UNL     1       1.112   2.752   1.580  1.00  0.00    -0.152 NA
HETATM   21  C18 UNL     1      -0.126   2.831   1.339  1.00  0.00     0.231 C 
HETATM   22  N4  UNL     1      -0.859   2.169   0.328  1.00  0.00    -0.349 N 
HETATM   23  N5  UNL     1       2.605   1.818  -0.464  1.00  0.00    -0.213 NA
HETATM   24  H20 UNL     1      -0.421   2.584  -0.524  1.00  0.00     0.167 HD
HETATM   25  H21 UNL     1       3.628   1.984  -0.341  1.00  0.00     0.149 HD
ENDROOT
TORSDOF 0
