REMARK  3 active torsions:
REMARK  status: ('A' for Active; 'I' for Inactive)
REMARK    1  A    between atoms: C5_7  and  C6_8 
REMARK    2  A    between atoms: C10_15  and  N6_16 
REMARK    3  A    between atoms: N6_16  and  C11_17 
ROOT
HETATM    1  C6  UNL     1      -2.132  -0.303  -1.355  1.00  0.00     0.039 A 
HETATM    2  C7  UNL     1      -3.055  -0.367  -2.406  1.00  0.00     0.033 A 
HETATM    3  C8  UNL     1      -2.423  -0.244  -3.625  1.00  0.00     0.119 A 
HETATM    4  N3  UNL     1      -1.118  -0.104  -3.335  1.00  0.00    -0.240 N 
HETATM    5  N4  UNL     1      -0.017   0.052  -4.036  1.00  0.00    -0.161 NA
HETATM    6  C9  UNL     1       1.186   0.171  -3.513  1.00  0.00     0.258 A 
HETATM    7  N5  UNL     1       1.377   0.141  -2.169  1.00  0.00    -0.220 NA
HETATM    8  C10 UNL     1       0.288  -0.016  -1.399  1.00  0.00     0.159 A 
HETATM    9  C19 UNL     1      -0.934  -0.136  -2.008  1.00  0.00     0.114 A 
ENDROOT
BRANCH   8  10
HETATM   10  N6  UNL     1       0.501  -0.020  -0.000  1.00  0.00    -0.339 N 
HETATM   11  H15 UNL     1       0.216  -0.050   0.984  1.00  0.00     0.167 HD
BRANCH  10  12
HETATM   12  C11 UNL     1       1.882   0.062   0.426  1.00  0.00     0.034 A 
HETATM   13  C12 UNL     1       2.565   0.854   1.367  1.00  0.00     0.032 A 
HETATM   14  C13 UNL     1       3.904   0.744   1.622  1.00  0.00     0.034 A 
HETATM   15  C14 UNL     1       4.650  -0.181   0.938  1.00  0.00     0.064 A 
HETATM   16  C15 UNL     1       4.037  -0.985   0.005  1.00  0.00     0.013 A 
HETATM   17  N8  UNL     1       5.971  -0.414   1.070  1.00  0.00    -0.274 N 
HETATM   18  C16 UNL     1       5.099  -1.759  -0.451  1.00  0.00     0.152 A 
HETATM   19  C18 UNL     1       2.691  -0.871  -0.248  1.00  0.00     0.044 A 
HETATM   20  N7  UNL     1       6.240  -1.394   0.204  1.00  0.00    -0.184 NA
HETATM   21  C17 UNL     1       6.901   0.256   1.961  1.00  0.00     0.180 C 
ENDBRANCH  10  12
ENDBRANCH   8  10
BRANCH   1  22
HETATM   22  C5  UNL     1      -2.614  -0.452   0.041  1.00  0.00     0.489 C 
HETATM   23  N1  UNL     1      -2.891   0.746   0.732  1.00  0.00     0.122 N 
HETATM   24  C1  UNL     1      -2.266   0.829   2.060  1.00  0.00     0.313 C 
HETATM   25  C2  UNL     1      -4.283   1.064   0.940  1.00  0.00     0.277 C 
HETATM   26  C3  UNL     1      -5.009  -0.175   1.499  1.00  0.00     0.060 C 
HETATM   27  C4  UNL     1      -4.938  -1.144   0.333  1.00  0.00     0.274 C 
HETATM   28  N2  UNL     1      -3.604  -1.498   0.086  1.00  0.00     0.122 N 
HETATM   29  H10 UNL     1      -3.478  -2.099  -0.756  1.00  0.00     0.319 HD
ENDBRANCH   1  22
TORSDOF 3
