REMARK  6 active torsions:
REMARK  status: ('A' for Active; 'I' for Inactive)
REMARK    1  A    between atoms: C7_7  and  N1_8 
REMARK    2  A    between atoms: N1_8  and  C8_9 
REMARK    3  A    between atoms: C12_16  and  C13_17 
REMARK    4  A    between atoms: C13_17  and  O1_18 
REMARK    5  A    between atoms: O1_18  and  C14_19 
REMARK    6  A    between atoms: C14_19  and  C15_20 
ROOT
HETATM    1  C1  UNL     1       7.976   0.423   0.510  1.00  0.00     0.018 C 
HETATM    2  C2  UNL     1       6.896   0.169   0.982  1.00  0.00    -0.078 C 
HETATM    3  C3  UNL     1       5.606  -0.136   1.542  1.00  0.00     0.019 A 
HETATM    4  C4  UNL     1       5.620  -0.719   2.783  1.00  0.00     0.021 A 
HETATM    5  C5  UNL     1       4.432  -1.036   3.377  1.00  0.00     0.004 A 
HETATM    6  C6  UNL     1       3.255  -0.768   2.724  1.00  0.00     0.029 A 
HETATM    7  C7  UNL     1       3.162  -0.177   1.458  1.00  0.00     0.035 A 
HETATM    8  C20 UNL     1       4.410   0.114   0.927  1.00  0.00     0.050 A 
ENDROOT
BRANCH   7   9
HETATM    9  N1  UNL     1       1.966   0.140   0.744  1.00  0.00    -0.339 N 
HETATM   10  H5  UNL     1       1.284   0.289   1.503  1.00  0.00     0.167 HD
BRANCH   9  11
HETATM   11  C8  UNL     1       1.854   0.209  -0.668  1.00  0.00     0.159 A 
HETATM   12  N2  UNL     1       2.909  -0.129  -1.419  1.00  0.00    -0.220 NA
HETATM   13  C9  UNL     1       2.877  -0.080  -2.757  1.00  0.00     0.258 A 
HETATM   14  N3  UNL     1       1.753   0.321  -3.374  1.00  0.00    -0.161 NA
HETATM   15  N4  UNL     1       0.720   0.651  -2.589  1.00  0.00    -0.240 N 
HETATM   16  C10 UNL     1      -0.455   1.070  -3.091  1.00  0.00     0.119 A 
HETATM   17  C19 UNL     1       0.679   0.626  -1.244  1.00  0.00     0.112 A 
HETATM   18  C11 UNL     1      -1.249   1.312  -1.990  1.00  0.00     0.031 A 
HETATM   19  C12 UNL     1      -0.551   1.037  -0.804  1.00  0.00    -0.001 A 
BRANCH  19  20
HETATM   20  C13 UNL     1      -1.015   1.156   0.596  1.00  0.00     0.208 C 
BRANCH  20  21
HETATM   21  O1  UNL     1      -1.332   0.009   1.233  1.00  0.00    -0.384 OA
BRANCH  21  22
HETATM   22  C14 UNL     1      -2.297  -0.810   0.795  1.00  0.00     0.201 C 
BRANCH  22  23
HETATM   23  C15 UNL     1      -3.714  -0.303   0.739  1.00  0.00     0.173 C 
HETATM   24  C16 UNL     1      -4.576  -1.506   0.476  1.00  0.00     0.303 C 
HETATM   25  N5  UNL     1      -5.121  -1.441  -0.890  1.00  0.00     0.088 N 
HETATM   26  C17 UNL     1      -5.925  -0.225  -0.897  1.00  0.00     0.295 C 
HETATM   27  H16 UNL     1      -4.308  -1.335  -1.534  1.00  0.00     0.316 HD
HETATM   28  C18 UNL     1      -5.000   0.945  -0.773  1.00  0.00     0.198 C 
HETATM   29  O2  UNL     1      -3.863   0.737  -0.073  1.00  0.00    -0.380 OA
ENDBRANCH  22  23
ENDBRANCH  21  22
ENDBRANCH  20  21
ENDBRANCH  19  20
ENDBRANCH   9  11
ENDBRANCH   7   9
TORSDOF 6
