REMARK  2 active torsions:
REMARK  status: ('A' for Active; 'I' for Inactive)
REMARK    1  A    between atoms: C4_4  and  C5_5 
REMARK    2  A    between atoms: C5_5  and  O1_6 
ROOT
HETATM    1  C1  UNL     1      -3.323   2.480   0.193  1.00  0.00     0.068 C 
HETATM    2  C2  UNL     1      -2.385   1.314   0.124  1.00  0.00     0.007 A 
HETATM    3  C3  UNL     1      -2.594   0.071   0.567  1.00  0.00     0.034 A 
HETATM    4  C4  UNL     1      -1.637  -1.060   0.479  1.00  0.00    -0.021 A 
HETATM    5  C6  UNL     1      -0.431  -0.859  -0.092  1.00  0.00     0.013 A 
HETATM    6  C7  UNL     1       0.401  -2.075  -0.106  1.00  0.00     0.163 C 
HETATM    7  N1  UNL     1       1.508  -2.087   0.852  1.00  0.00    -0.384 N 
HETATM    8  C8  UNL     1       2.286  -0.941   0.472  1.00  0.00     0.045 A 
HETATM    9  C9  UNL     1       2.899  -1.425  -0.633  1.00  0.00     0.033 A 
HETATM   10  C10 UNL     1       3.201  -0.206  -1.184  1.00  0.00     0.031 A 
HETATM   11  C11 UNL     1       2.756   0.820  -0.391  1.00  0.00     0.030 A 
HETATM   12  C12 UNL     1       2.091   0.890   0.820  1.00  0.00     0.050 A 
HETATM   13  C13 UNL     1       1.723  -0.250   1.491  1.00  0.00     0.039 A 
HETATM   14 BR1  UNL     1       0.827  -0.485   3.138  1.00  0.00    -0.049 Br
HETATM   15  N2  UNL     1       2.743   2.214  -0.809  1.00  0.00    -0.372 N 
HETATM   16  C14 UNL     1       1.548   1.817  -1.654  1.00  0.00     0.273 C 
HETATM   17  N3  UNL     1       0.923   0.704  -1.087  1.00  0.00    -0.253 NA
HETATM   18  C15 UNL     1      -0.181   0.519  -0.589  1.00  0.00     0.133 A 
HETATM   19  N4  UNL     1      -1.117   1.567  -0.488  1.00  0.00    -0.345 N 
HETATM   20  H10 UNL     1       1.534  -2.864   1.582  1.00  0.00     0.160 HD
HETATM   21  H14 UNL     1       3.207   3.139  -0.707  1.00  0.00     0.161 HD
HETATM   22  H17 UNL     1      -0.835   2.493  -0.871  1.00  0.00     0.167 HD
ENDROOT
BRANCH   4  23
HETATM   23  C5  UNL     1      -2.272  -2.238   1.102  1.00  0.00     0.203 C 
BRANCH  23  24
HETATM   24  O1  UNL     1      -3.444  -2.575   0.423  1.00  0.00    -0.396 OA
HETATM   25  H7  UNL     1      -3.145  -2.932  -0.457  1.00  0.00     0.209 HD
ENDBRANCH  23  24
ENDBRANCH   4  23
TORSDOF 2
