REMARK  4 active torsions:
REMARK  status: ('A' for Active; 'I' for Inactive)
REMARK    1  A    between atoms: C2_2  and  C3_3 
REMARK    2  A    between atoms: C11_17  and  C12_18 
REMARK    3  A    between atoms: C12_18  and  N7_19 
REMARK    4  A    between atoms: C15_22  and  N8_23 
ROOT
HETATM    1  C3  UNL     1      -3.011   0.146  -0.684  1.00  0.00     0.349 C 
HETATM    2  N1  UNL     1      -3.150   0.188   0.806  1.00  0.00     0.135 NA
HETATM    3  C4  UNL     1      -2.303  -0.912   1.207  1.00  0.00     0.305 C 
HETATM    4  C5  UNL     1      -2.040  -1.853   0.053  1.00  0.00     0.005 C 
HETATM    5  C6  UNL     1      -1.464  -2.329  -1.145  1.00  0.00     0.019 C 
HETATM    6  C7  UNL     1      -0.675  -1.330  -2.088  1.00  0.00     0.139 C 
HETATM    7  N2  UNL     1      -0.810   0.078  -2.008  1.00  0.00    -0.181 NA
HETATM    8  N3  UNL     1      -1.555   0.375  -1.046  1.00  0.00    -0.221 N 
HETATM    9  C8  UNL     1      -0.347   1.039  -0.384  1.00  0.00     0.134 C 
HETATM   10  N4  UNL     1      -0.189   1.709  -1.296  1.00  0.00    -0.225 NA
HETATM   11  C9  UNL     1      -0.860   3.174  -0.920  1.00  0.00     0.256 C 
HETATM   12  N5  UNL     1      -1.458   3.489   0.305  1.00  0.00    -0.169 NA
HETATM   13  N6  UNL     1      -1.653   2.318   1.177  1.00  0.00    -0.275 N 
HETATM   14  C10 UNL     1      -0.338   2.024   1.941  1.00  0.00     0.161 C 
HETATM   15  C11 UNL     1       0.537   1.238   0.859  1.00  0.00     0.105 C 
HETATM   16  C18 UNL     1      -2.763   1.351   1.516  1.00  0.00     0.419 C 
ENDROOT
BRANCH  15  17
HETATM   17  C12 UNL     1       1.277   0.137   1.454  1.00  0.00     0.286 C 
BRANCH  17  18
HETATM   18  N7  UNL     1       2.234  -0.557   0.623  1.00  0.00     0.089 N 
HETATM   19  C13 UNL     1       2.907  -1.595   1.342  1.00  0.00     0.274 C 
HETATM   20  C14 UNL     1       4.072  -2.193   0.676  1.00  0.00     0.065 C 
HETATM   21  C15 UNL     1       4.134  -1.702  -0.763  1.00  0.00     0.221 C 
HETATM   22  C16 UNL     1       4.308  -0.200  -0.657  1.00  0.00     0.065 C 
HETATM   23  C17 UNL     1       3.045   0.357  -0.077  1.00  0.00     0.274 C 
BRANCH  21  24
HETATM   24  N8  UNL     1       5.242  -2.255  -1.490  1.00  0.00     0.083 N 
HETATM   25  H23 UNL     1       6.072  -1.626  -1.495  1.00  0.00     0.313 HD
HETATM   26  H24 UNL     1       5.561  -3.188  -1.149  1.00  0.00     0.313 HD
ENDBRANCH  21  24
ENDBRANCH  17  18
ENDBRANCH  15  17
BRANCH   1  27
HETATM   27  C2  UNL     1      -3.994   1.122  -1.259  1.00  0.00     0.055 C 
HETATM   28  C1  UNL     1      -5.404   0.736  -0.822  1.00  0.00     0.009 C 
ENDBRANCH   1  27
TORSDOF 4
