REMARK  0 active torsions:
REMARK  status: ('A' for Active; 'I' for Inactive)
ROOT
HETATM    1  C1  UNL     1       4.301  -1.086  -0.798  1.00  0.00     0.180 C 
HETATM    2  N1  UNL     1       3.071  -1.783  -0.381  1.00  0.00    -0.274 N 
HETATM    3  N2  UNL     1       2.793  -3.070  -0.507  1.00  0.00    -0.184 NA
HETATM    4  C2  UNL     1       1.557  -3.218   0.015  1.00  0.00     0.149 A 
HETATM    5  C3  UNL     1       1.102  -1.969   0.460  1.00  0.00     0.001 A 
HETATM    6  C4  UNL     1       2.134  -1.031   0.183  1.00  0.00     0.061 A 
HETATM    7  C5  UNL     1       1.884   0.223   0.547  1.00  0.00     0.033 C 
HETATM    8  C6  UNL     1       2.836   1.304   0.347  1.00  0.00     0.016 C 
HETATM    9  C7  UNL     1       2.707   2.219  -0.607  1.00  0.00    -0.009 C 
HETATM   10  C8  UNL     1       1.565   2.045  -1.243  1.00  0.00     0.095 C 
HETATM   11  N3  UNL     1       0.345   2.170  -0.522  1.00  0.00    -0.393 N 
HETATM   12  C9  UNL     1      -0.796   1.884  -1.436  1.00  0.00     0.081 C 
HETATM   13  C10 UNL     1      -2.125   2.242  -0.905  1.00  0.00     0.029 C 
HETATM   14  C11 UNL     1      -3.080   1.067  -0.694  1.00  0.00     0.038 C 
HETATM   15  C12 UNL     1      -2.208  -0.017  -0.207  1.00  0.00    -0.050 C 
HETATM   16  C13 UNL     1      -2.217  -0.450   1.029  1.00  0.00     0.078 A 
HETATM   17  N4  UNL     1      -3.075   0.052   2.023  1.00  0.00    -0.275 N 
HETATM   18  N5  UNL     1      -3.101  -0.305   3.357  1.00  0.00    -0.168 NA
HETATM   19  C14 UNL     1      -2.273  -1.187   3.788  1.00  0.00     0.255 A 
HETATM   20  N6  UNL     1      -1.366  -1.752   2.873  1.00  0.00    -0.242 NA
HETATM   21  C15 UNL     1      -1.274  -1.467   1.595  1.00  0.00     0.074 A 
HETATM   22  C16 UNL     1      -0.138  -2.184   0.957  1.00  0.00     0.091 C 
HETATM   23  C17 UNL     1      -1.485  -0.551  -1.385  1.00  0.00     0.038 C 
HETATM   24  C18 UNL     1      -0.649   0.505  -2.009  1.00  0.00     0.029 C 
HETATM   25  H8  UNL     1      -0.012   2.412   0.416  1.00  0.00     0.159 HD
HETATM   26  H14 UNL     1      -3.795   0.764   1.845  1.00  0.00     0.189 HD
ENDROOT
TORSDOF 0
