REMARK  2 active torsions:
REMARK  status: ('A' for Active; 'I' for Inactive)
REMARK    1  A    between atoms: C5_7  and  N3_8 
REMARK    2  A    between atoms: N3_8  and  C6_9 
ROOT
HETATM    1  C6  UNL     1      -0.090  -1.879  -0.377  1.00  0.00     0.079 C 
HETATM    2  N4  UNL     1       0.520  -0.663  -0.676  1.00  0.00    -0.359 NA
HETATM    3  C7  UNL     1      -0.130   0.548  -0.761  1.00  0.00     0.427 C 
HETATM    4  N5  UNL     1      -0.926   1.430  -0.705  1.00  0.00    -0.168 NA
HETATM    5  N6  UNL     1      -2.110   1.903  -0.395  1.00  0.00    -0.278 N 
HETATM    6  C8  UNL     1      -3.412   2.010  -0.782  1.00  0.00     0.092 A 
HETATM    7  C9  UNL     1      -3.454   3.315  -0.549  1.00  0.00     0.010 A 
HETATM    8  C10 UNL     1      -2.826   2.641   0.631  1.00  0.00     0.161 A 
HETATM    9  C11 UNL     1      -3.853   1.965   1.461  1.00  0.00     0.300 C 
HETATM   10  N7  UNL     1      -3.974   0.571   1.396  1.00  0.00     0.085 N 
HETATM   11  C12 UNL     1      -3.018  -0.265   1.958  1.00  0.00     0.270 C 
HETATM   12  C13 UNL     1      -2.943  -1.607   1.164  1.00  0.00     0.041 C 
HETATM   13  C14 UNL     1      -2.660  -1.098  -0.224  1.00  0.00    -0.019 C 
HETATM   14  C15 UNL     1      -1.442  -1.535  -0.149  1.00  0.00     0.074 C 
HETATM   15  C16 UNL     1      -3.433  -0.462  -1.303  1.00  0.00     0.014 C 
HETATM   16  C17 UNL     1      -4.079   0.829  -1.235  1.00  0.00     0.040 C 
HETATM   17  H12 UNL     1      -4.944   0.286   1.660  1.00  0.00     0.315 HD
ENDROOT
BRANCH   1  18
HETATM   18  N3  UNL     1       1.251  -2.297  -0.506  1.00  0.00    -0.346 N 
HETATM   19  H6  UNL     1       0.739  -3.266  -0.622  1.00  0.00     0.167 HD
BRANCH  18  20
HETATM   20  C5  UNL     1       2.540  -1.740  -0.460  1.00  0.00     0.034 A 
HETATM   21  C4  UNL     1       2.872  -1.019   0.679  1.00  0.00     0.044 A 
HETATM   22  C3  UNL     1       4.119  -0.417   0.755  1.00  0.00     0.013 A 
HETATM   23  C2  UNL     1       4.739   0.348   1.717  1.00  0.00     0.152 A 
HETATM   24  C20 UNL     1       4.989  -0.566  -0.330  1.00  0.00     0.064 A 
HETATM   25  N2  UNL     1       5.953   0.665   1.248  1.00  0.00    -0.184 NA
HETATM   26  N1  UNL     1       6.093   0.132   0.060  1.00  0.00    -0.274 N 
HETATM   27  C1  UNL     1       7.295   0.289  -0.776  1.00  0.00     0.180 C 
HETATM   28  C19 UNL     1       4.578  -1.290  -1.397  1.00  0.00     0.034 A 
HETATM   29  C18 UNL     1       3.385  -1.915  -1.563  1.00  0.00     0.032 A 
ENDBRANCH  18  20
ENDBRANCH   1  18
TORSDOF 2
