REMARK  5 active torsions:
REMARK  status: ('A' for Active; 'I' for Inactive)
REMARK    1  A    between atoms: N1_5  and  C5_6 
REMARK    2  A    between atoms: C5_6  and  C6_7 
REMARK    3  A    between atoms: C10_14  and  N5_15 
REMARK    4  A    between atoms: N5_15  and  C11_16 
REMARK    5  A    between atoms: C20_27  and  N8_28 
ROOT
HETATM    1  C6  UNL     1      -1.802  -1.577   1.582  1.00  0.00     0.004 A 
HETATM    2  C7  UNL     1      -2.693  -2.624   1.745  1.00  0.00     0.030 A 
HETATM    3  C8  UNL     1      -2.109  -3.829   1.357  1.00  0.00     0.119 A 
HETATM    4  N2  UNL     1      -0.886  -3.493   0.970  1.00  0.00    -0.240 N 
HETATM    5  N3  UNL     1       0.003  -4.375   0.524  1.00  0.00    -0.161 NA
HETATM    6  C9  UNL     1       1.228  -3.977   0.150  1.00  0.00     0.258 A 
HETATM    7  N4  UNL     1       1.476  -2.671   0.256  1.00  0.00    -0.220 NA
HETATM    8  C10 UNL     1       0.587  -1.772   0.703  1.00  0.00     0.159 A 
HETATM    9  C19 UNL     1      -0.666  -2.169   1.088  1.00  0.00     0.112 A 
ENDROOT
BRANCH   8  10
HETATM   10  N5  UNL     1       0.947  -0.405   0.784  1.00  0.00    -0.339 N 
HETATM   11  H14 UNL     1       0.440   0.424   1.124  1.00  0.00     0.167 HD
BRANCH  10  12
HETATM   12  C11 UNL     1       2.195   0.145   0.366  1.00  0.00     0.034 A 
HETATM   13  C12 UNL     1       2.828   1.273   0.847  1.00  0.00     0.032 A 
HETATM   14  C13 UNL     1       4.026   1.789   0.417  1.00  0.00     0.034 A 
HETATM   15  C14 UNL     1       4.672   1.136  -0.587  1.00  0.00     0.064 A 
HETATM   16  C15 UNL     1       4.113   0.011  -1.120  1.00  0.00     0.013 A 
HETATM   17  N7  UNL     1       5.849   1.423  -1.192  1.00  0.00    -0.274 N 
HETATM   18  C16 UNL     1       5.046  -0.361  -2.097  1.00  0.00     0.152 A 
HETATM   19  C18 UNL     1       2.909  -0.470  -0.657  1.00  0.00     0.044 A 
HETATM   20  N6  UNL     1       6.081   0.509  -2.117  1.00  0.00    -0.184 NA
HETATM   21  C17 UNL     1       6.748   2.507  -0.938  1.00  0.00     0.180 C 
ENDBRANCH  10  12
ENDBRANCH   8  10
BRANCH   1  22
HETATM   22  C5  UNL     1      -1.998  -0.130   1.850  1.00  0.00     0.316 C 
BRANCH  22  23
HETATM   23  N1  UNL     1      -2.236   0.527   0.596  1.00  0.00     0.115 N 
HETATM   24  C4  UNL     1      -2.406   1.937   0.632  1.00  0.00     0.276 C 
HETATM   25  C3  UNL     1      -3.139   2.277  -0.659  1.00  0.00     0.038 C 
HETATM   26  C2  UNL     1      -3.392   0.925  -1.325  1.00  0.00     0.036 C 
HETATM   27  C1  UNL     1      -4.690   0.885  -2.089  1.00  0.00     0.014 C 
HETATM   28  C20 UNL     1      -3.434   0.056  -0.064  1.00  0.00     0.319 C 
BRANCH  28  29
HETATM   29  N8  UNL     1      -4.594   0.444   0.648  1.00  0.00    -0.402 N 
HETATM   30  H23 UNL     1      -4.505   0.945   1.525  1.00  0.00     0.152 HD
HETATM   31  H24 UNL     1      -5.330  -0.289   0.735  1.00  0.00     0.152 HD
ENDBRANCH  28  29
ENDBRANCH  22  23
ENDBRANCH   1  22
TORSDOF 5
