REMARK  7 active torsions:
REMARK  status: ('A' for Active; 'I' for Inactive)
REMARK    1  A    between atoms: C2_2  and  N1_3 
REMARK    2  A    between atoms: C4_7  and  N4_8 
REMARK    3  A    between atoms: N4_8  and  C5_9 
REMARK    4  A    between atoms: C14_20  and  C15_21 
REMARK    5  A    between atoms: C15_21  and  O1_22 
REMARK    6  A    between atoms: O1_22  and  C16_23 
REMARK    7  A    between atoms: C16_23  and  C17_24 
ROOT
HETATM    1  N1  UNL     1       0.726  -2.338  -2.883  1.00  0.00    -0.241 N 
HETATM    2  N2  UNL     1       2.078  -2.692  -3.133  1.00  0.00    -0.161 NA
HETATM    3  C3  UNL     1       2.974  -2.338  -2.253  1.00  0.00     0.258 A 
HETATM    4  N3  UNL     1       2.641  -1.623  -1.077  1.00  0.00    -0.220 NA
HETATM    5  C4  UNL     1       1.454  -1.252  -0.750  1.00  0.00     0.158 A 
HETATM    6  C13 UNL     1       0.421  -1.624  -1.700  1.00  0.00     0.102 A 
HETATM    7  C14 UNL     1      -0.837  -1.310  -1.481  1.00  0.00     0.035 C 
ENDROOT
BRANCH   5   8
HETATM    8  N4  UNL     1       1.175  -0.531   0.454  1.00  0.00    -0.339 N 
HETATM    9  H5  UNL     1       0.251  -0.755   0.878  1.00  0.00     0.167 HD
BRANCH   8  10
HETATM   10  C5  UNL     1       2.221   0.374   0.871  1.00  0.00     0.034 A 
HETATM   11  C6  UNL     1       2.258   1.663   0.394  1.00  0.00     0.032 A 
HETATM   12  C7  UNL     1       3.285   2.495   0.822  1.00  0.00     0.034 A 
HETATM   13  C8  UNL     1       4.201   1.967   1.701  1.00  0.00     0.064 A 
HETATM   14  C9  UNL     1       4.140   0.671   2.162  1.00  0.00     0.013 A 
HETATM   15  N6  UNL     1       5.286   2.580   2.258  1.00  0.00    -0.274 N 
HETATM   16  C10 UNL     1       5.218   0.528   3.010  1.00  0.00     0.152 A 
HETATM   17  C12 UNL     1       3.130  -0.198   1.761  1.00  0.00     0.044 A 
HETATM   18  N5  UNL     1       5.905   1.709   3.054  1.00  0.00    -0.184 NA
HETATM   19  C11 UNL     1       5.679   3.966   2.003  1.00  0.00     0.180 C 
ENDBRANCH   8  10
ENDBRANCH   5   8
BRANCH   1  20
HETATM   20  C2  UNL     1      -0.129  -2.781  -3.917  1.00  0.00     0.108 C 
HETATM   21  C1  UNL     1      -0.362  -2.263  -5.134  1.00  0.00     0.032 C 
ENDBRANCH   1  20
BRANCH   7  22
HETATM   22  C15 UNL     1      -2.246  -1.355  -1.934  1.00  0.00     0.197 C 
BRANCH  22  23
HETATM   23  O1  UNL     1      -2.869  -0.196  -2.145  1.00  0.00    -0.385 OA
BRANCH  23  24
HETATM   24  C16 UNL     1      -3.077   0.782  -1.271  1.00  0.00     0.201 C 
BRANCH  24  25
HETATM   25  C17 UNL     1      -3.903   0.601  -0.054  1.00  0.00     0.173 C 
HETATM   26  C18 UNL     1      -3.256  -0.176   1.022  1.00  0.00     0.303 C 
HETATM   27  N7  UNL     1      -4.000  -0.022   2.294  1.00  0.00     0.088 N 
HETATM   28  C19 UNL     1      -5.366   0.387   1.983  1.00  0.00     0.295 C 
HETATM   29  H21 UNL     1      -4.032  -0.966   2.730  1.00  0.00     0.316 HD
HETATM   30  C20 UNL     1      -5.827  -0.337   0.760  1.00  0.00     0.198 C 
HETATM   31  O2  UNL     1      -5.181   0.148  -0.397  1.00  0.00    -0.380 OA
ENDBRANCH  24  25
ENDBRANCH  23  24
ENDBRANCH  22  23
ENDBRANCH   7  22
TORSDOF 7
