REMARK  6 active torsions:
REMARK  status: ('A' for Active; 'I' for Inactive)
REMARK    1  A    between atoms: C2_2  and  C3_3 
REMARK    2  A    between atoms: C3_3  and  C4_4 
REMARK    3  A    between atoms: C4_4  and  O1_5 
REMARK    4  A    between atoms: O1_5  and  C5_6 
REMARK    5  A    between atoms: C10_16  and  N5_17 
REMARK    6  A    between atoms: N5_17  and  C11_18 
ROOT
HETATM    1  C3  UNL     1      -1.169  -0.952   0.002  1.00  0.00     0.146 A 
HETATM    2  N2  UNL     1      -1.491  -2.284   0.534  1.00  0.00    -0.289 N 
HETATM    3  N3  UNL     1      -0.615  -3.323   0.868  1.00  0.00    -0.171 NA
HETATM    4  C9  UNL     1       0.667  -3.132   0.702  1.00  0.00     0.256 A 
HETATM    5  N4  UNL     1       1.174  -1.905   0.196  1.00  0.00    -0.224 NA
HETATM    6  C10 UNL     1       0.342  -0.939  -0.113  1.00  0.00     0.142 A 
HETATM    7  H14 UNL     1      -2.514  -2.492   0.687  1.00  0.00     0.184 HD
ENDROOT
BRANCH   6   8
HETATM    8  N5  UNL     1       1.023   0.211  -0.609  1.00  0.00    -0.342 N 
HETATM    9  H16 UNL     1       0.515   0.871  -1.252  1.00  0.00     0.167 HD
BRANCH   8  10
HETATM   10  C11 UNL     1       2.392   0.482  -0.242  1.00  0.00     0.034 A 
HETATM   11  C12 UNL     1       2.873   1.250   0.795  1.00  0.00     0.032 A 
HETATM   12  C13 UNL     1       4.240   1.355   0.953  1.00  0.00     0.034 A 
HETATM   13  C14 UNL     1       5.147   0.734   0.133  1.00  0.00     0.064 A 
HETATM   14  C15 UNL     1       4.657  -0.044  -0.918  1.00  0.00     0.013 A 
HETATM   15  N7  UNL     1       6.485   0.715   0.126  1.00  0.00    -0.274 N 
HETATM   16  C16 UNL     1       5.825  -0.503  -1.516  1.00  0.00     0.152 A 
HETATM   17  C18 UNL     1       3.295  -0.162  -1.094  1.00  0.00     0.044 A 
HETATM   18  N6  UNL     1       6.893  -0.039  -0.879  1.00  0.00    -0.184 NA
HETATM   19  C17 UNL     1       7.426   1.369   1.017  1.00  0.00     0.180 C 
ENDBRANCH   8  10
ENDBRANCH   6   8
BRANCH   1  20
HETATM   20  C2  UNL     1      -1.478   0.106   0.990  1.00  0.00     0.005 C 
HETATM   21  C1  UNL     1      -0.842   1.250   0.982  1.00  0.00     0.010 C 
ENDBRANCH   1  20
BRANCH   1  22
HETATM   22  C4  UNL     1      -1.784  -0.756  -1.347  1.00  0.00     0.215 C 
BRANCH  22  23
HETATM   23  O1  UNL     1      -3.130  -0.866  -1.445  1.00  0.00    -0.356 OA
BRANCH  23  24
HETATM   24  C5  UNL     1      -3.936  -0.018  -0.762  1.00  0.00     0.276 C 
HETATM   25  C6  UNL     1      -4.989   0.628  -1.660  1.00  0.00     0.174 C 
HETATM   26  N1  UNL     1      -5.880   1.424  -0.888  1.00  0.00    -0.415 N 
HETATM   27  C7  UNL     1      -5.755   1.336   0.526  1.00  0.00     0.140 C 
HETATM   28  H9  UNL     1      -6.864   1.439  -1.237  1.00  0.00     0.153 HD
HETATM   29  C8  UNL     1      -5.318   0.004   1.035  1.00  0.00     0.190 C 
HETATM   30  O2  UNL     1      -4.701  -0.816   0.129  1.00  0.00    -0.358 OA
ENDBRANCH  23  24
ENDBRANCH  22  23
ENDBRANCH   1  22
TORSDOF 6
