REMARK  6 active torsions:
REMARK  status: ('A' for Active; 'I' for Inactive)
REMARK    1  A    between atoms: C5_7  and  N3_8 
REMARK    2  A    between atoms: N3_8  and  C6_9 
REMARK    3  A    between atoms: C10_16  and  C11_17 
REMARK    4  A    between atoms: C11_17  and  O1_18 
REMARK    5  A    between atoms: O1_18  and  C12_19 
REMARK    6  A    between atoms: C12_19  and  C13_20 
ROOT
HETATM    1  C6  UNL     1      -1.937   0.752  -0.555  1.00  0.00     0.156 A 
HETATM    2  N4  UNL     1      -2.769   1.698  -0.105  1.00  0.00    -0.221 NA
HETATM    3  C7  UNL     1      -2.368   2.964  -0.012  1.00  0.00     0.258 A 
HETATM    4  N5  UNL     1      -1.121   3.300  -0.372  1.00  0.00    -0.161 NA
HETATM    5  N6  UNL     1      -0.350   2.298  -0.810  1.00  0.00    -0.240 N 
HETATM    6  C8  UNL     1       0.928   2.564  -1.220  1.00  0.00     0.119 A 
HETATM    7  C9  UNL     1       1.400   1.335  -1.609  1.00  0.00     0.031 A 
HETATM    8  C10 UNL     1       0.475   0.299  -1.461  1.00  0.00    -0.001 A 
HETATM    9  C17 UNL     1      -0.633   0.988  -0.948  1.00  0.00     0.112 A 
ENDROOT
BRANCH   8  10
HETATM   10  C11 UNL     1       0.433  -1.129  -1.677  1.00  0.00     0.208 C 
BRANCH  10  11
HETATM   11  O1  UNL     1       1.610  -1.789  -1.680  1.00  0.00    -0.384 OA
BRANCH  11  12
HETATM   12  C12 UNL     1       2.358  -1.980  -0.607  1.00  0.00     0.201 C 
BRANCH  12  13
HETATM   13  C13 UNL     1       3.056  -0.901   0.144  1.00  0.00     0.166 C 
HETATM   14  C14 UNL     1       3.713  -1.498   1.402  1.00  0.00     0.207 C 
HETATM   15  N7  UNL     1       4.941  -2.092   0.980  1.00  0.00    -0.196 NA
HETATM   16  N8  UNL     1       5.963  -1.471   0.593  1.00  0.00    -0.196 NA
HETATM   17  C15 UNL     1       6.101  -0.057   0.497  1.00  0.00     0.199 C 
HETATM   18  C16 UNL     1       4.765   0.576   0.121  1.00  0.00     0.192 C 
HETATM   19  O2  UNL     1       4.014  -0.293  -0.650  1.00  0.00    -0.380 OA
ENDBRANCH  12  13
ENDBRANCH  11  12
ENDBRANCH  10  11
ENDBRANCH   8  10
BRANCH   1  20
HETATM   20  N3  UNL     1      -2.505  -0.575  -0.707  1.00  0.00    -0.347 N 
HETATM   21  H8  UNL     1      -2.165  -1.471  -1.098  1.00  0.00     0.163 HD
BRANCH  20  22
HETATM   22  C5  UNL     1      -3.871  -0.780  -0.269  1.00  0.00     0.226 A 
HETATM   23  N1  UNL     1      -4.061  -0.467   1.146  1.00  0.00    -0.283 N 
HETATM   24  C1  UNL     1      -3.102  -1.226   1.939  1.00  0.00     0.176 C 
HETATM   25  N2  UNL     1      -5.013   0.426   1.695  1.00  0.00    -0.188 NA
HETATM   26  C2  UNL     1      -5.827   1.072   0.891  1.00  0.00     0.138 A 
HETATM   27  C3  UNL     1      -5.727   0.848  -0.547  1.00  0.00     0.021 A 
HETATM   28  C4  UNL     1      -4.845   0.015  -1.071  1.00  0.00     0.022 A 
ENDBRANCH  20  22
ENDBRANCH   1  20
TORSDOF 6
