REMARK  6 active torsions:
REMARK  status: ('A' for Active; 'I' for Inactive)
REMARK    1  A    between atoms: C5_7  and  N3_8 
REMARK    2  A    between atoms: N3_8  and  C6_9 
REMARK    3  A    between atoms: C10_16  and  C11_17 
REMARK    4  A    between atoms: C11_17  and  O1_18 
REMARK    5  A    between atoms: O1_18  and  C12_19 
REMARK    6  A    between atoms: C12_19  and  C13_20 
ROOT
HETATM    1  C6  UNL     1      -1.183  -1.536   0.110  1.00  0.00     0.159 A 
HETATM    2  N4  UNL     1      -2.218  -2.268   0.509  1.00  0.00    -0.220 NA
HETATM    3  C7  UNL     1      -2.009  -3.527   0.961  1.00  0.00     0.258 A 
HETATM    4  N5  UNL     1      -0.759  -3.956   0.975  1.00  0.00    -0.161 NA
HETATM    5  N6  UNL     1       0.283  -3.234   0.579  1.00  0.00    -0.240 N 
HETATM    6  C8  UNL     1       1.561  -3.597   0.563  1.00  0.00     0.119 A 
HETATM    7  C9  UNL     1       2.210  -2.483   0.064  1.00  0.00     0.031 A 
HETATM    8  C10 UNL     1       1.330  -1.440  -0.223  1.00  0.00    -0.001 A 
HETATM    9  C17 UNL     1       0.123  -1.958   0.116  1.00  0.00     0.112 A 
ENDROOT
BRANCH   1  10
HETATM   10  N3  UNL     1      -1.511  -0.237  -0.366  1.00  0.00    -0.339 N 
HETATM   11  H6  UNL     1      -1.020   0.558  -0.820  1.00  0.00     0.167 HD
BRANCH  10  12
HETATM   12  C5  UNL     1      -2.852   0.290  -0.286  1.00  0.00     0.034 A 
HETATM   13  C4  UNL     1      -3.494   1.122  -1.200  1.00  0.00     0.044 A 
HETATM   14  C3  UNL     1      -4.769   1.592  -1.036  1.00  0.00     0.013 A 
HETATM   15  C2  UNL     1      -5.519   2.406  -1.840  1.00  0.00     0.152 A 
HETATM   16  C20 UNL     1      -5.493   1.252   0.073  1.00  0.00     0.064 A 
HETATM   17  N2  UNL     1      -6.699   2.563  -1.222  1.00  0.00    -0.184 NA
HETATM   18  N1  UNL     1      -6.673   1.878  -0.096  1.00  0.00    -0.274 N 
HETATM   19  C1  UNL     1      -7.782   1.809   0.843  1.00  0.00     0.180 C 
HETATM   20  C19 UNL     1      -4.915   0.424   1.028  1.00  0.00     0.034 A 
HETATM   21  C18 UNL     1      -3.615  -0.035   0.827  1.00  0.00     0.032 A 
ENDBRANCH  10  12
ENDBRANCH   1  10
BRANCH   8  22
HETATM   22  C11 UNL     1       1.597  -0.099  -0.762  1.00  0.00     0.208 C 
BRANCH  22  23
HETATM   23  O1  UNL     1       2.950   0.249  -0.779  1.00  0.00    -0.386 OA
BRANCH  23  24
HETATM   24  C12 UNL     1       3.431   0.337   0.498  1.00  0.00     0.174 C 
BRANCH  24  25
HETATM   25  C13 UNL     1       4.901   0.680   0.564  1.00  0.00     0.039 C 
HETATM   26  C14 UNL     1       5.752  -0.363  -0.143  1.00  0.00     0.038 C 
HETATM   27  C15 UNL     1       7.030   0.447  -0.316  1.00  0.00     0.270 C 
HETATM   28  N7  UNL     1       6.536   1.714  -0.802  1.00  0.00     0.083 N 
HETATM   29  C16 UNL     1       5.230   1.914  -0.241  1.00  0.00     0.276 C 
HETATM   30  H19 UNL     1       6.540   1.675  -1.846  1.00  0.00     0.315 HD
ENDBRANCH  24  25
ENDBRANCH  23  24
ENDBRANCH  22  23
ENDBRANCH   8  22
TORSDOF 6
