REMARK  5 active torsions:
REMARK  status: ('A' for Active; 'I' for Inactive)
REMARK    1  A    between atoms: C2_2  and  N1_3 
REMARK    2  A    between atoms: C4_5  and  C5_6 
REMARK    3  A    between atoms: C5_6  and  O1_7 
REMARK    4  A    between atoms: O1_7  and  C6_8 
REMARK    5  A    between atoms: C6_8  and  C7_9 
ROOT
HETATM    1  N1  UNL     1      -0.777   0.921  -0.071  1.00  0.00    -0.354 N 
HETATM    2  C3  UNL     1      -0.164  -0.068   0.809  1.00  0.00     0.135 A 
HETATM    3  C4  UNL     1       1.236  -0.050   0.996  1.00  0.00     0.013 A 
HETATM    4  C11 UNL     1       1.477  -1.079   1.952  1.00  0.00     0.032 A 
HETATM    5  C12 UNL     1       0.228  -1.625   2.257  1.00  0.00     0.121 A 
HETATM    6  N3  UNL     1      -0.738  -0.997   1.554  1.00  0.00    -0.233 N 
HETATM    7  N4  UNL     1      -1.991  -1.498   1.846  1.00  0.00    -0.197 N 
HETATM    8  C13 UNL     1      -2.412  -2.684   1.941  1.00  0.00     0.223 A 
HETATM    9  N5  UNL     1      -3.471  -1.746   2.189  1.00  0.00    -0.127 NA
HETATM   10  C14 UNL     1      -4.579  -1.712   1.566  1.00  0.00     0.181 C 
HETATM   11  N6  UNL     1      -5.782  -0.886   1.615  1.00  0.00    -0.355 N 
HETATM   12  C15 UNL     1      -5.200   0.273   0.896  1.00  0.00     0.031 C 
HETATM   13  C16 UNL     1      -5.224  -0.289  -0.274  1.00  0.00     0.013 C 
HETATM   14  C17 UNL     1      -4.692   0.675  -1.263  1.00  0.00    -0.080 C 
HETATM   15  B1  UNL     1      -3.086   1.597  -1.101  1.00  0.00     0.224 B 
HETATM   16  C18 UNL     1      -2.169   1.317   0.260  1.00  0.00     0.121 C 
HETATM   17  N7  UNL     1      -2.075   2.378   1.217  1.00  0.00    -0.409 NA
HETATM   18  C19 UNL     1      -2.951   2.554   2.167  1.00  0.00     0.276 C 
HETATM   19  C20 UNL     1      -4.161   1.810   2.468  1.00  0.00     0.021 C 
HETATM   20  C21 UNL     1      -5.073   0.958   2.135  1.00  0.00     0.031 C 
HETATM   21  H22 UNL     1      -6.712  -1.064   2.022  1.00  0.00     0.166 HD
ENDROOT
BRANCH   3  22
HETATM   22  C5  UNL     1       2.417   0.651   0.431  1.00  0.00     0.210 C 
BRANCH  22  23
HETATM   23  O1  UNL     1       3.049   0.165  -0.589  1.00  0.00    -0.384 OA
BRANCH  23  24
HETATM   24  C6  UNL     1       2.806  -0.190  -1.808  1.00  0.00     0.201 C 
BRANCH  24  25
HETATM   25  C7  UNL     1       4.142  -0.698  -2.418  1.00  0.00     0.162 C 
HETATM   26  C8  UNL     1       4.679  -1.841  -1.577  1.00  0.00     0.147 C 
HETATM   27  N2  UNL     1       5.105  -1.412  -0.287  1.00  0.00    -0.417 N 
HETATM   28  C9  UNL     1       6.041  -0.347  -0.294  1.00  0.00     0.140 C 
HETATM   29  H13 UNL     1       4.423  -1.427   0.469  1.00  0.00     0.153 HD
HETATM   30  C10 UNL     1       5.664   0.700  -1.295  1.00  0.00     0.187 C 
HETATM   31  O2  UNL     1       5.079   0.284  -2.443  1.00  0.00    -0.381 OA
ENDBRANCH  24  25
ENDBRANCH  23  24
ENDBRANCH  22  23
ENDBRANCH   3  22
BRANCH   1  32
HETATM   32  C2  UNL     1      -0.197   1.599  -1.171  1.00  0.00     0.121 C 
HETATM   33  C1  UNL     1      -0.889   1.108  -2.449  1.00  0.00     0.026 C 
ENDBRANCH   1  32
TORSDOF 5
