REMARK  4 active torsions:
REMARK  status: ('A' for Active; 'I' for Inactive)
REMARK    1  A    between atoms: N1_1  and  C1_2 
REMARK    2  A    between atoms: N2_8  and  C6_9 
REMARK    3  A    between atoms: C11_15  and  C12_16 
REMARK    4  A    between atoms: C12_16  and  O2_18 
ROOT
HETATM    1  C6  UNL     1      -2.161  -0.553   0.951  1.00  0.00     0.068 A 
HETATM    2  C7  UNL     1      -0.896  -0.317   0.651  1.00  0.00     0.107 A 
HETATM    3  N3  UNL     1      -0.302  -0.205  -0.635  1.00  0.00    -0.380 N 
HETATM    4  C8  UNL     1       0.947   0.452  -0.974  1.00  0.00     0.161 C 
HETATM    5  C9  UNL     1       2.041   0.177  -0.036  1.00  0.00    -0.006 A 
HETATM    6  C10 UNL     1       3.258   0.077  -0.720  1.00  0.00     0.029 A 
HETATM    7  C11 UNL     1       4.460  -0.177  -0.098  1.00  0.00     0.038 A 
HETATM    8  C13 UNL     1       4.518  -0.347   1.259  1.00  0.00     0.021 A 
HETATM    9  C14 UNL     1       3.358  -0.258   1.963  1.00  0.00     0.039 A 
HETATM   10  C15 UNL     1       2.143  -0.001   1.325  1.00  0.00     0.086 A 
HETATM   11  O3  UNL     1       1.084   0.050   2.230  1.00  0.00    -0.290 OA
HETATM   12  C16 UNL     1      -0.270  -0.202   1.962  1.00  0.00     0.194 A 
HETATM   13  N4  UNL     1      -1.081  -0.354   2.951  1.00  0.00    -0.259 NA
HETATM   14  C17 UNL     1      -2.402  -0.600   2.415  1.00  0.00     0.212 A 
HETATM   15  H5  UNL     1      -0.902  -0.681  -1.363  1.00  0.00     0.160 HD
ENDROOT
BRANCH   1  16
HETATM   16  N2  UNL     1      -3.192  -0.744  -0.035  1.00  0.00    -0.306 N 
HETATM   17  C1  UNL     1      -3.543   0.406  -0.823  1.00  0.00     0.123 C 
HETATM   18  C2  UNL     1      -4.490   0.270  -1.742  1.00  0.00     0.056 C 
HETATM   19 BR1  UNL     1      -5.029   1.742  -2.842  1.00  0.00    -0.047 Br
HETATM   20  C3  UNL     1      -5.146  -1.019  -1.933  1.00  0.00     0.036 C 
HETATM   21  C4  UNL     1      -4.504  -2.059  -1.436  1.00  0.00    -0.007 C 
HETATM   22  C5  UNL     1      -3.887  -1.962  -0.292  1.00  0.00     0.111 C 
BRANCH  17  23
HETATM   23  N1  UNL     1      -2.916   1.678  -0.654  1.00  0.00    -0.384 N 
HETATM   24  H1  UNL     1      -2.486   1.950  -1.581  1.00  0.00     0.157 HD
HETATM   25  H2  UNL     1      -2.837   2.305   0.177  1.00  0.00     0.157 HD
ENDBRANCH  17  23
ENDBRANCH   1  16
BRANCH   7  26
HETATM   26  C12 UNL     1       5.672  -0.262  -0.899  1.00  0.00     0.176 C 
HETATM   27  O1  UNL     1       5.605  -0.103  -2.147  1.00  0.00    -0.646 OA
BRANCH  26  28
HETATM   28  O2  UNL     1       6.904  -0.516  -0.311  1.00  0.00    -0.773 OA
HETATM   29  H9  UNL     1       7.748  -0.079  -0.698  1.00  0.00     0.167 HD
ENDBRANCH  26  28
ENDBRANCH   7  26
TORSDOF 4
