REMARK  4 active torsions:
REMARK  status: ('A' for Active; 'I' for Inactive)
REMARK    1  A    between atoms: N1_5  and  C5_6 
REMARK    2  A    between atoms: C5_6  and  C6_7 
REMARK    3  A    between atoms: C10_14  and  N5_15 
REMARK    4  A    between atoms: N5_15  and  C11_16 
ROOT
HETATM    1  C6  UNL     1       0.052   1.242   0.022  1.00  0.00     0.004 A 
HETATM    2  C7  UNL     1       0.485   2.480   0.512  1.00  0.00     0.030 A 
HETATM    3  C8  UNL     1      -0.555   3.202   1.040  1.00  0.00     0.119 A 
HETATM    4  N2  UNL     1      -1.640   2.428   0.885  1.00  0.00    -0.240 N 
HETATM    5  N3  UNL     1      -2.892   2.730   1.257  1.00  0.00    -0.161 NA
HETATM    6  C9  UNL     1      -3.860   1.830   1.019  1.00  0.00     0.258 A 
HETATM    7  N4  UNL     1      -3.564   0.678   0.430  1.00  0.00    -0.221 NA
HETATM    8  C10 UNL     1      -2.314   0.364   0.053  1.00  0.00     0.154 A 
HETATM    9  C14 UNL     1      -1.304   1.281   0.292  1.00  0.00     0.111 A 
ENDROOT
BRANCH   1  10
HETATM   10  C5  UNL     1       0.848   0.176  -0.619  1.00  0.00     0.313 C 
BRANCH  10  11
HETATM   11  N1  UNL     1       2.255   0.563  -0.525  1.00  0.00     0.093 N 
HETATM   12  C4  UNL     1       3.072  -0.336  -1.349  1.00  0.00     0.273 C 
HETATM   13  C3  UNL     1       4.458   0.137  -0.903  1.00  0.00     0.036 C 
HETATM   14  C2  UNL     1       4.253   0.106   0.614  1.00  0.00     0.011 C 
HETATM   15  C1  UNL     1       4.575  -1.307   1.062  1.00  0.00     0.011 C 
HETATM   16  C15 UNL     1       2.761   0.284   0.819  1.00  0.00     0.277 C 
ENDBRANCH  10  11
ENDBRANCH   1  10
BRANCH   8  17
HETATM   17  N5  UNL     1      -2.099  -0.904  -0.604  1.00  0.00    -0.369 N 
HETATM   18  H14 UNL     1      -1.245  -1.330  -0.997  1.00  0.00     0.161 HD
BRANCH  17  19
HETATM   19  C11 UNL     1      -3.246  -1.771  -0.784  1.00  0.00     0.075 C 
HETATM   20  C12 UNL     1      -3.848  -2.113   0.578  1.00  0.00     0.031 C 
HETATM   21  C13 UNL     1      -4.319  -1.160  -1.661  1.00  0.00     0.031 C 
ENDBRANCH  17  19
ENDBRANCH   8  17
TORSDOF 4
