REMARK  5 active torsions:
REMARK  status: ('A' for Active; 'I' for Inactive)
REMARK    1  A    between atoms: C2_2  and  C3_3 
REMARK    2  A    between atoms: C3_3  and  C5_5 
REMARK    3  A    between atoms: C9_12  and  C10_13 
REMARK    4  A    between atoms: C10_13  and  N4_14 
REMARK    5  A    between atoms: C13_17  and  N5_18 
ROOT
HETATM    1  C5  UNL     1       2.038   0.972   0.448  1.00  0.00     0.069 A 
HETATM    2  N1  UNL     1       3.221   1.592   0.272  1.00  0.00    -0.242 NA
HETATM    3  C6  UNL     1       3.334   2.726  -0.476  1.00  0.00     0.255 A 
HETATM    4  N2  UNL     1       2.211   3.229  -1.052  1.00  0.00    -0.161 NA
HETATM    5  N3  UNL     1       1.071   2.621  -0.875  1.00  0.00    -0.241 N 
HETATM    6  C7  UNL     1      -0.157   2.959  -1.354  1.00  0.00     0.119 A 
HETATM    7  C8  UNL     1      -1.044   2.003  -0.884  1.00  0.00     0.030 A 
HETATM    8  C9  UNL     1      -0.374   1.060  -0.107  1.00  0.00     0.002 A 
HETATM    9  C15 UNL     1       0.920   1.510  -0.151  1.00  0.00     0.091 A 
ENDROOT
BRANCH   8  10
HETATM   10  C10 UNL     1      -0.924  -0.111   0.598  1.00  0.00     0.313 C 
BRANCH  10  11
HETATM   11  N4  UNL     1      -2.341  -0.222   0.185  1.00  0.00     0.094 N 
HETATM   12  C11 UNL     1      -2.983  -1.272   0.980  1.00  0.00     0.275 C 
HETATM   13  C12 UNL     1      -3.953  -1.976   0.073  1.00  0.00     0.067 C 
HETATM   14  C13 UNL     1      -3.777  -1.252  -1.257  1.00  0.00     0.247 C 
HETATM   15  C14 UNL     1      -2.316  -0.825  -1.156  1.00  0.00     0.307 C 
BRANCH  14  16
HETATM   16  N5  UNL     1      -4.596  -0.044  -1.213  1.00  0.00     0.084 N 
HETATM   17  H20 UNL     1      -4.599   0.259  -0.197  1.00  0.00     0.313 HD
HETATM   18  H21 UNL     1      -4.048   0.694  -1.731  1.00  0.00     0.313 HD
ENDBRANCH  14  16
ENDBRANCH  10  11
ENDBRANCH   8  10
BRANCH   1  19
HETATM   19  C3  UNL     1       2.132  -0.228   1.270  1.00  0.00     0.036 C 
HETATM   20  C4  UNL     1       3.232  -0.129   2.318  1.00  0.00     0.016 C 
BRANCH  19  21
HETATM   21  C2  UNL     1       2.535  -1.358   0.304  1.00  0.00     0.006 C 
HETATM   22  C1  UNL     1       3.847  -1.065  -0.361  1.00  0.00     0.006 C 
ENDBRANCH  19  21
ENDBRANCH   1  19
TORSDOF 5
