REMARK  5 active torsions:
REMARK  status: ('A' for Active; 'I' for Inactive)
REMARK    1  A    between atoms: C2_2  and  C4_4 
REMARK    2  A    between atoms: C7_7  and  N1_8 
REMARK    3  A    between atoms: N2_11  and  C10_12 
REMARK    4  A    between atoms: C10_12  and  C11_13 
REMARK    5  A    between atoms: C15_18  and  N4_19 
ROOT
HETATM    1  C4  UNL     1      -1.678  -1.157   0.445  1.00  0.00     0.002 C 
HETATM    2  C5  UNL     1      -1.035  -0.016   0.313  1.00  0.00     0.006 C 
HETATM    3  C6  UNL     1      -1.822   1.206   0.019  1.00  0.00     0.091 C 
HETATM    4  C7  UNL     1      -0.870   2.307  -0.325  1.00  0.00     0.225 C 
HETATM    5  C8  UNL     1       0.157   2.375   0.814  1.00  0.00     0.055 C 
HETATM    6  C9  UNL     1       1.079   1.195   0.589  1.00  0.00     0.125 C 
HETATM    7  N2  UNL     1       0.377  -0.047   0.468  1.00  0.00    -0.380 N 
ENDROOT
BRANCH   7   8
HETATM    8  C10 UNL     1       1.236  -1.209   0.526  1.00  0.00     0.164 C 
BRANCH   8   9
HETATM    9  C11 UNL     1       2.274  -1.111  -0.554  1.00  0.00    -0.006 A 
HETATM   10  C12 UNL     1       2.294  -1.792  -1.766  1.00  0.00     0.030 A 
HETATM   11  C13 UNL     1       3.439  -1.357  -2.407  1.00  0.00     0.119 A 
HETATM   12  N3  UNL     1       4.126  -0.463  -1.684  1.00  0.00    -0.239 N 
HETATM   13  C14 UNL     1       3.415  -0.300  -0.533  1.00  0.00     0.113 A 
HETATM   14  N5  UNL     1       5.043   0.489  -1.155  1.00  0.00    -0.147 NA
HETATM   15  C15 UNL     1       4.400   0.671  -0.052  1.00  0.00     0.171 A 
BRANCH  15  16
HETATM   16  N4  UNL     1       4.612   1.483   1.101  1.00  0.00    -0.381 N 
HETATM   17  H22 UNL     1       5.020   0.849   1.841  1.00  0.00     0.157 HD
HETATM   18  H23 UNL     1       4.366   2.496   1.081  1.00  0.00     0.157 HD
ENDBRANCH  15  16
ENDBRANCH   8   9
ENDBRANCH   7   8
BRANCH   1  19
HETATM   19  C2  UNL     1      -3.131  -1.328   0.326  1.00  0.00     0.002 C 
HETATM   20  C1  UNL     1      -3.668  -1.895   1.630  1.00  0.00     0.013 C 
HETATM   21  C3  UNL     1      -3.433  -2.307  -0.810  1.00  0.00     0.013 C 
ENDBRANCH   1  19
BRANCH   4  22
HETATM   22  N1  UNL     1      -1.472   3.597  -0.491  1.00  0.00     0.083 N 
HETATM   23  H12 UNL     1      -2.366   3.682  -0.003  1.00  0.00     0.313 HD
HETATM   24  H13 UNL     1      -1.518   3.809  -1.517  1.00  0.00     0.313 HD
ENDBRANCH   4  22
TORSDOF 5
