REMARK  6 active torsions:
REMARK  status: ('A' for Active; 'I' for Inactive)
REMARK    1  A    between atoms: C2_2  and  N1_3 
REMARK    2  A    between atoms: C2_2  and  C3_4 
REMARK    3  A    between atoms: C3_4  and  C4_5 
REMARK    4  A    between atoms: C4_5  and  N2_6 
REMARK    5  A    between atoms: C10_15  and  N6_16 
REMARK    6  A    between atoms: N6_16  and  C11_17 
ROOT
HETATM    1  N2  UNL     1       0.745  -0.436  -0.407  1.00  0.00     0.105 N 
HETATM    2  C5  UNL     1       0.858  -1.596  -1.223  1.00  0.00     0.300 C 
HETATM    3  C6  UNL     1       0.033  -2.745  -0.852  1.00  0.00     0.003 C 
HETATM    4  C7  UNL     1      -0.754  -2.812   0.222  1.00  0.00     0.028 C 
HETATM    5  C8  UNL     1      -0.805  -1.646   1.111  1.00  0.00     0.178 C 
HETATM    6  N3  UNL     1      -0.485  -1.887   2.501  1.00  0.00    -0.278 N 
HETATM    7  N4  UNL     1      -1.730  -2.016   3.173  1.00  0.00    -0.172 NA
HETATM    8  C9  UNL     1      -2.644  -1.508   2.406  1.00  0.00     0.231 C 
HETATM    9  N5  UNL     1      -2.129  -0.995   1.171  1.00  0.00    -0.317 N 
HETATM   10  C10 UNL     1      -1.734  -0.390  -0.111  1.00  0.00     0.222 C 
HETATM   11  C14 UNL     1      -0.341  -0.382   0.494  1.00  0.00     0.319 C 
HETATM   12  H15 UNL     1       0.448  -1.962   2.976  1.00  0.00     0.185 HD
ENDROOT
BRANCH   1  13
HETATM   13  C4  UNL     1       1.981  -0.078   0.258  1.00  0.00     0.275 C 
BRANCH  13  14
HETATM   14  C3  UNL     1       3.023   0.404  -0.735  1.00  0.00     0.065 C 
BRANCH  14  15
HETATM   15  C2  UNL     1       4.262   0.746   0.093  1.00  0.00     0.215 C 
HETATM   16  C1  UNL     1       5.316   1.225  -0.864  1.00  0.00     0.042 C 
BRANCH  15  17
HETATM   17  N1  UNL     1       3.913   1.789   1.046  1.00  0.00     0.082 N 
HETATM   18  H5  UNL     1       4.705   2.445   1.233  1.00  0.00     0.313 HD
HETATM   19  H6  UNL     1       3.202   2.404   0.542  1.00  0.00     0.313 HD
ENDBRANCH  15  17
ENDBRANCH  14  15
ENDBRANCH  13  14
ENDBRANCH   1  13
BRANCH  10  20
HETATM   20  N6  UNL     1      -2.184   0.928  -0.341  1.00  0.00    -0.396 N 
HETATM   21  H18 UNL     1      -1.499   1.664  -0.497  1.00  0.00     0.155 HD
BRANCH  20  22
HETATM   22  C11 UNL     1      -3.447   1.134  -0.912  1.00  0.00     0.070 C 
HETATM   23  C12 UNL     1      -3.695   2.627  -1.008  1.00  0.00     0.031 C 
HETATM   24  C13 UNL     1      -4.611   0.435  -0.310  1.00  0.00     0.031 C 
ENDBRANCH  20  22
ENDBRANCH  10  20
TORSDOF 6
