REMARK  6 active torsions:
REMARK  status: ('A' for Active; 'I' for Inactive)
REMARK    1  A    between atoms: C2_2  and  C4_4 
REMARK    2  A    between atoms: C6_9  and  C7_10 
REMARK    3  A    between atoms: C6_9  and  C9_13 
REMARK    4  A    between atoms: C8_11  and  N4_12 
REMARK    5  A    between atoms: C9_13  and  N5_14 
REMARK    6  A    between atoms: C12_17  and  N6_18 
ROOT
HETATM    1  C4  UNL     1      -2.445  -0.169  -0.522  1.00  0.00     0.052 C 
HETATM    2  N1  UNL     1      -3.237  -1.189  -0.440  1.00  0.00    -0.246 NA
HETATM    3  C5  UNL     1      -3.094  -2.279   0.447  1.00  0.00     0.254 C 
HETATM    4  N2  UNL     1      -2.084  -2.295   1.286  1.00  0.00    -0.171 NA
HETATM    5  N3  UNL     1      -1.210  -1.177   1.225  1.00  0.00    -0.291 N 
HETATM    6  C6  UNL     1      -1.214  -0.066   0.309  1.00  0.00     0.134 C 
HETATM    7  H9  UNL     1      -0.528  -1.316   2.032  1.00  0.00     0.184 HD
ENDROOT
BRANCH   6   8
HETATM    8  C7  UNL     1      -1.402   1.180   1.160  1.00  0.00     0.030 C 
HETATM    9  C8  UNL     1      -1.256   1.314   2.469  1.00  0.00     0.079 C 
BRANCH   9  10
HETATM   10  N4  UNL     1      -1.333   2.239   3.551  1.00  0.00    -0.408 N 
HETATM   11  H12 UNL     1      -2.181   2.355   4.123  1.00  0.00     0.155 HD
HETATM   12  H13 UNL     1      -0.525   2.863   3.829  1.00  0.00     0.155 HD
ENDBRANCH   9  10
ENDBRANCH   6   8
BRANCH   6  13
HETATM   13  C9  UNL     1       0.041   0.057  -0.509  1.00  0.00     0.315 C 
BRANCH  13  14
HETATM   14  N5  UNL     1       1.268   0.156   0.180  1.00  0.00     0.091 N 
HETATM   15  C10 UNL     1       1.790  -0.962   0.863  1.00  0.00     0.274 C 
HETATM   16  C11 UNL     1       3.249  -1.241   0.523  1.00  0.00     0.065 C 
HETATM   17  C12 UNL     1       4.129  -0.041   0.568  1.00  0.00     0.221 C 
HETATM   18  C13 UNL     1       3.470   1.220   0.113  1.00  0.00     0.065 C 
HETATM   19  C14 UNL     1       2.228   0.831  -0.662  1.00  0.00     0.274 C 
BRANCH  17  20
HETATM   20  N6  UNL     1       5.239  -0.314  -0.361  1.00  0.00     0.083 N 
HETATM   21  H21 UNL     1       5.643   0.622  -0.665  1.00  0.00     0.313 HD
HETATM   22  H22 UNL     1       4.818  -0.696  -1.236  1.00  0.00     0.313 HD
ENDBRANCH  17  20
ENDBRANCH  13  14
ENDBRANCH   6  13
BRANCH   1  23
HETATM   23  C2  UNL     1      -2.847   0.829  -1.540  1.00  0.00     0.028 C 
HETATM   24  C1  UNL     1      -1.951   0.951  -2.730  1.00  0.00     0.016 C 
HETATM   25  C3  UNL     1      -4.241   0.540  -2.048  1.00  0.00     0.016 C 
ENDBRANCH   1  23
TORSDOF 6
