REMARK  6 active torsions:
REMARK  status: ('A' for Active; 'I' for Inactive)
REMARK    1  A    between atoms: C2_2  and  C4_4 
REMARK    2  A    between atoms: N1_5  and  C5_6 
REMARK    3  A    between atoms: N2_7  and  C6_8 
REMARK    4  A    between atoms: C8_10  and  N3_11 
REMARK    5  A    between atoms: C10_13  and  C11_14 
REMARK    6  A    between atoms: C12_15  and  N4_16 
ROOT
HETATM    1  C6  UNL     1       0.782  -0.120  -0.737  1.00  0.00     0.205 C 
HETATM    2  C7  UNL     1       0.193  -0.285   0.625  1.00  0.00     0.083 C 
HETATM    3  C8  UNL     1      -0.897   0.662   0.990  1.00  0.00     0.224 C 
HETATM    4  C9  UNL     1      -2.241  -0.012   1.223  1.00  0.00     0.075 C 
HETATM    5  C10 UNL     1      -2.926  -0.477  -0.011  1.00  0.00     0.250 C 
HETATM    6  N5  UNL     1      -2.227  -0.215  -1.230  1.00  0.00     0.109 N 
HETATM    7  C13 UNL     1      -3.080   0.141  -2.333  1.00  0.00     0.312 C 
HETATM    8  C14 UNL     1      -1.235  -1.212  -1.555  1.00  0.00     0.392 C 
HETATM    9  N6  UNL     1      -0.006  -0.561  -1.825  1.00  0.00    -0.376 N 
HETATM   10  H28 UNL     1      -0.109   0.104  -2.608  1.00  0.00     0.157 HD
ENDROOT
BRANCH   1  11
HETATM   11  N2  UNL     1       2.021  -0.878  -0.756  1.00  0.00    -0.258 NA
HETATM   12  C5  UNL     1       3.133  -0.474  -0.254  1.00  0.00     0.228 C 
BRANCH  12  13
HETATM   13  N1  UNL     1       2.964   0.816   0.317  1.00  0.00    -0.258 NA
HETATM   14  C4  UNL     1       3.991   1.349   0.887  1.00  0.00     0.095 C 
BRANCH  14  15
HETATM   15  C2  UNL     1       5.346   0.764   1.017  1.00  0.00     0.018 C 
HETATM   16  C1  UNL     1       5.335  -0.341   2.055  1.00  0.00     0.015 C 
HETATM   17  C3  UNL     1       5.909   0.344  -0.301  1.00  0.00     0.015 C 
ENDBRANCH  14  15
ENDBRANCH  12  13
ENDBRANCH   1  11
BRANCH   3  18
HETATM   18  N3  UNL     1      -1.009   1.833   0.170  1.00  0.00     0.083 N 
HETATM   19  H14 UNL     1      -1.838   2.358   0.484  1.00  0.00     0.313 HD
HETATM   20  H15 UNL     1      -0.885   1.714  -0.837  1.00  0.00     0.313 HD
ENDBRANCH   3  18
BRANCH   5  21
HETATM   21  C11 UNL     1      -4.292   0.110  -0.152  1.00  0.00     0.025 C 
HETATM   22  C12 UNL     1      -5.324  -0.480   0.442  1.00  0.00     0.078 C 
BRANCH  22  23
HETATM   23  N4  UNL     1      -6.667  -0.012   0.377  1.00  0.00    -0.408 N 
HETATM   24  H21 UNL     1      -7.317   0.210   1.167  1.00  0.00     0.155 HD
HETATM   25  H22 UNL     1      -7.504   0.283  -0.193  1.00  0.00     0.155 HD
ENDBRANCH  22  23
ENDBRANCH   5  21
TORSDOF 6
