REMARK  9 active torsions:
REMARK  status: ('A' for Active; 'I' for Inactive)
REMARK    1  A    between atoms: C3_4  and  C4_5 
REMARK    2  A    between atoms: C4_5  and  N1_6 
REMARK    3  A    between atoms: N1_6  and  P1_7 
REMARK    4  A    between atoms: C8_13  and  C9_14 
REMARK    5  A    between atoms: C9_14  and  C10_15 
REMARK    6  A    between atoms: C10_15  and  C11_17 
REMARK       I    between atoms: C11_17  and  N4_19 
REMARK    7  A    between atoms: N4_19  and  C12_20 
REMARK    8  A    between atoms: C12_20  and  C13_21 
REMARK    9  A    between atoms: C13_21  and  N5_22 
ROOT
HETATM    1  C9  UNL     1       1.040   0.593   1.939  1.00  0.00     0.039 C 
ENDROOT
BRANCH   1   2
HETATM    2  C8  UNL     1       2.335   0.091   1.421  1.00  0.00     0.122 A 
HETATM    3  P1  UNL     1       3.064   1.296   0.316  1.00  0.00     0.074 P 
HETATM    4  N2  UNL     1       3.343   0.546  -1.221  1.00  0.00    -0.240 NA
HETATM    5  H7  UNL     1       2.146   2.384   0.204  1.00  0.00     0.101 HD
HETATM    6  C5  UNL     1       3.027  -0.649  -1.436  1.00  0.00     0.233 A 
HETATM    7  N3  UNL     1       2.434  -1.501  -0.509  1.00  0.00    -0.250 NA
HETATM    8  C6  UNL     1       2.130  -1.184   0.700  1.00  0.00     0.025 A 
HETATM    9  C7  UNL     1       1.498  -2.205   1.570  1.00  0.00     0.066 C 
BRANCH   3  10
HETATM   10  N1  UNL     1       4.382   1.929   0.888  1.00  0.00    -0.283 NA
BRANCH  10  11
HETATM   11  C4  UNL     1       5.590   1.275   1.178  1.00  0.00     0.177 C 
BRANCH  11  12
HETATM   12  C3  UNL     1       5.870   0.051   0.417  1.00  0.00     0.014 C 
HETATM   13  C2  UNL     1       6.925  -0.161  -0.390  1.00  0.00     0.005 C 
HETATM   14  C1  UNL     1       7.405  -1.299  -1.244  1.00  0.00     0.061 C 
HETATM   15 CL1  UNL     1       8.032   1.222  -0.488  1.00  0.00    -0.090 Cl
ENDBRANCH  11  12
ENDBRANCH  10  11
ENDBRANCH   3  10
ENDBRANCH   1   2
BRANCH   1  16
HETATM   16  C10 UNL     1      -0.242   0.959   2.112  1.00  0.00     0.181 C 
HETATM   17  F1  UNL     1      -1.217   1.502   2.925  1.00  0.00    -0.201 F 
BRANCH  16  18
HETATM   18  C11 UNL     1      -0.930   0.643   0.848  1.00  0.00     0.279 C 
HETATM   19  O1  UNL     1      -0.160   0.130  -0.030  1.00  0.00    -0.265 OA
HETATM   20  N4  UNL     1      -2.275   0.786   0.392  1.00  0.00    -0.353 N 
HETATM   21  H14 UNL     1      -2.813   1.221   1.193  1.00  0.00     0.162 HD
BRANCH  20  22
HETATM   22  C12 UNL     1      -2.304   0.282  -0.951  1.00  0.00     0.153 C 
BRANCH  22  23
HETATM   23  C13 UNL     1      -3.635   0.340  -1.632  1.00  0.00     0.292 C 
BRANCH  23  24
HETATM   24  N5  UNL     1      -4.692  -0.389  -1.024  1.00  0.00     0.094 N 
HETATM   25  C14 UNL     1      -5.104   0.179   0.214  1.00  0.00     0.298 C 
HETATM   26  C15 UNL     1      -6.591   0.008   0.474  1.00  0.00     0.198 C 
HETATM   27  O2  UNL     1      -6.964  -1.262   0.054  1.00  0.00    -0.388 OA
HETATM   28  C16 UNL     1      -6.928  -1.305  -1.341  1.00  0.00     0.198 C 
HETATM   29  C17 UNL     1      -5.823  -0.442  -1.917  1.00  0.00     0.298 C 
ENDBRANCH  23  24
ENDBRANCH  22  23
ENDBRANCH  20  22
ENDBRANCH  16  18
ENDBRANCH   1  16
TORSDOF 9
