REMARK  6 active torsions:
REMARK  status: ('A' for Active; 'I' for Inactive)
REMARK    1  A    between atoms: C2_2  and  N1_3 
REMARK       I    between atoms: N2_6  and  C5_7 
REMARK    2  A    between atoms: C5_7  and  C6_9 
REMARK    3  A    between atoms: C7_11  and  C8_12 
REMARK    4  A    between atoms: C12_18  and  N5_19 
REMARK    5  A    between atoms: N5_19  and  C13_20 
REMARK    6  A    between atoms: C13_20  and  C14_21 
ROOT
HETATM    1  C8  UNL     1       2.697  -1.610  -0.474  1.00  0.00     0.037 A 
HETATM    2  C9  UNL     1       2.695  -2.954  -0.639  1.00  0.00     0.046 A 
HETATM    3  C10 UNL     1       1.461  -3.603  -1.110  1.00  0.00     0.071 C 
HETATM    4  N3  UNL     1       3.812  -3.655  -0.385  1.00  0.00    -0.246 NA
HETATM    5  C11 UNL     1       4.956  -3.105   0.031  1.00  0.00     0.235 A 
HETATM    6  N4  UNL     1       4.998  -1.765   0.205  1.00  0.00    -0.224 NA
HETATM    7  C12 UNL     1       3.883  -1.021  -0.043  1.00  0.00     0.137 A 
ENDROOT
BRANCH   1   8
HETATM    8  C7  UNL     1       1.627  -0.668  -0.648  1.00  0.00     0.065 C 
HETATM    9  C6  UNL     1       0.395  -0.764  -0.178  1.00  0.00     0.184 C 
HETATM   10  F1  UNL     1      -0.021  -1.816   0.567  1.00  0.00    -0.200 F 
BRANCH   9  11
HETATM   11  C5  UNL     1      -0.570   0.293  -0.451  1.00  0.00     0.283 C 
HETATM   12  N2  UNL     1      -1.916   0.314  -0.001  1.00  0.00    -0.328 N 
HETATM   13  C4  UNL     1      -2.801  -0.509   0.780  1.00  0.00     0.144 C 
HETATM   14  C16 UNL     1      -2.589   1.513  -0.452  1.00  0.00     0.261 C 
HETATM   15  C3  UNL     1      -4.042  -0.785  -0.031  1.00  0.00     0.133 C 
HETATM   16  N1  UNL     1      -4.698   0.459  -0.302  1.00  0.00    -0.233 NA
HETATM   17  N6  UNL     1      -3.954   1.587  -0.073  1.00  0.00    -0.337 N 
HETATM   18  H21 UNL     1      -4.165   1.995   0.844  1.00  0.00     0.176 HD
HETATM   19  O1  UNL     1       0.063   1.129  -1.146  1.00  0.00    -0.265 OA
BRANCH  16  20
HETATM   20  C2  UNL     1      -6.004   0.573   0.280  1.00  0.00     0.109 C 
HETATM   21  C1  UNL     1      -6.665   1.897  -0.067  1.00  0.00     0.022 C 
ENDBRANCH  16  20
ENDBRANCH   9  11
ENDBRANCH   1   8
BRANCH   7  22
HETATM   22  N5  UNL     1       4.082   0.388   0.201  1.00  0.00    -0.370 N 
HETATM   23  H15 UNL     1       3.239   0.965   0.023  1.00  0.00     0.161 HD
BRANCH  22  24
HETATM   24  C13 UNL     1       5.267   1.053   0.644  1.00  0.00     0.150 C 
BRANCH  24  25
HETATM   25  C14 UNL     1       5.036   2.528   0.776  1.00  0.00     0.024 C 
HETATM   26  C15 UNL     1       5.683   3.486   0.114  1.00  0.00     0.078 C 
HETATM   27 CL1  UNL     1       6.893   2.817  -0.982  1.00  0.00    -0.076 Cl
HETATM   28 BR1  UNL     1       5.066   5.250   0.591  1.00  0.00    -0.038 Br
ENDBRANCH  24  25
ENDBRANCH  22  24
ENDBRANCH   7  22
TORSDOF 6
