REMARK  9 active torsions:
REMARK  status: ('A' for Active; 'I' for Inactive)
REMARK    1  A    between atoms: C2_2  and  C3_3 
REMARK    2  A    between atoms: C3_3  and  C4_5 
REMARK    3  A    between atoms: C4_5  and  C5_6 
REMARK    4  A    between atoms: C5_6  and  O1_7 
REMARK    5  A    between atoms: O1_7  and  C6_8 
REMARK    6  A    between atoms: C16_21  and  C17_23 
REMARK    7  A    between atoms: C17_23  and  N4_24 
REMARK    8  A    between atoms: N4_24  and  C18_25 
REMARK    9  A    between atoms: C18_25  and  S1_26 
ROOT
HETATM    1  C6  UNL     1       1.390  -1.067   0.079  1.00  0.00     0.082 C 
HETATM    2  C7  UNL     1       2.528  -1.747   0.145  1.00  0.00     0.039 C 
HETATM    3  C8  UNL     1       2.965  -3.143   0.300  1.00  0.00     0.020 C 
HETATM    4  C9  UNL     1       2.352  -4.312   0.311  1.00  0.00     0.090 C 
HETATM    5  N1  UNL     1       1.045  -4.874   0.194  1.00  0.00    -0.350 N 
HETATM    6  C10 UNL     1      -0.138  -4.220  -0.317  1.00  0.00     0.142 A 
HETATM    7  N2  UNL     1      -0.885  -5.204  -0.848  1.00  0.00    -0.224 NA
HETATM    8  C11 UNL     1      -2.053  -4.794  -1.428  1.00  0.00     0.235 A 
HETATM    9  N3  UNL     1      -2.494  -3.498  -1.502  1.00  0.00    -0.246 NA
HETATM   10  C12 UNL     1      -1.767  -2.492  -0.980  1.00  0.00     0.047 A 
HETATM   11  C13 UNL     1      -2.054  -1.069  -1.057  1.00  0.00     0.071 C 
HETATM   12  C14 UNL     1      -0.589  -2.892  -0.389  1.00  0.00     0.050 A 
HETATM   13  C15 UNL     1       0.012  -1.645   0.162  1.00  0.00     0.049 C 
HETATM   14  C16 UNL     1      -0.978  -1.015   0.867  1.00  0.00     0.125 C 
HETATM   15  F2  UNL     1      -2.315  -1.166   1.208  1.00  0.00    -0.208 F 
HETATM   16  H12 UNL     1       0.861  -5.848   0.484  1.00  0.00     0.166 HD
ENDROOT
BRANCH   1  17
HETATM   17  O1  UNL     1       1.214   0.286  -0.074  1.00  0.00    -0.350 OA
BRANCH  17  18
HETATM   18  C5  UNL     1       2.267   1.112  -0.429  1.00  0.00     0.178 C 
BRANCH  18  19
HETATM   19  C4  UNL     1       1.852   2.556  -0.619  1.00  0.00     0.068 C 
BRANCH  19  20
HETATM   20  C3  UNL     1       3.129   3.316  -1.003  1.00  0.00     0.194 C 
HETATM   21  F1  UNL     1       3.591   2.757  -2.156  1.00  0.00    -0.245 F 
BRANCH  20  22
HETATM   22  C2  UNL     1       4.127   3.190   0.073  1.00  0.00    -0.000 C 
HETATM   23  C1  UNL     1       5.280   2.517   0.120  1.00  0.00     0.010 C 
ENDBRANCH  20  22
ENDBRANCH  19  20
ENDBRANCH  18  19
ENDBRANCH  17  18
ENDBRANCH   1  17
BRANCH  14  24
HETATM   24  C17 UNL     1      -0.869   0.229   1.672  1.00  0.00     0.186 C 
BRANCH  24  25
HETATM   25  N4  UNL     1      -1.641   1.346   1.293  1.00  0.00    -0.403 N 
HETATM   26  H19 UNL     1      -1.179   2.264   1.333  1.00  0.00     0.154 HD
BRANCH  25  27
HETATM   27  C18 UNL     1      -3.045   1.318   1.440  1.00  0.00     0.255 C 
BRANCH  27  28
HETATM   28  S1  UNL     1      -3.616   2.965   0.959  1.00  0.00     0.156 S 
HETATM   29  C19 UNL     1      -5.360   3.094   1.086  1.00  0.00     0.163 C 
HETATM   30  O2  UNL     1      -3.187   3.260  -0.432  1.00  0.00    -0.227 OA
HETATM   31  O3  UNL     1      -3.008   3.914   1.963  1.00  0.00    -0.227 OA
ENDBRANCH  27  28
ENDBRANCH  25  27
ENDBRANCH  24  25
ENDBRANCH  14  24
TORSDOF 9
