REMARK  10 active torsions:
REMARK  status: ('A' for Active; 'I' for Inactive)
REMARK    1  A    between atoms: C3_3  and  N1_4 
REMARK    2  A    between atoms: C3_3  and  C16_21 
REMARK    3  A    between atoms: N1_4  and  C4_5 
REMARK    4  A    between atoms: C8_11  and  C9_12 
REMARK    5  A    between atoms: C9_12  and  C10_13 
REMARK    6  A    between atoms: C10_13  and  C11_14 
REMARK    7  A    between atoms: C11_14  and  C12_15 
REMARK    8  A    between atoms: C16_21  and  C18_23 
REMARK    9  A    between atoms: C18_23  and  O2_24 
REMARK   10  A    between atoms: O2_24  and  C19_25 
ROOT
HETATM    1  C4  UNL     1      -0.849  -2.441  -1.072  1.00  0.00     0.150 A 
HETATM    2  N2  UNL     1      -0.097  -3.362  -1.725  1.00  0.00    -0.223 NA
HETATM    3  C5  UNL     1      -0.550  -4.561  -2.057  1.00  0.00     0.235 A 
HETATM    4  N3  UNL     1      -1.809  -5.030  -1.785  1.00  0.00    -0.245 NA
HETATM    5  C6  UNL     1      -2.639  -4.159  -1.127  1.00  0.00     0.054 A 
HETATM    6  C7  UNL     1      -4.004  -4.636  -0.725  1.00  0.00     0.072 C 
HETATM    7  C8  UNL     1      -2.097  -2.924  -0.826  1.00  0.00     0.087 A 
ENDROOT
BRANCH   1   8
HETATM    8  N1  UNL     1      -0.387  -1.209  -0.532  1.00  0.00    -0.343 N 
HETATM    9  H5  UNL     1      -0.891  -0.327  -0.514  1.00  0.00     0.167 HD
BRANCH   8  10
HETATM   10  C3  UNL     1       0.967  -1.366   0.032  1.00  0.00     0.012 C 
HETATM   11  C2  UNL     1       1.409  -2.627   0.407  1.00  0.00    -0.006 C 
HETATM   12  C1  UNL     1       1.313  -4.089   0.601  1.00  0.00     0.038 C 
BRANCH  10  13
HETATM   13  C16 UNL     1       2.001  -0.396   0.389  1.00  0.00     0.055 C 
HETATM   14  C17 UNL     1       1.436   0.661   1.346  1.00  0.00     0.018 C 
BRANCH  13  15
HETATM   15  C18 UNL     1       2.640   0.346  -0.811  1.00  0.00     0.186 C 
BRANCH  15  16
HETATM   16  O2  UNL     1       3.616   1.152  -0.408  1.00  0.00    -0.350 OA
BRANCH  16  17
HETATM   17  C19 UNL     1       4.548   1.924  -0.021  1.00  0.00     0.069 A 
HETATM   18  C20 UNL     1       4.234   2.990   0.787  1.00  0.00     0.037 A 
HETATM   19  C21 UNL     1       5.216   3.866   1.256  1.00  0.00     0.003 A 
HETATM   20  C22 UNL     1       6.501   3.640   0.902  1.00  0.00     0.007 A 
HETATM   21  C23 UNL     1       6.936   2.586   0.087  1.00  0.00    -0.059 A 
HETATM   22  C24 UNL     1       8.381   2.420  -0.201  1.00  0.00     0.048 C 
HETATM   23  C25 UNL     1       5.897   1.762  -0.340  1.00  0.00     0.043 A 
ENDBRANCH  16  17
ENDBRANCH  15  16
ENDBRANCH  13  15
ENDBRANCH  10  13
ENDBRANCH   8  10
ENDBRANCH   1   8
BRANCH   7  24
HETATM   24  C9  UNL     1      -3.189  -2.022  -0.434  1.00  0.00    -0.061 C 
BRANCH  24  25
HETATM   25  C10 UNL     1      -4.120  -1.261  -0.126  1.00  0.00    -0.099 C 
BRANCH  25  26
HETATM   26  C11 UNL     1      -5.216  -0.381   0.211  1.00  0.00     0.132 C 
BRANCH  26  27
HETATM   27  C12 UNL     1      -4.771   0.861   0.876  1.00  0.00     0.255 C 
HETATM   28  C13 UNL     1      -6.059   1.696   1.067  1.00  0.00     0.204 C 
HETATM   29  O1  UNL     1      -6.289   2.447  -0.087  1.00  0.00    -0.387 OA
HETATM   30  C14 UNL     1      -5.365   3.468  -0.232  1.00  0.00     0.197 C 
HETATM   31  C15 UNL     1      -4.070   3.019   0.432  1.00  0.00     0.296 C 
HETATM   32  N4  UNL     1      -3.874   1.631   0.066  1.00  0.00     0.093 N 
HETATM   33  H19 UNL     1      -4.152   1.561  -0.934  1.00  0.00     0.316 HD
ENDBRANCH  26  27
ENDBRANCH  25  26
ENDBRANCH  24  25
ENDBRANCH   7  24
TORSDOF 10
