REMARK  1 active torsions:
REMARK  status: ('A' for Active; 'I' for Inactive)
REMARK    1  A    between atoms: C9_14  and  N5_15 
ROOT
HETATM    1  C1  UNL     1      -3.113  -3.076  -0.147  1.00  0.00     0.050 C 
HETATM    2  C2  UNL     1      -2.458  -1.989   0.721  1.00  0.00     0.274 C 
HETATM    3  N1  UNL     1      -1.304  -1.443   0.022  1.00  0.00     0.095 N 
HETATM    4  C3  UNL     1      -0.322  -2.480  -0.245  1.00  0.00     0.287 C 
HETATM    5  C4  UNL     1       0.841  -1.866  -0.986  1.00  0.00     0.150 C 
HETATM    6  N2  UNL     1       1.467  -0.807  -0.229  1.00  0.00    -0.195 NA
HETATM    7  C5  UNL     1       2.349  -0.024  -1.033  1.00  0.00     0.130 C 
HETATM    8  C6  UNL     1       3.281   0.859  -0.259  1.00  0.00     0.043 C 
HETATM    9  C7  UNL     1       2.742   2.234  -0.079  1.00  0.00     0.097 C 
HETATM   10  N3  UNL     1       1.792   2.541  -0.892  1.00  0.00    -0.257 NA
HETATM   11  C8  UNL     1       1.126   3.769  -0.921  1.00  0.00     0.241 C 
HETATM   12  N4  UNL     1      -0.118   3.587  -0.635  1.00  0.00    -0.203 NA
HETATM   13  S1  UNL     1      -0.723   1.964  -0.285  1.00  0.00     0.029 SA
HETATM   14  C9  UNL     1      -2.410   2.167   0.335  1.00  0.00     0.083 C 
HETATM   15  C10 UNL     1      -3.510   1.623   0.798  1.00  0.00     0.024 C 
HETATM   16  C11 UNL     1      -3.083   0.231   0.760  1.00  0.00     0.085 C 
HETATM   17  C12 UNL     1      -3.499  -1.023   1.029  1.00  0.00     0.113 C 
HETATM   18  F1  UNL     1      -4.440  -1.925   1.468  1.00  0.00    -0.212 F 
HETATM   19  C13 UNL     1       3.622   0.304   1.103  1.00  0.00     0.039 C 
HETATM   20  C14 UNL     1       3.343  -1.201   0.975  1.00  0.00     0.194 C 
HETATM   21  O1  UNL     1       1.958  -1.290   0.890  1.00  0.00    -0.303 OA
HETATM   22  H5  UNL     1      -0.833  -0.832   0.758  1.00  0.00     0.316 HD
ENDROOT
BRANCH  14  23
HETATM   23  N5  UNL     1      -2.188   3.581   0.130  1.00  0.00    -0.393 N 
HETATM   24  H15 UNL     1      -1.842   4.485   0.567  1.00  0.00     0.156 HD
HETATM   25  H16 UNL     1      -2.257   4.396  -0.524  1.00  0.00     0.156 HD
ENDBRANCH  14  23
TORSDOF 1
