REMARK  7 active torsions:
REMARK  status: ('A' for Active; 'I' for Inactive)
REMARK    1  A    between atoms: C6_7  and  C7_8 
REMARK    2  A    between atoms: C7_8  and  C8_9 
REMARK    3  A    between atoms: C9_10  and  C10_11 
REMARK    4  A    between atoms: N2_13  and  C12_14 
REMARK    5  A    between atoms: C15_17  and  O1_18 
REMARK    6  A    between atoms: O1_18  and  C16_19 
REMARK    7  A    between atoms: C16_19  and  C17_20 
ROOT
HETATM    1  C10 UNL     1      -1.092  -0.854  -1.086  1.00  0.00     0.105 A 
HETATM    2  C11 UNL     1       0.146  -0.611  -0.683  1.00  0.00     0.158 A 
HETATM    3  N2  UNL     1       1.194  -0.461  -1.628  1.00  0.00    -0.241 N 
HETATM    4  N3  UNL     1       0.888  -0.577  -2.985  1.00  0.00    -0.163 NA
HETATM    5  C23 UNL     1      -0.305  -0.813  -3.416  1.00  0.00     0.230 A 
HETATM    6  N4  UNL     1      -1.363  -0.964  -2.477  1.00  0.00    -0.341 N 
HETATM    7  H24 UNL     1      -2.288  -1.152  -2.926  1.00  0.00     0.167 HD
ENDROOT
BRANCH   3   8
HETATM    8  C12 UNL     1       2.536  -0.200  -1.244  1.00  0.00     0.059 A 
HETATM    9  C13 UNL     1       2.967  -0.064   0.056  1.00  0.00     0.034 A 
HETATM   10  C14 UNL     1       4.282   0.190   0.390  1.00  0.00     0.041 A 
HETATM   11  C15 UNL     1       5.236   0.320  -0.590  1.00  0.00     0.091 A 
HETATM   12  C21 UNL     1       4.851   0.192  -1.909  1.00  0.00     0.069 A 
HETATM   13 CL1  UNL     1       6.033   0.350  -3.189  1.00  0.00    -0.081 Cl
HETATM   14  C22 UNL     1       3.526  -0.062  -2.192  1.00  0.00     0.058 A 
BRANCH  11  15
HETATM   15  O1  UNL     1       6.560   0.573  -0.309  1.00  0.00    -0.345 OA
BRANCH  15  16
HETATM   16  C16 UNL     1       7.034   0.718   1.018  1.00  0.00     0.214 C 
BRANCH  16  17
HETATM   17  C17 UNL     1       8.501   0.984   1.007  1.00  0.00    -0.028 A 
HETATM   18  C18 UNL     1       9.387   1.103   0.033  1.00  0.00     0.051 A 
HETATM   19  C19 UNL     1      10.462   1.340   0.968  1.00  0.00     0.117 A 
HETATM   20  F1  UNL     1      11.791   1.578   0.886  1.00  0.00    -0.206 F 
HETATM   21  C20 UNL     1       9.570   1.220   1.941  1.00  0.00     0.051 A 
ENDBRANCH  16  17
ENDBRANCH  15  16
ENDBRANCH  11  15
ENDBRANCH   3   8
BRANCH   1  22
HETATM   22  C9  UNL     1      -2.205  -1.017  -0.194  1.00  0.00    -0.047 C 
HETATM   23  C8  UNL     1      -3.124  -1.143   0.556  1.00  0.00    -0.097 C 
BRANCH  23  24
HETATM   24  C7  UNL     1      -4.250  -1.277   1.480  1.00  0.00     0.130 C 
BRANCH  24  25
HETATM   25  C6  UNL     1      -4.906   0.060   1.685  1.00  0.00     0.235 C 
HETATM   26  C2  UNL     1      -5.445   0.680   0.440  1.00  0.00     0.015 C 
HETATM   27  C1  UNL     1      -4.441   1.418  -0.379  1.00  0.00     0.012 C 
HETATM   28  C3  UNL     1      -6.169  -0.406  -0.322  1.00  0.00     0.008 C 
HETATM   29  C4  UNL     1      -7.376  -0.751   0.524  1.00  0.00     0.030 C 
HETATM   30  C5  UNL     1      -7.071  -0.991   1.963  1.00  0.00     0.270 C 
HETATM   31  N1  UNL     1      -6.050  -0.183   2.547  1.00  0.00     0.089 N 
HETATM   32  H11 UNL     1      -6.400   0.694   2.966  1.00  0.00     0.316 HD
ENDBRANCH  24  25
ENDBRANCH  23  24
ENDBRANCH   1  22
TORSDOF 7
