REMARK  6 active torsions:
REMARK  status: ('A' for Active; 'I' for Inactive)
REMARK    1  A    between atoms: C1_2  and  O2_3 
REMARK       I    between atoms: C1_2  and  N1_4 
REMARK    2  A    between atoms: N1_4  and  C2_5 
REMARK    3  A    between atoms: C2_5  and  C3_6 
REMARK    4  A    between atoms: C3_6  and  C4_7 
REMARK    5  A    between atoms: C9_13  and  N3_14 
REMARK    6  A    between atoms: N3_14  and  C10_15 
ROOT
HETATM    1  C4  UNL     1       2.789   0.048   0.582  1.00  0.00     0.042 C 
HETATM    2  C5  UNL     1       1.545  -0.436   0.404  1.00  0.00     0.057 C 
HETATM    3  C6  UNL     1       0.769  -1.147   1.443  1.00  0.00     0.084 C 
HETATM    4  C7  UNL     1      -0.607  -0.634   1.685  1.00  0.00     0.126 C 
HETATM    5  N2  UNL     1      -1.528  -0.829   0.584  1.00  0.00    -0.383 N 
HETATM    6  C8  UNL     1      -1.362  -0.213  -0.710  1.00  0.00     0.128 A 
HETATM    7  C9  UNL     1      -2.548   0.104  -1.337  1.00  0.00     0.160 A 
HETATM    8  N4  UNL     1      -2.508   0.676  -2.548  1.00  0.00    -0.222 NA
HETATM    9  C14 UNL     1      -1.390   0.974  -3.220  1.00  0.00     0.238 A 
HETATM   10  N5  UNL     1      -0.228   0.662  -2.603  1.00  0.00    -0.215 NA
HETATM   11  C15 UNL     1      -0.186   0.085  -1.384  1.00  0.00     0.201 A 
HETATM   12  O3  UNL     1       1.118  -0.159  -0.913  1.00  0.00    -0.294 OA
HETATM   13  H8  UNL     1      -2.403  -1.416   0.565  1.00  0.00     0.159 HD
ENDROOT
BRANCH   1  14
HETATM   14  C3  UNL     1       3.561   0.757  -0.456  1.00  0.00     0.079 C 
BRANCH  14  15
HETATM   15  C2  UNL     1       4.236  -0.166  -1.123  1.00  0.00    -0.009 C 
BRANCH  15  16
HETATM   16  N1  UNL     1       5.213  -0.769  -1.714  1.00  0.00    -0.143 NA
HETATM   17  C1  UNL     1       6.428  -1.017  -0.983  1.00  0.00     0.285 C 
HETATM   18  O1  UNL     1       6.442  -1.051   0.250  1.00  0.00    -0.630 OA
BRANCH  17  19
HETATM   19  O2  UNL     1       7.642  -1.231  -1.620  1.00  0.00    -0.758 OA
HETATM   20  H1  UNL     1       8.532  -0.908  -1.280  1.00  0.00     0.169 HD
ENDBRANCH  17  19
ENDBRANCH  15  16
ENDBRANCH  14  15
ENDBRANCH   1  14
BRANCH   7  21
HETATM   21  N3  UNL     1      -3.775  -0.172  -0.683  1.00  0.00    -0.339 N 
HETATM   22  H9  UNL     1      -4.381  -0.709  -1.370  1.00  0.00     0.167 HD
BRANCH  21  23
HETATM   23  C10 UNL     1      -4.251   0.137   0.622  1.00  0.00     0.036 A 
HETATM   24  C11 UNL     1      -4.555  -0.036   1.890  1.00  0.00     0.048 A 
HETATM   25  C12 UNL     1      -5.048   1.351   1.992  1.00  0.00     0.015 A 
HETATM   26 BR1  UNL     1      -5.684   1.770   3.757  1.00  0.00    -0.051 Br
HETATM   27  C13 UNL     1      -4.739   1.511   0.719  1.00  0.00     0.048 A 
ENDBRANCH  21  23
ENDBRANCH   7  21
TORSDOF 6
