REMARK  5 active torsions:
REMARK  status: ('A' for Active; 'I' for Inactive)
REMARK    1  A    between atoms: C5_6  and  C6_7 
REMARK    2  A    between atoms: C6_7  and  C7_8 
REMARK    3  A    between atoms: C10_11  and  C11_12 
REMARK    4  A    between atoms: C11_12  and  N1_13 
REMARK    5  A    between atoms: C12_14  and  N2_15 
ROOT
HETATM    1  C7  UNL     1      -0.882   1.167  -0.678  1.00  0.00    -0.032 A 
HETATM    2  C8  UNL     1      -0.449   1.857   0.462  1.00  0.00     0.010 A 
HETATM    3  C9  UNL     1       0.847   1.794   0.924  1.00  0.00     0.009 A 
HETATM    4  C10 UNL     1       1.778   1.036   0.269  1.00  0.00    -0.037 A 
HETATM    5  C14 UNL     1       1.398   0.332  -0.866  1.00  0.00     0.033 A 
HETATM    6  C15 UNL     1       0.096   0.426  -1.289  1.00  0.00     0.041 A 
HETATM    7 CL2  UNL     1      -0.399  -0.443  -2.722  1.00  0.00    -0.084 Cl
ENDROOT
BRANCH   1   8
HETATM    8  C6  UNL     1      -2.292   1.352  -1.001  1.00  0.00     0.078 C 
BRANCH   8   9
HETATM    9  C5  UNL     1      -3.094   0.183  -0.572  1.00  0.00    -0.051 A 
HETATM   10  C4  UNL     1      -3.428   0.218   0.787  1.00  0.00     0.007 A 
HETATM   11  C3  UNL     1      -4.184  -0.756   1.443  1.00  0.00     0.004 A 
HETATM   12  C2  UNL     1      -4.603  -1.811   0.624  1.00  0.00     0.042 A 
HETATM   13  C1  UNL     1      -4.307  -1.904  -0.719  1.00  0.00     0.116 A 
HETATM   14  F1  UNL     1      -4.713  -2.924  -1.499  1.00  0.00    -0.206 F 
HETATM   15  C16 UNL     1      -3.557  -0.897  -1.279  1.00  0.00     0.049 A 
ENDBRANCH   8   9
ENDBRANCH   1   8
BRANCH   4  16
HETATM   16  C11 UNL     1       3.207   0.909   0.701  1.00  0.00     0.188 C 
BRANCH  16  17
HETATM   17  N1  UNL     1       3.335  -0.209   1.613  1.00  0.00    -0.278 NA
HETATM   18  C12 UNL     1       4.098  -1.194   1.225  1.00  0.00     0.227 C 
BRANCH  18  19
HETATM   19  N2  UNL     1       4.978  -1.875   0.312  1.00  0.00    -0.243 NA
HETATM   20  C13 UNL     1       6.048  -1.201  -0.033  1.00  0.00     0.202 C 
HETATM   21 CL1  UNL     1       7.273  -1.808  -1.132  1.00  0.00    -0.076 Cl
ENDBRANCH  18  19
ENDBRANCH  16  17
ENDBRANCH   4  16
TORSDOF 5
