REMARK  7 active torsions:
REMARK  status: ('A' for Active; 'I' for Inactive)
REMARK    1  A    between atoms: C4_6  and  N3_7 
REMARK    2  A    between atoms: N3_7  and  C5_8 
REMARK    3  A    between atoms: C8_11  and  C9_12 
REMARK    4  A    between atoms: C14_18  and  O1_19 
REMARK    5  A    between atoms: C17_23  and  C18_24 
REMARK    6  A    between atoms: C19_25  and  C20_26 
REMARK    7  A    between atoms: C20_26  and  N4_27 
ROOT
HETATM    1  N3  UNL     1      -0.265  -0.158  -0.224  1.00  0.00    -0.340 N 
HETATM    2  H5  UNL     1       0.327   0.277  -0.971  1.00  0.00     0.167 HD
ENDROOT
BRANCH   1   3
HETATM    3  C4  UNL     1       0.351  -0.906   0.814  1.00  0.00     0.150 A 
HETATM    4  N2  UNL     1      -0.372  -1.553   1.733  1.00  0.00    -0.223 NA
HETATM    5  C3  UNL     1       0.225  -2.249   2.703  1.00  0.00     0.235 A 
HETATM    6  N1  UNL     1       1.566  -2.299   2.757  1.00  0.00    -0.245 NA
HETATM    7  C2  UNL     1       2.336  -1.671   1.864  1.00  0.00     0.054 A 
HETATM    8  C1  UNL     1       3.805  -1.782   1.996  1.00  0.00     0.072 C 
HETATM    9  C17 UNL     1       1.726  -0.958   0.869  1.00  0.00     0.088 A 
BRANCH   9  10
HETATM   10  C18 UNL     1       2.593  -0.287  -0.069  1.00  0.00    -0.059 C 
HETATM   11  C19 UNL     1       3.313   0.274  -0.856  1.00  0.00    -0.071 C 
BRANCH  11  12
HETATM   12  C20 UNL     1       4.192   0.977  -1.809  1.00  0.00     0.366 C 
BRANCH  12  13
HETATM   13  N4  UNL     1       5.586   0.910  -1.438  1.00  0.00     0.103 N 
HETATM   14  C21 UNL     1       5.766   1.694  -0.232  1.00  0.00     0.299 C 
HETATM   15  C22 UNL     1       6.962   1.217   0.575  1.00  0.00     0.198 C 
HETATM   16  O2  UNL     1       7.932   0.660  -0.250  1.00  0.00    -0.388 OA
HETATM   17  C23 UNL     1       7.453  -0.496  -0.815  1.00  0.00     0.198 C 
HETATM   18  C24 UNL     1       5.968  -0.455  -1.079  1.00  0.00     0.299 C 
ENDBRANCH  12  13
ENDBRANCH  11  12
ENDBRANCH   9  10
ENDBRANCH   1   3
BRANCH   1  19
HETATM   19  C5  UNL     1      -1.646   0.100  -0.415  1.00  0.00     0.035 A 
HETATM   20  C6  UNL     1      -2.204   0.478  -1.624  1.00  0.00     0.030 A 
HETATM   21  C7  UNL     1      -3.536   0.736  -1.790  1.00  0.00     0.012 A 
HETATM   22  C8  UNL     1      -4.421   0.632  -0.737  1.00  0.00    -0.022 A 
HETATM   23  C15 UNL     1      -3.925   0.259   0.496  1.00  0.00     0.043 A 
HETATM   24 CL1  UNL     1      -5.030   0.119   1.847  1.00  0.00    -0.084 Cl
HETATM   25  C16 UNL     1      -2.571   0.011   0.601  1.00  0.00     0.054 A 
BRANCH  22  26
HETATM   26  C9  UNL     1      -5.863   0.928  -0.950  1.00  0.00     0.102 C 
HETATM   27  C10 UNL     1      -6.283   1.823   0.190  1.00  0.00    -0.014 C 
HETATM   28  C11 UNL     1      -7.405   1.584   0.850  1.00  0.00    -0.023 C 
HETATM   29  C12 UNL     1      -8.372   0.486   0.611  1.00  0.00     0.099 C 
HETATM   30  C13 UNL     1      -7.761  -0.552  -0.219  1.00  0.00     0.127 C 
HETATM   31  F1  UNL     1      -8.402  -1.738  -0.242  1.00  0.00    -0.208 F 
HETATM   32  C14 UNL     1      -6.653  -0.333  -0.899  1.00  0.00     0.090 C 
BRANCH  32  33
HETATM   33  O1  UNL     1      -6.131  -1.367  -1.667  1.00  0.00    -0.361 OA
HETATM   34  H13 UNL     1      -5.789  -2.226  -1.215  1.00  0.00     0.217 HD
ENDBRANCH  32  33
ENDBRANCH  22  26
ENDBRANCH   1  19
TORSDOF 7
