REMARK  6 active torsions:
REMARK  status: ('A' for Active; 'I' for Inactive)
REMARK    1  A    between atoms: C2_2  and  C3_3 
REMARK    2  A    between atoms: C5_6  and  N2_7 
REMARK    3  A    between atoms: N2_7  and  C6_8 
REMARK    4  A    between atoms: C7_9  and  N3_10 
REMARK    5  A    between atoms: C20_25  and  C21_26 
REMARK    6  A    between atoms: C22_27  and  N4_28 
ROOT
HETATM    1  C6  UNL     1      -0.917   1.710  -0.324  1.00  0.00     0.035 C 
HETATM    2  C7  UNL     1      -0.931   1.390   0.966  1.00  0.00     0.029 C 
HETATM    3  C8  UNL     1      -2.398   1.226   1.304  1.00  0.00     0.100 C 
HETATM    4  C9  UNL     1      -2.943  -0.071   1.655  1.00  0.00    -0.005 A 
HETATM    5  C10 UNL     1      -2.491  -0.630   2.849  1.00  0.00     0.123 A 
HETATM    6  F1  UNL     1      -1.707  -0.011   3.715  1.00  0.00    -0.206 F 
HETATM    7  C11 UNL     1      -3.023  -1.969   3.113  1.00  0.00     0.043 A 
HETATM    8  C12 UNL     1      -3.850  -2.410   2.171  1.00  0.00     0.004 A 
HETATM    9  C13 UNL     1      -4.320  -1.887   0.992  1.00  0.00     0.010 A 
HETATM   10  C14 UNL     1      -3.805  -0.601   0.731  1.00  0.00    -0.025 A 
HETATM   11  C15 UNL     1      -4.442  -0.147  -0.564  1.00  0.00     0.207 C 
HETATM   12  O1  UNL     1      -4.030  -1.120  -1.537  1.00  0.00    -0.382 OA
HETATM   13  C16 UNL     1      -2.647  -1.050  -1.498  1.00  0.00     0.202 C 
HETATM   14  C17 UNL     1      -2.182   0.208  -2.179  1.00  0.00    -0.059 C 
HETATM   15  C18 UNL     1      -2.517   0.333  -3.625  1.00  0.00     0.046 C 
HETATM   16  C19 UNL     1      -1.550   1.032  -1.416  1.00  0.00     0.030 C 
ENDROOT
BRANCH   1  17
HETATM   17  N2  UNL     1       0.254   2.433  -0.664  1.00  0.00    -0.259 NA
HETATM   18  H8  UNL     1      -0.139   3.352  -0.275  1.00  0.00     0.133 HD
BRANCH  17  19
HETATM   19  C5  UNL     1       1.212   3.365  -0.850  1.00  0.00     0.031 A 
HETATM   20  C4  UNL     1       2.251   4.369  -1.051  1.00  0.00     0.202 A 
HETATM   21  N1  UNL     1       3.466   3.870  -0.905  1.00  0.00    -0.287 NA
HETATM   22  C3  UNL     1       3.946   2.826  -0.665  1.00  0.00     0.049 A 
HETATM   23  C20 UNL     1       2.333   2.535  -0.645  1.00  0.00     0.062 A 
BRANCH  22  24
HETATM   24  C2  UNL     1       4.674   1.514  -0.359  1.00  0.00     0.056 C 
HETATM   25  C1  UNL     1       6.132   1.895  -0.441  1.00  0.00     0.011 C 
ENDBRANCH  22  24
BRANCH  23  26
HETATM   26  C21 UNL     1       2.085   0.901  -0.290  1.00  0.00    -0.040 C 
HETATM   27  C22 UNL     1       1.936  -0.237  -0.041  1.00  0.00     0.014 C 
BRANCH  27  28
HETATM   28  N4  UNL     1       1.760  -1.606   0.288  1.00  0.00    -0.337 N 
HETATM   29  C23 UNL     1       2.966  -2.346   0.582  1.00  0.00     0.159 C 
HETATM   30  C24 UNL     1       2.852  -3.720   0.016  1.00  0.00     0.188 C 
HETATM   31  O2  UNL     1       1.607  -4.160  -0.224  1.00  0.00    -0.388 OA
HETATM   32  C25 UNL     1       0.525  -3.601   0.371  1.00  0.00     0.188 C 
HETATM   33  C26 UNL     1       0.403  -2.102   0.305  1.00  0.00     0.159 C 
ENDBRANCH  27  28
ENDBRANCH  23  26
ENDBRANCH  17  19
ENDBRANCH   1  17
BRANCH   2  34
HETATM   34  N3  UNL     1      -0.153   1.496   2.134  1.00  0.00    -0.401 N 
HETATM   35  H9  UNL     1       0.005   2.459   2.519  1.00  0.00     0.156 HD
HETATM   36  H10 UNL     1       0.324   0.643   2.562  1.00  0.00     0.156 HD
ENDBRANCH   2  34
TORSDOF 6
