REMARK  3 active torsions:
REMARK  status: ('A' for Active; 'I' for Inactive)
REMARK    1  A    between atoms: C3_3  and  C4_4 
REMARK    2  A    between atoms: C11_14  and  O1_15 
REMARK    3  A    between atoms: O1_15  and  C12_16 
ROOT
HETATM    1  C1  UNL     1      -4.403  -0.779   2.651  1.00  0.00     0.112 C 
HETATM    2  C2  UNL     1      -3.592  -0.623   1.445  1.00  0.00    -0.105 C 
HETATM    3  C3  UNL     1      -2.921  -0.502   0.410  1.00  0.00    -0.061 C 
ENDROOT
BRANCH   3   4
HETATM    4  C4  UNL     1      -2.095  -0.326  -0.853  1.00  0.00     0.089 A 
HETATM    5  C5  UNL     1      -1.481  -1.510  -0.915  1.00  0.00     0.081 A 
HETATM    6  N1  UNL     1      -1.138  -1.376  -2.208  1.00  0.00    -0.243 NA
HETATM    7  C19 UNL     1      -1.157  -2.521   0.060  1.00  0.00     0.167 A 
HETATM    8  C6  UNL     1      -1.434  -0.288  -2.983  1.00  0.00     0.235 A 
HETATM    9  N2  UNL     1      -2.109   0.770  -2.524  1.00  0.00    -0.223 NA
HETATM   10  C7  UNL     1      -2.564   0.885  -1.272  1.00  0.00     0.146 A 
HETATM   11  N3  UNL     1      -3.175   1.919  -0.584  1.00  0.00    -0.370 N 
HETATM   12  C8  UNL     1      -1.924   2.578  -0.056  1.00  0.00     0.148 C 
HETATM   13  H5  UNL     1      -4.109   1.577  -0.876  1.00  0.00     0.161 HD
HETATM   14  C9  UNL     1      -1.035   1.576   0.567  1.00  0.00    -0.008 C 
HETATM   15  C10 UNL     1      -0.253   0.732   1.212  1.00  0.00     0.008 C 
HETATM   16  C11 UNL     1       0.554  -0.517   0.931  1.00  0.00     0.186 C 
HETATM   17  C18 UNL     1      -0.296  -1.686   0.601  1.00  0.00     0.031 A 
HETATM   18 CL1  UNL     1      -0.108  -3.129   1.631  1.00  0.00    -0.171 Cl
BRANCH  16  19
HETATM   19  O1  UNL     1       1.471  -0.188  -0.051  1.00  0.00    -0.367 OA
BRANCH  19  20
HETATM   20  C12 UNL     1       2.797  -0.195   0.423  1.00  0.00     0.152 A 
HETATM   21  C13 UNL     1       3.498  -1.215  -0.402  1.00  0.00     0.047 A 
HETATM   22  C14 UNL     1       4.553  -1.130  -1.222  1.00  0.00     0.114 A 
HETATM   23  F1  UNL     1       5.023  -2.240  -1.891  1.00  0.00    -0.206 F 
HETATM   24  C15 UNL     1       5.138   0.200  -1.295  1.00  0.00     0.038 A 
HETATM   25  C16 UNL     1       4.620   1.174  -0.599  1.00  0.00    -0.021 A 
HETATM   26  C17 UNL     1       3.456   1.158   0.332  1.00  0.00     0.063 A 
ENDBRANCH  19  20
ENDBRANCH  16  19
ENDBRANCH   3   4
TORSDOF 3
