REMARK  8 active torsions:
REMARK  status: ('A' for Active; 'I' for Inactive)
REMARK    1  A    between atoms: C4_6  and  N3_7 
REMARK    2  A    between atoms: N3_7  and  C5_8 
REMARK    3  A    between atoms: C8_11  and  O1_12 
REMARK    4  A    between atoms: O1_12  and  C9_13 
REMARK    5  A    between atoms: C9_13  and  C10_14 
REMARK    6  A    between atoms: C17_23  and  C18_24 
REMARK    7  A    between atoms: C19_25  and  C20_26 
REMARK    8  A    between atoms: C20_26  and  N4_27 
ROOT
HETATM    1  N3  UNL     1       0.209  -0.222  -0.190  1.00  0.00    -0.340 N 
HETATM    2  H5  UNL     1      -0.399   0.318   0.499  1.00  0.00     0.167 HD
ENDROOT
BRANCH   1   3
HETATM    3  C4  UNL     1      -0.448  -1.030  -1.125  1.00  0.00     0.150 A 
HETATM    4  N2  UNL     1       0.154  -1.774  -2.062  1.00  0.00    -0.223 NA
HETATM    5  C3  UNL     1      -0.581  -2.507  -2.905  1.00  0.00     0.235 A 
HETATM    6  N1  UNL     1      -1.931  -2.557  -2.884  1.00  0.00    -0.245 NA
HETATM    7  C2  UNL     1      -2.612  -1.829  -1.962  1.00  0.00     0.054 A 
HETATM    8  C1  UNL     1      -4.094  -1.847  -1.896  1.00  0.00     0.072 C 
HETATM    9  C17 UNL     1      -1.838  -1.084  -1.108  1.00  0.00     0.088 A 
BRANCH   9  10
HETATM   10  C18 UNL     1      -2.586  -0.310  -0.126  1.00  0.00    -0.059 C 
HETATM   11  C19 UNL     1      -3.202   0.318   0.702  1.00  0.00    -0.071 C 
BRANCH  11  12
HETATM   12  C20 UNL     1      -3.946   1.056   1.718  1.00  0.00     0.366 C 
BRANCH  12  13
HETATM   13  N4  UNL     1      -5.369   0.990   1.557  1.00  0.00     0.103 N 
HETATM   14  C21 UNL     1      -5.858   1.677   0.397  1.00  0.00     0.299 C 
HETATM   15  C22 UNL     1      -7.380   1.617   0.424  1.00  0.00     0.198 C 
HETATM   16  O2  UNL     1      -7.854   0.329   0.385  1.00  0.00    -0.388 OA
HETATM   17  C23 UNL     1      -6.854  -0.630   0.506  1.00  0.00     0.198 C 
HETATM   18  C24 UNL     1      -5.895  -0.337   1.615  1.00  0.00     0.299 C 
ENDBRANCH  12  13
ENDBRANCH  11  12
ENDBRANCH   9  10
ENDBRANCH   1   3
BRANCH   1  19
HETATM   19  C5  UNL     1       1.579  -0.017  -0.023  1.00  0.00     0.035 A 
HETATM   20  C6  UNL     1       2.595  -0.616  -0.731  1.00  0.00     0.032 A 
HETATM   21  C7  UNL     1       3.947  -0.417  -0.576  1.00  0.00     0.041 A 
HETATM   22  C8  UNL     1       4.360   0.476   0.389  1.00  0.00     0.091 A 
HETATM   23  C15 UNL     1       3.404   1.120   1.143  1.00  0.00     0.069 A 
HETATM   24 CL1  UNL     1       3.911   2.256   2.370  1.00  0.00    -0.081 Cl
HETATM   25  C16 UNL     1       2.070   0.869   0.930  1.00  0.00     0.056 A 
BRANCH  22  26
HETATM   26  O1  UNL     1       5.687   0.730   0.605  1.00  0.00    -0.345 OA
BRANCH  26  27
HETATM   27  C9  UNL     1       6.738   0.111  -0.126  1.00  0.00     0.215 C 
BRANCH  27  28
HETATM   28  C10 UNL     1       8.033   0.621   0.370  1.00  0.00    -0.020 A 
HETATM   29  C11 UNL     1       8.452   1.471   1.282  1.00  0.00    -0.014 A 
HETATM   30  C12 UNL     1       9.768   1.498   1.403  1.00  0.00     0.055 A 
HETATM   31  C13 UNL     1      10.316   0.617   0.350  1.00  0.00     0.117 A 
HETATM   32  F1  UNL     1      11.647   0.401   0.084  1.00  0.00    -0.206 F 
HETATM   33  C14 UNL     1       9.255   0.100  -0.259  1.00  0.00     0.052 A 
ENDBRANCH  27  28
ENDBRANCH  26  27
ENDBRANCH  22  26
ENDBRANCH   1  19
TORSDOF 8
