REMARK  6 active torsions:
REMARK  status: ('A' for Active; 'I' for Inactive)
REMARK    1  A    between atoms: C4_6  and  N3_7 
REMARK    2  A    between atoms: N3_7  and  C5_8 
REMARK    3  A    between atoms: C5_8  and  C6_9 
REMARK    4  A    between atoms: C8_12  and  C9_13 
REMARK    5  A    between atoms: C10_14  and  C11_15 
REMARK    6  A    between atoms: C11_15  and  N4_16 
ROOT
HETATM    1  C1  UNL     1       0.457  -3.164  -0.630  1.00  0.00     0.072 C 
HETATM    2  C2  UNL     1       1.652  -2.573   0.014  1.00  0.00     0.054 A 
HETATM    3  N1  UNL     1       2.722  -3.359   0.121  1.00  0.00    -0.245 NA
HETATM    4  C3  UNL     1       3.850  -2.968   0.673  1.00  0.00     0.235 A 
HETATM    5  N2  UNL     1       3.949  -1.727   1.157  1.00  0.00    -0.223 NA
HETATM    6  C4  UNL     1       2.953  -0.850   1.110  1.00  0.00     0.146 A 
HETATM    7  C8  UNL     1       1.761  -1.294   0.515  1.00  0.00     0.087 A 
ENDROOT
BRANCH   7   8
HETATM    8  C9  UNL     1       0.543  -0.508   0.368  1.00  0.00    -0.059 C 
HETATM    9  C10 UNL     1      -0.477   0.134   0.263  1.00  0.00    -0.071 C 
BRANCH   9  10
HETATM   10  C11 UNL     1      -1.697   0.925   0.152  1.00  0.00     0.366 C 
BRANCH  10  11
HETATM   11  N4  UNL     1      -2.813   0.088  -0.134  1.00  0.00     0.103 N 
HETATM   12  C12 UNL     1      -2.846  -0.527  -1.414  1.00  0.00     0.299 C 
HETATM   13  C13 UNL     1      -3.403   0.360  -2.467  1.00  0.00     0.198 C 
HETATM   14  O1  UNL     1      -4.213   1.389  -2.027  1.00  0.00    -0.388 OA
HETATM   15  C14 UNL     1      -4.952   1.054  -0.898  1.00  0.00     0.198 C 
HETATM   16  C15 UNL     1      -4.064   0.641   0.255  1.00  0.00     0.299 C 
ENDBRANCH  10  11
ENDBRANCH   9  10
ENDBRANCH   7   8
BRANCH   6  17
HETATM   17  N3  UNL     1       2.754   0.497   1.504  1.00  0.00    -0.370 N 
HETATM   18  H5  UNL     1       3.736   0.566   1.921  1.00  0.00     0.161 HD
BRANCH  17  19
HETATM   19  C5  UNL     1       2.560   1.814   1.889  1.00  0.00     0.149 C 
BRANCH  19  20
HETATM   20  C6  UNL     1       3.572   2.816   1.396  1.00  0.00     0.004 C 
HETATM   21  C7  UNL     1       4.617   2.520   0.637  1.00  0.00     0.082 C 
HETATM   22 CL1  UNL     1       6.041   3.068  -0.219  1.00  0.00    -0.097 Cl
ENDBRANCH  19  20
ENDBRANCH  17  19
ENDBRANCH   6  17
TORSDOF 6
