REMARK  5 active torsions:
REMARK  status: ('A' for Active; 'I' for Inactive)
REMARK    1  A    between atoms: C2_3  and  C3_4 
REMARK    2  A    between atoms: C3_4  and  C4_5 
REMARK    3  A    between atoms: C4_5  and  O1_6 
REMARK    4  A    between atoms: O1_6  and  C5_7 
REMARK    5  A    between atoms: C7_9  and  N1_10 
ROOT
HETATM    1  C5  UNL     1       0.142   0.188   0.964  1.00  0.00     0.088 A 
HETATM    2  C6  UNL     1       1.226   0.935   0.742  1.00  0.00     0.042 A 
HETATM    3  C7  UNL     1       2.422   0.403   1.450  1.00  0.00     0.159 A 
HETATM    4  C11 UNL     1       1.845  -0.788   2.125  1.00  0.00     0.031 A 
HETATM    5  C12 UNL     1       0.555  -0.902   1.845  1.00  0.00     0.065 A 
HETATM    6 CL1  UNL     1      -0.667  -2.066   2.320  1.00  0.00    -0.082 Cl
ENDROOT
BRANCH   1   7
HETATM    7  O1  UNL     1      -0.985   0.638   0.334  1.00  0.00    -0.349 OA
BRANCH   7   8
HETATM    8  C4  UNL     1      -1.240   0.590  -1.035  1.00  0.00     0.180 C 
BRANCH   8   9
HETATM    9  C3  UNL     1      -2.596   1.181  -1.394  1.00  0.00     0.064 C 
BRANCH   9  10
HETATM   10  C2  UNL     1      -3.715   0.472  -0.741  1.00  0.00    -0.036 A 
HETATM   11  C1  UNL     1      -4.719  -0.150  -1.349  1.00  0.00     0.118 A 
HETATM   12  F1  UNL     1      -4.971  -0.292  -2.676  1.00  0.00    -0.206 F 
HETATM   13  C15 UNL     1      -5.625  -0.729  -0.363  1.00  0.00     0.039 A 
HETATM   14  C14 UNL     1      -5.113  -0.423   0.841  1.00  0.00    -0.019 A 
HETATM   15  C13 UNL     1      -3.841   0.376   0.738  1.00  0.00     0.064 A 
ENDBRANCH   9  10
ENDBRANCH   8   9
ENDBRANCH   7   8
ENDBRANCH   1   7
BRANCH   3  16
HETATM   16  N1  UNL     1       3.500   0.089   0.546  1.00  0.00    -0.267 N 
HETATM   17  C8  UNL     1       3.281  -0.875  -0.468  1.00  0.00     0.130 A 
HETATM   18  C9  UNL     1       4.319  -1.109  -1.258  1.00  0.00     0.107 A 
HETATM   19  N2  UNL     1       5.593  -0.464  -1.140  1.00  0.00    -0.358 N 
HETATM   20  C10 UNL     1       5.753   0.505  -0.090  1.00  0.00     0.229 A 
HETATM   21  H9  UNL     1       6.382  -0.680  -1.786  1.00  0.00     0.166 HD
HETATM   22  N3  UNL     1       4.738   0.725   0.671  1.00  0.00    -0.167 NA
ENDBRANCH   3  16
TORSDOF 5
