REMARK  5 active torsions:
REMARK  status: ('A' for Active; 'I' for Inactive)
REMARK    1  A    between atoms: O1_2  and  C2_3 
REMARK    2  A    between atoms: C2_3  and  C3_4 
REMARK    3  A    between atoms: C3_4  and  O2_5 
REMARK    4  A    between atoms: O2_5  and  C4_6 
REMARK    5  A    between atoms: C11_15  and  N1_16 
ROOT
HETATM    1  C4  UNL     1       2.178  -0.667  -0.951  1.00  0.00     0.097 C 
HETATM    2  C5  UNL     1       2.935  -1.791  -0.887  1.00  0.00     0.169 C 
HETATM    3  O3  UNL     1       2.406  -2.847  -1.445  1.00  0.00    -0.358 OA
HETATM    4  C6  UNL     1       1.876  -3.905  -2.004  1.00  0.00     0.200 C 
HETATM    5  C7  UNL     1       0.632  -4.567  -1.452  1.00  0.00     0.194 C 
HETATM    6  O4  UNL     1      -0.538  -3.759  -1.404  1.00  0.00    -0.385 OA
HETATM    7  C8  UNL     1      -0.104  -2.720  -0.683  1.00  0.00     0.196 C 
HETATM    8  C9  UNL     1      -0.742  -1.535  -0.212  1.00  0.00     0.012 C 
HETATM    9  C10 UNL     1      -0.289  -0.291  -0.558  1.00  0.00     0.017 A 
HETATM   10  C11 UNL     1      -1.060   0.841   0.008  1.00  0.00     0.136 A 
HETATM   11  N2  UNL     1      -0.737   2.068  -0.232  1.00  0.00    -0.224 NA
HETATM   12  C20 UNL     1       0.411   2.226  -1.072  1.00  0.00     0.230 A 
HETATM   13  N3  UNL     1       1.110   1.308  -1.580  1.00  0.00    -0.266 NA
HETATM   14  C21 UNL     1       0.920  -0.128  -1.430  1.00  0.00     0.204 A 
ENDROOT
BRANCH  10  15
HETATM   15  N1  UNL     1      -2.193   0.635   0.840  1.00  0.00    -0.354 N 
HETATM   16  C12 UNL     1      -2.118   0.551   2.271  1.00  0.00     0.152 C 
HETATM   17  C13 UNL     1      -2.831   1.701   2.889  1.00  0.00    -0.007 C 
HETATM   18  C14 UNL     1      -3.750   2.588   2.476  1.00  0.00    -0.002 C 
HETATM   19  C15 UNL     1      -4.331   2.621   1.136  1.00  0.00     0.004 C 
HETATM   20  C16 UNL     1      -4.228   1.786   0.118  1.00  0.00    -0.061 C 
HETATM   21  C17 UNL     1      -4.981   2.149  -1.133  1.00  0.00     0.045 C 
HETATM   22  C18 UNL     1      -3.426   0.518   0.113  1.00  0.00     0.111 C 
HETATM   23  C19 UNL     1      -4.329  -0.560   0.697  1.00  0.00     0.037 C 
ENDBRANCH  10  15
BRANCH   1  24
HETATM   24  O2  UNL     1       3.060   0.191  -0.270  1.00  0.00    -0.349 OA
BRANCH  24  25
HETATM   25  C3  UNL     1       4.193   0.753  -0.882  1.00  0.00     0.201 C 
BRANCH  25  26
HETATM   26  C2  UNL     1       4.919   1.577   0.162  1.00  0.00     0.193 C 
BRANCH  26  27
HETATM   27  O1  UNL     1       5.269   0.712   1.188  1.00  0.00    -0.394 OA
HETATM   28  C1  UNL     1       5.940   1.502   2.136  1.00  0.00     0.201 C 
ENDBRANCH  26  27
ENDBRANCH  25  26
ENDBRANCH  24  25
ENDBRANCH   1  24
TORSDOF 5
