REMARK  6 active torsions:
REMARK  status: ('A' for Active; 'I' for Inactive)
REMARK    1  A    between atoms: C2_4  and  N2_5 
REMARK    2  A    between atoms: C3_6  and  N3_7 
REMARK    3  A    between atoms: N3_7  and  C4_8 
REMARK    4  A    between atoms: C7_11  and  O1_12 
REMARK    5  A    between atoms: O1_12  and  C8_13 
REMARK    6  A    between atoms: C8_13  and  C9_14 
ROOT
HETATM    1  B1  UNL     1      -4.419   3.326  -0.624  1.00  0.00     0.225 B 
HETATM    2  C1  UNL     1      -5.559   1.876  -1.042  1.00  0.00    -0.130 C 
HETATM    3  N1  UNL     1      -6.393   0.777  -1.351  1.00  0.00    -0.221 NA
HETATM    4  C2  UNL     1      -5.920  -0.392  -1.012  1.00  0.00     0.242 C 
ENDROOT
BRANCH   4   5
HETATM    5  N2  UNL     1      -4.752  -0.949  -0.387  1.00  0.00    -0.236 NA
HETATM    6  C3  UNL     1      -4.908  -1.692   0.661  1.00  0.00     0.208 C 
BRANCH   6   7
HETATM    7  N3  UNL     1      -3.629  -2.129   1.105  1.00  0.00    -0.351 N 
HETATM    8  H3  UNL     1      -3.408  -2.899   1.801  1.00  0.00     0.166 HD
BRANCH   7   9
HETATM    9  C4  UNL     1      -2.312  -1.702   0.780  1.00  0.00     0.034 A 
HETATM   10  C5  UNL     1      -1.782  -0.679   1.576  1.00  0.00     0.032 A 
HETATM   11  C6  UNL     1      -0.499  -0.277   1.245  1.00  0.00     0.041 A 
HETATM   12  C7  UNL     1       0.271  -0.791   0.222  1.00  0.00     0.091 A 
HETATM   13  C15 UNL     1      -0.287  -1.810  -0.552  1.00  0.00     0.069 A 
HETATM   14 CL1  UNL     1       0.661  -2.472  -1.841  1.00  0.00    -0.081 Cl
HETATM   15  C16 UNL     1      -1.565  -2.242  -0.256  1.00  0.00     0.056 A 
BRANCH  12  16
HETATM   16  O1  UNL     1       1.535  -0.267   0.036  1.00  0.00    -0.345 OA
BRANCH  16  17
HETATM   17  C8  UNL     1       2.050   0.778   0.864  1.00  0.00     0.214 C 
BRANCH  17  18
HETATM   18  C9  UNL     1       3.418   1.071   0.362  1.00  0.00    -0.031 A 
HETATM   19  C10 UNL     1       3.625   2.015  -0.616  1.00  0.00     0.009 A 
HETATM   20  C11 UNL     1       4.886   2.316  -1.110  1.00  0.00     0.004 A 
HETATM   21  C12 UNL     1       5.983   1.646  -0.604  1.00  0.00     0.042 A 
HETATM   22  C13 UNL     1       5.792   0.694   0.380  1.00  0.00     0.117 A 
HETATM   23  F1  UNL     1       6.886   0.072   0.837  1.00  0.00    -0.206 F 
HETATM   24  C14 UNL     1       4.530   0.409   0.858  1.00  0.00     0.051 A 
ENDBRANCH  17  18
ENDBRANCH  16  17
ENDBRANCH  12  16
ENDBRANCH   7   9
ENDBRANCH   6   7
ENDBRANCH   4   5
TORSDOF 6
