REMARK  5 active torsions:
REMARK  status: ('A' for Active; 'I' for Inactive)
REMARK    1  A    between atoms: C7_7  and  N1_8 
REMARK    2  A    between atoms: N1_8  and  C8_9 
REMARK    3  A    between atoms: C13_16  and  C14_17 
REMARK    4  A    between atoms: C14_17  and  C15_18 
REMARK    5  A    between atoms: C15_18  and  O1_19 
ROOT
HETATM    1  C1  UNL     1       6.932  -3.404   0.052  1.00  0.00     0.018 C 
HETATM    2  C2  UNL     1       6.216  -2.466  -0.209  1.00  0.00    -0.078 C 
HETATM    3  C3  UNL     1       5.365  -1.344  -0.501  1.00  0.00     0.019 A 
HETATM    4  C4  UNL     1       5.979  -0.293  -1.139  1.00  0.00     0.021 A 
HETATM    5  C5  UNL     1       5.244   0.821  -1.459  1.00  0.00     0.004 A 
HETATM    6  C6  UNL     1       3.920   0.828  -1.122  1.00  0.00     0.029 A 
HETATM    7  C7  UNL     1       3.219  -0.197  -0.474  1.00  0.00     0.035 A 
HETATM    8  C22 UNL     1       4.045  -1.254  -0.203  1.00  0.00     0.050 A 
ENDROOT
BRANCH   7   9
HETATM    9  N1  UNL     1       1.850  -0.130  -0.165  1.00  0.00    -0.340 N 
HETATM   10  H5  UNL     1       1.535   0.829  -0.387  1.00  0.00     0.167 HD
BRANCH   9  11
HETATM   11  C8  UNL     1       1.111  -1.212   0.366  1.00  0.00     0.138 A 
HETATM   12  N2  UNL     1       1.546  -2.393   0.810  1.00  0.00    -0.224 NA
HETATM   13  C9  UNL     1       0.680  -3.316   1.234  1.00  0.00     0.235 A 
HETATM   14  N3  UNL     1      -0.641  -3.047   1.212  1.00  0.00    -0.242 NA
HETATM   15  C10 UNL     1      -1.093  -1.864   0.769  1.00  0.00     0.067 A 
HETATM   16  C11 UNL     1      -0.219  -0.908   0.329  1.00  0.00     0.026 A 
HETATM   17  C21 UNL     1      -2.342  -2.176   0.974  1.00  0.00     0.031 C 
HETATM   18  C12 UNL     1      -1.063   0.004   0.011  1.00  0.00     0.068 C 
HETATM   19  C13 UNL     1      -1.426   1.307  -0.498  1.00  0.00    -0.046 C 
HETATM   20  C17 UNL     1      -2.771   1.324  -0.464  1.00  0.00     0.138 C 
HETATM   21  O2  UNL     1      -3.969   0.678  -0.170  1.00  0.00    -0.361 OA
HETATM   22  C18 UNL     1      -4.242  -0.532  -0.870  1.00  0.00     0.200 C 
HETATM   23  C19 UNL     1      -5.083  -1.472  -0.101  1.00  0.00     0.194 C 
HETATM   24  O3  UNL     1      -4.698  -1.957   1.079  1.00  0.00    -0.385 OA
HETATM   25  C20 UNL     1      -3.619  -2.731   1.277  1.00  0.00     0.197 C 
BRANCH  19  26
HETATM   26  C14 UNL     1      -0.959   2.624  -1.045  1.00  0.00     0.063 C 
BRANCH  26  27
HETATM   27  C15 UNL     1      -0.169   3.431  -0.071  1.00  0.00     0.171 C 
BRANCH  27  28
HETATM   28  O1  UNL     1      -0.824   3.787   1.083  1.00  0.00    -0.396 OA
HETATM   29  C16 UNL     1      -1.929   4.580   0.917  1.00  0.00     0.201 C 
ENDBRANCH  27  28
ENDBRANCH  26  27
ENDBRANCH  19  26
ENDBRANCH   9  11
ENDBRANCH   7   9
TORSDOF 5
