REMARK  2 active torsions:
REMARK  status: ('A' for Active; 'I' for Inactive)
REMARK    1  A    between atoms: C13_14  and  C14_15 
REMARK    2  A    between atoms: C14_15  and  O2_17 
ROOT
HETATM    1  C1  UNL     1      -2.269   2.101   1.827  1.00  0.00     0.070 C 
HETATM    2  C2  UNL     1      -2.411   0.798   1.092  1.00  0.00     0.023 C 
HETATM    3  C3  UNL     1      -3.217  -0.231   1.193  1.00  0.00     0.026 C 
HETATM    4  C4  UNL     1      -3.544  -1.538   0.635  1.00  0.00    -0.001 C 
HETATM    5  C5  UNL     1      -3.046  -2.262  -0.347  1.00  0.00    -0.005 C 
HETATM    6  C6  UNL     1      -2.154  -2.583  -1.450  1.00  0.00     0.132 C 
HETATM    7 BR1  UNL     1      -0.970  -4.043  -0.952  1.00  0.00    -0.080 Br
HETATM    8  C7  UNL     1      -1.323  -1.417  -1.930  1.00  0.00     0.050 C 
HETATM    9  C8  UNL     1       0.017  -1.319  -1.885  1.00  0.00     0.006 C 
HETATM   10  C9  UNL     1       1.179  -0.449  -2.207  1.00  0.00     0.068 C 
HETATM   11  C10 UNL     1       1.861  -0.160  -0.922  1.00  0.00    -0.047 A 
HETATM   12  C11 UNL     1       2.633  -1.183  -0.419  1.00  0.00     0.009 A 
HETATM   13  C12 UNL     1       3.343  -1.123   0.760  1.00  0.00     0.019 A 
HETATM   14  C13 UNL     1       3.266   0.053   1.477  1.00  0.00     0.038 A 
HETATM   15  C15 UNL     1       2.497   1.075   0.977  1.00  0.00     0.027 A 
HETATM   16  C16 UNL     1       1.778   1.017  -0.215  1.00  0.00    -0.036 A 
HETATM   17  C17 UNL     1       1.033   2.237  -0.544  1.00  0.00     0.151 C 
HETATM   18  N1  UNL     1      -0.024   2.103  -1.483  1.00  0.00    -0.213 NA
HETATM   19  N2  UNL     1      -1.071   1.297  -1.136  1.00  0.00    -0.212 N 
HETATM   20  C18 UNL     1      -2.024   0.816  -2.069  1.00  0.00     0.247 C 
HETATM   21  N3  UNL     1      -2.169  -0.404  -2.453  1.00  0.00    -0.244 NA
HETATM   22  N4  UNL     1      -1.383   0.829   0.114  1.00  0.00    -0.288 N 
HETATM   23  H17 UNL     1      -0.380   3.009  -1.843  1.00  0.00     0.149 HD
HETATM   24  H19 UNL     1      -0.591   0.313   0.502  1.00  0.00     0.188 HD
ENDROOT
BRANCH  14  25
HETATM   25  C14 UNL     1       3.997   0.179   2.735  1.00  0.00     0.176 C 
HETATM   26  O1  UNL     1       3.963   1.231   3.431  1.00  0.00    -0.646 OA
BRANCH  25  27
HETATM   27  O2  UNL     1       4.762  -0.877   3.204  1.00  0.00    -0.773 OA
HETATM   28  H13 UNL     1       5.361  -0.819   4.042  1.00  0.00     0.167 HD
ENDBRANCH  25  27
ENDBRANCH  14  25
TORSDOF 2
