REMARK  0 active torsions:
REMARK  status: ('A' for Active; 'I' for Inactive)
ROOT
HETATM    1  F1  UNL     1       1.133  -4.353  -0.142  1.00  0.00    -0.184 F 
HETATM    2  C1  UNL     1       1.730  -3.302   0.452  1.00  0.00     0.207 C 
HETATM    3  C2  UNL     1       2.294  -2.218   0.960  1.00  0.00     0.042 C 
HETATM    4  C3  UNL     1       2.647  -0.817   0.844  1.00  0.00     0.027 C 
HETATM    5  C4  UNL     1       2.680   0.319   0.192  1.00  0.00     0.025 C 
HETATM    6  C5  UNL     1       2.567   1.461  -0.793  1.00  0.00     0.181 C 
HETATM    7  O1  UNL     1       1.756   2.490  -0.131  1.00  0.00    -0.349 OA
HETATM    8  C6  UNL     1       0.444   2.008   0.180  1.00  0.00     0.090 A 
HETATM    9  C7  UNL     1      -0.053   1.509   1.350  1.00  0.00     0.041 A 
HETATM   10  C8  UNL     1      -1.366   1.116   1.299  1.00  0.00     0.034 A 
HETATM   11  C9  UNL     1      -2.101   1.230   0.141  1.00  0.00     0.050 A 
HETATM   12  C10 UNL     1      -1.570   1.742  -1.025  1.00  0.00     0.057 A 
HETATM   13  C11 UNL     1      -0.253   2.144  -1.001  1.00  0.00     0.069 A 
HETATM   14 CL1  UNL     1       0.226   2.765  -2.565  1.00  0.00    -0.081 Cl
HETATM   15  N1  UNL     1      -3.446   0.731   0.251  1.00  0.00    -0.300 N 
HETATM   16  N2  UNL     1      -3.214  -0.391  -0.560  1.00  0.00    -0.294 N 
HETATM   17  C12 UNL     1      -2.345  -1.512  -0.632  1.00  0.00     0.224 C 
HETATM   18  N3  UNL     1      -1.135  -1.053  -0.450  1.00  0.00    -0.236 NA
HETATM   19  C13 UNL     1       0.003  -1.942  -0.462  1.00  0.00     0.237 C 
HETATM   20  N4  UNL     1       1.029  -2.744  -0.697  1.00  0.00    -0.214 NA
HETATM   21  H9  UNL     1      -4.377   0.915   0.675  1.00  0.00     0.187 HD
HETATM   22  H10 UNL     1      -3.912  -0.353  -1.338  1.00  0.00     0.187 HD
ENDROOT
TORSDOF 0
