REMARK  5 active torsions:
REMARK  status: ('A' for Active; 'I' for Inactive)
REMARK    1  A    between atoms: O1_2  and  C2_3 
REMARK    2  A    between atoms: C6_9  and  N3_10 
REMARK    3  A    between atoms: C14_19  and  O2_20 
REMARK    4  A    between atoms: O2_20  and  C15_21 
REMARK    5  A    between atoms: C15_21  and  C16_22 
ROOT
HETATM    1  C2  UNL     1       2.435   1.051  -0.574  1.00  0.00     0.103 A 
HETATM    2  C3  UNL     1       1.774   2.017  -1.338  1.00  0.00     0.072 A 
HETATM    3  C4  UNL     1       0.398   2.054  -1.437  1.00  0.00     0.075 A 
HETATM    4  N1  UNL     1      -0.301   2.942  -2.153  1.00  0.00    -0.241 NA
HETATM    5  C5  UNL     1      -1.643   2.852  -2.162  1.00  0.00     0.236 A 
HETATM    6  N2  UNL     1      -2.282   1.891  -1.468  1.00  0.00    -0.223 NA
HETATM    7  C6  UNL     1      -1.614   0.977  -0.734  1.00  0.00     0.143 A 
HETATM    8  C12 UNL     1      -0.238   1.065  -0.721  1.00  0.00     0.042 A 
HETATM    9  C13 UNL     1       0.355   0.087   0.047  1.00  0.00     0.057 A 
HETATM   10  C14 UNL     1       1.730   0.085   0.120  1.00  0.00     0.103 A 
ENDROOT
BRANCH   7  11
HETATM   11  N3  UNL     1      -2.521   0.096  -0.074  1.00  0.00    -0.338 N 
HETATM   12  C7  UNL     1      -3.105  -0.780  -1.064  1.00  0.00     0.094 A 
HETATM   13  C8  UNL     1      -3.995  -1.726  -0.783  1.00  0.00     0.041 A 
HETATM   14  C9  UNL     1      -4.435  -1.922   0.608  1.00  0.00     0.033 A 
HETATM   15 CL1  UNL     1      -5.579  -3.095   1.168  1.00  0.00    -0.085 Cl
HETATM   16  C10 UNL     1      -3.861  -1.088   1.460  1.00  0.00     0.017 A 
HETATM   17  C11 UNL     1      -2.867   0.009   1.332  1.00  0.00     0.159 A 
ENDBRANCH   7  11
BRANCH  10  18
HETATM   18  O2  UNL     1       2.425  -0.846   0.859  1.00  0.00    -0.346 OA
BRANCH  18  19
HETATM   19  C15 UNL     1       1.849  -1.872   1.604  1.00  0.00     0.207 C 
BRANCH  19  20
HETATM   20  C16 UNL     1       2.950  -2.665   2.260  1.00  0.00     0.248 C 
HETATM   21  F1  UNL     1       3.746  -3.172   1.234  1.00  0.00    -0.253 F 
ENDBRANCH  19  20
ENDBRANCH  18  19
ENDBRANCH  10  18
BRANCH   1  22
HETATM   22  O1  UNL     1       3.821   1.037  -0.491  1.00  0.00    -0.353 OA
HETATM   23  C1  UNL     1       4.623   1.986  -1.167  1.00  0.00     0.210 C 
ENDBRANCH   1  22
TORSDOF 5
