REMARK  7 active torsions:
REMARK  status: ('A' for Active; 'I' for Inactive)
REMARK    1  A    between atoms: O1_2  and  C2_3 
REMARK    2  A    between atoms: C6_9  and  N3_10 
REMARK    3  A    between atoms: N3_10  and  C7_11 
REMARK    4  A    between atoms: C15_21  and  C16_22 
REMARK    5  A    between atoms: C16_22  and  C17_23 
REMARK    6  A    between atoms: C17_23  and  C18_24 
REMARK    7  A    between atoms: C18_24  and  N4_25 
ROOT
HETATM    1  C2  UNL     1      -0.228  -2.580   0.159  1.00  0.00     0.076 A 
HETATM    2  C3  UNL     1       0.961  -3.217  -0.047  1.00  0.00     0.070 A 
HETATM    3  C4  UNL     1       2.136  -2.522  -0.119  1.00  0.00     0.074 A 
HETATM    4  N1  UNL     1       3.250  -3.245  -0.326  1.00  0.00    -0.241 NA
HETATM    5  C5  UNL     1       4.444  -2.676  -0.413  1.00  0.00     0.236 A 
HETATM    6  N2  UNL     1       4.479  -1.348  -0.286  1.00  0.00    -0.224 NA
HETATM    7  C6  UNL     1       3.443  -0.532  -0.080  1.00  0.00     0.142 A 
HETATM    8  C13 UNL     1       2.229  -1.157   0.005  1.00  0.00     0.039 A 
HETATM    9  C14 UNL     1       1.023  -0.532   0.212  1.00  0.00     0.027 A 
HETATM   10  C15 UNL     1      -0.176  -1.208   0.289  1.00  0.00    -0.024 A 
ENDROOT
BRANCH   7  11
HETATM   11  N3  UNL     1       3.496   0.876   0.047  1.00  0.00    -0.340 N 
HETATM   12  H6  UNL     1       2.650   1.442   0.207  1.00  0.00     0.167 HD
BRANCH  11  13
HETATM   13  C7  UNL     1       4.607   1.755  -0.007  1.00  0.00     0.035 A 
HETATM   14  C8  UNL     1       4.546   3.152   0.036  1.00  0.00     0.032 A 
HETATM   15  C9  UNL     1       5.666   3.942  -0.020  1.00  0.00     0.046 A 
HETATM   16  C10 UNL     1       6.924   3.405  -0.123  1.00  0.00     0.138 A 
HETATM   17  F1  UNL     1       7.934   4.298  -0.169  1.00  0.00    -0.204 F 
HETATM   18  C11 UNL     1       7.025   2.033  -0.168  1.00  0.00     0.074 A 
HETATM   19 CL1  UNL     1       8.652   1.400  -0.299  1.00  0.00    -0.081 Cl
HETATM   20  C12 UNL     1       5.887   1.260  -0.110  1.00  0.00     0.056 A 
ENDBRANCH  11  13
ENDBRANCH   7  11
BRANCH  10  21
HETATM   21  C16 UNL     1      -1.481  -0.435   0.518  1.00  0.00     0.043 C 
BRANCH  21  22
HETATM   22  C17 UNL     1      -2.226  -0.334  -0.774  1.00  0.00     0.035 C 
BRANCH  22  23
HETATM   23  C18 UNL     1      -3.487   0.398  -0.839  1.00  0.00     0.273 C 
BRANCH  23  24
HETATM   24  N4  UNL     1      -4.649   0.049  -0.133  1.00  0.00     0.092 N 
HETATM   25  C19 UNL     1      -5.736   0.969  -0.567  1.00  0.00     0.298 C 
HETATM   26  C20 UNL     1      -5.750   2.229   0.180  1.00  0.00     0.198 C 
HETATM   27  O2  UNL     1      -5.215   2.292   1.424  1.00  0.00    -0.388 OA
HETATM   28  C21 UNL     1      -4.174   1.426   1.717  1.00  0.00     0.198 C 
HETATM   29  C22 UNL     1      -4.635   0.047   1.306  1.00  0.00     0.298 C 
ENDBRANCH  23  24
ENDBRANCH  22  23
ENDBRANCH  21  22
ENDBRANCH  10  21
BRANCH   1  30
HETATM   30  O1  UNL     1      -1.470  -3.183   0.248  1.00  0.00    -0.355 OA
HETATM   31  C1  UNL     1      -1.685  -4.580   0.135  1.00  0.00     0.210 C 
ENDBRANCH   1  30
TORSDOF 7
