REMARK  4 active torsions:
REMARK  status: ('A' for Active; 'I' for Inactive)
REMARK    1  A    between atoms: N1_2  and  C2_3 
REMARK    2  A    between atoms: C10_15  and  O3_16 
REMARK    3  A    between atoms: C14_21  and  N5_22 
REMARK    4  A    between atoms: N5_22  and  C15_23 
ROOT
HETATM    1  C2  UNL     1      -1.100   0.225  -0.977  1.00  0.00     0.050 C 
HETATM    2  C3  UNL     1      -1.756  -0.719  -0.332  1.00  0.00    -0.007 C 
HETATM    3  C4  UNL     1      -2.943  -1.046  -1.215  1.00  0.00     0.208 C 
HETATM    4  O1  UNL     1      -3.527  -2.145  -0.663  1.00  0.00    -0.368 OA
HETATM    5  C5  UNL     1      -3.880  -2.081   0.667  1.00  0.00     0.286 C 
HETATM    6  N2  UNL     1      -2.800  -1.831   1.555  1.00  0.00    -0.393 N 
HETATM    7  C6  UNL     1      -1.575  -1.464   0.952  1.00  0.00     0.114 C 
HETATM    8  C7  UNL     1      -0.791  -2.747   0.712  1.00  0.00     0.058 C 
HETATM    9  C8  UNL     1       0.392  -2.405  -0.157  1.00  0.00     0.202 C 
HETATM   10  O2  UNL     1       1.201  -3.482  -0.505  1.00  0.00    -0.291 OA
HETATM   11  N3  UNL     1       2.521  -3.226  -0.741  1.00  0.00    -0.300 NA
HETATM   12  C9  UNL     1       3.113  -2.111  -0.756  1.00  0.00     0.377 C 
HETATM   13  C10 UNL     1       3.417  -0.690  -0.687  1.00  0.00     0.089 C 
HETATM   14  C12 UNL     1       2.775   0.410  -0.518  1.00  0.00     0.071 C 
HETATM   15  C13 UNL     1       1.559   1.165  -0.303  1.00  0.00     0.078 A 
HETATM   16  N4  UNL     1       1.316   2.358   0.198  1.00  0.00    -0.229 NA
HETATM   17  C14 UNL     1      -0.046   2.126  -0.035  1.00  0.00     0.143 A 
HETATM   18  C19 UNL     1       0.119   0.900  -0.562  1.00  0.00     0.066 A 
HETATM   19  H9  UNL     1      -2.986  -1.464   2.472  1.00  0.00     0.156 HD
ENDROOT
BRANCH  17  20
HETATM   20  N5  UNL     1      -0.679   3.333   0.441  1.00  0.00    -0.338 N 
HETATM   21  H20 UNL     1      -1.089   3.989  -0.294  1.00  0.00     0.167 HD
BRANCH  20  22
HETATM   22  C15 UNL     1      -0.861   3.815   1.769  1.00  0.00     0.072 A 
HETATM   23  C16 UNL     1      -1.394   4.071   2.961  1.00  0.00     0.036 A 
HETATM   24  C17 UNL     1      -0.216   4.835   3.412  1.00  0.00     0.047 A 
HETATM   25  C18 UNL     1       0.318   4.580   2.224  1.00  0.00     0.143 A 
HETATM   26  F1  UNL     1       1.560   5.126   2.114  1.00  0.00    -0.204 F 
ENDBRANCH  20  22
ENDBRANCH  17  20
BRANCH   1  27
HETATM   27  N1  UNL     1      -1.680   0.634  -2.245  1.00  0.00    -0.393 N 
HETATM   28  C1  UNL     1      -1.077   0.460  -3.538  1.00  0.00     0.146 C 
HETATM   29  H4  UNL     1      -2.623   1.108  -2.266  1.00  0.00     0.159 HD
ENDBRANCH   1  27
BRANCH  13  30
HETATM   30  O3  UNL     1       4.795  -0.828  -0.894  1.00  0.00    -0.354 OA
HETATM   31  C11 UNL     1       5.666  -1.022   0.226  1.00  0.00     0.210 C 
ENDBRANCH  13  30
TORSDOF 4
