REMARK  4 active torsions:
REMARK  status: ('A' for Active; 'I' for Inactive)
REMARK    1  A    between atoms: C3_3  and  O1_20 
REMARK    2  A    between atoms: C4_4  and  C5_5 
REMARK    3  A    between atoms: C7_7  and  N1_8 
REMARK    4  A    between atoms: N1_8  and  C8_9 
ROOT
HETATM    1  C1  UNL     1       3.284   3.386  -0.271  1.00  0.00     0.016 C 
HETATM    2  C2  UNL     1       3.571   2.077  -0.103  1.00  0.00     0.028 C 
HETATM    3  C3  UNL     1       3.968   0.705   0.092  1.00  0.00     0.066 C 
HETATM    4  C4  UNL     1       3.015  -0.176  -0.026  1.00  0.00     0.068 C 
ENDROOT
BRANCH   3   5
HETATM    5  O1  UNL     1       5.281   0.367   0.383  1.00  0.00    -0.356 OA
HETATM    6  C15 UNL     1       5.607  -1.002   0.356  1.00  0.00     0.210 C 
ENDBRANCH   3   5
BRANCH   4   7
HETATM    7  C5  UNL     1       1.631   0.126  -0.329  1.00  0.00     0.064 A 
HETATM    8  C6  UNL     1       0.595  -0.561   0.254  1.00  0.00     0.082 A 
HETATM    9  C7  UNL     1      -0.743  -0.330   0.015  1.00  0.00     0.131 A 
HETATM   10  N2  UNL     1      -0.955   0.654  -0.864  1.00  0.00    -0.224 NA
HETATM   11  C14 UNL     1       0.015   1.341  -1.449  1.00  0.00     0.235 A 
HETATM   12  N3  UNL     1       1.297   1.085  -1.189  1.00  0.00    -0.242 NA
BRANCH   9  13
HETATM   13  N1  UNL     1      -1.737  -1.089   0.656  1.00  0.00    -0.341 N 
HETATM   14  H6  UNL     1      -1.390  -1.853   1.311  1.00  0.00     0.167 HD
BRANCH  13  15
HETATM   15  C8  UNL     1      -3.127  -0.975   0.553  1.00  0.00     0.035 A 
HETATM   16  C9  UNL     1      -3.802   0.035  -0.103  1.00  0.00     0.032 A 
HETATM   17  C10 UNL     1      -5.172   0.149  -0.216  1.00  0.00     0.046 A 
HETATM   18  C11 UNL     1      -5.949  -0.817   0.368  1.00  0.00     0.138 A 
HETATM   19  F1  UNL     1      -7.287  -0.806   0.323  1.00  0.00    -0.204 F 
HETATM   20  C12 UNL     1      -5.344  -1.854   1.040  1.00  0.00     0.074 A 
HETATM   21 CL1  UNL     1      -6.318  -3.106   1.797  1.00  0.00    -0.081 Cl
HETATM   22  C13 UNL     1      -3.971  -1.906   1.114  1.00  0.00     0.056 A 
ENDBRANCH  13  15
ENDBRANCH   9  13
ENDBRANCH   4   7
TORSDOF 4
