REMARK  3 active torsions:
REMARK  status: ('A' for Active; 'I' for Inactive)
REMARK    1  A    between atoms: O1_1  and  C1_2 
REMARK    2  A    between atoms: C1_2  and  C2_3 
REMARK    3  A    between atoms: C5_7  and  C6_8 
ROOT
HETATM    1  C2  UNL     1       2.609  -0.381  -1.011  1.00  0.00     0.270 C 
HETATM    2  C3  UNL     1       1.259   0.237  -1.178  1.00  0.00     0.035 C 
HETATM    3  C4  UNL     1       0.013   0.787  -1.241  1.00  0.00     0.039 C 
HETATM    4 CL1  UNL     1      -0.950   1.494  -2.584  1.00  0.00    -0.084 Cl
HETATM    5  C5  UNL     1      -0.797   0.861   0.014  1.00  0.00    -0.027 C 
HETATM    6  C12 UNL     1      -0.302   0.403   1.125  1.00  0.00     0.028 C 
HETATM    7  C13 UNL     1       0.309  -0.118   2.301  1.00  0.00     0.113 C 
HETATM    8  N1  UNL     1       1.342  -0.416   1.613  1.00  0.00    -0.270 NA
HETATM    9  C14 UNL     1       2.431  -1.032   2.281  1.00  0.00     0.270 C 
HETATM   10  N2  UNL     1       2.783  -2.046   1.579  1.00  0.00    -0.269 NA
HETATM   11  C15 UNL     1       2.063  -2.319   0.372  1.00  0.00     0.415 C 
HETATM   12  N3  UNL     1       2.575  -1.779  -0.821  1.00  0.00     0.112 NA
HETATM   13  H18 UNL     1       3.520  -2.160  -1.041  1.00  0.00     0.319 HD
ENDROOT
BRANCH   5  14
HETATM   14  C6  UNL     1      -2.159   1.490  -0.076  1.00  0.00     0.046 A 
HETATM   15  C7  UNL     1      -2.797   1.668   1.232  1.00  0.00    -0.017 A 
HETATM   16  C8  UNL     1      -3.922   1.316   1.817  1.00  0.00    -0.004 A 
HETATM   17  C9  UNL     1      -4.806   0.538   0.965  1.00  0.00    -0.004 A 
HETATM   18  C10 UNL     1      -4.290   0.351  -0.234  1.00  0.00    -0.026 A 
HETATM   19  C11 UNL     1      -3.061   0.705  -0.985  1.00  0.00     0.040 A 
ENDBRANCH   5  14
BRANCH   1  20
HETATM   20  C1  UNL     1       3.367  -0.107  -2.342  1.00  0.00     0.203 C 
BRANCH  20  21
HETATM   21  O1  UNL     1       4.653  -0.617  -2.245  1.00  0.00    -0.398 OA
HETATM   22  H1  UNL     1       4.976  -0.402  -1.327  1.00  0.00     0.209 HD
ENDBRANCH  20  21
ENDBRANCH   1  20
TORSDOF 3
