REMARK  4 active torsions:
REMARK  status: ('A' for Active; 'I' for Inactive)
REMARK    1  A    between atoms: N1_1  and  C1_2 
REMARK    2  A    between atoms: C6_8  and  O1_9 
REMARK    3  A    between atoms: O1_9  and  C7_10 
REMARK    4  A    between atoms: C10_13  and  C11_14 
ROOT
HETATM    1  C7  UNL     1      -0.478  -0.299   0.404  1.00  0.00     0.091 A 
HETATM    2  C8  UNL     1       0.177   0.727  -0.230  1.00  0.00     0.039 A 
HETATM    3  C9  UNL     1       1.551   0.777  -0.338  1.00  0.00     0.016 A 
HETATM    4  C10 UNL     1       2.336  -0.207   0.188  1.00  0.00    -0.005 A 
HETATM    5  C15 UNL     1       1.699  -1.247   0.830  1.00  0.00     0.040 A 
HETATM    6  C16 UNL     1       0.326  -1.309   0.945  1.00  0.00     0.068 A 
HETATM    7 CL1  UNL     1      -0.390  -2.685   1.786  1.00  0.00    -0.081 Cl
ENDROOT
BRANCH   1   8
HETATM    8  O1  UNL     1      -1.839  -0.449   0.570  1.00  0.00    -0.334 OA
BRANCH   8   9
HETATM    9  C6  UNL     1      -2.824   0.425   0.119  1.00  0.00     0.202 C 
HETATM   10  C1  UNL     1      -3.768  -0.294  -0.799  1.00  0.00     0.051 C 
HETATM   11  C2  UNL     1      -4.832   0.367  -1.225  1.00  0.00     0.043 C 
HETATM   12  C3  UNL     1      -5.455   1.187  -0.394  1.00  0.00     0.129 C 
HETATM   13  F1  UNL     1      -6.520   1.839  -0.922  1.00  0.00    -0.205 F 
HETATM   14  C4  UNL     1      -4.944   1.302   0.968  1.00  0.00     0.042 C 
HETATM   15  C5  UNL     1      -3.679   0.942   1.244  1.00  0.00     0.014 C 
BRANCH  10  16
HETATM   16  N1  UNL     1      -3.894  -1.575  -1.412  1.00  0.00    -0.399 N 
HETATM   17  H1  UNL     1      -4.284  -2.207  -0.663  1.00  0.00     0.156 HD
HETATM   18  H2  UNL     1      -3.602  -1.658  -2.417  1.00  0.00     0.156 HD
ENDBRANCH  10  16
ENDBRANCH   8   9
ENDBRANCH   1   8
BRANCH   4  19
HETATM   19  C11 UNL     1       3.793  -0.247   0.127  1.00  0.00     0.069 A 
HETATM   20  C12 UNL     1       4.548   0.731  -0.485  1.00  0.00     0.052 A 
HETATM   21  C13 UNL     1       5.925   0.714  -0.554  1.00  0.00     0.120 A 
HETATM   22  N2  UNL     1       6.577  -0.319   0.009  1.00  0.00    -0.254 NA
HETATM   23  C14 UNL     1       5.852  -1.293   0.617  1.00  0.00     0.233 A 
HETATM   24  N3  UNL     1       4.514  -1.249   0.668  1.00  0.00    -0.241 NA
ENDBRANCH   4  19
TORSDOF 4
