REMARK  6 active torsions:
REMARK  status: ('A' for Active; 'I' for Inactive)
REMARK    1  A    between atoms: O1_2  and  C2_3 
REMARK    2  A    between atoms: C8_11  and  O2_12 
REMARK    3  A    between atoms: O2_12  and  C9_13 
REMARK    4  A    between atoms: C9_13  and  C10_14 
REMARK    5  A    between atoms: C10_14  and  C11_15 
REMARK    6  A    between atoms: C11_15  and  N3_16 
ROOT
HETATM    1  C2  UNL     1      -1.844  -2.264   0.384  1.00  0.00     0.102 A 
HETATM    2  C3  UNL     1      -2.913  -2.871   0.046  1.00  0.00     0.053 A 
HETATM    3  C4  UNL     1      -4.220  -2.750  -0.545  1.00  0.00     0.219 A 
HETATM    4  N1  UNL     1      -5.067  -1.936  -1.078  1.00  0.00    -0.278 NA
HETATM    5  C5  UNL     1      -4.696  -0.556  -1.201  1.00  0.00     0.170 A 
HETATM    6  N2  UNL     1      -3.550  -0.415  -0.724  1.00  0.00    -0.248 NA
HETATM    7  C6  UNL     1      -2.680   0.686  -0.567  1.00  0.00     0.201 A 
HETATM    8  C7  UNL     1      -1.382   0.233   0.078  1.00  0.00     0.075 A 
HETATM    9  C8  UNL     1      -1.153  -1.027   0.431  1.00  0.00     0.102 A 
HETATM   10  N4  UNL     1      -3.243   1.690   0.343  1.00  0.00    -0.363 N 
HETATM   11  C16 UNL     1      -3.508   3.040  -0.004  1.00  0.00     0.086 A 
HETATM   12  C17 UNL     1      -3.228   3.431  -1.243  1.00  0.00     0.020 A 
HETATM   13  C18 UNL     1      -2.669   2.523  -2.226  1.00  0.00     0.044 A 
HETATM   14  C19 UNL     1      -2.427   1.284  -1.904  1.00  0.00     0.148 A 
HETATM   15  F1  UNL     1      -1.904   0.406  -2.798  1.00  0.00    -0.206 F 
HETATM   16  H22 UNL     1      -3.430   1.286   1.299  1.00  0.00     0.162 HD
ENDROOT
BRANCH   9  17
HETATM   17  O2  UNL     1       0.108  -0.838   0.933  1.00  0.00    -0.348 OA
BRANCH  17  18
HETATM   18  C9  UNL     1       1.091  -1.831   0.827  1.00  0.00     0.177 C 
BRANCH  18  19
HETATM   19  C10 UNL     1       2.494  -1.243   0.904  1.00  0.00     0.057 C 
BRANCH  19  20
HETATM   20  C11 UNL     1       2.631  -0.268  -0.246  1.00  0.00     0.274 C 
BRANCH  20  21
HETATM   21  N3  UNL     1       3.941   0.343  -0.252  1.00  0.00     0.092 N 
HETATM   22  C12 UNL     1       4.037   1.251  -1.346  1.00  0.00     0.298 C 
HETATM   23  C13 UNL     1       4.006   2.666  -0.777  1.00  0.00     0.198 C 
HETATM   24  O3  UNL     1       5.216   2.793  -0.091  1.00  0.00    -0.388 OA
HETATM   25  C14 UNL     1       5.176   2.044   1.062  1.00  0.00     0.198 C 
HETATM   26  C15 UNL     1       4.296   0.846   1.031  1.00  0.00     0.298 C 
ENDBRANCH  20  21
ENDBRANCH  19  20
ENDBRANCH  18  19
ENDBRANCH  17  18
ENDBRANCH   9  17
BRANCH   1  27
HETATM   27  O1  UNL     1      -1.050  -3.289   0.937  1.00  0.00    -0.353 OA
HETATM   28  C1  UNL     1      -1.498  -4.003   2.086  1.00  0.00     0.210 C 
ENDBRANCH   1  27
TORSDOF 6
