REMARK  6 active torsions:
REMARK  status: ('A' for Active; 'I' for Inactive)
REMARK    1  A    between atoms: C5_6  and  C6_7 
REMARK    2  A    between atoms: C6_7  and  O1_8 
REMARK    3  A    between atoms: O1_8  and  C7_9 
REMARK    4  A    between atoms: C10_12  and  N1_13 
REMARK    5  A    between atoms: N1_13  and  C11_14 
REMARK    6  A    between atoms: C12_15  and  C13_16 
ROOT
HETATM    1  C7  UNL     1      -0.561  -0.436   1.040  1.00  0.00     0.091 A 
HETATM    2  C8  UNL     1      -0.269   0.775   0.460  1.00  0.00     0.041 A 
HETATM    3  C9  UNL     1       0.965   1.135  -0.014  1.00  0.00     0.032 A 
HETATM    4  C10 UNL     1       1.993   0.221   0.095  1.00  0.00     0.033 A 
HETATM    5  C14 UNL     1       1.787  -1.014   0.662  1.00  0.00     0.056 A 
HETATM    6  C15 UNL     1       0.509  -1.339   1.133  1.00  0.00     0.069 A 
HETATM    7 CL1  UNL     1       0.503  -2.977   1.816  1.00  0.00    -0.081 Cl
ENDROOT
BRANCH   1   8
HETATM    8  O1  UNL     1      -1.639  -1.053   1.580  1.00  0.00    -0.345 OA
BRANCH   8   9
HETATM    9  C6  UNL     1      -2.947  -0.697   1.774  1.00  0.00     0.214 C 
BRANCH   9  10
HETATM   10  C5  UNL     1      -3.623  -0.418   0.491  1.00  0.00    -0.031 A 
HETATM   11  C4  UNL     1      -4.115  -1.575  -0.127  1.00  0.00     0.009 A 
HETATM   12  C3  UNL     1      -4.790  -1.499  -1.326  1.00  0.00     0.004 A 
HETATM   13  C2  UNL     1      -5.010  -0.298  -1.965  1.00  0.00     0.042 A 
HETATM   14  C1  UNL     1      -4.536   0.860  -1.376  1.00  0.00     0.117 A 
HETATM   15  F1  UNL     1      -4.664   2.122  -1.865  1.00  0.00    -0.206 F 
HETATM   16  C16 UNL     1      -3.866   0.756  -0.181  1.00  0.00     0.051 A 
ENDBRANCH   9  10
ENDBRANCH   8   9
ENDBRANCH   1   8
BRANCH   4  17
HETATM   17  N1  UNL     1       3.230   0.721  -0.440  1.00  0.00    -0.366 N 
HETATM   18  H8  UNL     1       3.293   0.439  -1.441  1.00  0.00     0.165 HD
BRANCH  17  19
HETATM   19  C11 UNL     1       4.157   1.462   0.321  1.00  0.00     0.085 C 
HETATM   20  C12 UNL     1       5.456   1.292   0.162  1.00  0.00     0.000 C 
BRANCH  20  21
HETATM   21  C13 UNL     1       6.279   0.419  -0.713  1.00  0.00     0.108 C 
HETATM   22  I1  UNL     1       7.494  -0.841   0.516  1.00  0.00    -0.086 I 
ENDBRANCH  20  21
ENDBRANCH  17  19
ENDBRANCH   4  17
TORSDOF 6
