REMARK  2 active torsions:
REMARK  status: ('A' for Active; 'I' for Inactive)
REMARK    1  A    between atoms: C2_2  and  N1_3 
REMARK    2  A    between atoms: C13_18  and  O2_19 
ROOT
HETATM    1  N1  UNL     1      -1.224   2.744  -1.189  1.00  0.00    -0.249 N 
HETATM    2  N2  UNL     1      -2.422   3.098  -1.879  1.00  0.00    -0.163 NA
HETATM    3  C3  UNL     1      -3.342   2.180  -1.881  1.00  0.00     0.230 A 
HETATM    4  N3  UNL     1      -3.097   0.933  -1.227  1.00  0.00    -0.346 N 
HETATM    5  C4  UNL     1      -1.940   0.494  -0.523  1.00  0.00     0.083 A 
HETATM    6  C5  UNL     1      -2.263  -0.697  -0.143  1.00  0.00     0.060 C 
HETATM    7  C6  UNL     1      -3.401  -1.628  -0.209  1.00  0.00     0.226 C 
HETATM    8  O1  UNL     1      -3.814  -1.793   1.124  1.00  0.00    -0.384 OA
HETATM    9  C7  UNL     1      -2.851  -2.086   2.027  1.00  0.00     0.187 C 
HETATM   10  C8  UNL     1      -1.506  -1.436   1.817  1.00  0.00     0.149 C 
HETATM   11  N4  UNL     1      -1.235  -1.614   0.383  1.00  0.00    -0.378 N 
HETATM   12  C9  UNL     1      -0.691  -2.071  -0.827  1.00  0.00     0.123 C 
HETATM   13  C10 UNL     1       0.511  -2.916  -0.958  1.00  0.00     0.020 C 
HETATM   14  C11 UNL     1       1.714  -2.040  -0.800  1.00  0.00     0.008 C 
HETATM   15  C12 UNL     1       1.867  -1.334   0.487  1.00  0.00     0.064 C 
HETATM   16  C13 UNL     1       3.034  -0.432   0.563  1.00  0.00     0.042 C 
HETATM   17  C15 UNL     1       2.610   0.782   0.750  1.00  0.00     0.006 C 
HETATM   18  C16 UNL     1       1.432   1.640   0.912  1.00  0.00     0.041 C 
HETATM   19  C17 UNL     1       0.173   1.257   0.280  1.00  0.00     0.054 C 
HETATM   20  C18 UNL     1      -0.927   1.482  -0.499  1.00  0.00     0.069 A 
HETATM   21  H5  UNL     1      -4.032   0.471  -1.437  1.00  0.00     0.167 HD
ENDROOT
BRANCH   1  22
HETATM   22  C2  UNL     1      -0.233   3.772  -1.207  1.00  0.00     0.092 C 
HETATM   23  C1  UNL     1      -0.365   4.616  -0.193  1.00  0.00     0.052 C 
ENDBRANCH   1  22
BRANCH  16  24
HETATM   24  O2  UNL     1       4.284  -0.998   0.432  1.00  0.00    -0.361 OA
HETATM   25  C14 UNL     1       5.496  -0.296   0.419  1.00  0.00     0.209 C 
ENDBRANCH  16  24
TORSDOF 2
