REMARK  6 active torsions:
REMARK  status: ('A' for Active; 'I' for Inactive)
REMARK    1  A    between atoms: C4_4  and  N1_5 
REMARK    2  A    between atoms: N1_5  and  C5_6 
REMARK    3  A    between atoms: C7_8  and  O1_9 
REMARK    4  A    between atoms: O1_9  and  C8_10 
REMARK    5  A    between atoms: C8_10  and  C9_11 
REMARK    6  A    between atoms: C9_11  and  P1_12 
ROOT
HETATM    1  C5  UNL     1      -1.890  -0.326  -0.356  1.00  0.00     0.049 C 
HETATM    2  C6  UNL     1      -0.717  -0.064  -0.878  1.00  0.00     0.041 C 
HETATM    3  C7  UNL     1       0.055   0.695  -0.145  1.00  0.00     0.104 C 
HETATM    4  C15 UNL     1      -0.926   1.405   0.705  1.00  0.00     0.070 C 
HETATM    5 CL1  UNL     1      -0.790   2.814   1.762  1.00  0.00    -0.081 Cl
HETATM    6  C16 UNL     1      -2.115   0.792   0.584  1.00  0.00     0.057 C 
ENDROOT
BRANCH   1   7
HETATM    7  N1  UNL     1      -2.835  -1.374  -0.538  1.00  0.00    -0.340 N 
HETATM    8  H5  UNL     1      -2.438  -2.322  -0.417  1.00  0.00     0.167 HD
BRANCH   7   9
HETATM    9  C4  UNL     1      -4.148  -0.891  -0.853  1.00  0.00     0.131 A 
HETATM   10  C3  UNL     1      -5.018  -0.633   0.189  1.00  0.00     0.077 A 
HETATM   11  C2  UNL     1      -6.288  -0.168  -0.087  1.00  0.00     0.035 A 
HETATM   12  C1  UNL     1      -7.272   0.130   0.983  1.00  0.00     0.070 C 
HETATM   13  N3  UNL     1      -6.608   0.009  -1.368  1.00  0.00    -0.247 NA
HETATM   14  C17 UNL     1      -5.793  -0.229  -2.412  1.00  0.00     0.235 A 
HETATM   15  N2  UNL     1      -4.538  -0.689  -2.131  1.00  0.00    -0.224 NA
ENDBRANCH   7   9
ENDBRANCH   1   7
BRANCH   3  16
HETATM   16  O1  UNL     1       1.373   1.039   0.096  1.00  0.00    -0.345 OA
BRANCH  16  17
HETATM   17  C8  UNL     1       2.289   0.165   0.725  1.00  0.00     0.204 C 
BRANCH  17  18
HETATM   18  C9  UNL     1       3.630   0.764   0.871  1.00  0.00     0.014 C 
BRANCH  18  19
HETATM   19  P1  UNL     1       5.088   0.061   0.775  1.00  0.00    -0.049 P 
HETATM   20  C10 UNL     1       5.102  -0.998  -0.509  1.00  0.00     0.014 A 
HETATM   21  C11 UNL     1       6.360  -1.174  -1.282  1.00  0.00     0.001 A 
HETATM   22  C12 UNL     1       7.443  -0.505  -0.961  1.00  0.00     0.000 A 
HETATM   23  C13 UNL     1       7.662   0.464   0.104  1.00  0.00     0.001 A 
HETATM   24  C14 UNL     1       6.703   0.827   0.969  1.00  0.00     0.014 A 
ENDBRANCH  18  19
ENDBRANCH  17  18
ENDBRANCH  16  17
ENDBRANCH   3  16
TORSDOF 6
