REMARK  9 active torsions:
REMARK  status: ('A' for Active; 'I' for Inactive)
REMARK    1  A    between atoms: C4_4  and  N1_5 
REMARK    2  A    between atoms: N1_5  and  C5_6 
REMARK    3  A    between atoms: C8_9  and  O1_10 
REMARK    4  A    between atoms: O1_10  and  C9_11 
REMARK    5  A    between atoms: C9_11  and  C10_12 
REMARK    6  A    between atoms: C10_12  and  C11_13 
REMARK    7  A    between atoms: C11_13  and  C12_14 
REMARK    8  A    between atoms: C12_14  and  B1_15 
REMARK    9  A    between atoms: B1_15  and  C13_16 
ROOT
HETATM    1  C5  UNL     1       1.596   1.278   0.544  1.00  0.00     0.035 A 
HETATM    2  C6  UNL     1       1.216  -0.017   0.259  1.00  0.00     0.032 A 
HETATM    3  C7  UNL     1       0.090  -0.277  -0.483  1.00  0.00     0.041 A 
HETATM    4  C8  UNL     1      -0.729   0.702  -0.989  1.00  0.00     0.090 A 
HETATM    5  C14 UNL     1      -0.341   2.026  -0.697  1.00  0.00     0.069 A 
HETATM    6 CL1  UNL     1      -1.136   3.539  -1.166  1.00  0.00    -0.081 Cl
HETATM    7  C15 UNL     1       0.809   2.301   0.060  1.00  0.00     0.056 A 
ENDROOT
BRANCH   1   8
HETATM    8  N1  UNL     1       2.777   1.496   1.283  1.00  0.00    -0.341 N 
HETATM    9  H5  UNL     1       2.635   2.360   1.885  1.00  0.00     0.167 HD
BRANCH   8  10
HETATM   10  C4  UNL     1       4.020   0.834   1.379  1.00  0.00     0.131 A 
HETATM   11  C3  UNL     1       4.465  -0.224   0.642  1.00  0.00     0.077 A 
HETATM   12  C2  UNL     1       5.698  -0.824   0.821  1.00  0.00     0.035 A 
HETATM   13  C1  UNL     1       6.106  -1.977  -0.020  1.00  0.00     0.070 C 
HETATM   14  N3  UNL     1       6.465  -0.300   1.785  1.00  0.00    -0.247 NA
HETATM   15  C16 UNL     1       6.087   0.730   2.533  1.00  0.00     0.235 A 
HETATM   16  N2  UNL     1       4.878   1.271   2.313  1.00  0.00    -0.224 NA
ENDBRANCH   8  10
ENDBRANCH   1   8
BRANCH   4  17
HETATM   17  O1  UNL     1      -1.862   0.827  -1.725  1.00  0.00    -0.349 OA
BRANCH  17  18
HETATM   18  C9  UNL     1      -2.623  -0.207  -2.239  1.00  0.00     0.177 C 
BRANCH  18  19
HETATM   19  C10 UNL     1      -3.208  -1.077  -1.158  1.00  0.00     0.043 C 
BRANCH  19  20
HETATM   20  C11 UNL     1      -4.068  -0.217  -0.275  1.00  0.00     0.052 C 
BRANCH  20  21
HETATM   21  C12 UNL     1      -5.316  -0.556  -0.020  1.00  0.00    -0.240 C 
BRANCH  21  22
HETATM   22  B1  UNL     1      -7.085  -0.582  -0.032  1.00  0.00     0.265 B 
BRANCH  22  23
HETATM   23  C13 UNL     1      -8.848  -0.552   0.100  1.00  0.00     0.173 C 
HETATM   24  F1  UNL     1      -9.299  -1.805   0.525  1.00  0.00    -0.265 F 
ENDBRANCH  22  23
ENDBRANCH  21  22
ENDBRANCH  20  21
ENDBRANCH  19  20
ENDBRANCH  18  19
ENDBRANCH  17  18
ENDBRANCH   4  17
TORSDOF 9
