REMARK  7 active torsions:
REMARK  status: ('A' for Active; 'I' for Inactive)
REMARK    1  A    between atoms: C2_2  and  C3_3 
REMARK    2  A    between atoms: C4_4  and  C5_5 
REMARK    3  A    between atoms: C6_6  and  C7_7 
REMARK    4  A    between atoms: C7_7  and  O1_8 
REMARK    5  A    between atoms: O1_8  and  C8_9 
REMARK    6  A    between atoms: C11_12  and  N1_13 
REMARK    7  A    between atoms: N1_13  and  C12_14 
ROOT
HETATM    1  C8  UNL     1       0.193  -1.100  -0.634  1.00  0.00     0.107 A 
HETATM    2  C9  UNL     1      -0.045  -1.705   0.572  1.00  0.00     0.042 A 
HETATM    3  C10 UNL     1      -1.257  -1.624   1.181  1.00  0.00     0.032 A 
HETATM    4  C11 UNL     1      -2.332  -0.953   0.672  1.00  0.00     0.036 A 
HETATM    5  C17 UNL     1      -2.109  -0.333  -0.555  1.00  0.00     0.074 A 
HETATM    6  C18 UNL     1      -0.877  -0.395  -1.209  1.00  0.00     0.151 A 
HETATM    7  F1  UNL     1      -0.884   0.276  -2.387  1.00  0.00    -0.203 F 
ENDROOT
BRANCH   4   8
HETATM    8  N1  UNL     1      -3.584  -0.875   1.339  1.00  0.00    -0.341 N 
HETATM    9  H12 UNL     1      -3.650  -1.334   2.273  1.00  0.00     0.167 HD
BRANCH   8  10
HETATM   10  C12 UNL     1      -4.649  -0.183   0.685  1.00  0.00     0.131 A 
HETATM   11  C13 UNL     1      -4.870   1.183   0.742  1.00  0.00     0.077 A 
HETATM   12  C14 UNL     1      -5.966   1.678   0.044  1.00  0.00     0.035 A 
HETATM   13  C15 UNL     1      -6.200   3.147   0.102  1.00  0.00     0.070 C 
HETATM   14  N2  UNL     1      -6.754   0.833  -0.646  1.00  0.00    -0.247 NA
HETATM   15  C16 UNL     1      -6.524  -0.497  -0.691  1.00  0.00     0.235 A 
HETATM   16  N3  UNL     1      -5.464  -1.022  -0.023  1.00  0.00    -0.224 NA
ENDBRANCH   8  10
ENDBRANCH   4   8
BRANCH   1  17
HETATM   17  O1  UNL     1       1.283  -1.007  -1.471  1.00  0.00    -0.344 OA
BRANCH  17  18
HETATM   18  C7  UNL     1       2.502  -1.615  -1.142  1.00  0.00     0.203 C 
BRANCH  18  19
HETATM   19  C6  UNL     1       3.138  -1.141   0.090  1.00  0.00    -0.000 C 
HETATM   20  C5  UNL     1       4.368  -0.592   0.010  1.00  0.00    -0.002 C 
BRANCH  20  21
HETATM   21  C4  UNL     1       5.535  -0.177  -0.782  1.00  0.00    -0.004 C 
HETATM   22  C3  UNL     1       6.747   0.345  -0.967  1.00  0.00    -0.021 C 
BRANCH  22  23
HETATM   23  C2  UNL     1       7.250   0.759   0.331  1.00  0.00     0.034 C 
HETATM   24  C1  UNL     1       8.171   1.286   1.097  1.00  0.00    -0.008 C 
ENDBRANCH  22  23
ENDBRANCH  20  21
ENDBRANCH  18  19
ENDBRANCH  17  18
ENDBRANCH   1  17
TORSDOF 7
