REMARK  5 active torsions:
REMARK  status: ('A' for Active; 'I' for Inactive)
REMARK    1  A    between atoms: C4_4  and  B1_5 
REMARK    2  A    between atoms: B1_5  and  C5_6 
REMARK    3  A    between atoms: C8_9  and  O1_10 
REMARK    4  A    between atoms: O1_10  and  C9_11 
REMARK    5  A    between atoms: C9_11  and  C10_12 
ROOT
HETATM    1  C5  UNL     1      -1.503   0.402   0.909  1.00  0.00    -0.093 A 
HETATM    2  C6  UNL     1      -1.008   1.058  -0.202  1.00  0.00    -0.002 A 
HETATM    3  C7  UNL     1       0.321   1.002  -0.564  1.00  0.00     0.038 A 
HETATM    4  C8  UNL     1       1.201   0.269   0.200  1.00  0.00     0.090 A 
HETATM    5  C16 UNL     1       0.725  -0.398   1.321  1.00  0.00     0.067 A 
HETATM    6 CL1  UNL     1       1.714  -1.376   2.404  1.00  0.00    -0.081 Cl
HETATM    7  C17 UNL     1      -0.618  -0.344   1.691  1.00  0.00     0.022 A 
ENDROOT
BRANCH   1   8
HETATM    8  B1  UNL     1      -3.007   0.459   1.327  1.00  0.00     0.254 B 
HETATM    9  H5  UNL     1      -3.201   0.676   2.483  1.00  0.00    -0.014 HD
BRANCH   8  10
HETATM   10  C4  UNL     1      -4.130  -0.278   0.507  1.00  0.00    -0.005 A 
HETATM   11  C3  UNL     1      -5.270   0.511   0.417  1.00  0.00     0.041 A 
HETATM   12  C2  UNL     1      -6.377   0.022  -0.276  1.00  0.00     0.033 A 
HETATM   13  C1  UNL     1      -7.650   0.806  -0.425  1.00  0.00     0.070 C 
HETATM   14  N2  UNL     1      -6.309  -1.199  -0.837  1.00  0.00    -0.247 NA
HETATM   15  C18 UNL     1      -5.166  -1.936  -0.720  1.00  0.00     0.232 A 
HETATM   16  N1  UNL     1      -4.074  -1.494  -0.056  1.00  0.00    -0.259 NA
ENDBRANCH   8  10
ENDBRANCH   1   8
BRANCH   4  17
HETATM   17  O1  UNL     1       2.545   0.078   0.029  1.00  0.00    -0.345 OA
BRANCH  17  18
HETATM   18  C9  UNL     1       3.353   0.594  -0.985  1.00  0.00     0.214 C 
BRANCH  18  19
HETATM   19  C10 UNL     1       4.747   0.096  -0.731  1.00  0.00    -0.031 A 
HETATM   20  C11 UNL     1       5.541   0.901   0.069  1.00  0.00     0.009 A 
HETATM   21  C12 UNL     1       6.834   0.440   0.305  1.00  0.00     0.004 A 
HETATM   22  C13 UNL     1       7.289  -0.751  -0.230  1.00  0.00     0.042 A 
HETATM   23  C14 UNL     1       6.479  -1.531  -1.021  1.00  0.00     0.117 A 
HETATM   24  F1  UNL     1       6.884  -2.707  -1.567  1.00  0.00    -0.206 F 
HETATM   25  C15 UNL     1       5.174  -1.096  -1.278  1.00  0.00     0.051 A 
ENDBRANCH  18  19
ENDBRANCH  17  18
ENDBRANCH   4  17
TORSDOF 5
