REMARK  4 active torsions:
REMARK  status: ('A' for Active; 'I' for Inactive)
REMARK    1  A    between atoms: C6_8  and  C7_9 
REMARK    2  A    between atoms: C7_9  and  O3_11 
REMARK    3  A    between atoms: C12_17  and  N3_18 
REMARK    4  A    between atoms: C12_17  and  N5_21 
ROOT
HETATM    1  C1  UNL     1       0.169  -1.917   2.590  1.00  0.00     0.180 C 
HETATM    2  N1  UNL     1      -0.416  -0.966   1.689  1.00  0.00    -0.269 NA
HETATM    3  C2  UNL     1       0.240  -0.675   0.593  1.00  0.00     0.195 C 
HETATM    4  O1  UNL     1       1.471  -1.220   0.230  1.00  0.00    -0.290 OA
HETATM    5  C3  UNL     1       2.556  -0.620  -0.395  1.00  0.00     0.086 A 
HETATM    6  C4  UNL     1       3.752  -1.219  -0.096  1.00  0.00     0.039 A 
HETATM    7  C5  UNL     1       4.902  -0.704  -0.665  1.00  0.00     0.021 A 
HETATM    8  C6  UNL     1       4.846   0.385  -1.510  1.00  0.00     0.038 A 
HETATM    9  C8  UNL     1       3.611   0.954  -1.779  1.00  0.00     0.029 A 
HETATM   10  C9  UNL     1       2.416   0.470  -1.229  1.00  0.00    -0.006 A 
HETATM   11  C10 UNL     1       1.372   1.337  -1.759  1.00  0.00     0.161 C 
HETATM   12  N2  UNL     1       0.091   1.253  -1.135  1.00  0.00    -0.379 N 
HETATM   13  C11 UNL     1      -0.467   0.302  -0.230  1.00  0.00     0.130 C 
HETATM   14  C12 UNL     1      -1.769   0.358  -0.170  1.00  0.00     0.182 C 
HETATM   15  H10 UNL     1      -0.508   2.076  -1.441  1.00  0.00     0.160 HD
ENDROOT
BRANCH  14  16
HETATM   16  N3  UNL     1      -2.747   1.172  -0.822  1.00  0.00    -0.135 NA
HETATM   17  N4  UNL     1      -3.211   2.221  -0.265  1.00  0.00    -0.196 NA
HETATM   18  C13 UNL     1      -4.201   2.989  -0.998  1.00  0.00     0.204 C 
ENDBRANCH  14  16
BRANCH  14  19
HETATM   19  N5  UNL     1      -2.623  -0.449   0.631  1.00  0.00    -0.334 N 
HETATM   20  C14 UNL     1      -3.050  -0.032   1.924  1.00  0.00     0.112 A 
HETATM   21  C15 UNL     1      -3.844  -0.882   2.558  1.00  0.00     0.026 A 
HETATM   22 BR1  UNL     1      -4.419  -0.329   4.289  1.00  0.00    -0.050 Br
HETATM   23  C16 UNL     1      -4.291  -2.168   2.037  1.00  0.00     0.018 A 
HETATM   24  C17 UNL     1      -3.838  -2.459   0.832  1.00  0.00    -0.005 A 
HETATM   25  C18 UNL     1      -2.948  -1.680  -0.068  1.00  0.00     0.157 A 
ENDBRANCH  14  19
BRANCH   8  26
HETATM   26  C7  UNL     1       6.077   0.883  -2.076  1.00  0.00     0.176 C 
HETATM   27  O2  UNL     1       7.146   0.298  -1.770  1.00  0.00    -0.646 OA
BRANCH  26  28
HETATM   28  O3  UNL     1       6.117   1.975  -2.937  1.00  0.00    -0.773 OA
HETATM   29  H6  UNL     1       6.920   2.592  -2.934  1.00  0.00     0.167 HD
ENDBRANCH  26  28
ENDBRANCH   8  26
TORSDOF 4
