REMARK  5 active torsions:
REMARK  status: ('A' for Active; 'I' for Inactive)
REMARK    1  A    between atoms: C4_4  and  N1_5 
REMARK    2  A    between atoms: N1_5  and  P1_6 
REMARK    3  A    between atoms: C8_10  and  O1_11 
REMARK    4  A    between atoms: O1_11  and  C9_12 
REMARK    5  A    between atoms: C9_12  and  C10_13 
ROOT
HETATM    1  P1  UNL     1      -2.050  -1.369   1.060  1.00  0.00    -0.012 P 
HETATM    2  C5  UNL     1      -1.915   0.234   1.201  1.00  0.00    -0.002 C 
HETATM    3  C6  UNL     1      -0.732   0.746   1.381  1.00  0.00     0.029 C 
HETATM    4  C7  UNL     1       0.457   0.260   0.690  1.00  0.00     0.008 C 
HETATM    5  C8  UNL     1       1.538   1.014   0.552  1.00  0.00     0.148 C 
HETATM    6  C16 UNL     1       0.445  -1.092   0.142  1.00  0.00     0.048 C 
HETATM    7 CL1  UNL     1       1.840  -1.771  -0.713  1.00  0.00    -0.083 Cl
HETATM    8  C17 UNL     1      -0.582  -1.924   0.226  1.00  0.00     0.049 C 
HETATM    9  H6  UNL     1      -2.207  -1.946   2.337  1.00  0.00     0.083 HD
ENDROOT
BRANCH   1  10
HETATM   10  N1  UNL     1      -3.502  -1.630   0.093  1.00  0.00    -0.349 N 
HETATM   11  H5  UNL     1      -3.672  -2.516  -0.449  1.00  0.00     0.166 HD
BRANCH  10  12
HETATM   12  C4  UNL     1      -4.532  -0.632  -0.001  1.00  0.00     0.130 A 
HETATM   13  C3  UNL     1      -5.703  -0.727  -0.724  1.00  0.00     0.077 A 
HETATM   14  C2  UNL     1      -6.606   0.308  -0.726  1.00  0.00     0.035 A 
HETATM   15  C1  UNL     1      -7.851   0.211  -1.492  1.00  0.00     0.070 C 
HETATM   16  N3  UNL     1      -6.344   1.439  -0.009  1.00  0.00    -0.247 NA
HETATM   17  C18 UNL     1      -5.209   1.519   0.685  1.00  0.00     0.235 A 
HETATM   18  N2  UNL     1      -4.343   0.517   0.683  1.00  0.00    -0.225 NA
ENDBRANCH  10  12
ENDBRANCH   1  10
BRANCH   5  19
HETATM   19  O1  UNL     1       2.711   0.601  -0.102  1.00  0.00    -0.358 OA
BRANCH  19  20
HETATM   20  C9  UNL     1       3.925   1.106   0.375  1.00  0.00     0.213 C 
BRANCH  20  21
HETATM   21  C10 UNL     1       5.121   0.652  -0.334  1.00  0.00    -0.031 A 
HETATM   22  C11 UNL     1       5.669   1.295  -1.423  1.00  0.00     0.009 A 
HETATM   23  C12 UNL     1       6.800   0.826  -2.057  1.00  0.00     0.004 A 
HETATM   24  C13 UNL     1       7.440  -0.328  -1.618  1.00  0.00     0.042 A 
HETATM   25  C14 UNL     1       6.910  -0.990  -0.528  1.00  0.00     0.117 A 
HETATM   26  F1  UNL     1       7.536  -2.122  -0.095  1.00  0.00    -0.206 F 
HETATM   27  C15 UNL     1       5.786  -0.486   0.068  1.00  0.00     0.051 A 
ENDBRANCH  20  21
ENDBRANCH  19  20
ENDBRANCH   5  19
TORSDOF 5
