REMARK  5 active torsions:
REMARK  status: ('A' for Active; 'I' for Inactive)
REMARK    1  A    between atoms: C5_6  and  C6_7 
REMARK    2  A    between atoms: C6_7  and  O1_8 
REMARK    3  A    between atoms: O1_8  and  C7_9 
REMARK    4  A    between atoms: C10_12  and  N1_13 
REMARK    5  A    between atoms: N1_13  and  C11_14 
ROOT
HETATM    1  C7  UNL     1      -0.514  -0.133   0.913  1.00  0.00     0.091 A 
HETATM    2  C8  UNL     1       0.288   0.040  -0.196  1.00  0.00     0.041 A 
HETATM    3  C9  UNL     1       1.645  -0.114  -0.019  1.00  0.00     0.032 A 
HETATM    4  C10 UNL     1       2.287  -0.423   1.149  1.00  0.00     0.035 A 
HETATM    5  C15 UNL     1       1.433  -0.583   2.220  1.00  0.00     0.056 A 
HETATM    6  C16 UNL     1       0.068  -0.444   2.119  1.00  0.00     0.069 A 
HETATM    7 CL1  UNL     1      -0.927  -0.669   3.542  1.00  0.00    -0.081 Cl
ENDROOT
BRANCH   1   8
HETATM    8  O1  UNL     1      -1.894   0.009   0.802  1.00  0.00    -0.345 OA
BRANCH   8   9
HETATM    9  C6  UNL     1      -2.473   0.331  -0.450  1.00  0.00     0.214 C 
BRANCH   9  10
HETATM   10  C5  UNL     1      -3.948   0.444  -0.392  1.00  0.00    -0.031 A 
HETATM   11  C4  UNL     1      -4.777  -0.627  -0.608  1.00  0.00     0.009 A 
HETATM   12  C3  UNL     1      -6.155  -0.566  -0.564  1.00  0.00     0.004 A 
HETATM   13  C2  UNL     1      -6.715   0.664  -0.282  1.00  0.00     0.042 A 
HETATM   14  C1  UNL     1      -5.938   1.764  -0.058  1.00  0.00     0.117 A 
HETATM   15  F1  UNL     1      -6.429   3.003   0.225  1.00  0.00    -0.206 F 
HETATM   16  C17 UNL     1      -4.561   1.652  -0.113  1.00  0.00     0.051 A 
ENDBRANCH   9  10
ENDBRANCH   8   9
ENDBRANCH   1   8
BRANCH   4  17
HETATM   17  N1  UNL     1       3.674  -0.579   1.323  1.00  0.00    -0.341 N 
HETATM   18  H8  UNL     1       4.010  -0.818   2.291  1.00  0.00     0.167 HD
BRANCH  17  19
HETATM   19  C11 UNL     1       4.691  -0.452   0.343  1.00  0.00     0.130 A 
HETATM   20  C12 UNL     1       6.019  -0.637   0.671  1.00  0.00     0.070 A 
HETATM   21  C13 UNL     1       7.074  -0.540  -0.187  1.00  0.00     0.122 A 
HETATM   22  N2  UNL     1       6.776  -0.234  -1.478  1.00  0.00    -0.254 NA
HETATM   23  C14 UNL     1       5.495  -0.041  -1.862  1.00  0.00     0.234 A 
HETATM   24  N3  UNL     1       4.543  -0.157  -0.956  1.00  0.00    -0.225 NA
ENDBRANCH  17  19
ENDBRANCH   4  17
TORSDOF 5
