REMARK  2 active torsions:
REMARK  status: ('A' for Active; 'I' for Inactive)
REMARK    1  A    between atoms: C4_4  and  N1_5 
REMARK    2  A    between atoms: C12_15  and  C13_16 
ROOT
HETATM    1  N1  UNL     1      -0.706  -0.743  -1.263  1.00  0.00    -0.312 N 
HETATM    2  C5  UNL     1      -0.270  -2.073  -1.531  1.00  0.00     0.140 C 
HETATM    3  C6  UNL     1       0.684  -2.925  -1.314  1.00  0.00     0.129 C 
HETATM    4  F1  UNL     1       0.143  -3.977  -2.027  1.00  0.00    -0.205 F 
HETATM    5  C7  UNL     1       1.968  -2.995  -0.669  1.00  0.00     0.026 C 
HETATM    6  C8  UNL     1       2.216  -1.752  -0.169  1.00  0.00     0.045 C 
HETATM    7  C9  UNL     1       3.383  -1.222   0.605  1.00  0.00    -0.019 C 
HETATM    8  C10 UNL     1       3.158   0.073   0.837  1.00  0.00    -0.004 C 
HETATM    9  C11 UNL     1       2.120   1.073   0.539  1.00  0.00     0.202 C 
HETATM   10  O1  UNL     1       1.103   0.422  -0.221  1.00  0.00    -0.349 OA
HETATM   11  C12 UNL     1       0.440   1.122  -1.237  1.00  0.00     0.076 C 
HETATM   12  C14 UNL     1      -0.561   0.532  -1.845  1.00  0.00     0.131 C 
ENDROOT
BRANCH   1  13
HETATM   13  C4  UNL     1      -1.539  -0.478  -0.105  1.00  0.00     0.137 A 
HETATM   14  C3  UNL     1      -2.038   0.685   0.476  1.00  0.00     0.077 A 
HETATM   15  C2  UNL     1      -2.822   0.740   1.576  1.00  0.00     0.035 A 
HETATM   16  C1  UNL     1      -3.207   2.101   1.975  1.00  0.00     0.070 C 
HETATM   17  N3  UNL     1      -3.160  -0.409   2.175  1.00  0.00    -0.247 NA
HETATM   18  C15 UNL     1      -2.716  -1.554   1.670  1.00  0.00     0.235 A 
HETATM   19  N2  UNL     1      -1.940  -1.596   0.580  1.00  0.00    -0.224 NA
ENDBRANCH   1  13
BRANCH  11  20
HETATM   20  C13 UNL     1       0.770   2.480  -1.690  1.00  0.00     0.180 C 
HETATM   21 CL1  UNL     1       0.613   3.657  -0.350  1.00  0.00    -0.123 Cl
ENDBRANCH  11  20
TORSDOF 2
