REMARK  5 active torsions:
REMARK  status: ('A' for Active; 'I' for Inactive)
REMARK    1  A    between atoms: C1_1  and  C2_2 
REMARK    2  A    between atoms: C1_1  and  C13_16 
REMARK    3  A    between atoms: C2_2  and  N1_3 
REMARK    4  A    between atoms: N1_3  and  C3_4 
REMARK    5  A    between atoms: C5_6  and  C6_7 
ROOT
HETATM    1  C3  UNL     1       0.411  -0.373   0.422  1.00  0.00     0.130 A 
HETATM    2  C4  UNL     1       1.736   0.087   0.420  1.00  0.00     0.083 A 
HETATM    3  C5  UNL     1       2.777  -0.646  -0.136  1.00  0.00     0.072 A 
HETATM    4  N2  UNL     1       2.434  -1.830  -0.674  1.00  0.00    -0.241 NA
HETATM    5  C12 UNL     1       1.176  -2.301  -0.688  1.00  0.00     0.235 A 
HETATM    6  N3  UNL     1       0.196  -1.569  -0.144  1.00  0.00    -0.224 NA
ENDROOT
BRANCH   1   7
HETATM    7  N1  UNL     1      -0.451   0.580   1.055  1.00  0.00    -0.354 N 
HETATM    8  H3  UNL     1      -0.449   0.100   1.986  1.00  0.00     0.166 HD
BRANCH   7   9
HETATM    9  C2  UNL     1      -1.066   1.750   0.529  1.00  0.00     0.072 C 
BRANCH   9  10
HETATM   10  C1  UNL     1      -2.306   1.703   0.148  1.00  0.00     0.061 C 
BRANCH  10  11
HETATM   11  C13 UNL     1      -3.602   2.041  -0.360  1.00  0.00     0.017 C 
HETATM   12  C14 UNL     1      -4.279   0.887  -0.245  1.00  0.00     0.047 C 
HETATM   13  C15 UNL     1      -3.684  -0.361   0.301  1.00  0.00     0.091 C 
HETATM   14  O1  UNL     1      -5.602   0.776  -0.634  1.00  0.00    -0.352 OA
HETATM   15  C16 UNL     1      -4.739  -1.316   0.757  1.00  0.00    -0.022 C 
HETATM   16  C17 UNL     1      -5.951  -1.430   0.231  1.00  0.00    -0.004 C 
HETATM   17  C18 UNL     1      -6.163  -0.476  -0.902  1.00  0.00     0.202 C 
ENDBRANCH  10  11
ENDBRANCH   9  10
ENDBRANCH   7   9
ENDBRANCH   1   7
BRANCH   3  18
HETATM   18  C6  UNL     1       4.161  -0.193  -0.172  1.00  0.00    -0.007 A 
HETATM   19  C7  UNL     1       4.606   0.997   0.352  1.00  0.00     0.014 A 
HETATM   20  C8  UNL     1       5.910   1.451   0.314  1.00  0.00     0.001 A 
HETATM   21  C9  UNL     1       6.842   0.614  -0.314  1.00  0.00     0.000 A 
HETATM   22  C10 UNL     1       6.427  -0.607  -0.861  1.00  0.00     0.001 A 
HETATM   23  C11 UNL     1       5.104  -0.992  -0.784  1.00  0.00     0.014 A 
ENDBRANCH   3  18
TORSDOF 5
