REMARK  6 active torsions:
REMARK  status: ('A' for Active; 'I' for Inactive)
REMARK    1  A    between atoms: C2_2  and  C3_3 
REMARK    2  A    between atoms: C4_4  and  C5_5 
REMARK    3  A    between atoms: C6_6  and  C7_7 
REMARK    4  A    between atoms: C9_9  and  N1_10 
REMARK    5  A    between atoms: N1_10  and  C10_11 
REMARK    6  A    between atoms: C14_16  and  C15_17 
ROOT
HETATM    1  N1  UNL     1      -1.396   0.718  -1.210  1.00  0.00    -0.342 N 
HETATM    2  H9  UNL     1      -1.543   0.044  -1.990  1.00  0.00     0.167 HD
ENDROOT
BRANCH   1   3
HETATM    3  C9  UNL     1      -0.112   0.818  -0.613  1.00  0.00     0.131 A 
HETATM    4  C8  UNL     1       0.924   0.038  -1.067  1.00  0.00     0.082 A 
HETATM    5  C7  UNL     1       2.203   0.053  -0.560  1.00  0.00     0.061 A 
HETATM    6  N3  UNL     1       2.437   0.897   0.450  1.00  0.00    -0.242 NA
HETATM    7  C21 UNL     1       1.443   1.669   0.911  1.00  0.00     0.235 A 
HETATM    8  N2  UNL     1       0.200   1.640   0.403  1.00  0.00    -0.224 NA
BRANCH   5   9
HETATM    9  C6  UNL     1       3.197  -0.828  -1.140  1.00  0.00     0.032 C 
HETATM   10  C5  UNL     1       4.459  -0.937  -0.775  1.00  0.00     0.002 C 
BRANCH  10  11
HETATM   11  C4  UNL     1       5.324  -0.329   0.221  1.00  0.00     0.000 C 
HETATM   12  C3  UNL     1       6.581  -0.472   0.546  1.00  0.00    -0.001 C 
BRANCH  12  13
HETATM   13  C2  UNL     1       7.433  -1.415  -0.155  1.00  0.00    -0.010 C 
HETATM   14  C1  UNL     1       8.706  -1.530   0.208  1.00  0.00     0.011 C 
ENDBRANCH  12  13
ENDBRANCH  10  11
ENDBRANCH   5   9
ENDBRANCH   1   3
BRANCH   1  15
HETATM   15  C10 UNL     1      -2.551   1.436  -0.882  1.00  0.00     0.045 A 
HETATM   16  C11 UNL     1      -2.297   2.683  -0.476  1.00  0.00     0.030 A 
HETATM   17  C12 UNL     1      -3.425   3.537  -0.103  1.00  0.00     0.026 A 
HETATM   18  C13 UNL     1      -4.669   3.087  -0.166  1.00  0.00     0.136 A 
HETATM   19  O1  UNL     1      -4.898   1.793  -0.590  1.00  0.00    -0.347 OA
HETATM   20  C14 UNL     1      -3.907   0.894  -0.969  1.00  0.00     0.210 A 
BRANCH  20  21
HETATM   21  C15 UNL     1      -4.111  -0.399  -0.276  1.00  0.00    -0.020 A 
HETATM   22  C16 UNL     1      -3.231  -1.226   0.377  1.00  0.00     0.010 A 
HETATM   23  C17 UNL     1      -3.684  -2.397   0.946  1.00  0.00     0.004 A 
HETATM   24  C18 UNL     1      -4.997  -2.818   0.912  1.00  0.00     0.042 A 
HETATM   25  C19 UNL     1      -5.869  -1.977   0.253  1.00  0.00     0.117 A 
HETATM   26  F1  UNL     1      -7.174  -2.393   0.217  1.00  0.00    -0.206 F 
HETATM   27  C20 UNL     1      -5.444  -0.781  -0.337  1.00  0.00     0.052 A 
ENDBRANCH  20  21
ENDBRANCH   1  15
TORSDOF 6
