REMARK  5 active torsions:
REMARK  status: ('A' for Active; 'I' for Inactive)
REMARK    1  A    between atoms: C3_3  and  C4_4 
REMARK    2  A    between atoms: C5_5  and  C6_6 
REMARK    3  A    between atoms: C7_7  and  C8_8 
REMARK    4  A    between atoms: C10_10  and  N1_11 
REMARK    5  A    between atoms: N1_11  and  C11_12 
ROOT
HETATM    1  N1  UNL     1      -2.032   1.242   0.070  1.00  0.00    -0.340 N 
HETATM    2  H11 UNL     1      -1.988   2.276  -0.199  1.00  0.00     0.167 HD
ENDROOT
BRANCH   1   3
HETATM    3  C10 UNL     1      -0.737   0.587   0.114  1.00  0.00     0.131 A 
HETATM    4  C9  UNL     1       0.434   1.247  -0.182  1.00  0.00     0.082 A 
HETATM    5  C8  UNL     1       1.683   0.700  -0.165  1.00  0.00     0.061 A 
HETATM    6  N3  UNL     1       1.715  -0.597   0.176  1.00  0.00    -0.242 NA
HETATM    7  C22 UNL     1       0.618  -1.308   0.478  1.00  0.00     0.235 A 
HETATM    8  N2  UNL     1      -0.592  -0.709   0.443  1.00  0.00    -0.224 NA
BRANCH   5   9
HETATM    9  C7  UNL     1       2.830   1.527  -0.503  1.00  0.00     0.032 C 
HETATM   10  C6  UNL     1       4.091   1.138  -0.530  1.00  0.00     0.002 C 
BRANCH  10  11
HETATM   11  C5  UNL     1       4.798  -0.106  -0.273  1.00  0.00     0.000 C 
HETATM   12  C4  UNL     1       6.075  -0.440  -0.317  1.00  0.00    -0.000 C 
BRANCH  12  13
HETATM   13  C3  UNL     1       7.091   0.515  -0.675  1.00  0.00    -0.004 C 
HETATM   14  C2  UNL     1       8.368   0.134  -0.706  1.00  0.00    -0.031 C 
HETATM   15  C1  UNL     1       8.683  -1.262  -0.368  1.00  0.00     0.036 C 
ENDBRANCH  12  13
ENDBRANCH  10  11
ENDBRANCH   5   9
ENDBRANCH   1   3
BRANCH   1  16
HETATM   16  C11 UNL     1      -3.165   0.414   0.417  1.00  0.00     0.047 C 
HETATM   17  C12 UNL     1      -2.961  -0.146   1.628  1.00  0.00     0.032 C 
HETATM   18  C13 UNL     1      -3.686  -1.059   2.539  1.00  0.00     0.026 C 
HETATM   19  C14 UNL     1      -4.933  -1.553   2.443  1.00  0.00     0.135 C 
HETATM   20  O1  UNL     1      -5.996  -1.456   1.564  1.00  0.00    -0.359 OA
HETATM   21  C15 UNL     1      -6.506  -0.412   0.774  1.00  0.00     0.214 C 
HETATM   22  C16 UNL     1      -5.617  -0.029  -0.353  1.00  0.00    -0.019 A 
HETATM   23  C17 UNL     1      -6.357  -0.011  -1.527  1.00  0.00     0.010 A 
HETATM   24  C21 UNL     1      -4.283   0.295  -0.479  1.00  0.00     0.038 A 
HETATM   25  C18 UNL     1      -5.790   0.311  -2.741  1.00  0.00     0.004 A 
HETATM   26  C19 UNL     1      -4.431   0.636  -2.836  1.00  0.00     0.043 A 
HETATM   27  C20 UNL     1      -3.696   0.620  -1.681  1.00  0.00     0.129 A 
HETATM   28  F1  UNL     1      -2.402   0.937  -1.854  1.00  0.00    -0.205 F 
ENDBRANCH   1  16
TORSDOF 5
