REMARK  7 active torsions:
REMARK  status: ('A' for Active; 'I' for Inactive)
REMARK    1  A    between atoms: C5_6  and  C6_7 
REMARK    2  A    between atoms: C6_7  and  O1_8 
REMARK    3  A    between atoms: O1_8  and  C7_9 
REMARK    4  A    between atoms: C10_12  and  N1_13 
REMARK    5  A    between atoms: N1_13  and  C11_14 
REMARK    6  A    between atoms: C11_14  and  N2_15 
REMARK    7  A    between atoms: C12_16  and  N3_17 
ROOT
HETATM    1  C7  UNL     1       2.759   0.543   0.034  1.00  0.00     0.091 A 
HETATM    2  C8  UNL     1       1.758  -0.332   0.439  1.00  0.00     0.041 A 
HETATM    3  C9  UNL     1       0.471   0.152   0.535  1.00  0.00     0.032 A 
HETATM    4  C10 UNL     1       0.117   1.437   0.257  1.00  0.00     0.031 A 
HETATM    5  C20 UNL     1       1.108   2.305  -0.144  1.00  0.00     0.056 A 
HETATM    6  C21 UNL     1       2.410   1.858  -0.252  1.00  0.00     0.069 A 
HETATM    7 CL1  UNL     1       3.554   3.095  -0.777  1.00  0.00    -0.081 Cl
ENDROOT
BRANCH   4   8
HETATM    8  N1  UNL     1      -1.229   1.877   0.374  1.00  0.00    -0.372 N 
HETATM    9  H8  UNL     1      -1.466   2.871   0.153  1.00  0.00     0.161 HD
BRANCH   8  10
HETATM   10  C11 UNL     1      -2.253   0.941   0.799  1.00  0.00     0.272 C 
BRANCH  10  11
HETATM   11  N2  UNL     1      -2.392  -0.189  -0.073  1.00  0.00    -0.263 NA
HETATM   12  C12 UNL     1      -3.361  -0.294  -0.946  1.00  0.00     0.228 C 
BRANCH  12  13
HETATM   13  N3  UNL     1      -4.168   0.875  -0.831  1.00  0.00    -0.246 NA
HETATM   14  C13 UNL     1      -5.372   0.835  -0.376  1.00  0.00     0.045 C 
HETATM   15  C14 UNL     1      -6.492   1.726  -0.099  1.00  0.00     0.035 C 
HETATM   16  C19 UNL     1      -6.221  -0.215   0.107  1.00  0.00     0.074 C 
HETATM   17  C15 UNL     1      -7.368   0.785   0.207  1.00  0.00    -0.046 C 
HETATM   18  C16 UNL     1      -8.445  -0.172   0.572  1.00  0.00     0.004 C 
HETATM   19  C17 UNL     1      -8.190  -1.354  -0.045  1.00  0.00    -0.025 C 
HETATM   20  C18 UNL     1      -6.900  -1.176  -0.845  1.00  0.00     0.043 C 
ENDBRANCH  12  13
ENDBRANCH  10  11
ENDBRANCH   8  10
ENDBRANCH   4   8
BRANCH   1  21
HETATM   21  O1  UNL     1       4.106   0.314  -0.139  1.00  0.00    -0.345 OA
BRANCH  21  22
HETATM   22  C6  UNL     1       4.608  -0.983   0.116  1.00  0.00     0.214 C 
BRANCH  22  23
HETATM   23  C5  UNL     1       6.080  -1.037  -0.125  1.00  0.00    -0.031 A 
HETATM   24  C4  UNL     1       6.859  -0.738   0.993  1.00  0.00     0.009 A 
HETATM   25  C3  UNL     1       8.232  -0.734   0.971  1.00  0.00     0.004 A 
HETATM   26  C2  UNL     1       8.857  -1.042  -0.218  1.00  0.00     0.042 A 
HETATM   27  C1  UNL     1       8.100  -1.336  -1.317  1.00  0.00     0.117 A 
HETATM   28  F1  UNL     1       8.702  -1.640  -2.490  1.00  0.00    -0.206 F 
HETATM   29  C22 UNL     1       6.724  -1.342  -1.303  1.00  0.00     0.051 A 
ENDBRANCH  22  23
ENDBRANCH  21  22
ENDBRANCH   1  21
TORSDOF 7
