REMARK  4 active torsions:
REMARK  status: ('A' for Active; 'I' for Inactive)
REMARK    1  A    between atoms: N1_1  and  C1_2 
REMARK    2  A    between atoms: N2_10  and  C9_11 
REMARK    3  A    between atoms: C12_14  and  O1_15 
REMARK    4  A    between atoms: O1_15  and  C13_16 
ROOT
HETATM    1  C9  UNL     1       0.150   0.640   0.283  1.00  0.00     0.059 A 
HETATM    2  C10 UNL     1       1.105  -0.352   0.204  1.00  0.00     0.034 A 
HETATM    3  C11 UNL     1       2.462  -0.113   0.238  1.00  0.00     0.041 A 
HETATM    4  C12 UNL     1       2.900   1.188   0.356  1.00  0.00     0.097 A 
HETATM    5  C20 UNL     1       2.018   2.243   0.441  1.00  0.00     0.070 A 
HETATM    6 CL1  UNL     1       2.548   3.889   0.590  1.00  0.00    -0.081 Cl
HETATM    7  C21 UNL     1       0.683   1.912   0.399  1.00  0.00     0.058 A 
ENDROOT
BRANCH   1   8
HETATM    8  N2  UNL     1      -1.253   0.431   0.251  1.00  0.00    -0.246 N 
HETATM    9  C8  UNL     1      -1.787  -0.879   0.131  1.00  0.00     0.116 A 
HETATM   10  C7  UNL     1      -3.102  -1.015   0.107  1.00  0.00     0.010 A 
HETATM   11  C6  UNL     1      -4.102   0.078   0.193  1.00  0.00     0.048 A 
HETATM   12  C1  UNL     1      -5.061   0.047  -0.970  1.00  0.00     0.239 C 
HETATM   13  C5  UNL     1      -4.905  -0.066   1.491  1.00  0.00     0.048 C 
HETATM   14  C22 UNL     1      -3.362   1.359   0.313  1.00  0.00     0.128 A 
HETATM   15  C2  UNL     1      -6.417  -0.511  -0.570  1.00  0.00     0.063 C 
HETATM   16  C3  UNL     1      -6.266  -1.645   0.382  1.00  0.00    -0.028 C 
HETATM   17  C4  UNL     1      -5.495  -1.453   1.454  1.00  0.00    -0.029 C 
HETATM   18  N3  UNL     1      -2.085   1.537   0.340  1.00  0.00    -0.183 NA
BRANCH  12  19
HETATM   19  N1  UNL     1      -5.297   1.350  -1.538  1.00  0.00     0.084 N 
HETATM   20  H1  UNL     1      -5.503   1.348  -2.543  1.00  0.00     0.313 HD
HETATM   21  H2  UNL     1      -5.932   1.937  -0.952  1.00  0.00     0.313 HD
ENDBRANCH  12  19
ENDBRANCH   1   8
BRANCH   4  22
HETATM   22  O1  UNL     1       4.260   1.506   0.397  1.00  0.00    -0.313 OA
BRANCH  22  23
HETATM   23  C13 UNL     1       5.171   0.471   0.315  1.00  0.00     0.053 C 
HETATM   24  C14 UNL     1       5.484   0.014  -0.872  1.00  0.00     0.013 C 
HETATM   25  C15 UNL     1       6.429  -1.086  -1.267  1.00  0.00     0.100 C 
HETATM   26  C16 UNL     1       7.558  -1.212  -0.301  1.00  0.00     0.108 C 
HETATM   27  F1  UNL     1       8.214  -2.397  -0.474  1.00  0.00    -0.210 F 
HETATM   28  C17 UNL     1       8.011  -0.416   0.645  1.00  0.00     0.008 C 
HETATM   29  C18 UNL     1       7.196   0.022   1.579  1.00  0.00    -0.005 C 
HETATM   30  C19 UNL     1       5.711  -0.023   1.624  1.00  0.00     0.092 C 
ENDBRANCH  22  23
ENDBRANCH   4  22
TORSDOF 4
