REMARK  1 active torsions:
REMARK  status: ('A' for Active; 'I' for Inactive)
REMARK    1  A    between atoms: N1_5  and  C5_6 
ROOT
HETATM    1  C5  UNL     1      -0.293   0.673  -0.406  1.00  0.00     0.055 C 
HETATM    2  C6  UNL     1       0.854   0.773  -1.050  1.00  0.00     0.010 C 
HETATM    3  C7  UNL     1       2.236   1.125  -0.978  1.00  0.00     0.111 C 
HETATM    4  C8  UNL     1       3.124   1.641  -0.154  1.00  0.00     0.108 C 
HETATM    5  O1  UNL     1       3.917   1.335  -1.328  1.00  0.00    -0.386 OA
HETATM    6  C9  UNL     1       4.294  -0.111  -1.044  1.00  0.00     0.202 C 
HETATM    7  C10 UNL     1       3.367  -0.582   0.059  1.00  0.00    -0.049 C 
HETATM    8  C11 UNL     1       3.677  -0.375   1.375  1.00  0.00     0.048 C 
HETATM    9  C12 UNL     1       2.408  -0.085   2.141  1.00  0.00     0.121 C 
HETATM   10  F1  UNL     1       2.194   0.207   3.472  1.00  0.00    -0.206 F 
HETATM   11  C13 UNL     1       1.446  -0.146   1.183  1.00  0.00    -0.013 C 
HETATM   12  C14 UNL     1       2.050  -1.278   0.364  1.00  0.00     0.075 C 
HETATM   13  C15 UNL     1       0.212   0.720   1.013  1.00  0.00     0.166 C 
HETATM   14 CL1  UNL     1       0.335   2.315   1.666  1.00  0.00    -0.113 Cl
ENDROOT
BRANCH   1  15
HETATM   15  N1  UNL     1      -1.632   0.321  -0.601  1.00  0.00    -0.248 N 
HETATM   16  C4  UNL     1      -2.682   1.249  -0.822  1.00  0.00     0.115 A 
HETATM   17  C3  UNL     1      -3.856   0.675  -0.987  1.00  0.00     0.002 A 
HETATM   18  C2  UNL     1      -4.137  -0.771  -0.962  1.00  0.00     0.048 A 
HETATM   19  C1  UNL     1      -5.125  -1.039   0.169  1.00  0.00     0.020 C 
HETATM   20  C16 UNL     1      -2.968  -1.612  -0.725  1.00  0.00     0.120 A 
HETATM   21  N2  UNL     1      -1.804  -1.062  -0.560  1.00  0.00    -0.184 NA
ENDBRANCH   1  15
TORSDOF 1
