REMARK  7 active torsions:
REMARK  status: ('A' for Active; 'I' for Inactive)
REMARK    1  A    between atoms: C2_2  and  C3_3 
REMARK    2  A    between atoms: N1_5  and  C5_6 
REMARK    3  A    between atoms: N2_7  and  C6_8 
REMARK    4  A    between atoms: C6_8  and  N3_9 
REMARK    5  A    between atoms: N3_9  and  C7_10 
REMARK    6  A    between atoms: C10_13  and  C11_14 
REMARK    7  A    between atoms: C11_14  and  C12_15 
ROOT
HETATM    1  C7  UNL     1       0.194  -2.140  -0.779  1.00  0.00     0.030 A 
HETATM    2  C8  UNL     1       1.412  -2.717  -0.521  1.00  0.00     0.030 A 
HETATM    3  C9  UNL     1       2.544  -2.040  -0.872  1.00  0.00     0.011 A 
HETATM    4  C10 UNL     1       2.583  -0.781  -1.484  1.00  0.00    -0.032 A 
HETATM    5  C18 UNL     1       1.338  -0.246  -1.721  1.00  0.00     0.042 A 
HETATM    6 CL1  UNL     1       1.332   1.324  -2.492  1.00  0.00    -0.084 Cl
HETATM    7  C19 UNL     1       0.177  -0.907  -1.378  1.00  0.00     0.053 A 
ENDROOT
BRANCH   1   8
HETATM    8  N3  UNL     1      -1.043  -2.756  -0.454  1.00  0.00    -0.372 N 
HETATM    9  H12 UNL     1      -0.985  -3.703   0.012  1.00  0.00     0.161 HD
BRANCH   8  10
HETATM   10  C6  UNL     1      -2.324  -2.143  -0.733  1.00  0.00     0.272 C 
BRANCH  10  11
HETATM   11  N2  UNL     1      -2.512  -0.874  -0.090  1.00  0.00    -0.263 NA
HETATM   12  C5  UNL     1      -2.497  -0.788   1.181  1.00  0.00     0.228 C 
BRANCH  12  13
HETATM   13  N1  UNL     1      -2.723   0.610   1.049  1.00  0.00    -0.252 NA
HETATM   14  C3  UNL     1      -3.945   1.027   1.190  1.00  0.00     0.009 C 
HETATM   15  C4  UNL     1      -4.229   2.474   1.057  1.00  0.00     0.065 C 
BRANCH  14  16
HETATM   16  C2  UNL     1      -5.064   0.084   1.477  1.00  0.00     0.050 C 
HETATM   17  C1  UNL     1      -6.041   0.215   0.313  1.00  0.00     0.011 C 
ENDBRANCH  14  16
ENDBRANCH  12  13
ENDBRANCH  10  11
ENDBRANCH   8  10
ENDBRANCH   1   8
BRANCH   4  18
HETATM   18  C11 UNL     1       3.920  -0.241  -1.760  1.00  0.00     0.078 C 
BRANCH  18  19
HETATM   19  C12 UNL     1       4.388   0.786  -0.808  1.00  0.00    -0.051 A 
HETATM   20  C13 UNL     1       4.361   2.161  -0.880  1.00  0.00     0.007 A 
HETATM   21  C14 UNL     1       4.851   2.936   0.149  1.00  0.00     0.004 A 
HETATM   22  C15 UNL     1       5.382   2.344   1.278  1.00  0.00     0.042 A 
HETATM   23  C16 UNL     1       5.434   0.972   1.404  1.00  0.00     0.116 A 
HETATM   24  F1  UNL     1       5.959   0.425   2.521  1.00  0.00    -0.206 F 
HETATM   25  C17 UNL     1       4.935   0.230   0.356  1.00  0.00     0.049 A 
ENDBRANCH  18  19
ENDBRANCH   4  18
TORSDOF 7
