REMARK  5 active torsions:
REMARK  status: ('A' for Active; 'I' for Inactive)
REMARK    1  A    between atoms: C2_2  and  C3_3 
REMARK    2  A    between atoms: C3_3  and  C4_4 
REMARK    3  A    between atoms: C4_4  and  O1_5 
REMARK    4  A    between atoms: O1_5  and  C5_6 
REMARK    5  A    between atoms: C5_6  and  C6_7 
ROOT
HETATM    1  C1  UNL     1       0.582   2.196  -0.345  1.00  0.00     0.045 C 
HETATM    2  C2  UNL     1      -0.228   1.000  -0.672  1.00  0.00    -0.057 C 
HETATM    3  C12 UNL     1      -1.573   1.072  -0.490  1.00  0.00     0.041 C 
HETATM    4  C13 UNL     1      -2.050   2.369   0.025  1.00  0.00     0.088 C 
HETATM    5  C14 UNL     1      -3.092   2.185   1.059  1.00  0.00    -0.002 C 
HETATM    6  C15 UNL     1      -3.908   1.329   1.685  1.00  0.00     0.112 C 
HETATM    7  N1  UNL     1      -3.901  -0.038   1.325  1.00  0.00    -0.277 NA
HETATM    8  C16 UNL     1      -4.918  -0.532   0.719  1.00  0.00     0.090 C 
HETATM    9  C17 UNL     1      -4.972  -1.978   0.304  1.00  0.00     0.060 C 
HETATM   10  C18 UNL     1      -3.963  -2.278  -0.796  1.00  0.00     0.056 C 
HETATM   11  C19 UNL     1      -2.614  -2.470  -0.211  1.00  0.00     0.003 C 
HETATM   12  C20 UNL     1      -1.992  -1.299  -0.059  1.00  0.00     0.115 C 
HETATM   13  N2  UNL     1      -2.329  -0.096  -0.791  1.00  0.00    -0.250 N 
HETATM   14  N3  UNL     1      -3.371  -0.143  -1.719  1.00  0.00    -0.184 NA
HETATM   15  C21 UNL     1      -3.977  -1.271  -1.866  1.00  0.00     0.121 C 
ENDROOT
BRANCH   2  16
HETATM   16  C3  UNL     1       0.623  -0.112  -1.167  1.00  0.00     0.062 C 
BRANCH  16  17
HETATM   17  C4  UNL     1       1.659  -0.462  -0.118  1.00  0.00     0.172 C 
BRANCH  17  18
HETATM   18  O1  UNL     1       2.416  -1.503  -0.631  1.00  0.00    -0.386 OA
BRANCH  18  19
HETATM   19  C5  UNL     1       3.430  -1.923   0.196  1.00  0.00     0.206 C 
BRANCH  19  20
HETATM   20  C6  UNL     1       4.345  -0.773   0.434  1.00  0.00    -0.032 A 
HETATM   21  C7  UNL     1       5.368  -0.600  -0.494  1.00  0.00     0.009 A 
HETATM   22  C8  UNL     1       6.294   0.418  -0.398  1.00  0.00     0.004 A 
HETATM   23  C9  UNL     1       6.233   1.309   0.638  1.00  0.00     0.042 A 
HETATM   24  C10 UNL     1       5.220   1.169   1.590  1.00  0.00     0.117 A 
HETATM   25  F1  UNL     1       5.127   2.028   2.626  1.00  0.00    -0.206 F 
HETATM   26  C11 UNL     1       4.312   0.137   1.459  1.00  0.00     0.051 A 
ENDBRANCH  19  20
ENDBRANCH  18  19
ENDBRANCH  17  18
ENDBRANCH  16  17
ENDBRANCH   2  16
TORSDOF 5
