REMARK  5 active torsions:
REMARK  status: ('A' for Active; 'I' for Inactive)
REMARK    1  A    between atoms: C5_6  and  C6_7 
REMARK    2  A    between atoms: C6_7  and  O1_8 
REMARK    3  A    between atoms: O1_8  and  C7_9 
REMARK    4  A    between atoms: N1_11  and  C9_12 
REMARK    5  A    between atoms: C11_14  and  C12_15 
ROOT
HETATM    1  C7  UNL     1      -1.428  -1.678  -0.208  1.00  0.00     0.106 A 
HETATM    2  C8  UNL     1      -0.162  -1.320  -0.075  1.00  0.00     0.131 A 
HETATM    3  N1  UNL     1       0.922  -2.226   0.046  1.00  0.00    -0.336 N 
HETATM    4  C17 UNL     1       0.692  -3.654   0.030  1.00  0.00     0.159 A 
HETATM    5  C18 UNL     1      -0.756  -3.891  -0.123  1.00  0.00     0.020 A 
HETATM    6  C19 UNL     1      -1.797  -3.086  -0.239  1.00  0.00     0.066 A 
HETATM    7 CL1  UNL     1      -3.421  -3.715  -0.408  1.00  0.00    -0.082 Cl
ENDROOT
BRANCH   3   8
HETATM    8  C9  UNL     1       2.267  -1.802   0.186  1.00  0.00     0.133 A 
HETATM    9  C10 UNL     1       2.649  -0.503   0.219  1.00  0.00     0.083 A 
HETATM   10  C11 UNL     1       3.947  -0.092   0.354  1.00  0.00     0.072 A 
HETATM   11  N2  UNL     1       4.842  -1.084   0.456  1.00  0.00    -0.241 NA
HETATM   12  C16 UNL     1       4.560  -2.396   0.434  1.00  0.00     0.235 A 
HETATM   13  N3  UNL     1       3.272  -2.687   0.299  1.00  0.00    -0.224 NA
BRANCH  10  14
HETATM   14  C12 UNL     1       4.273   1.338   0.380  1.00  0.00    -0.000 A 
HETATM   15  C13 UNL     1       5.573   1.636   0.516  1.00  0.00     0.021 A 
HETATM   16  C14 UNL     1       5.858   3.076   0.537  1.00  0.00     0.050 A 
HETATM   17  S1  UNL     1       4.149   3.874   0.350  1.00  0.00    -0.113 SA
HETATM   18  C15 UNL     1       3.274   2.313   0.267  1.00  0.00     0.063 A 
ENDBRANCH  10  14
ENDBRANCH   3   8
BRANCH   1  19
HETATM   19  O1  UNL     1      -2.462  -0.758  -0.324  1.00  0.00    -0.344 OA
BRANCH  19  20
HETATM   20  C6  UNL     1      -2.281   0.623  -0.072  1.00  0.00     0.214 C 
BRANCH  20  21
HETATM   21  C5  UNL     1      -3.546   1.376  -0.269  1.00  0.00    -0.031 A 
HETATM   22  C4  UNL     1      -3.978   1.949  -1.445  1.00  0.00     0.009 A 
HETATM   23  C3  UNL     1      -5.180   2.620  -1.475  1.00  0.00     0.004 A 
HETATM   24  C2  UNL     1      -5.978   2.739  -0.351  1.00  0.00     0.042 A 
HETATM   25  C1  UNL     1      -5.574   2.178   0.841  1.00  0.00     0.117 A 
HETATM   26  F1  UNL     1      -6.315   2.261   1.980  1.00  0.00    -0.206 F 
HETATM   27  C20 UNL     1      -4.369   1.510   0.855  1.00  0.00     0.051 A 
ENDBRANCH  20  21
ENDBRANCH  19  20
ENDBRANCH   1  19
TORSDOF 5
