REMARK  6 active torsions:
REMARK  status: ('A' for Active; 'I' for Inactive)
REMARK    1  A    between atoms: C3_4  and  N1_5 
REMARK    2  A    between atoms: N1_5  and  C4_6 
REMARK    3  A    between atoms: C6_8  and  C7_9 
REMARK    4  A    between atoms: C15_20  and  O1_21 
REMARK    5  A    between atoms: O1_21  and  C16_22 
REMARK    6  A    between atoms: C16_22  and  C17_23 
ROOT
HETATM    1  N1  UNL     1       0.812   1.076   0.347  1.00  0.00    -0.341 N 
HETATM    2  H2  UNL     1       1.072   2.023   0.719  1.00  0.00     0.167 HD
ENDROOT
BRANCH   1   3
HETATM    3  C3  UNL     1      -0.583   0.857   0.257  1.00  0.00     0.035 A 
HETATM    4  C2  UNL     1      -1.514   1.829   0.636  1.00  0.00     0.056 A 
HETATM    5  C1  UNL     1      -2.861   1.630   0.555  1.00  0.00     0.069 A 
HETATM    6 CL1  UNL     1      -3.911   2.935   1.065  1.00  0.00    -0.081 Cl
HETATM    7  C15 UNL     1      -3.384   0.444   0.089  1.00  0.00     0.091 A 
HETATM    8  C14 UNL     1      -2.519  -0.553  -0.300  1.00  0.00     0.041 A 
HETATM    9  C13 UNL     1      -1.169  -0.303  -0.199  1.00  0.00     0.032 A 
BRANCH   7  10
HETATM   10  O1  UNL     1      -4.766   0.340   0.045  1.00  0.00    -0.345 OA
BRANCH  10  11
HETATM   11  C16 UNL     1      -5.379  -0.852  -0.424  1.00  0.00     0.214 C 
BRANCH  11  12
HETATM   12  C17 UNL     1      -6.842  -0.779  -0.399  1.00  0.00    -0.034 A 
HETATM   13  C18 UNL     1      -7.785   0.077  -0.065  1.00  0.00     0.009 A 
HETATM   14  C19 UNL     1      -8.755  -0.936  -0.465  1.00  0.00     0.001 A 
HETATM   15  C20 UNL     1      -7.813  -1.791  -0.798  1.00  0.00     0.009 A 
ENDBRANCH  11  12
ENDBRANCH  10  11
ENDBRANCH   7  10
ENDBRANCH   1   3
BRANCH   1  16
HETATM   16  C4  UNL     1       1.870   0.197   0.004  1.00  0.00     0.131 A 
HETATM   17  C5  UNL     1       3.172   0.618   0.173  1.00  0.00     0.083 A 
HETATM   18  C6  UNL     1       4.249  -0.176  -0.136  1.00  0.00     0.073 A 
HETATM   19  N3  UNL     1       4.012  -1.407  -0.621  1.00  0.00    -0.241 NA
HETATM   20  C12 UNL     1       2.759  -1.862  -0.803  1.00  0.00     0.235 A 
HETATM   21  N4  UNL     1       1.761  -1.043  -0.483  1.00  0.00    -0.224 NA
BRANCH  18  22
HETATM   22  C7  UNL     1       5.636   0.229   0.026  1.00  0.00     0.010 A 
HETATM   23  C8  UNL     1       6.627  -0.650  -0.316  1.00  0.00     0.017 A 
HETATM   24  C9  UNL     1       7.947  -0.279  -0.167  1.00  0.00     0.020 A 
HETATM   25  C10 UNL     1       8.334   0.947   0.315  1.00  0.00     0.116 A 
HETATM   26  N2  UNL     1       7.350   1.793   0.645  1.00  0.00    -0.272 NA
HETATM   27  C11 UNL     1       6.057   1.450   0.507  1.00  0.00     0.130 A 
ENDBRANCH  18  22
ENDBRANCH   1  16
TORSDOF 6
