REMARK  6 active torsions:
REMARK  status: ('A' for Active; 'I' for Inactive)
REMARK    1  A    between atoms: C4_5  and  N2_6 
REMARK    2  A    between atoms: C7_10  and  O1_11 
REMARK    3  A    between atoms: O1_11  and  C8_12 
REMARK    4  A    between atoms: C8_12  and  C9_13 
REMARK    5  A    between atoms: C9_13  and  C10_14 
REMARK    6  A    between atoms: C10_14  and  C11_15 
ROOT
HETATM    1  N2  UNL     1      -0.560  -0.619  -0.445  1.00  0.00    -0.338 N 
HETATM    2  C5  UNL     1       0.584  -1.427  -0.585  1.00  0.00     0.119 A 
HETATM    3  C6  UNL     1       1.727  -0.849  -0.967  1.00  0.00     0.082 A 
HETATM    4 CL1  UNL     1       3.114  -1.906  -1.123  1.00  0.00    -0.080 Cl
HETATM    5  C7  UNL     1       1.764   0.586  -1.226  1.00  0.00     0.089 A 
HETATM    6  C12 UNL     1       0.708   1.344  -1.099  1.00  0.00     0.032 A 
HETATM    7  C13 UNL     1      -0.599   0.812  -0.684  1.00  0.00     0.160 A 
ENDROOT
BRANCH   1   8
HETATM    8  C4  UNL     1      -1.762  -1.114  -0.065  1.00  0.00     0.106 C 
HETATM    9  C3  UNL     1      -2.461  -0.700   0.982  1.00  0.00     0.080 C 
HETATM   10  C2  UNL     1      -3.877  -0.928   1.301  1.00  0.00     0.062 C 
HETATM   11  N1  UNL     1      -4.642  -0.567   2.212  1.00  0.00    -0.294 NA
HETATM   12  C16 UNL     1      -4.783  -1.723   0.490  1.00  0.00    -0.007 A 
HETATM   13  C1  UNL     1      -4.331   0.259   3.325  1.00  0.00     0.178 C 
HETATM   14  C15 UNL     1      -4.423  -2.326  -0.728  1.00  0.00     0.193 A 
HETATM   15  C17 UNL     1      -6.019  -2.293   0.208  1.00  0.00     0.048 A 
HETATM   16  C14 UNL     1      -3.686  -2.625  -1.629  1.00  0.00     0.074 A 
HETATM   17  S1  UNL     1      -5.528  -3.086  -1.399  1.00  0.00    -0.158 SA
HETATM   18  N3  UNL     1      -2.291  -2.184  -0.913  1.00  0.00    -0.361 N 
HETATM   19  H15 UNL     1      -1.581  -2.991  -1.113  1.00  0.00     0.162 HD
ENDBRANCH   1   8
BRANCH   5  20
HETATM   20  O1  UNL     1       3.006   1.070  -1.616  1.00  0.00    -0.349 OA
BRANCH  20  21
HETATM   21  C8  UNL     1       3.875   1.550  -0.612  1.00  0.00     0.179 C 
BRANCH  21  22
HETATM   22  C9  UNL     1       5.192   2.047  -1.184  1.00  0.00     0.056 C 
BRANCH  22  23
HETATM   23  C10 UNL     1       6.015   2.522  -0.048  1.00  0.00     0.003 C 
BRANCH  23  24
HETATM   24  C11 UNL     1       7.192   1.967   0.201  1.00  0.00     0.396 C 
HETATM   25  F1  UNL     1       8.407   1.629   0.719  1.00  0.00    -0.431 F 
ENDBRANCH  23  24
ENDBRANCH  22  23
ENDBRANCH  21  22
ENDBRANCH  20  21
ENDBRANCH   5  20
TORSDOF 6
