REMARK  3 active torsions:
REMARK  status: ('A' for Active; 'I' for Inactive)
REMARK    1  A    between atoms: C2_2  and  C3_3 
REMARK    2  A    between atoms: C10_13  and  C11_14 
REMARK    3  A    between atoms: C11_14  and  C12_15 
ROOT
HETATM    1  C3  UNL     1       4.791  -0.831   0.089  1.00  0.00    -0.004 A 
HETATM    2  C4  UNL     1       4.381   0.362   0.069  1.00  0.00    -0.005 A 
HETATM    3  C5  UNL     1       4.372  -0.309  -1.502  1.00  0.00     0.036 A 
HETATM    4  C6  UNL     1       3.474  -1.058  -0.651  1.00  0.00     0.049 A 
HETATM    5  C7  UNL     1       2.470   0.030  -0.277  1.00  0.00     0.028 C 
HETATM    6  N1  UNL     1       1.281   0.303   0.120  1.00  0.00    -0.250 NA
HETATM    7  C8  UNL     1       0.306  -0.674   0.389  1.00  0.00     0.228 C 
HETATM    8  N2  UNL     1      -0.784  -1.062  -0.134  1.00  0.00    -0.263 NA
HETATM    9  C9  UNL     1      -1.578  -2.147   0.424  1.00  0.00     0.272 C 
HETATM   10  N3  UNL     1      -2.812  -2.345  -0.274  1.00  0.00    -0.372 N 
HETATM   11  C10 UNL     1      -4.107  -1.779  -0.559  1.00  0.00     0.028 C 
HETATM   12  C13 UNL     1      -4.634  -0.593  -0.333  1.00  0.00     0.028 C 
HETATM   13  C14 UNL     1      -3.870   0.466   0.349  1.00  0.00     0.197 C 
HETATM   14  O1  UNL     1      -3.656   1.616  -0.356  1.00  0.00    -0.387 OA
HETATM   15  C15 UNL     1      -2.938   2.603   0.326  1.00  0.00     0.171 C 
HETATM   16  C16 UNL     1      -1.595   2.127   0.736  1.00  0.00     0.056 C 
HETATM   17  C17 UNL     1      -0.811   3.121   1.470  1.00  0.00     0.013 C 
HETATM   18  C18 UNL     1       0.390   3.621   1.229  1.00  0.00     0.094 C 
HETATM   19  F1  UNL     1       1.020   4.555   2.006  1.00  0.00    -0.211 F 
HETATM   20  C19 UNL     1       1.322   3.355   0.066  1.00  0.00     0.102 C 
HETATM   21  P1  UNL     1       2.909   2.622   0.674  1.00  0.00    -0.112 P 
HETATM   22  C20 UNL     1       3.462   1.322  -0.511  1.00  0.00     0.070 C 
HETATM   23  H10 UNL     1      -2.724  -3.275  -0.798  1.00  0.00     0.161 HD
HETATM   24  H23 UNL     1       2.822   2.140   2.036  1.00  0.00     0.058 HD
ENDROOT
BRANCH  11  25
HETATM   25  C11 UNL     1      -5.080  -2.784  -1.044  1.00  0.00     0.041 C 
BRANCH  25  26
HETATM   26  C12 UNL     1      -5.706  -3.823  -1.469  1.00  0.00     0.086 C 
HETATM   27 CL1  UNL     1      -7.023  -4.820  -2.022  1.00  0.00    -0.097 Cl
ENDBRANCH  25  26
ENDBRANCH  11  25
BRANCH   1  28
HETATM   28  C2  UNL     1       6.061  -0.904   0.756  1.00  0.00    -0.026 C 
HETATM   29  C1  UNL     1       6.352  -2.187   0.693  1.00  0.00     0.008 C 
ENDBRANCH   1  28
TORSDOF 3
