REMARK  7 active torsions:
REMARK  status: ('A' for Active; 'I' for Inactive)
REMARK    1  A    between atoms: C5_6  and  C6_7 
REMARK    2  A    between atoms: C6_7  and  O1_8 
REMARK    3  A    between atoms: O1_8  and  C7_9 
REMARK    4  A    between atoms: C10_12  and  N1_13 
REMARK    5  A    between atoms: N1_13  and  N2_14 
REMARK    6  A    between atoms: N2_14  and  C11_15 
REMARK    7  A    between atoms: C12_17  and  C13_18 
ROOT
HETATM    1  C7  UNL     1       1.681   1.212  -0.770  1.00  0.00     0.091 A 
HETATM    2  C8  UNL     1       0.937   0.073  -0.901  1.00  0.00     0.041 A 
HETATM    3  C9  UNL     1      -0.378  -0.051  -0.525  1.00  0.00     0.033 A 
HETATM    4  C10 UNL     1      -1.028   1.031   0.029  1.00  0.00     0.044 A 
HETATM    5  C17 UNL     1      -0.337   2.210   0.190  1.00  0.00     0.057 A 
HETATM    6  C18 UNL     1       0.987   2.297  -0.201  1.00  0.00     0.069 A 
HETATM    7 CL1  UNL     1       1.644   3.916   0.112  1.00  0.00    -0.081 Cl
ENDROOT
BRANCH   4   8
HETATM    8  N1  UNL     1      -2.390   0.885   0.414  1.00  0.00    -0.319 N 
HETATM    9  H8  UNL     1      -2.888  -0.019   0.284  1.00  0.00     0.181 HD
BRANCH   8  10
HETATM   10  N2  UNL     1      -3.048   1.963   0.965  1.00  0.00    -0.209 NA
HETATM   11  H9  UNL     1      -2.945   2.844   0.411  1.00  0.00     0.149 HD
BRANCH  10  12
HETATM   12  C11 UNL     1      -4.401   1.703   1.347  1.00  0.00     0.251 A 
HETATM   13  N3  UNL     1      -4.822   0.773   2.241  1.00  0.00    -0.262 NA
HETATM   14  C12 UNL     1      -4.925   0.340   1.033  1.00  0.00     0.082 A 
BRANCH  14  15
HETATM   15  C13 UNL     1      -5.257  -0.640   0.018  1.00  0.00    -0.001 A 
HETATM   16  C14 UNL     1      -5.731  -1.746   0.632  1.00  0.00     0.021 A 
HETATM   17  C15 UNL     1      -6.133  -2.872  -0.182  1.00  0.00     0.050 A 
HETATM   18  S1  UNL     1      -5.781  -2.232  -1.938  1.00  0.00    -0.113 SA
HETATM   19  C16 UNL     1      -5.155  -0.587  -1.425  1.00  0.00     0.063 A 
ENDBRANCH  14  15
ENDBRANCH  10  12
ENDBRANCH   8  10
ENDBRANCH   4   8
BRANCH   1  20
HETATM   20  O1  UNL     1       2.947   1.619  -1.040  1.00  0.00    -0.345 OA
BRANCH  20  21
HETATM   21  C6  UNL     1       4.024   0.964  -1.586  1.00  0.00     0.214 C 
BRANCH  21  22
HETATM   22  C5  UNL     1       4.485  -0.200  -0.815  1.00  0.00    -0.031 A 
HETATM   23  C4  UNL     1       4.233  -1.544  -0.902  1.00  0.00     0.009 A 
HETATM   24  C3  UNL     1       4.786  -2.452  -0.033  1.00  0.00     0.004 A 
HETATM   25  C2  UNL     1       5.625  -2.074   0.974  1.00  0.00     0.042 A 
HETATM   26  C1  UNL     1       5.908  -0.725   1.101  1.00  0.00     0.117 A 
HETATM   27  F1  UNL     1       6.741  -0.388   2.108  1.00  0.00    -0.206 F 
HETATM   28  C19 UNL     1       5.347   0.186   0.223  1.00  0.00     0.051 A 
ENDBRANCH  21  22
ENDBRANCH  20  21
ENDBRANCH   1  20
TORSDOF 7
