REMARK  1 active torsions:
REMARK  status: ('A' for Active; 'I' for Inactive)
REMARK    1  A    between atoms: C3_3  and  C4_4 
ROOT
HETATM    1  C1  UNL     1      -4.389  -0.007   0.719  1.00  0.00     0.050 C 
HETATM    2  C2  UNL     1      -2.913   0.201   0.580  1.00  0.00    -0.028 C 
HETATM    3  C3  UNL     1      -2.277  -0.677  -0.219  1.00  0.00     0.096 C 
HETATM    4  O1  UNL     1      -0.898  -0.709  -0.512  1.00  0.00    -0.346 OA
HETATM    5  C8  UNL     1      -0.053  -1.602   0.198  1.00  0.00     0.222 C 
HETATM    6  C9  UNL     1       1.269  -1.552  -0.440  1.00  0.00     0.018 A 
HETATM    7 CL1  UNL     1       1.290  -2.007  -2.128  1.00  0.00    -0.176 Cl
HETATM    8  C10 UNL     1       2.552  -1.382  -0.609  1.00  0.00     0.145 A 
HETATM    9  C11 UNL     1       3.930  -1.285  -1.108  1.00  0.00     0.241 C 
HETATM   10  C12 UNL     1       4.582  -2.670  -1.171  1.00  0.00     0.044 C 
HETATM   11  N1  UNL     1       4.769  -0.458  -0.294  1.00  0.00     0.108 N 
HETATM   12  C13 UNL     1       4.320   0.910  -0.257  1.00  0.00     0.419 C 
HETATM   13  N2  UNL     1       3.000   1.029   0.285  1.00  0.00    -0.253 NA
HETATM   14  C14 UNL     1       2.148   1.944   0.070  1.00  0.00     0.229 C 
HETATM   15  N3  UNL     1       1.109   1.403   0.923  1.00  0.00    -0.246 NA
HETATM   16  C15 UNL     1      -0.003   2.068   0.981  1.00  0.00     0.042 C 
HETATM   17  C16 UNL     1      -0.139   3.329   0.176  1.00  0.00     0.060 C 
HETATM   18  C17 UNL     1      -0.493   4.348   1.270  1.00  0.00     0.011 C 
HETATM   19  C18 UNL     1      -1.021   3.416   2.354  1.00  0.00     0.041 C 
HETATM   20  C19 UNL     1      -1.351   2.170   1.546  1.00  0.00    -0.033 C 
HETATM   21  C20 UNL     1      -2.354   1.366   1.259  1.00  0.00     0.018 C 
HETATM   22  H15 UNL     1       4.806  -0.807   0.696  1.00  0.00     0.318 HD
ENDROOT
BRANCH   3  23
HETATM   23  C4  UNL     1      -3.116  -1.724  -0.858  1.00  0.00     0.173 A 
HETATM   24  F1  UNL     1      -3.801  -1.245  -1.985  1.00  0.00    -0.231 F 
HETATM   25  C5  UNL     1      -2.314  -2.909  -1.225  1.00  0.00     0.019 A 
HETATM   26  C6  UNL     1      -3.016  -3.702  -0.489  1.00  0.00    -0.023 A 
HETATM   27  C7  UNL     1      -3.899  -2.635  -0.030  1.00  0.00     0.082 A 
ENDBRANCH   3  23
TORSDOF 1
