REMARK  5 active torsions:
REMARK  status: ('A' for Active; 'I' for Inactive)
REMARK    1  A    between atoms: C5_6  and  C6_7 
REMARK    2  A    between atoms: C6_7  and  C7_8 
REMARK    3  A    between atoms: C10_11  and  C11_12 
REMARK    4  A    between atoms: C14_17  and  N3_18 
REMARK    5  A    between atoms: N3_18  and  S1_19 
ROOT
HETATM    1  C7  UNL     1      -3.279   0.969  -0.556  1.00  0.00    -0.032 A 
HETATM    2  C8  UNL     1      -2.225   0.439  -1.320  1.00  0.00     0.010 A 
HETATM    3  C9  UNL     1      -0.894   0.496  -0.893  1.00  0.00     0.012 A 
HETATM    4  C10 UNL     1      -0.566   1.085   0.316  1.00  0.00    -0.032 A 
HETATM    5  C19 UNL     1      -1.595   1.594   1.048  1.00  0.00     0.035 A 
HETATM    6  C20 UNL     1      -2.897   1.538   0.627  1.00  0.00     0.041 A 
HETATM    7 CL1  UNL     1      -4.146   2.231   1.630  1.00  0.00    -0.084 Cl
ENDROOT
BRANCH   4   8
HETATM    8  C11 UNL     1       0.853   1.097   0.644  1.00  0.00     0.047 C 
HETATM    9  C12 UNL     1       1.625   1.466  -0.371  1.00  0.00     0.107 A 
HETATM   10  N1  UNL     1       1.316   1.849  -1.701  1.00  0.00    -0.238 NA
HETATM   11  C14 UNL     1       3.076   1.557  -0.335  1.00  0.00     0.186 A 
HETATM   12  C13 UNL     1       2.391   2.115  -2.321  1.00  0.00     0.236 A 
HETATM   13  N2  UNL     1       3.530   1.940  -1.485  1.00  0.00    -0.220 NA
BRANCH  11  14
HETATM   14  N3  UNL     1       4.011   1.278   0.731  1.00  0.00    -0.205 NA
BRANCH  14  15
HETATM   15  S1  UNL     1       5.475   0.621   0.430  1.00  0.00    -0.100 SA
HETATM   16  C15 UNL     1       6.648   0.269   1.783  1.00  0.00     0.087 C 
HETATM   17  C16 UNL     1       6.476  -1.255   1.762  1.00  0.00     0.012 C 
HETATM   18  C17 UNL     1       6.587  -1.698   0.336  1.00  0.00     0.012 C 
HETATM   19  C18 UNL     1       5.592  -0.950  -0.498  1.00  0.00     0.087 C 
ENDBRANCH  14  15
ENDBRANCH  11  14
ENDBRANCH   4   8
BRANCH   1  20
HETATM   20  C6  UNL     1      -4.643   0.841  -1.122  1.00  0.00     0.078 C 
BRANCH  20  21
HETATM   21  C5  UNL     1      -5.456  -0.220  -0.498  1.00  0.00    -0.051 A 
HETATM   22  C4  UNL     1      -6.423  -0.065   0.469  1.00  0.00     0.007 A 
HETATM   23  C3  UNL     1      -7.127  -1.118   1.011  1.00  0.00     0.004 A 
HETATM   24  C2  UNL     1      -6.823  -2.384   0.538  1.00  0.00     0.042 A 
HETATM   25  C1  UNL     1      -5.873  -2.568  -0.417  1.00  0.00     0.116 A 
HETATM   26  F1  UNL     1      -5.667  -3.869  -0.798  1.00  0.00    -0.206 F 
HETATM   27  C21 UNL     1      -5.186  -1.509  -0.941  1.00  0.00     0.049 A 
ENDBRANCH  20  21
ENDBRANCH   1  20
TORSDOF 5
