REMARK  5 active torsions:
REMARK  status: ('A' for Active; 'I' for Inactive)
REMARK    1  A    between atoms: C7_9  and  N3_10 
REMARK    2  A    between atoms: N3_10  and  C8_11 
REMARK    3  A    between atoms: C11_14  and  O1_15 
REMARK    4  A    between atoms: O1_15  and  C12_16 
REMARK    5  A    between atoms: C12_16  and  C13_17 
ROOT
HETATM    1  N1  UNL     1      -4.828   3.509   2.382  1.00  0.00    -0.170 NA
HETATM    2  C1  UNL     1      -4.431   2.592   1.794  1.00  0.00     0.206 C 
HETATM    3  N2  UNL     1      -3.979   1.499   1.084  1.00  0.00    -0.178 NA
HETATM    4  C2  UNL     1      -4.706   0.600   0.538  1.00  0.00     0.054 C 
HETATM    5  C3  UNL     1      -6.206   0.450   0.495  1.00  0.00     0.061 C 
HETATM    6  C4  UNL     1      -6.373  -0.028  -0.932  1.00  0.00     0.011 C 
HETATM    7  C5  UNL     1      -5.243  -0.983  -1.170  1.00  0.00     0.042 C 
HETATM    8  C6  UNL     1      -4.203  -0.543  -0.207  1.00  0.00    -0.017 C 
HETATM    9  C7  UNL     1      -3.056  -1.157  -0.123  1.00  0.00     0.097 C 
ENDROOT
BRANCH   9  10
HETATM   10  N3  UNL     1      -1.893  -0.993   0.665  1.00  0.00    -0.365 N 
HETATM   11  H8  UNL     1      -1.701  -1.326   1.652  1.00  0.00     0.165 HD
BRANCH  10  12
HETATM   12  C8  UNL     1      -0.664  -0.334   0.342  1.00  0.00     0.033 A 
HETATM   13  C9  UNL     1       0.235  -1.148  -0.269  1.00  0.00     0.032 A 
HETATM   14  C10 UNL     1       1.457  -0.627  -0.628  1.00  0.00     0.041 A 
HETATM   15  C11 UNL     1       1.831   0.678  -0.404  1.00  0.00     0.091 A 
HETATM   16  C19 UNL     1       0.880   1.496   0.230  1.00  0.00     0.069 A 
HETATM   17 CL1  UNL     1       1.016   3.191   0.666  1.00  0.00    -0.081 Cl
HETATM   18  C20 UNL     1      -0.374   0.987   0.605  1.00  0.00     0.056 A 
BRANCH  15  19
HETATM   19  O1  UNL     1       2.912   1.440  -0.634  1.00  0.00    -0.345 OA
BRANCH  19  20
HETATM   20  C12 UNL     1       4.140   1.229  -1.207  1.00  0.00     0.214 C 
BRANCH  20  21
HETATM   21  C13 UNL     1       4.933   0.205  -0.510  1.00  0.00    -0.031 A 
HETATM   22  C14 UNL     1       5.657   0.734   0.568  1.00  0.00     0.009 A 
HETATM   23  C15 UNL     1       6.483  -0.015   1.370  1.00  0.00     0.004 A 
HETATM   24  C16 UNL     1       6.637  -1.365   1.136  1.00  0.00     0.042 A 
HETATM   25  C17 UNL     1       5.928  -1.905   0.073  1.00  0.00     0.117 A 
HETATM   26  F1  UNL     1       5.976  -3.224  -0.285  1.00  0.00    -0.206 F 
HETATM   27  C18 UNL     1       5.107  -1.144  -0.719  1.00  0.00     0.051 A 
ENDBRANCH  20  21
ENDBRANCH  19  20
ENDBRANCH  15  19
ENDBRANCH  10  12
ENDBRANCH   9  10
TORSDOF 5
