REMARK  9 active torsions:
REMARK  status: ('A' for Active; 'I' for Inactive)
REMARK    1  A    between atoms: C2_2  and  C3_3 
REMARK    2  A    between atoms: C3_3  and  C4_4 
REMARK    3  A    between atoms: C4_4  and  C5_5 
REMARK    4  A    between atoms: C7_7  and  N1_8 
REMARK    5  A    between atoms: N1_8  and  C8_9 
REMARK    6  A    between atoms: C9_10  and  C10_11 
REMARK    7  A    between atoms: C10_11  and  C11_12 
REMARK    8  A    between atoms: C11_12  and  O1_13 
REMARK    9  A    between atoms: O1_13  and  C12_14 
ROOT
HETATM    1  C8  UNL     1      -0.329   0.155   1.506  1.00  0.00     0.090 C 
HETATM    2  C9  UNL     1       0.895  -0.306   1.328  1.00  0.00     0.019 C 
ENDROOT
BRANCH   1   3
HETATM    3  N1  UNL     1      -0.803   1.360   0.916  1.00  0.00    -0.351 N 
HETATM    4  H11 UNL     1      -0.598   2.389   0.949  1.00  0.00     0.166 HD
BRANCH   3   5
HETATM    5  C7  UNL     1      -1.867   1.395  -0.027  1.00  0.00     0.130 A 
HETATM    6  C6  UNL     1      -3.210   1.535   0.300  1.00  0.00     0.077 A 
HETATM    7  C5  UNL     1      -4.202   1.562  -0.668  1.00  0.00     0.039 A 
HETATM    8  N3  UNL     1      -3.833   1.447  -1.965  1.00  0.00    -0.246 NA
HETATM    9  C19 UNL     1      -2.531   1.312  -2.269  1.00  0.00     0.235 A 
HETATM   10  N2  UNL     1      -1.548   1.283  -1.349  1.00  0.00    -0.224 NA
BRANCH   7  11
HETATM   11  C4  UNL     1      -5.539   1.722  -0.041  1.00  0.00     0.059 C 
BRANCH  11  12
HETATM   12  C3  UNL     1      -6.672   1.763  -1.015  1.00  0.00     0.006 C 
BRANCH  12  13
HETATM   13  C2  UNL     1      -6.793   0.523  -1.845  1.00  0.00    -0.004 C 
HETATM   14  C1  UNL     1      -7.017  -0.668  -0.938  1.00  0.00     0.005 C 
ENDBRANCH  12  13
ENDBRANCH  11  12
ENDBRANCH   7  11
ENDBRANCH   3   5
ENDBRANCH   1   3
BRANCH   2  15
HETATM   15  C10 UNL     1       1.278  -1.547   1.976  1.00  0.00     0.025 C 
BRANCH  15  16
HETATM   16  C11 UNL     1       2.475  -2.077   1.854  1.00  0.00     0.136 C 
BRANCH  16  17
HETATM   17  O1  UNL     1       3.774  -2.437   1.584  1.00  0.00    -0.351 OA
BRANCH  17  18
HETATM   18  C12 UNL     1       4.339  -1.897   0.400  1.00  0.00     0.188 A 
HETATM   19  C13 UNL     1       5.682  -2.452   0.139  1.00  0.00     0.009 A 
HETATM   20  C14 UNL     1       6.894  -1.973  -0.068  1.00  0.00     0.005 A 
HETATM   21  C15 UNL     1       6.958  -0.522  -0.038  1.00  0.00    -0.063 A 
HETATM   22  C16 UNL     1       8.237   0.189  -0.251  1.00  0.00     0.048 C 
HETATM   23  C17 UNL     1       5.795   0.047   0.192  1.00  0.00     0.019 A 
HETATM   24  C18 UNL     1       4.408  -0.404   0.433  1.00  0.00     0.226 A 
HETATM   25  F1  UNL     1       4.051  -0.011   1.718  1.00  0.00    -0.242 F 
ENDBRANCH  17  18
ENDBRANCH  16  17
ENDBRANCH  15  16
ENDBRANCH   2  15
TORSDOF 9
