REMARK  2 active torsions:
REMARK  status: ('A' for Active; 'I' for Inactive)
REMARK    1  A    between atoms: C10_13  and  N3_14 
REMARK    2  A    between atoms: C19_24  and  C20_26 
ROOT
HETATM    1  C1  UNL     1       2.696   4.224  -0.563  1.00  0.00    -0.012 C 
HETATM    2  C2  UNL     1       2.011   3.146  -0.552  1.00  0.00     0.016 A 
HETATM    3  C3  UNL     1       2.577   1.681  -0.790  1.00  0.00    -0.038 A 
HETATM    4  C4  UNL     1       1.308   2.039  -0.376  1.00  0.00     0.067 A 
HETATM    5  C5  UNL     1       0.384   0.912  -0.094  1.00  0.00     0.111 C 
HETATM    6  F1  UNL     1      -0.239   2.139   0.220  1.00  0.00    -0.244 F 
HETATM    7  C6  UNL     1      -0.131  -0.311   0.048  1.00  0.00     0.114 C 
HETATM    8  C7  UNL     1      -0.909  -1.466   0.282  1.00  0.00     0.050 A 
HETATM    9  C8  UNL     1      -0.225  -2.442   1.066  1.00  0.00     0.118 A 
HETATM   10  N1  UNL     1      -1.108  -3.519   1.312  1.00  0.00    -0.229 NA
HETATM   11  C9  UNL     1      -2.333  -3.505   0.845  1.00  0.00     0.237 A 
HETATM   12  N2  UNL     1      -3.004  -2.593   0.098  1.00  0.00    -0.224 NA
HETATM   13  C10 UNL     1      -2.123  -1.489  -0.167  1.00  0.00     0.140 A 
HETATM   14  N4  UNL     1       0.758  -3.052   1.906  1.00  0.00    -0.271 NA
HETATM   15  C15 UNL     1       1.579  -2.682   0.762  1.00  0.00     0.005 A 
HETATM   16  C16 UNL     1       2.481  -1.515   0.692  1.00  0.00     0.038 A 
HETATM   17  C17 UNL     1       2.783  -0.640   1.649  1.00  0.00     0.021 A 
HETATM   18  C18 UNL     1       3.515  -0.278   0.461  1.00  0.00    -0.021 A 
HETATM   19  C19 UNL     1       3.294  -1.233  -0.736  1.00  0.00     0.069 A 
HETATM   20 CL1  UNL     1       3.336  -2.033  -2.298  1.00  0.00    -0.116 Cl
HETATM   21  C20 UNL     1       2.316  -2.160  -0.053  1.00  0.00     0.085 A 
HETATM   22  O1  UNL     1       4.229   0.015  -0.828  1.00  0.00     0.000 OA
HETATM   23  C21 UNL     1       4.104   1.479  -0.967  1.00  0.00     0.006 C 
HETATM   24  H15 UNL     1       1.708  -3.284   1.848  1.00  0.00     0.151 HD
ENDROOT
BRANCH  13  25
HETATM   25  N3  UNL     1      -2.810  -0.430  -0.741  1.00  0.00    -0.365 N 
HETATM   26  C11 UNL     1      -3.337   0.349  -1.816  1.00  0.00     0.124 C 
HETATM   27  C12 UNL     1      -4.832   0.346  -1.335  1.00  0.00     0.021 C 
HETATM   28  C13 UNL     1      -4.650   0.870   0.102  1.00  0.00     0.021 C 
HETATM   29  C14 UNL     1      -3.279   0.401   0.397  1.00  0.00     0.124 C 
ENDBRANCH  13  25
TORSDOF 2
