REMARK  7 active torsions:
REMARK  status: ('A' for Active; 'I' for Inactive)
REMARK    1  A    between atoms: N1_1  and  C1_2 
REMARK    2  A    between atoms: C1_2  and  C2_3 
REMARK    3  A    between atoms: C2_3  and  N2_4 
REMARK    4  A    between atoms: C4_7  and  N4_8 
REMARK    5  A    between atoms: C7_12  and  O1_13 
REMARK    6  A    between atoms: O1_13  and  C8_14 
REMARK    7  A    between atoms: C8_14  and  C9_15 
ROOT
HETATM    1  N4  UNL     1       1.073  -0.415  -0.413  1.00  0.00    -0.361 N 
HETATM    2  C5  UNL     1       0.371  -1.652  -0.298  1.00  0.00     0.114 A 
HETATM    3  C6  UNL     1      -0.943  -1.562  -0.156  1.00  0.00     0.082 A 
HETATM    4 CL1  UNL     1      -1.951  -2.976  -0.001  1.00  0.00    -0.080 Cl
HETATM    5  C7  UNL     1      -1.628  -0.273  -0.121  1.00  0.00     0.090 A 
HETATM    6  C15 UNL     1      -0.922   0.841  -0.233  1.00  0.00     0.031 A 
HETATM    7  C16 UNL     1       0.552   0.904  -0.397  1.00  0.00     0.154 A 
ENDROOT
BRANCH   1   8
HETATM    8  C4  UNL     1       2.500  -0.462  -0.568  1.00  0.00     0.227 C 
HETATM    9  N3  UNL     1       3.063  -1.066   0.628  1.00  0.00    -0.258 NA
HETATM   10  C3  UNL     1       4.228  -0.529   0.882  1.00  0.00     0.201 C 
HETATM   11  N2  UNL     1       4.529   0.467  -0.117  1.00  0.00    -0.370 N 
HETATM   12  C17 UNL     1       3.220   0.810  -0.687  1.00  0.00     0.172 C 
BRANCH  11  13
HETATM   13  C2  UNL     1       5.810   1.009  -0.480  1.00  0.00     0.153 C 
BRANCH  13  14
HETATM   14  C1  UNL     1       6.928   0.397   0.343  1.00  0.00     0.286 C 
BRANCH  14  15
HETATM   15  N1  UNL     1       7.005  -1.029   0.166  1.00  0.00     0.079 N 
HETATM   16  H1  UNL     1       6.204  -1.369  -0.407  1.00  0.00     0.312 HD
HETATM   17  H2  UNL     1       7.170  -1.531   1.048  1.00  0.00     0.312 HD
ENDBRANCH  14  15
ENDBRANCH  13  14
ENDBRANCH  11  13
ENDBRANCH   1   8
BRANCH   5  18
HETATM   18  O1  UNL     1      -2.975  -0.047   0.021  1.00  0.00    -0.345 OA
BRANCH  18  19
HETATM   19  C8  UNL     1      -3.963  -1.016   0.204  1.00  0.00     0.214 C 
BRANCH  19  20
HETATM   20  C9  UNL     1      -5.285  -0.302   0.307  1.00  0.00    -0.031 A 
HETATM   21  C10 UNL     1      -5.828   0.146   1.510  1.00  0.00     0.009 A 
HETATM   22  C11 UNL     1      -7.047   0.793   1.515  1.00  0.00     0.004 A 
HETATM   23  C12 UNL     1      -7.749   1.010   0.344  1.00  0.00     0.042 A 
HETATM   24  C13 UNL     1      -7.248   0.583  -0.875  1.00  0.00     0.117 A 
HETATM   25  F1  UNL     1      -7.885   0.765  -2.054  1.00  0.00    -0.206 F 
HETATM   26  C14 UNL     1      -6.025  -0.060  -0.834  1.00  0.00     0.051 A 
ENDBRANCH  19  20
ENDBRANCH  18  19
ENDBRANCH   5  18
TORSDOF 7
