REMARK  0 active torsions:
REMARK  status: ('A' for Active; 'I' for Inactive)
ROOT
HETATM    1  C1  UNL     1       0.126  -2.589   0.617  1.00  0.00     0.046 A 
HETATM    2  C2  UNL     1       0.063  -1.297   0.177  1.00  0.00     0.030 A 
HETATM    3  C3  UNL     1       1.345  -1.390   0.767  1.00  0.00     0.069 A 
HETATM    4 CL1  UNL     1       2.683  -2.181   1.541  1.00  0.00    -0.114 Cl
HETATM    5  C4  UNL     1       1.739  -0.111   0.580  1.00  0.00     0.029 C 
HETATM    6  C5  UNL     1       2.590   1.090   0.601  1.00  0.00     0.027 C 
HETATM    7  C6  UNL     1       3.289   2.222   0.584  1.00  0.00     0.029 C 
HETATM    8  C7  UNL     1       2.477   3.290   0.056  1.00  0.00     0.011 C 
HETATM    9  C8  UNL     1       1.241   3.290  -0.363  1.00  0.00     0.075 C 
HETATM   10  S1  UNL     1      -0.426   3.029  -0.867  1.00  0.00     0.017 SA
HETATM   11  O1  UNL     1      -1.144   1.752   0.015  1.00  0.00    -0.311 OA
HETATM   12  C9  UNL     1      -2.463   1.512  -0.319  1.00  0.00     0.225 C 
HETATM   13  C10 UNL     1      -2.950   0.357   0.492  1.00  0.00    -0.021 A 
HETATM   14  C11 UNL     1      -4.044   0.592   1.349  1.00  0.00     0.010 A 
HETATM   15  C12 UNL     1      -4.629  -0.368   2.149  1.00  0.00     0.004 A 
HETATM   16  C13 UNL     1      -4.057  -1.629   2.057  1.00  0.00     0.043 A 
HETATM   17  C14 UNL     1      -3.001  -1.869   1.232  1.00  0.00     0.125 A 
HETATM   18  F1  UNL     1      -2.615  -3.152   1.277  1.00  0.00    -0.205 F 
HETATM   19  C15 UNL     1      -2.400  -0.929   0.428  1.00  0.00     0.019 A 
HETATM   20  C16 UNL     1      -1.278  -1.200  -0.440  1.00  0.00     0.178 C 
HETATM   21  O2  UNL     1      -1.125  -0.303  -1.560  1.00  0.00    -0.334 OA
HETATM   22  C17 UNL     1      -0.332  -0.816  -2.642  1.00  0.00     0.253 C 
HETATM   23  N1  UNL     1       0.788  -0.641  -2.164  1.00  0.00    -0.231 NA
HETATM   24  C18 UNL     1       2.112  -0.845  -2.508  1.00  0.00     0.230 C 
HETATM   25  N2  UNL     1       2.572  -0.303  -1.480  1.00  0.00    -0.263 NA
HETATM   26  C19 UNL     1       3.835  -0.032  -0.933  1.00  0.00     0.272 C 
HETATM   27  N3  UNL     1       3.714   0.134   0.566  1.00  0.00    -0.372 N 
HETATM   28  H17 UNL     1       4.175  -0.195   1.436  1.00  0.00     0.161 HD
ENDROOT
TORSDOF 0
