REMARK  5 active torsions:
REMARK  status: ('A' for Active; 'I' for Inactive)
REMARK    1  A    between atoms: C5_6  and  C6_7 
REMARK    2  A    between atoms: C6_7  and  O1_8 
REMARK    3  A    between atoms: O1_8  and  C7_9 
REMARK    4  A    between atoms: C9_12  and  N1_13 
REMARK    5  A    between atoms: N1_13  and  C10_14 
ROOT
HETATM    1  C7  UNL     1      -3.298   0.138   0.388  1.00  0.00     0.311 A 
HETATM    2  O2  UNL     1      -2.028   0.266   1.006  1.00  0.00    -0.325 OA
HETATM    3  C8  UNL     1      -0.901   0.175   0.210  1.00  0.00     0.168 A 
HETATM    4  C9  UNL     1      -0.766  -0.027  -1.089  1.00  0.00     0.057 A 
HETATM    5  C19 UNL     1      -2.012  -0.178  -1.820  1.00  0.00     0.056 A 
HETATM    6  C20 UNL     1      -3.075  -0.087  -1.062  1.00  0.00     0.069 A 
HETATM    7 CL1  UNL     1      -4.670  -0.250  -1.797  1.00  0.00    -0.084 Cl
ENDROOT
BRANCH   4   8
HETATM    8  N1  UNL     1       0.458  -0.103  -1.805  1.00  0.00    -0.340 N 
HETATM    9  H8  UNL     1       0.437   0.445  -2.720  1.00  0.00     0.167 HD
BRANCH   8  10
HETATM   10  C10 UNL     1       1.644  -0.827  -1.396  1.00  0.00     0.116 C 
HETATM   11  C11 UNL     1       1.737  -2.181  -1.417  1.00  0.00     0.181 C 
HETATM   12  O3  UNL     1       3.029  -2.675  -0.962  1.00  0.00    -0.358 OA
HETATM   13  C12 UNL     1       4.068  -1.860  -1.543  1.00  0.00     0.114 C 
HETATM   14  C13 UNL     1       4.571  -2.120  -2.810  1.00  0.00     0.110 C 
HETATM   15  C14 UNL     1       5.637  -1.182  -3.313  1.00  0.00    -0.022 C 
HETATM   16  C15 UNL     1       6.412  -0.073  -3.101  1.00  0.00    -0.025 C 
HETATM   17  C16 UNL     1       6.086   0.509  -1.772  1.00  0.00     0.073 C 
HETATM   18  C17 UNL     1       5.452   1.852  -1.890  1.00  0.00     0.090 C 
HETATM   19  N2  UNL     1       4.164   1.956  -1.934  1.00  0.00    -0.274 NA
HETATM   20  C18 UNL     1       3.237   0.875  -1.880  1.00  0.00     0.447 C 
HETATM   21  N3  UNL     1       2.462   0.300  -1.031  1.00  0.00    -0.373 NA
ENDBRANCH   8  10
ENDBRANCH   4   8
BRANCH   1  22
HETATM   22  O1  UNL     1      -4.001   1.266   0.665  1.00  0.00    -0.351 OA
BRANCH  22  23
HETATM   23  C6  UNL     1      -5.153   1.197   1.369  1.00  0.00     0.210 C 
BRANCH  23  24
HETATM   24  C5  UNL     1      -4.912   0.638   2.717  1.00  0.00    -0.032 A 
HETATM   25  C4  UNL     1      -5.013  -0.637   3.212  1.00  0.00     0.009 A 
HETATM   26  C3  UNL     1      -4.728  -0.953   4.505  1.00  0.00     0.004 A 
HETATM   27  C2  UNL     1      -4.315   0.024   5.391  1.00  0.00     0.042 A 
HETATM   28  C1  UNL     1      -4.200   1.310   4.944  1.00  0.00     0.117 A 
HETATM   29  F1  UNL     1      -3.794   2.207   5.862  1.00  0.00    -0.206 F 
HETATM   30  C21 UNL     1      -4.496   1.598   3.632  1.00  0.00     0.051 A 
ENDBRANCH  23  24
ENDBRANCH  22  23
ENDBRANCH   1  22
TORSDOF 5
