REMARK  7 active torsions:
REMARK  status: ('A' for Active; 'I' for Inactive)
REMARK    1  A    between atoms: C1_2  and  C2_3 
REMARK    2  A    between atoms: C5_6  and  C6_7 
REMARK    3  A    between atoms: C6_7  and  O1_8 
REMARK    4  A    between atoms: O1_8  and  C7_9 
REMARK    5  A    between atoms: C10_12  and  N1_13 
REMARK    6  A    between atoms: N1_13  and  C11_14 
REMARK    7  A    between atoms: C13_16  and  N2_17 
ROOT
HETATM    1  C7  UNL     1       2.704   0.434  -1.872  1.00  0.00     0.091 A 
HETATM    2  C8  UNL     1       2.478   1.071  -0.673  1.00  0.00     0.041 A 
HETATM    3  C9  UNL     1       1.254   1.040  -0.054  1.00  0.00     0.032 A 
HETATM    4  C10 UNL     1       0.165   0.358  -0.611  1.00  0.00     0.035 A 
HETATM    5  C19 UNL     1       0.433  -0.265  -1.810  1.00  0.00     0.056 A 
HETATM    6  C20 UNL     1       1.654  -0.249  -2.451  1.00  0.00     0.069 A 
HETATM    7 CL1  UNL     1       1.890  -1.085  -3.993  1.00  0.00    -0.081 Cl
ENDROOT
BRANCH   4   8
HETATM    8  N1  UNL     1      -1.094   0.339   0.045  1.00  0.00    -0.341 N 
HETATM    9  H10 UNL     1      -1.107   0.868   0.959  1.00  0.00     0.167 HD
BRANCH   8  10
HETATM   10  C11 UNL     1      -2.286  -0.294  -0.388  1.00  0.00     0.133 A 
HETATM   11  C12 UNL     1      -3.393  -0.170   0.424  1.00  0.00     0.100 A 
HETATM   12  C13 UNL     1      -4.625  -0.717   0.159  1.00  0.00     0.130 A 
HETATM   13  N3  UNL     1      -4.713  -1.416  -0.986  1.00  0.00    -0.224 NA
HETATM   14  C18 UNL     1      -3.646  -1.559  -1.809  1.00  0.00     0.237 A 
HETATM   15  N4  UNL     1      -2.479  -0.998  -1.484  1.00  0.00    -0.224 NA
BRANCH  12  16
HETATM   16  N2  UNL     1      -5.749  -0.574   1.012  1.00  0.00    -0.366 N 
HETATM   17  C14 UNL     1      -7.070  -1.134   0.779  1.00  0.00     0.124 C 
HETATM   18  C15 UNL     1      -7.916   0.122   1.027  1.00  0.00     0.021 C 
HETATM   19  C16 UNL     1      -7.147   0.897   2.076  1.00  0.00     0.021 C 
HETATM   20  C17 UNL     1      -5.851   0.137   2.272  1.00  0.00     0.124 C 
ENDBRANCH  12  16
ENDBRANCH   8  10
ENDBRANCH   4   8
BRANCH   1  21
HETATM   21  O1  UNL     1       3.902   0.426  -2.544  1.00  0.00    -0.345 OA
BRANCH  21  22
HETATM   22  C6  UNL     1       5.097   1.028  -2.173  1.00  0.00     0.214 C 
BRANCH  22  23
HETATM   23  C5  UNL     1       5.613   0.503  -0.888  1.00  0.00    -0.037 A 
HETATM   24  C4  UNL     1       5.846  -0.951  -1.016  1.00  0.00     0.006 A 
HETATM   25  C3  UNL     1       6.315  -1.442   0.143  1.00  0.00    -0.015 A 
HETATM   26  C2  UNL     1       6.428  -0.349   1.127  1.00  0.00     0.060 A 
HETATM   27  C21 UNL     1       5.957   0.831   0.362  1.00  0.00    -0.007 A 
BRANCH  26  28
HETATM   28  C1  UNL     1       7.870  -0.073   1.505  1.00  0.00     0.234 C 
HETATM   29  F1  UNL     1       8.517   0.280   0.330  1.00  0.00    -0.254 F 
ENDBRANCH  26  28
ENDBRANCH  22  23
ENDBRANCH  21  22
ENDBRANCH   1  21
TORSDOF 7
