REMARK  5 active torsions:
REMARK  status: ('A' for Active; 'I' for Inactive)
REMARK    1  A    between atoms: C4_6  and  N3_7 
REMARK    2  A    between atoms: N3_7  and  C5_8 
REMARK    3  A    between atoms: C8_11  and  O1_12 
REMARK    4  A    between atoms: O1_12  and  C9_13 
REMARK    5  A    between atoms: C9_13  and  C10_14 
ROOT
HETATM    1  C5  UNL     1      -0.397  -0.112  -1.573  1.00  0.00     0.033 A 
HETATM    2  C6  UNL     1       0.574  -0.404  -2.537  1.00  0.00     0.032 A 
HETATM    3  C7  UNL     1       1.906  -0.370  -2.180  1.00  0.00     0.041 A 
HETATM    4  C8  UNL     1       2.341  -0.063  -0.915  1.00  0.00     0.091 A 
HETATM    5  C16 UNL     1       1.402   0.227   0.050  1.00  0.00     0.069 A 
HETATM    6 CL1  UNL     1       1.923   0.625   1.678  1.00  0.00    -0.081 Cl
HETATM    7  C17 UNL     1       0.068   0.193  -0.311  1.00  0.00     0.056 A 
ENDROOT
BRANCH   1   8
HETATM    8  N3  UNL     1      -1.802  -0.128  -1.869  1.00  0.00    -0.346 N 
HETATM    9  H6  UNL     1      -2.052  -0.378  -2.865  1.00  0.00     0.164 HD
BRANCH   8  10
HETATM   10  C4  UNL     1      -2.823   0.199  -0.794  1.00  0.00     0.353 C 
HETATM   11  N2  UNL     1      -2.459   1.588  -0.416  1.00  0.00    -0.232 NA
HETATM   12  C3  UNL     1      -3.295   2.421   0.096  1.00  0.00     0.232 C 
HETATM   13  N1  UNL     1      -4.402   1.509   0.089  1.00  0.00    -0.247 NA
HETATM   14  C2  UNL     1      -5.142   1.409   1.171  1.00  0.00     0.032 C 
HETATM   15  C1  UNL     1      -5.944   0.384   0.415  1.00  0.00     0.070 C 
HETATM   16  C22 UNL     1      -5.989   1.387   2.400  1.00  0.00     0.027 C 
HETATM   17  C21 UNL     1      -5.893   0.177   2.988  1.00  0.00     0.002 C 
HETATM   18  C20 UNL     1      -5.160  -1.034   2.742  1.00  0.00    -0.002 C 
HETATM   19  C19 UNL     1      -4.250  -1.430   1.891  1.00  0.00    -0.001 C 
HETATM   20  C18 UNL     1      -3.241  -1.612   0.823  1.00  0.00     0.200 C 
HETATM   21  O2  UNL     1      -2.930  -0.695   0.044  1.00  0.00    -0.344 OA
ENDBRANCH   8  10
ENDBRANCH   1   8
BRANCH   4  22
HETATM   22  O1  UNL     1       3.691  -0.032  -0.565  1.00  0.00    -0.345 OA
BRANCH  22  23
HETATM   23  C9  UNL     1       4.728  -0.311  -1.469  1.00  0.00     0.214 C 
BRANCH  23  24
HETATM   24  C10 UNL     1       6.017  -0.172  -0.711  1.00  0.00    -0.031 A 
HETATM   25  C11 UNL     1       6.654   1.053  -0.666  1.00  0.00     0.009 A 
HETATM   26  C12 UNL     1       7.834   1.207   0.020  1.00  0.00     0.004 A 
HETATM   27  C13 UNL     1       8.407   0.124   0.682  1.00  0.00     0.042 A 
HETATM   28  C14 UNL     1       7.758  -1.098   0.628  1.00  0.00     0.117 A 
HETATM   29  F1  UNL     1       8.259  -2.199   1.252  1.00  0.00    -0.206 F 
HETATM   30  C15 UNL     1       6.589  -1.238  -0.054  1.00  0.00     0.051 A 
ENDBRANCH  23  24
ENDBRANCH  22  23
ENDBRANCH   4  22
TORSDOF 5
