REMARK  8 active torsions:
REMARK  status: ('A' for Active; 'I' for Inactive)
REMARK    1  A    between atoms: N1_3  and  C3_4 
REMARK    2  A    between atoms: C3_4  and  N2_5 
REMARK    3  A    between atoms: N2_5  and  C4_6 
REMARK    4  A    between atoms: C4_6  and  C6_9 
REMARK    5  A    between atoms: C5_7  and  N3_8 
REMARK    6  A    between atoms: C9_12  and  O1_13 
REMARK    7  A    between atoms: O1_13  and  C10_14 
REMARK    8  A    between atoms: C10_14  and  C11_15 
ROOT
HETATM    1  C6  UNL     1       1.122  -0.599   0.294  1.00  0.00    -0.004 A 
HETATM    2  C7  UNL     1       0.138   0.185   0.855  1.00  0.00     0.017 A 
HETATM    3  C8  UNL     1      -1.191  -0.153   0.757  1.00  0.00     0.039 A 
HETATM    4  C9  UNL     1      -1.611  -1.285   0.098  1.00  0.00     0.090 A 
HETATM    5  C17 UNL     1      -0.606  -2.081  -0.472  1.00  0.00     0.068 A 
HETATM    6 CL1  UNL     1      -0.854  -3.586  -1.373  1.00  0.00    -0.081 Cl
HETATM    7  C18 UNL     1       0.749  -1.743  -0.376  1.00  0.00     0.040 A 
ENDROOT
BRANCH   1   8
HETATM    8  C4  UNL     1       2.514  -0.169   0.443  1.00  0.00     0.083 C 
HETATM    9  C5  UNL     1       3.511  -0.876  -0.071  1.00  0.00     0.113 C 
BRANCH   8  10
HETATM   10  N2  UNL     1       2.818   1.020   1.144  1.00  0.00    -0.240 NA
BRANCH  10  11
HETATM   11  C3  UNL     1       3.937   1.076   1.779  1.00  0.00     0.232 C 
BRANCH  11  12
HETATM   12  N1  UNL     1       5.222   0.677   2.299  1.00  0.00    -0.259 NA
HETATM   13  C2  UNL     1       6.310   1.019   1.696  1.00  0.00     0.086 C 
HETATM   14  C1  UNL     1       6.285   1.843   0.437  1.00  0.00     0.057 C 
ENDBRANCH  11  12
ENDBRANCH  10  11
ENDBRANCH   8  10
BRANCH   9  15
HETATM   15  N3  UNL     1       3.895  -2.027  -0.806  1.00  0.00    -0.406 N 
HETATM   16  H7  UNL     1       3.994  -2.051  -1.859  1.00  0.00     0.155 HD
HETATM   17  H8  UNL     1       4.117  -2.962  -0.371  1.00  0.00     0.155 HD
ENDBRANCH   9  15
ENDBRANCH   1   8
BRANCH   4  18
HETATM   18  O1  UNL     1      -2.808  -1.846  -0.148  1.00  0.00    -0.345 OA
BRANCH  18  19
HETATM   19  C10 UNL     1      -4.104  -1.510   0.161  1.00  0.00     0.214 C 
BRANCH  19  20
HETATM   20  C11 UNL     1      -4.601  -0.218  -0.363  1.00  0.00    -0.031 A 
HETATM   21  C12 UNL     1      -5.103  -0.351  -1.666  1.00  0.00     0.009 A 
HETATM   22  C13 UNL     1      -5.633   0.709  -2.371  1.00  0.00     0.004 A 
HETATM   23  C14 UNL     1      -5.689   1.973  -1.800  1.00  0.00     0.042 A 
HETATM   24  C15 UNL     1      -5.194   2.090  -0.521  1.00  0.00     0.117 A 
HETATM   25  F1  UNL     1      -5.169   3.258   0.197  1.00  0.00    -0.206 F 
HETATM   26  C16 UNL     1      -4.662   1.041   0.195  1.00  0.00     0.051 A 
ENDBRANCH  19  20
ENDBRANCH  18  19
ENDBRANCH   4  18
TORSDOF 8
