REMARK  7 active torsions:
REMARK  status: ('A' for Active; 'I' for Inactive)
REMARK    1  A    between atoms: C3_3  and  C4_4 
REMARK    2  A    between atoms: C3_3  and  N1_17 
REMARK    3  A    between atoms: C5_5  and  C6_7 
REMARK    4  A    between atoms: C6_7  and  O1_8 
REMARK    5  A    between atoms: O1_8  and  C7_9 
REMARK    6  A    between atoms: C7_9  and  C8_10 
REMARK    7  A    between atoms: N1_17  and  C14_18 
ROOT
HETATM    1  C1  UNL     1      -1.921  -3.493   2.821  1.00  0.00     0.099 C 
HETATM    2  C2  UNL     1      -1.465  -2.392   2.241  1.00  0.00    -0.126 C 
HETATM    3  C3  UNL     1      -0.928  -1.282   1.790  1.00  0.00     0.077 C 
ENDROOT
BRANCH   3   4
HETATM    4  C4  UNL     1       0.005  -0.586   2.613  1.00  0.00     0.059 C 
HETATM    5  C5  UNL     1       0.634   0.550   2.300  1.00  0.00     0.038 C 
HETATM    6 CL1  UNL     1       1.783   1.385   3.341  1.00  0.00    -0.087 Cl
BRANCH   5   7
HETATM    7  C6  UNL     1       0.568   1.392   1.092  1.00  0.00     0.219 C 
BRANCH   7   8
HETATM    8  O1  UNL     1       1.840   1.461   0.528  1.00  0.00    -0.381 OA
BRANCH   8   9
HETATM    9  C7  UNL     1       2.331   0.228   0.167  1.00  0.00     0.206 C 
BRANCH   9  10
HETATM   10  C8  UNL     1       3.699   0.414  -0.426  1.00  0.00    -0.032 A 
HETATM   11  C9  UNL     1       4.816   0.374   0.402  1.00  0.00     0.009 A 
HETATM   12  C10 UNL     1       6.113   0.538  -0.078  1.00  0.00     0.004 A 
HETATM   13  C11 UNL     1       6.288   0.749  -1.438  1.00  0.00     0.042 A 
HETATM   14  C12 UNL     1       5.179   0.788  -2.253  1.00  0.00     0.117 A 
HETATM   15  F1  UNL     1       5.340   0.995  -3.593  1.00  0.00    -0.206 F 
HETATM   16  C13 UNL     1       3.886   0.624  -1.778  1.00  0.00     0.051 A 
ENDBRANCH   9  10
ENDBRANCH   8   9
ENDBRANCH   7   8
ENDBRANCH   5   7
ENDBRANCH   3   4
BRANCH   3  17
HETATM   17  N1  UNL     1      -1.403  -0.978   0.518  1.00  0.00    -0.334 N 
HETATM   18  H12 UNL     1      -0.705  -1.257  -0.204  1.00  0.00     0.168 HD
BRANCH  17  19
HETATM   19  C14 UNL     1      -2.678  -0.373   0.340  1.00  0.00     0.137 A 
HETATM   20  N2  UNL     1      -3.363  -0.126   1.471  1.00  0.00    -0.224 NA
HETATM   21  C15 UNL     1      -4.595   0.450   1.430  1.00  0.00     0.235 A 
HETATM   22  N3  UNL     1      -5.109   0.767   0.206  1.00  0.00    -0.246 NA
HETATM   23  C16 UNL     1      -4.428   0.522  -0.928  1.00  0.00     0.041 A 
HETATM   24  C17 UNL     1      -5.077   0.904  -2.188  1.00  0.00     0.071 C 
HETATM   25  C18 UNL     1      -3.193  -0.055  -0.899  1.00  0.00     0.008 A 
HETATM   26  C19 UNL     1      -2.426  -0.335  -2.114  1.00  0.00     0.054 C 
ENDBRANCH  17  19
ENDBRANCH   3  17
TORSDOF 7
