REMARK  7 active torsions:
REMARK  status: ('A' for Active; 'I' for Inactive)
REMARK    1  A    between atoms: C3_4  and  N2_5 
REMARK    2  A    between atoms: N2_5  and  C4_6 
REMARK    3  A    between atoms: C7_9  and  O1_10 
REMARK    4  A    between atoms: O1_10  and  C8_11 
REMARK    5  A    between atoms: C8_11  and  C9_12 
REMARK    6  A    between atoms: C10_13  and  C11_14 
REMARK    7  A    between atoms: C12_15  and  C13_16 
ROOT
HETATM    1  C4  UNL     1       2.517   0.602   0.759  1.00  0.00     0.035 A 
HETATM    2  C5  UNL     1       1.810   1.425   1.642  1.00  0.00     0.032 A 
HETATM    3  C6  UNL     1       0.438   1.533   1.530  1.00  0.00     0.041 A 
HETATM    4  C7  UNL     1      -0.275   0.849   0.563  1.00  0.00     0.090 A 
HETATM    5  C15 UNL     1       0.401   0.030  -0.320  1.00  0.00     0.069 A 
HETATM    6 CL1  UNL     1      -0.499  -0.839  -1.546  1.00  0.00    -0.081 Cl
HETATM    7  C16 UNL     1       1.774  -0.067  -0.193  1.00  0.00     0.056 A 
ENDROOT
BRANCH   4   8
HETATM    8  O1  UNL     1      -1.672   0.948   0.435  1.00  0.00    -0.346 OA
BRANCH   8   9
HETATM    9  C8  UNL     1      -2.331   1.796   1.356  1.00  0.00     0.203 C 
BRANCH   9  10
HETATM   10  C9  UNL     1      -3.780   1.871   1.190  1.00  0.00    -0.000 C 
HETATM   11  C10 UNL     1      -4.652   1.334   0.377  1.00  0.00    -0.002 C 
BRANCH  11  12
HETATM   12  C11 UNL     1      -4.311   0.412  -0.691  1.00  0.00    -0.001 C 
HETATM   13  C12 UNL     1      -5.253  -0.092  -1.477  1.00  0.00     0.009 C 
BRANCH  13  14
HETATM   14  C13 UNL     1      -6.724   0.102  -1.502  1.00  0.00     0.189 C 
HETATM   15  C14 UNL     1      -7.439  -1.238  -1.304  1.00  0.00     0.049 C 
HETATM   16  F1  UNL     1      -7.151   0.612  -2.717  1.00  0.00    -0.246 F 
ENDBRANCH  13  14
ENDBRANCH  11  12
ENDBRANCH   9  10
ENDBRANCH   8   9
ENDBRANCH   4   8
BRANCH   1  17
HETATM   17  N2  UNL     1       3.930   0.450   0.826  1.00  0.00    -0.340 N 
HETATM   18  H4  UNL     1       4.425   0.998   1.587  1.00  0.00     0.167 HD
BRANCH  17  19
HETATM   19  C3  UNL     1       4.668  -0.380  -0.059  1.00  0.00     0.136 A 
HETATM   20  N1  UNL     1       4.562  -0.942  -1.340  1.00  0.00    -0.235 NA
HETATM   21  C2  UNL     1       5.702  -1.540  -1.293  1.00  0.00     0.042 A 
HETATM   22  C1  UNL     1       6.630  -2.419  -2.068  1.00  0.00     0.071 C 
HETATM   23  C17 UNL     1       5.851  -0.974   0.045  1.00  0.00     0.008 A 
HETATM   24  C18 UNL     1       6.894  -1.016   1.130  1.00  0.00     0.054 C 
ENDBRANCH  17  19
ENDBRANCH   1  17
TORSDOF 7
