REMARK  4 active torsions:
REMARK  status: ('A' for Active; 'I' for Inactive)
REMARK    1  A    between atoms: N1_3  and  C3_4 
REMARK    2  A    between atoms: N2_5  and  N3_6 
REMARK    3  A    between atoms: N3_6  and  C4_7 
REMARK    4  A    between atoms: C7_10  and  C8_11 
ROOT
HETATM    1  C4  UNL     1       0.847  -0.091   0.293  1.00  0.00     0.047 A 
HETATM    2  C5  UNL     1       0.125  -1.195   0.192  1.00  0.00     0.005 A 
HETATM    3  C6  UNL     1      -1.279  -1.631   0.373  1.00  0.00     0.044 A 
HETATM    4  C7  UNL     1      -2.112  -0.474   0.790  1.00  0.00     0.067 A 
HETATM    5  C14 UNL     1      -1.255   0.729   0.886  1.00  0.00     0.022 A 
HETATM    6 CL1  UNL     1      -2.336   2.013   1.380  1.00  0.00    -0.088 Cl
HETATM    7  C15 UNL     1       0.013   1.056   0.709  1.00  0.00     0.051 A 
ENDROOT
BRANCH   1   8
HETATM    8  N3  UNL     1       2.233   0.143   0.071  1.00  0.00    -0.278 N 
HETATM    9  H6  UNL     1       2.456   1.027  -0.437  1.00  0.00     0.189 HD
BRANCH   8  10
HETATM   10  N2  UNL     1       3.075  -0.854   0.574  1.00  0.00    -0.168 NA
HETATM   11  C3  UNL     1       4.257  -0.521   0.971  1.00  0.00     0.254 C 
BRANCH  11  12
HETATM   12  N1  UNL     1       4.735   0.837   0.914  1.00  0.00    -0.257 NA
HETATM   13  C2  UNL     1       5.922   1.050   0.466  1.00  0.00     0.086 C 
HETATM   14  C1  UNL     1       6.676  -0.181   0.049  1.00  0.00     0.057 C 
ENDBRANCH  11  12
ENDBRANCH   8  10
ENDBRANCH   1   8
BRANCH   4  15
HETATM   15  C8  UNL     1      -3.295  -0.250  -0.073  1.00  0.00    -0.046 A 
HETATM   16  C9  UNL     1      -3.077   0.061  -1.405  1.00  0.00     0.008 A 
HETATM   17  C10 UNL     1      -4.126   0.283  -2.272  1.00  0.00     0.004 A 
HETATM   18  C11 UNL     1      -5.416   0.199  -1.823  1.00  0.00     0.042 A 
HETATM   19  C12 UNL     1      -5.678  -0.112  -0.484  1.00  0.00     0.117 A 
HETATM   20  F1  UNL     1      -6.947  -0.203  -0.007  1.00  0.00    -0.206 F 
HETATM   21  C13 UNL     1      -4.604  -0.334   0.380  1.00  0.00     0.050 A 
ENDBRANCH   4  15
TORSDOF 4
