REMARK  1 active torsions:
REMARK  status: ('A' for Active; 'I' for Inactive)
REMARK    1  A    between atoms: S1_2  and  C2_3 
ROOT
HETATM    1  C2  UNL     1       4.151   0.233   0.078  1.00  0.00     0.155 C 
HETATM    2  F1  UNL     1       4.810  -0.285  -0.964  1.00  0.00    -0.198 F 
HETATM    3  C3  UNL     1       2.878  -0.103   0.253  1.00  0.00    -0.033 C 
HETATM    4  C4  UNL     1       2.219   0.526   1.446  1.00  0.00     0.064 C 
HETATM    5  C5  UNL     1       1.227   1.548   0.950  1.00  0.00     0.181 C 
HETATM    6  O1  UNL     1      -0.008   0.897   0.798  1.00  0.00    -0.337 OA
HETATM    7  C6  UNL     1      -0.644  -0.011  -0.019  1.00  0.00     0.150 C 
HETATM    8  N1  UNL     1      -1.786   0.528   0.234  1.00  0.00    -0.224 NA
HETATM    9  C7  UNL     1      -3.160   0.325  -0.138  1.00  0.00     0.108 A 
HETATM   10  C8  UNL     1      -3.941   1.104   0.695  1.00  0.00     0.062 A 
HETATM   11  C9  UNL     1      -3.232   1.909   1.706  1.00  0.00     0.073 C 
HETATM   12  N2  UNL     1      -5.285   1.090   0.546  1.00  0.00    -0.244 NA
HETATM   13  C10 UNL     1      -5.919   0.349  -0.383  1.00  0.00     0.233 A 
HETATM   14  N3  UNL     1      -5.164  -0.426  -1.214  1.00  0.00    -0.244 NA
HETATM   15  C11 UNL     1      -3.819  -0.431  -1.087  1.00  0.00     0.070 A 
HETATM   16  C12 UNL     1      -3.280  -1.370  -2.131  1.00  0.00     0.090 C 
HETATM   17  C13 UNL     1      -2.403  -2.378  -1.477  1.00  0.00    -0.000 C 
HETATM   18  C14 UNL     1      -1.180  -2.211  -0.994  1.00  0.00     0.020 C 
HETATM   19 CL1  UNL     1      -0.685  -3.789  -0.351  1.00  0.00    -0.088 Cl
HETATM   20  C15 UNL     1      -0.150  -1.144  -0.841  1.00  0.00     0.107 C 
HETATM   21  C16 UNL     1       1.108  -1.746  -0.285  1.00  0.00     0.023 C 
HETATM   22  C17 UNL     1       2.345  -1.039  -0.769  1.00  0.00     0.039 C 
ENDROOT
BRANCH   1  23
HETATM   23  S1  UNL     1       4.938   1.349   1.220  1.00  0.00    -0.104 SA
HETATM   24  C1  UNL     1       6.669   1.619   0.722  1.00  0.00     0.098 C 
ENDBRANCH   1  23
TORSDOF 1
