REMARK  1 active torsions:
REMARK  status: ('A' for Active; 'I' for Inactive)
REMARK    1  A    between atoms: N1_4  and  C4_5 
ROOT
HETATM    1  C4  UNL     1       0.753  -0.795  -0.525  1.00  0.00     0.061 C 
HETATM    2  C5  UNL     1       0.229  -0.387   0.663  1.00  0.00     0.101 C 
HETATM    3  C6  UNL     1      -0.983  -0.799   1.384  1.00  0.00     0.050 C 
HETATM    4  C7  UNL     1      -2.201  -0.040   1.185  1.00  0.00    -0.011 A 
HETATM    5  C8  UNL     1      -2.325   1.139   1.889  1.00  0.00     0.123 A 
HETATM    6  F1  UNL     1      -1.298   1.473   2.723  1.00  0.00    -0.206 F 
HETATM    7  C9  UNL     1      -3.382   2.019   1.839  1.00  0.00     0.043 A 
HETATM    8  C10 UNL     1      -4.409   1.662   0.991  1.00  0.00     0.004 A 
HETATM    9  C11 UNL     1      -4.272   0.458   0.278  1.00  0.00     0.010 A 
HETATM   10  C12 UNL     1      -3.187  -0.475   0.310  1.00  0.00    -0.025 A 
HETATM   11  C13 UNL     1      -3.590  -1.532  -0.631  1.00  0.00     0.207 C 
HETATM   12  O1  UNL     1      -2.964  -1.545  -1.883  1.00  0.00    -0.381 OA
HETATM   13  C14 UNL     1      -1.742  -1.965  -1.629  1.00  0.00     0.219 C 
HETATM   14  C15 UNL     1      -0.479  -2.005  -2.313  1.00  0.00     0.034 C 
HETATM   15 CL1  UNL     1      -0.373  -2.789  -3.848  1.00  0.00    -0.087 Cl
HETATM   16  C16 UNL     1       0.725  -1.477  -1.896  1.00  0.00     0.023 C 
ENDROOT
BRANCH   1  17
HETATM   17  N1  UNL     1       1.917   0.091  -0.433  1.00  0.00    -0.272 N 
HETATM   18  C3  UNL     1       3.137  -0.200   0.238  1.00  0.00     0.115 A 
HETATM   19  C2  UNL     1       4.087   0.705   0.225  1.00  0.00    -0.062 A 
HETATM   20  C1  UNL     1       5.360   0.395   0.928  1.00  0.00     0.045 C 
HETATM   21  C18 UNL     1       3.974   2.024  -0.448  1.00  0.00     0.083 A 
HETATM   22  C17 UNL     1       2.680   2.217  -1.106  1.00  0.00     0.116 A 
HETATM   23  N2  UNL     1       1.739   1.325  -1.095  1.00  0.00    -0.189 NA
ENDBRANCH   1  17
TORSDOF 1
