REMARK  7 active torsions:
REMARK  status: ('A' for Active; 'I' for Inactive)
REMARK    1  A    between atoms: N1_1  and  C1_2 
REMARK    2  A    between atoms: C1_2  and  C2_3 
REMARK    3  A    between atoms: C2_3  and  C3_4 
REMARK    4  A    between atoms: C3_4  and  C4_5 
REMARK    5  A    between atoms: C5_6  and  C6_8 
REMARK    6  A    between atoms: C6_8  and  C7_10 
REMARK    7  A    between atoms: C7_10  and  C8_11 
ROOT
HETATM    1  C4  UNL     1      -0.274  -0.153  -0.885  1.00  0.00    -0.002 C 
HETATM    2  C5  UNL     1       0.539  -1.131  -1.334  1.00  0.00     0.042 C 
HETATM    3 CL1  UNL     1       0.918  -1.412  -3.044  1.00  0.00    -0.086 Cl
ENDROOT
BRANCH   1   4
HETATM    4  C3  UNL     1      -0.854   0.439   0.340  1.00  0.00     0.064 C 
BRANCH   4   5
HETATM    5  C2  UNL     1      -2.376   0.388   0.325  1.00  0.00     0.088 A 
HETATM    6  C14 UNL     1      -2.886   1.001   1.602  1.00  0.00     0.082 A 
HETATM    7  C15 UNL     1      -3.742   2.180   1.411  1.00  0.00     0.093 A 
HETATM    8  N2  UNL     1      -4.074   2.705   0.283  1.00  0.00    -0.259 NA
HETATM    9  C16 UNL     1      -3.575   2.103  -0.891  1.00  0.00     0.226 A 
HETATM   10  N3  UNL     1      -2.827   1.080  -0.853  1.00  0.00    -0.270 NA
BRANCH   5  11
HETATM   11  C1  UNL     1      -2.780  -1.046   0.231  1.00  0.00     0.300 C 
BRANCH  11  12
HETATM   12  N1  UNL     1      -4.214  -1.235   0.208  1.00  0.00     0.080 N 
HETATM   13  H1  UNL     1      -4.500  -2.174   0.555  1.00  0.00     0.312 HD
HETATM   14  H2  UNL     1      -4.658  -0.924  -0.660  1.00  0.00     0.312 HD
ENDBRANCH  11  12
ENDBRANCH   5  11
ENDBRANCH   4   5
ENDBRANCH   1   4
BRANCH   2  15
HETATM   15  C6  UNL     1       1.226  -2.105  -0.453  1.00  0.00     0.218 C 
HETATM   16  F1  UNL     1       0.870  -1.914   0.876  1.00  0.00    -0.243 F 
BRANCH  15  17
HETATM   17  C7  UNL     1       2.732  -2.060  -0.612  1.00  0.00     0.081 C 
BRANCH  17  18
HETATM   18  C8  UNL     1       3.291  -0.731  -0.280  1.00  0.00    -0.055 A 
HETATM   19  C9  UNL     1       3.518   0.351  -1.099  1.00  0.00     0.007 A 
HETATM   20  C10 UNL     1       4.051   1.515  -0.586  1.00  0.00     0.001 A 
HETATM   21  C11 UNL     1       4.376   1.649   0.747  1.00  0.00     0.000 A 
HETATM   22  C12 UNL     1       4.163   0.590   1.598  1.00  0.00     0.001 A 
HETATM   23  C13 UNL     1       3.628  -0.572   1.066  1.00  0.00     0.007 A 
ENDBRANCH  17  18
ENDBRANCH  15  17
ENDBRANCH   2  15
TORSDOF 7
