REMARK  4 active torsions:
REMARK  status: ('A' for Active; 'I' for Inactive)
REMARK    1  A    between atoms: O1_2  and  C2_3 
REMARK    2  A    between atoms: C4_5  and  O2_6 
REMARK    3  A    between atoms: C13_16  and  N2_17 
REMARK    4  A    between atoms: N2_17  and  C14_18 
ROOT
HETATM    1  C2  UNL     1       3.112   0.345   1.107  1.00  0.00     0.049 C 
HETATM    2  C3  UNL     1       2.974   1.402   0.325  1.00  0.00     0.042 C 
HETATM    3  C4  UNL     1       1.775   1.578  -0.459  1.00  0.00     0.178 C 
HETATM    4  C6  UNL     1       1.068   0.271  -0.526  1.00  0.00    -0.005 C 
HETATM    5  C7  UNL     1       1.277  -0.928   0.086  1.00  0.00    -0.036 C 
HETATM    6  C8  UNL     1       2.131  -0.756   1.299  1.00  0.00     0.101 C 
HETATM    7  C9  UNL     1       0.605  -2.065  -0.675  1.00  0.00     0.069 C 
HETATM    8  C10 UNL     1       1.368  -3.308  -0.677  1.00  0.00     0.045 C 
HETATM    9  C11 UNL     1       0.127  -1.666  -2.029  1.00  0.00     0.172 A 
HETATM   10  N1  UNL     1      -1.043  -0.715  -2.049  1.00  0.00    -0.397 N 
HETATM   11  C12 UNL     1      -0.024  -0.285  -1.294  1.00  0.00     0.129 A 
HETATM   12  C13 UNL     1      -0.909  -0.747  -0.046  1.00  0.00     0.113 C 
HETATM   13  N3  UNL     1      -0.670  -2.174   0.097  1.00  0.00    -0.363 N 
HETATM   14  H16 UNL     1      -1.856  -1.032  -2.637  1.00  0.00     0.154 HD
HETATM   15  H21 UNL     1      -0.904  -3.123   0.421  1.00  0.00     0.162 HD
ENDROOT
BRANCH  12  16
HETATM   16  N2  UNL     1      -1.931  -0.443   1.138  1.00  0.00    -0.344 N 
HETATM   17  H17 UNL     1      -1.612  -0.642   2.095  1.00  0.00     0.167 HD
BRANCH  16  18
HETATM   18  C14 UNL     1      -3.239   0.087   1.043  1.00  0.00     0.035 A 
HETATM   19  C15 UNL     1      -4.307  -0.801   1.026  1.00  0.00     0.032 A 
HETATM   20  C16 UNL     1      -5.577  -0.301   0.926  1.00  0.00     0.046 A 
HETATM   21  C17 UNL     1      -5.817   1.050   0.845  1.00  0.00     0.138 A 
HETATM   22  F1  UNL     1      -7.067   1.555   0.745  1.00  0.00    -0.204 F 
HETATM   23  C18 UNL     1      -4.780   1.962   0.861  1.00  0.00     0.074 A 
HETATM   24 CL1  UNL     1      -5.104   3.685   0.755  1.00  0.00    -0.081 Cl
HETATM   25  C19 UNL     1      -3.500   1.456   0.961  1.00  0.00     0.056 A 
ENDBRANCH  16  18
ENDBRANCH  12  16
BRANCH   3  26
HETATM   26  O2  UNL     1       1.034   2.621   0.067  1.00  0.00    -0.382 OA
HETATM   27  C5  UNL     1       0.928   3.684  -0.845  1.00  0.00     0.202 C 
ENDBRANCH   3  26
BRANCH   1  28
HETATM   28  O1  UNL     1       4.325   0.352   1.778  1.00  0.00    -0.360 OA
HETATM   29  C1  UNL     1       5.542   0.256   1.070  1.00  0.00     0.209 C 
ENDBRANCH   1  28
TORSDOF 4
