REMARK  4 active torsions:
REMARK  status: ('A' for Active; 'I' for Inactive)
REMARK    1  A    between atoms: C4_6  and  C5_7 
REMARK    2  A    between atoms: C8_10  and  O1_11 
REMARK    3  A    between atoms: O1_11  and  C9_12 
REMARK    4  A    between atoms: C9_12  and  C10_13 
ROOT
HETATM    1  C5  UNL     1      -1.835   0.150  -0.526  1.00  0.00    -0.005 A 
HETATM    2  C6  UNL     1      -1.094  -0.779  -1.255  1.00  0.00     0.017 A 
HETATM    3  C7  UNL     1       0.279  -0.855  -1.138  1.00  0.00     0.039 A 
HETATM    4  C8  UNL     1       0.923  -0.006  -0.294  1.00  0.00     0.090 A 
HETATM    5  C16 UNL     1       0.217   0.937   0.453  1.00  0.00     0.068 A 
HETATM    6 CL1  UNL     1       0.951   2.085   1.575  1.00  0.00    -0.081 Cl
HETATM    7  C17 UNL     1      -1.158   1.001   0.324  1.00  0.00     0.040 A 
ENDROOT
BRANCH   4   8
HETATM    8  O1  UNL     1       2.291   0.048  -0.061  1.00  0.00    -0.345 OA
BRANCH   8   9
HETATM    9  C9  UNL     1       3.256  -0.766  -0.657  1.00  0.00     0.214 C 
BRANCH   9  10
HETATM   10  C10 UNL     1       4.628  -0.438  -0.180  1.00  0.00    -0.031 A 
HETATM   11  C11 UNL     1       5.178  -1.068   0.938  1.00  0.00     0.009 A 
HETATM   12  C12 UNL     1       6.462  -0.719   1.333  1.00  0.00     0.004 A 
HETATM   13  C13 UNL     1       7.225   0.211   0.688  1.00  0.00     0.042 A 
HETATM   14  C14 UNL     1       6.696   0.855  -0.434  1.00  0.00     0.117 A 
HETATM   15  F1  UNL     1       7.406   1.772  -1.097  1.00  0.00    -0.206 F 
HETATM   16  C15 UNL     1       5.420   0.501  -0.818  1.00  0.00     0.051 A 
ENDBRANCH   9  10
ENDBRANCH   8   9
ENDBRANCH   4   8
BRANCH   1  17
HETATM   17  C4  UNL     1      -3.277   0.119  -0.748  1.00  0.00     0.076 A 
HETATM   18  N2  UNL     1      -3.733   0.033  -2.012  1.00  0.00    -0.241 NA
HETATM   19  C3  UNL     1      -5.060  -0.000  -2.283  1.00  0.00     0.234 A 
HETATM   20  N1  UNL     1      -5.959   0.054  -1.268  1.00  0.00    -0.246 NA
HETATM   21  C2  UNL     1      -5.544   0.141   0.025  1.00  0.00     0.040 A 
HETATM   22  C1  UNL     1      -6.593   0.195   1.071  1.00  0.00     0.071 C 
HETATM   23  C18 UNL     1      -4.189   0.174   0.282  1.00  0.00    -0.008 A 
HETATM   24  C19 UNL     1      -3.733   0.269   1.679  1.00  0.00     0.052 C 
ENDBRANCH   1  17
TORSDOF 4
