REMARK  5 active torsions:
REMARK  status: ('A' for Active; 'I' for Inactive)
REMARK    1  A    between atoms: C4_5  and  N2_6 
REMARK    2  A    between atoms: N2_6  and  C5_7 
REMARK    3  A    between atoms: C8_10  and  O1_11 
REMARK    4  A    between atoms: O1_11  and  C9_12 
REMARK    5  A    between atoms: C14_18  and  N3_19 
ROOT
HETATM    1  C5  UNL     1       0.765  -0.832  -0.499  1.00  0.00     0.034 A 
HETATM    2  C6  UNL     1      -0.225  -1.079  -1.427  1.00  0.00     0.032 A 
HETATM    3  C7  UNL     1      -1.553  -0.834  -1.189  1.00  0.00     0.041 A 
HETATM    4  C8  UNL     1      -1.968  -0.317   0.018  1.00  0.00     0.092 A 
HETATM    5  C15 UNL     1      -0.982  -0.056   0.980  1.00  0.00     0.069 A 
HETATM    6 CL1  UNL     1      -1.226   0.603   2.601  1.00  0.00    -0.081 Cl
HETATM    7  C16 UNL     1       0.370  -0.312   0.720  1.00  0.00     0.056 A 
ENDROOT
BRANCH   4   8
HETATM    8  O1  UNL     1      -3.190   0.032   0.554  1.00  0.00    -0.334 OA
BRANCH   8   9
HETATM    9  C9  UNL     1      -4.370  -0.120  -0.188  1.00  0.00     0.205 C 
HETATM   10  C10 UNL     1      -5.289  -1.015   0.607  1.00  0.00     0.024 C 
HETATM   11  C11 UNL     1      -5.556  -0.456   1.771  1.00  0.00    -0.024 C 
HETATM   12  C12 UNL     1      -5.987   0.778   1.841  1.00  0.00     0.056 C 
HETATM   13  C13 UNL     1      -5.841   1.668   0.691  1.00  0.00     0.142 C 
HETATM   14  F1  UNL     1      -6.470   2.867   0.636  1.00  0.00    -0.204 F 
HETATM   15  C14 UNL     1      -5.057   1.214  -0.275  1.00  0.00     0.075 C 
BRANCH  15  16
HETATM   16  N3  UNL     1      -4.906   2.066  -1.395  1.00  0.00    -0.398 N 
HETATM   17  H11 UNL     1      -4.619   3.085  -1.298  1.00  0.00     0.156 HD
HETATM   18  H12 UNL     1      -4.819   2.621  -2.262  1.00  0.00     0.156 HD
ENDBRANCH  15  16
ENDBRANCH   8   9
ENDBRANCH   4   8
BRANCH   1  19
HETATM   19  N2  UNL     1       2.131  -1.103  -0.793  1.00  0.00    -0.358 N 
HETATM   20  H5  UNL     1       2.375  -1.491  -1.718  1.00  0.00     0.166 HD
BRANCH  19  21
HETATM   21  C4  UNL     1       3.158  -0.855   0.148  1.00  0.00     0.036 A 
HETATM   22  C3  UNL     1       3.302  -1.393   1.350  1.00  0.00     0.142 A 
HETATM   23  N1  UNL     1       4.484  -0.865   1.981  1.00  0.00    -0.267 NA
HETATM   24  C2  UNL     1       5.045  -0.018   1.167  1.00  0.00     0.018 A 
HETATM   25  C1  UNL     1       6.291   0.691   1.549  1.00  0.00     0.066 C 
HETATM   26  C17 UNL     1       4.275   0.108  -0.122  1.00  0.00     0.080 A 
HETATM   27  C18 UNL     1       5.091  -0.500  -1.243  1.00  0.00     0.023 C 
ENDBRANCH  19  21
ENDBRANCH   1  19
TORSDOF 5
