REMARK  7 active torsions:
REMARK  status: ('A' for Active; 'I' for Inactive)
REMARK    1  A    between atoms: C2_2  and  C3_3 
REMARK    2  A    between atoms: B1_7  and  N3_8 
REMARK    3  A    between atoms: N3_8  and  C5_9 
REMARK    4  A    between atoms: C9_14  and  C10_15 
REMARK    5  A    between atoms: C10_15  and  O1_16 
REMARK    6  A    between atoms: O1_16  and  C11_17 
REMARK    7  A    between atoms: C11_17  and  C12_18 
ROOT
HETATM    1  C3  UNL     1      -1.854  -2.359   1.115  1.00  0.00     0.014 A 
HETATM    2  N1  UNL     1      -3.065  -2.110   1.502  1.00  0.00    -0.253 NA
HETATM    3  C4  UNL     1      -3.512  -0.776   1.728  1.00  0.00     0.210 A 
HETATM    4  N2  UNL     1      -2.752   0.235   1.564  1.00  0.00    -0.326 NA
HETATM    5  B1  UNL     1      -1.340   0.065   1.121  1.00  0.00     0.412 B 
HETATM    6  C9  UNL     1      -0.782  -1.375   0.853  1.00  0.00     0.062 A 
ENDROOT
BRANCH   6   7
HETATM    7  C10 UNL     1      -0.194  -1.515  -0.532  1.00  0.00     0.172 C 
BRANCH   7   8
HETATM    8  O1  UNL     1       0.782  -0.542  -0.629  1.00  0.00    -0.387 OA
BRANCH   8   9
HETATM    9  C11 UNL     1       1.452  -0.493  -1.828  1.00  0.00     0.206 C 
BRANCH   9  10
HETATM   10  C12 UNL     1       2.486   0.599  -1.819  1.00  0.00    -0.032 A 
HETATM   11  C13 UNL     1       3.775   0.344  -1.396  1.00  0.00     0.009 A 
HETATM   12  C14 UNL     1       4.780   1.284  -1.357  1.00  0.00     0.004 A 
HETATM   13  C15 UNL     1       4.483   2.552  -1.763  1.00  0.00     0.042 A 
HETATM   14  C16 UNL     1       3.210   2.866  -2.197  1.00  0.00     0.117 A 
HETATM   15  F1  UNL     1       2.921   4.125  -2.599  1.00  0.00    -0.206 F 
HETATM   16  C17 UNL     1       2.233   1.899  -2.221  1.00  0.00     0.051 A 
ENDBRANCH   9  10
ENDBRANCH   8   9
ENDBRANCH   7   8
ENDBRANCH   6   7
BRANCH   1  17
HETATM   17  C2  UNL     1      -1.433  -3.779   0.891  1.00  0.00     0.050 C 
HETATM   18  C1  UNL     1      -2.614  -4.705   1.191  1.00  0.00     0.011 C 
ENDBRANCH   1  17
BRANCH   5  19
HETATM   19  N3  UNL     1      -0.505   1.211   0.522  1.00  0.00    -0.342 NA
HETATM   20  H7  UNL     1      -0.666   1.293  -0.503  1.00  0.00     0.106 HD
BRANCH  19  21
HETATM   21  C5  UNL     1      -0.723   2.458   1.227  1.00  0.00     0.069 A 
HETATM   22  C6  UNL     1      -1.953   3.104   1.352  1.00  0.00     0.034 A 
HETATM   23  C7  UNL     1      -2.315   4.393   0.766  1.00  0.00     0.009 A 
HETATM   24  C8  UNL     1      -0.996   3.731   0.489  1.00  0.00     0.061 A 
HETATM   25 CL1  UNL     1      -3.360   5.780   0.401  1.00  0.00    -0.092 Cl
ENDBRANCH  19  21
ENDBRANCH   5  19
TORSDOF 7
