REMARK  9 active torsions:
REMARK  status: ('A' for Active; 'I' for Inactive)
REMARK    1  A    between atoms: C2_2  and  C3_3 
REMARK    2  A    between atoms: C5_7  and  N3_8 
REMARK    3  A    between atoms: N3_8  and  C6_9 
REMARK    4  A    between atoms: C6_9  and  C7_10 
REMARK    5  A    between atoms: C6_9  and  C15_21 
REMARK    6  A    between atoms: C8_11  and  C9_13 
REMARK    7  A    between atoms: C9_13  and  O1_14 
REMARK    8  A    between atoms: O1_14  and  C10_15 
REMARK    9  A    between atoms: C10_15  and  C11_16 
ROOT
HETATM    1  C6  UNL     1      -0.037  -1.858  -0.725  1.00  0.00     0.107 C 
ENDROOT
BRANCH   1   2
HETATM    2  N3  UNL     1       1.195  -1.519  -0.115  1.00  0.00    -0.366 N 
HETATM    3  H7  UNL     1       1.768  -2.249   0.410  1.00  0.00     0.161 HD
BRANCH   2   4
HETATM    4  C5  UNL     1       1.897  -0.274  -0.056  1.00  0.00     0.133 A 
HETATM    5  N2  UNL     1       1.317   0.786  -0.646  1.00  0.00    -0.224 NA
HETATM    6  C4  UNL     1       1.828   2.025  -0.672  1.00  0.00     0.235 A 
HETATM    7  N1  UNL     1       3.020   2.244  -0.062  1.00  0.00    -0.246 NA
HETATM    8  C3  UNL     1       3.675   1.224   0.559  1.00  0.00     0.045 A 
HETATM    9  C17 UNL     1       3.129  -0.039   0.572  1.00  0.00     0.008 A 
HETATM   10  C18 UNL     1       3.752  -1.208   1.213  1.00  0.00     0.054 C 
BRANCH   8  11
HETATM   11  C2  UNL     1       4.957   1.401   1.228  1.00  0.00     0.055 C 
HETATM   12  C1  UNL     1       6.041   0.825   0.337  1.00  0.00     0.011 C 
ENDBRANCH   8  11
ENDBRANCH   2   4
ENDBRANCH   1   2
BRANCH   1  13
HETATM   13  C7  UNL     1      -1.186  -0.985  -0.363  1.00  0.00     0.019 C 
HETATM   14  C8  UNL     1      -1.637  -1.116   0.878  1.00  0.00     0.033 C 
HETATM   15 CL1  UNL     1      -0.646  -2.351   1.688  1.00  0.00    -0.087 Cl
BRANCH  14  16
HETATM   16  C9  UNL     1      -2.642  -0.638   1.846  1.00  0.00     0.218 C 
BRANCH  16  17
HETATM   17  O1  UNL     1      -3.506   0.322   1.393  1.00  0.00    -0.385 OA
BRANCH  17  18
HETATM   18  C10 UNL     1      -4.268  -0.180   0.360  1.00  0.00     0.177 C 
BRANCH  18  19
HETATM   19  C11 UNL     1      -5.225   0.897  -0.154  1.00  0.00     0.041 A 
HETATM   20  C12 UNL     1      -4.568   2.089  -0.660  1.00  0.00     0.018 A 
HETATM   21  C13 UNL     1      -5.027   2.837   0.298  1.00  0.00     0.091 A 
HETATM   22  F1  UNL     1      -4.858   4.156   0.554  1.00  0.00    -0.211 F 
HETATM   23  C14 UNL     1      -5.750   1.753   0.941  1.00  0.00     0.080 A 
ENDBRANCH  18  19
ENDBRANCH  17  18
ENDBRANCH  16  17
ENDBRANCH  14  16
ENDBRANCH   1  13
BRANCH   1  24
HETATM   24  C15 UNL     1       0.059  -2.152  -2.194  1.00  0.00     0.025 C 
HETATM   25  C16 UNL     1       0.568  -1.040  -3.047  1.00  0.00     0.007 C 
ENDBRANCH   1  24
TORSDOF 9
