REMARK  6 active torsions:
REMARK  status: ('A' for Active; 'I' for Inactive)
REMARK    1  A    between atoms: C2_2  and  C3_3 
REMARK    2  A    between atoms: C5_7  and  N3_8 
REMARK    3  A    between atoms: N3_8  and  C6_9 
REMARK    4  A    between atoms: C9_12  and  O1_13 
REMARK    5  A    between atoms: O1_13  and  C10_14 
REMARK    6  A    between atoms: C10_14  and  C11_15 
ROOT
HETATM    1  C6  UNL     1      -0.430   0.453  -0.145  1.00  0.00     0.035 A 
HETATM    2  C7  UNL     1       0.456   0.168  -1.190  1.00  0.00     0.032 A 
HETATM    3  C8  UNL     1       1.736   0.637  -1.197  1.00  0.00     0.041 A 
HETATM    4  C9  UNL     1       2.245   1.416  -0.190  1.00  0.00     0.090 A 
HETATM    5  C17 UNL     1       1.397   1.726   0.872  1.00  0.00     0.069 A 
HETATM    6 CL1  UNL     1       1.952   2.724   2.220  1.00  0.00    -0.081 Cl
HETATM    7  C18 UNL     1       0.107   1.236   0.850  1.00  0.00     0.056 A 
ENDROOT
BRANCH   1   8
HETATM    8  N3  UNL     1      -1.756  -0.046  -0.169  1.00  0.00    -0.340 N 
HETATM    9  H7  UNL     1      -2.018  -0.540  -1.069  1.00  0.00     0.167 HD
BRANCH   8  10
HETATM   10  C5  UNL     1      -2.747   0.033   0.837  1.00  0.00     0.137 A 
HETATM   11  N2  UNL     1      -2.600   0.593   2.045  1.00  0.00    -0.224 NA
HETATM   12  C4  UNL     1      -3.546   0.662   2.990  1.00  0.00     0.235 A 
HETATM   13  N1  UNL     1      -4.756   0.135   2.737  1.00  0.00    -0.246 NA
HETATM   14  C3  UNL     1      -4.996  -0.448   1.550  1.00  0.00     0.045 A 
HETATM   15  C19 UNL     1      -3.993  -0.499   0.601  1.00  0.00     0.009 A 
HETATM   16  C20 UNL     1      -4.264  -1.144  -0.708  1.00  0.00     0.054 C 
BRANCH  14  17
HETATM   17  C2  UNL     1      -6.335  -1.027   1.265  1.00  0.00     0.055 C 
HETATM   18  C1  UNL     1      -7.128  -0.099   0.347  1.00  0.00     0.011 C 
ENDBRANCH  14  17
ENDBRANCH   8  10
ENDBRANCH   1   8
BRANCH   4  19
HETATM   19  O1  UNL     1       3.513   1.943  -0.093  1.00  0.00    -0.345 OA
BRANCH  19  20
HETATM   20  C10 UNL     1       4.566   1.801  -0.989  1.00  0.00     0.210 C 
BRANCH  20  21
HETATM   21  C11 UNL     1       5.040   0.438  -1.227  1.00  0.00    -0.049 A 
HETATM   22  C12 UNL     1       5.140  -0.367  -2.299  1.00  0.00     0.005 A 
HETATM   23  C13 UNL     1       5.700  -1.674  -1.983  1.00  0.00    -0.003 A 
HETATM   24  C14 UNL     1       5.933  -1.623  -0.682  1.00  0.00    -0.018 A 
HETATM   25  C15 UNL     1       5.557  -0.322  -0.069  1.00  0.00     0.035 A 
HETATM   26  C16 UNL     1       4.569  -0.486   1.049  1.00  0.00     0.019 C 
ENDBRANCH  20  21
ENDBRANCH  19  20
ENDBRANCH   4  19
TORSDOF 6
