REMARK  7 active torsions:
REMARK  status: ('A' for Active; 'I' for Inactive)
REMARK    1  A    between atoms: C2_2  and  C3_3 
REMARK    2  A    between atoms: C5_7  and  C6_8 
REMARK    3  A    between atoms: C9_11  and  C10_12 
REMARK    4  A    between atoms: C10_12  and  C11_13 
REMARK    5  A    between atoms: C11_13  and  C12_14 
REMARK    6  A    between atoms: C12_14  and  C13_15 
REMARK    7  A    between atoms: C16_19  and  C17_20 
ROOT
HETATM    1  C6  UNL     1      -0.082   0.335   0.804  1.00  0.00    -0.007 A 
HETATM    2  C7  UNL     1       0.861   1.333   0.527  1.00  0.00     0.014 A 
HETATM    3  C8  UNL     1       2.227   1.141   0.492  1.00  0.00     0.008 A 
HETATM    4  C9  UNL     1       2.710  -0.124   0.747  1.00  0.00    -0.055 A 
HETATM    5  C14 UNL     1       1.820  -1.138   1.025  1.00  0.00     0.008 A 
HETATM    6  C15 UNL     1       0.465  -0.904   1.051  1.00  0.00     0.014 A 
ENDROOT
BRANCH   1   7
HETATM    7  C5  UNL     1      -1.469   0.776   0.791  1.00  0.00     0.076 A 
HETATM    8  N2  UNL     1      -1.676   1.933   1.488  1.00  0.00    -0.241 NA
HETATM    9  C4  UNL     1      -2.899   2.508   1.582  1.00  0.00     0.234 A 
HETATM   10  N1  UNL     1      -3.944   1.918   0.967  1.00  0.00    -0.246 NA
HETATM   11  C3  UNL     1      -3.768   0.762   0.263  1.00  0.00     0.044 A 
HETATM   12  C16 UNL     1      -2.530   0.165   0.159  1.00  0.00    -0.004 A 
BRANCH  11  13
HETATM   13  C2  UNL     1      -4.957   0.167  -0.398  1.00  0.00     0.055 C 
HETATM   14  C1  UNL     1      -5.008   0.399  -1.876  1.00  0.00     0.011 C 
ENDBRANCH  11  13
BRANCH  12  15
HETATM   15  C17 UNL     1      -2.298  -1.075  -0.595  1.00  0.00     0.039 C 
HETATM   16  C18 UNL     1      -2.825  -2.292   0.167  1.00  0.00     0.010 C 
ENDBRANCH  12  15
ENDBRANCH   1   7
BRANCH   4  17
HETATM   17  C10 UNL     1       4.157  -0.491   0.748  1.00  0.00     0.065 C 
BRANCH  17  18
HETATM   18  C11 UNL     1       4.596  -0.914  -0.607  1.00  0.00    -0.024 C 
BRANCH  18  19
HETATM   19  C12 UNL     1       5.552  -0.292  -1.261  1.00  0.00     0.000 C 
BRANCH  19  20
HETATM   20  C13 UNL     1       6.415   0.865  -0.964  1.00  0.00     0.249 C 
HETATM   21  F1  UNL     1       7.761   0.477  -0.987  1.00  0.00    -0.251 F 
ENDBRANCH  19  20
ENDBRANCH  18  19
ENDBRANCH  17  18
ENDBRANCH   4  17
TORSDOF 7
