REMARK  6 active torsions:
REMARK  status: ('A' for Active; 'I' for Inactive)
REMARK    1  A    between atoms: C2_2  and  C3_3 
REMARK    2  A    between atoms: C5_7  and  N3_8 
REMARK    3  A    between atoms: N3_8  and  C6_9 
REMARK    4  A    between atoms: C9_12  and  O1_13 
REMARK    5  A    between atoms: O1_13  and  C10_14 
REMARK    6  A    between atoms: C10_14  and  C11_15 
ROOT
HETATM    1  C6  UNL     1      -0.418   0.962   0.393  1.00  0.00     0.035 A 
HETATM    2  C7  UNL     1       0.625   1.590   1.073  1.00  0.00     0.032 A 
HETATM    3  C8  UNL     1       1.883   1.118   0.843  1.00  0.00     0.041 A 
HETATM    4  C9  UNL     1       2.209   0.078  -0.002  1.00  0.00     0.091 A 
HETATM    5  C17 UNL     1       1.157  -0.544  -0.679  1.00  0.00     0.069 A 
HETATM    6 CL1  UNL     1       1.451  -1.886  -1.786  1.00  0.00    -0.081 Cl
HETATM    7  C18 UNL     1      -0.137  -0.068  -0.450  1.00  0.00     0.056 A 
ENDROOT
BRANCH   1   8
HETATM    8  N3  UNL     1      -1.760   1.397   0.580  1.00  0.00    -0.341 N 
HETATM    9  H7  UNL     1      -1.947   2.205   1.245  1.00  0.00     0.167 HD
BRANCH   8  10
HETATM   10  C5  UNL     1      -2.917   0.858  -0.041  1.00  0.00     0.129 A 
HETATM   11  N2  UNL     1      -2.749   0.843  -1.451  1.00  0.00    -0.224 NA
HETATM   12  C4  UNL     1      -3.623   0.412  -2.290  1.00  0.00     0.235 A 
HETATM   13  N1  UNL     1      -4.885  -0.111  -1.914  1.00  0.00    -0.246 NA
HETATM   14  C3  UNL     1      -5.315  -0.222  -0.707  1.00  0.00     0.039 A 
HETATM   15  P1  UNL     1      -4.277   0.311   0.643  1.00  0.00    -0.040 P 
HETATM   16  C19 UNL     1      -5.090   1.577   1.645  1.00  0.00     0.050 C 
HETATM   17  H17 UNL     1      -3.905  -0.758   1.476  1.00  0.00     0.066 HD
BRANCH  14  18
HETATM   18  C2  UNL     1      -6.531  -0.708  -0.052  1.00  0.00     0.055 C 
HETATM   19  C1  UNL     1      -7.563  -1.213  -1.053  1.00  0.00     0.011 C 
ENDBRANCH  14  18
ENDBRANCH   8  10
ENDBRANCH   1   8
BRANCH   4  20
HETATM   20  O1  UNL     1       3.511  -0.369  -0.205  1.00  0.00    -0.345 OA
BRANCH  20  21
HETATM   21  C10 UNL     1       4.573   0.270   0.488  1.00  0.00     0.214 C 
BRANCH  21  22
HETATM   22  C11 UNL     1       5.873  -0.341   0.144  1.00  0.00    -0.031 A 
HETATM   23  C12 UNL     1       6.418  -1.400   0.841  1.00  0.00     0.009 A 
HETATM   24  C13 UNL     1       7.627  -1.988   0.541  1.00  0.00     0.004 A 
HETATM   25  C14 UNL     1       8.323  -1.466  -0.534  1.00  0.00     0.042 A 
HETATM   26  C15 UNL     1       7.833  -0.411  -1.269  1.00  0.00     0.117 A 
HETATM   27  F1  UNL     1       8.574   0.053  -2.318  1.00  0.00    -0.206 F 
HETATM   28  C16 UNL     1       6.606   0.151  -0.929  1.00  0.00     0.051 A 
ENDBRANCH  21  22
ENDBRANCH  20  21
ENDBRANCH   4  20
TORSDOF 6
