REMARK  2 active torsions:
REMARK  status: ('A' for Active; 'I' for Inactive)
REMARK    1  A    between atoms: C7_8  and  O1_9 
REMARK    2  A    between atoms: O1_9  and  C8_10 
ROOT
HETATM    1  C8  UNL     1       1.076   1.277   0.590  1.00  0.00     0.199 C 
HETATM    2  C9  UNL     1       0.842   0.253   1.640  1.00  0.00    -0.028 C 
HETATM    3  C10 UNL     1       0.477   0.871   2.811  1.00  0.00     0.003 C 
HETATM    4  C11 UNL     1      -0.667   1.887   2.792  1.00  0.00     0.154 C 
HETATM    5  N1  UNL     1      -1.133   1.777   1.427  1.00  0.00    -0.341 N 
HETATM    6  C12 UNL     1      -2.216   1.297   0.648  1.00  0.00     0.137 A 
HETATM    7  N2  UNL     1      -2.515   1.936  -0.477  1.00  0.00    -0.224 NA
HETATM    8  C13 UNL     1      -3.358   1.457  -1.401  1.00  0.00     0.235 A 
HETATM    9  N3  UNL     1      -3.902   0.228  -1.105  1.00  0.00    -0.241 NA
HETATM   10  C14 UNL     1      -3.533  -0.334   0.061  1.00  0.00     0.067 A 
HETATM   11  C15 UNL     1      -2.702   0.083   1.056  1.00  0.00     0.013 A 
HETATM   12  C16 UNL     1      -2.568  -0.663   2.310  1.00  0.00     0.055 C 
HETATM   13  C17 UNL     1      -3.971  -1.755  -0.027  1.00  0.00     0.032 C 
HETATM   14  C18 UNL     1      -2.916  -2.551   0.277  1.00  0.00     0.002 C 
HETATM   15  C19 UNL     1      -1.682  -3.322   0.630  1.00  0.00     0.000 C 
HETATM   16  C20 UNL     1      -0.380  -3.402   1.025  1.00  0.00     0.000 C 
HETATM   17  C21 UNL     1       0.662  -2.467   1.390  1.00  0.00     0.001 C 
HETATM   18  C22 UNL     1       0.965  -1.206   1.567  1.00  0.00     0.009 C 
HETATM   19  C23 UNL     1       0.010   2.320   0.672  1.00  0.00     0.217 C 
HETATM   20 CL1  UNL     1      -0.474   2.680  -1.003  1.00  0.00    -0.099 Cl
ENDROOT
BRANCH   1  21
HETATM   21  O1  UNL     1       1.248   0.734  -0.676  1.00  0.00    -0.337 OA
BRANCH  21  22
HETATM   22  C7  UNL     1       2.422   0.877  -1.381  1.00  0.00     0.078 A 
HETATM   23  C2  UNL     1       2.261   0.202  -2.597  1.00  0.00     0.010 A 
HETATM   24  C1  UNL     1       1.049  -0.551  -3.084  1.00  0.00     0.054 C 
HETATM   25  C3  UNL     1       3.263   0.143  -3.561  1.00  0.00     0.125 A 
HETATM   26  F1  UNL     1       3.209  -0.476  -4.758  1.00  0.00    -0.205 F 
HETATM   27  C4  UNL     1       4.477   0.775  -3.320  1.00  0.00     0.043 A 
HETATM   28  C5  UNL     1       4.635   1.438  -2.125  1.00  0.00     0.006 A 
HETATM   29  C6  UNL     1       3.640   1.495  -1.172  1.00  0.00     0.037 A 
ENDBRANCH  21  22
ENDBRANCH   1  21
TORSDOF 2
