REMARK  6 active torsions:
REMARK  status: ('A' for Active; 'I' for Inactive)
REMARK    1  A    between atoms: C2_2  and  C18_22 
REMARK    2  A    between atoms: C3_3  and  N1_4 
REMARK    3  A    between atoms: N1_4  and  C4_5 
REMARK    4  A    between atoms: C7_8  and  O1_9 
REMARK    5  A    between atoms: O1_9  and  C8_10 
REMARK    6  A    between atoms: C8_10  and  C9_11 
ROOT
HETATM    1  C18 UNL     1      -5.471  -0.403   0.062  1.00  0.00     0.050 C 
HETATM    2  C19 UNL     1      -6.888  -0.643  -0.306  1.00  0.00     0.072 C 
HETATM    3  N2  UNL     1      -4.934   0.770   0.032  1.00  0.00    -0.179 NA
HETATM    4  C20 UNL     1      -5.743   1.848  -0.368  1.00  0.00     0.206 C 
HETATM    5  N3  UNL     1      -6.414   2.755  -0.693  1.00  0.00    -0.170 NA
ENDROOT
BRANCH   1   6
HETATM    6  C2  UNL     1      -4.578  -1.479   0.485  1.00  0.00    -0.021 C 
HETATM    7  C1  UNL     1      -5.142  -2.859   0.540  1.00  0.00     0.052 C 
HETATM    8  C3  UNL     1      -3.334  -1.143   0.788  1.00  0.00     0.096 C 
BRANCH   8   9
HETATM    9  N1  UNL     1      -2.689   0.139   0.772  1.00  0.00    -0.368 N 
HETATM   10  H5  UNL     1      -2.832   1.111   1.096  1.00  0.00     0.165 HD
BRANCH   9  11
HETATM   11  C4  UNL     1      -1.428   0.165   0.110  1.00  0.00     0.012 C 
HETATM   12  C5  UNL     1      -0.428  -0.042   0.950  1.00  0.00     0.028 C 
HETATM   13  C6  UNL     1       1.005  -0.094   0.685  1.00  0.00     0.040 C 
HETATM   14  C7  UNL     1       1.658   0.429  -0.365  1.00  0.00     0.090 C 
HETATM   15  C15 UNL     1       1.040   1.174  -1.478  1.00  0.00     0.064 C 
HETATM   16 CL1  UNL     1       2.104   2.218  -2.419  1.00  0.00    -0.082 Cl
HETATM   17  C16 UNL     1      -0.240   1.115  -1.819  1.00  0.00     0.006 C 
HETATM   18  C17 UNL     1      -1.449   0.409  -1.341  1.00  0.00     0.086 C 
BRANCH  14  19
HETATM   19  O1  UNL     1       3.045   0.289  -0.470  1.00  0.00    -0.345 OA
BRANCH  19  20
HETATM   20  C8  UNL     1       3.807   0.780   0.608  1.00  0.00     0.214 C 
BRANCH  20  21
HETATM   21  C9  UNL     1       5.251   0.526   0.283  1.00  0.00    -0.031 A 
HETATM   22  C10 UNL     1       5.930   1.513  -0.403  1.00  0.00     0.009 A 
HETATM   23  C11 UNL     1       7.257   1.396  -0.758  1.00  0.00     0.004 A 
HETATM   24  C12 UNL     1       7.956   0.249  -0.423  1.00  0.00     0.042 A 
HETATM   25  C13 UNL     1       7.279  -0.746   0.266  1.00  0.00     0.117 A 
HETATM   26  F1  UNL     1       7.848  -1.920   0.654  1.00  0.00    -0.206 F 
HETATM   27  C14 UNL     1       5.951  -0.613   0.613  1.00  0.00     0.051 A 
ENDBRANCH  20  21
ENDBRANCH  19  20
ENDBRANCH  14  19
ENDBRANCH   9  11
ENDBRANCH   8   9
ENDBRANCH   1   6
TORSDOF 6
