REMARK  9 active torsions:
REMARK  status: ('A' for Active; 'I' for Inactive)
REMARK    1  A    between atoms: C2_2  and  C3_3 
REMARK    2  A    between atoms: C4_4  and  C5_5 
REMARK    3  A    between atoms: C5_5  and  C6_6 
REMARK    4  A    between atoms: C8_10  and  N3_11 
REMARK    5  A    between atoms: N3_11  and  C9_12 
REMARK    6  A    between atoms: C9_12  and  C10_13 
REMARK    7  A    between atoms: C10_13  and  C11_14 
REMARK    8  A    between atoms: C12_15  and  O1_16 
REMARK    9  A    between atoms: C12_15  and  C13_17 
ROOT
HETATM    1  N3  UNL     1       1.251   1.118  -1.026  1.00  0.00    -0.370 N 
HETATM    2  H9  UNL     1       1.821   1.178  -1.885  1.00  0.00     0.161 HD
ENDROOT
BRANCH   1   3
HETATM    3  C8  UNL     1       0.838   1.422   0.278  1.00  0.00     0.133 A 
HETATM    4  N2  UNL     1      -0.191   1.408   0.967  1.00  0.00    -0.224 NA
HETATM    5  C7  UNL     1      -0.886   1.556   1.991  1.00  0.00     0.235 A 
HETATM    6  N1  UNL     1       0.068   1.968   2.805  1.00  0.00    -0.245 NA
HETATM    7  C6  UNL     1       1.341   2.121   2.461  1.00  0.00     0.049 A 
HETATM    8  C19 UNL     1       1.860   1.876   1.226  1.00  0.00     0.009 A 
HETATM    9  C20 UNL     1       3.222   1.937   0.688  1.00  0.00     0.054 C 
BRANCH   7  10
HETATM   10  C5  UNL     1       2.285   2.720   3.456  1.00  0.00     0.086 C 
BRANCH  10  11
HETATM   11  C4  UNL     1       3.317   1.774   4.003  1.00  0.00    -0.024 C 
HETATM   12  C3  UNL     1       3.796   1.230   5.101  1.00  0.00    -0.025 C 
BRANCH  12  13
HETATM   13  C2  UNL     1       3.476   1.314   6.606  1.00  0.00     0.033 C 
HETATM   14  C1  UNL     1       4.491   0.449   7.061  1.00  0.00    -0.008 C 
ENDBRANCH  12  13
ENDBRANCH  10  11
ENDBRANCH   7  10
ENDBRANCH   1   3
BRANCH   1  15
HETATM   15  C9  UNL     1       0.281   0.096  -1.504  1.00  0.00     0.090 C 
BRANCH  15  16
HETATM   16  C10 UNL     1      -0.710  -0.556  -2.067  1.00  0.00     0.052 C 
BRANCH  16  17
HETATM   17  C11 UNL     1      -0.748  -2.042  -1.819  1.00  0.00     0.035 C 
HETATM   18  C12 UNL     1      -1.673  -2.771  -2.340  1.00  0.00     0.075 C 
BRANCH  18  19
HETATM   19  O1  UNL     1      -1.512  -4.103  -2.017  1.00  0.00    -0.360 OA
HETATM   20  H13 UNL     1      -0.813  -4.596  -2.644  1.00  0.00     0.217 HD
ENDBRANCH  18  19
BRANCH  18  21
HETATM   21  C13 UNL     1      -2.743  -2.251  -3.120  1.00  0.00     0.018 A 
HETATM   22  C14 UNL     1      -3.659  -3.034  -3.665  1.00  0.00     0.131 A 
HETATM   23  F1  UNL     1      -3.834  -4.343  -3.661  1.00  0.00    -0.205 F 
HETATM   24  C15 UNL     1      -4.713  -2.167  -4.276  1.00  0.00    -0.026 A 
HETATM   25  C16 UNL     1      -6.029  -2.143  -4.938  1.00  0.00     0.051 C 
HETATM   26  C17 UNL     1      -4.310  -0.888  -4.050  1.00  0.00    -0.012 A 
HETATM   27  C18 UNL     1      -2.984  -0.847  -3.311  1.00  0.00     0.072 A 
ENDBRANCH  18  21
ENDBRANCH  16  17
ENDBRANCH  15  16
ENDBRANCH   1  15
TORSDOF 9
