REMARK  1 active torsions:
REMARK  status: ('A' for Active; 'I' for Inactive)
REMARK    1  A    between atoms: N3_16  and  C12_17 
ROOT
HETATM    1  C1  UNL     1      -1.510  -0.235   2.937  1.00  0.00     0.053 C 
HETATM    2  C2  UNL     1      -0.648  -0.752   2.123  1.00  0.00     0.093 C 
HETATM    3  O1  UNL     1       0.434  -1.553   2.600  1.00  0.00    -0.321 OA
HETATM    4  C3  UNL     1       1.755  -1.378   2.054  1.00  0.00     0.151 C 
HETATM    5  C4  UNL     1       1.914  -1.519   0.719  1.00  0.00    -0.018 C 
HETATM    6  C5  UNL     1       3.252  -1.118   0.206  1.00  0.00     0.007 C 
HETATM    7  C6  UNL     1       4.451  -0.883  -0.238  1.00  0.00    -0.022 C 
HETATM    8  C7  UNL     1       4.971   0.472  -0.589  1.00  0.00     0.056 C 
HETATM    9  C8  UNL     1       3.876   1.481  -0.341  1.00  0.00     0.002 C 
HETATM   10  C9  UNL     1       3.123   2.356  -0.960  1.00  0.00     0.139 C 
HETATM   11  O2  UNL     1       2.216   3.327  -1.340  1.00  0.00    -0.316 OA
HETATM   12  C10 UNL     1       0.867   3.248  -0.936  1.00  0.00     0.259 C 
HETATM   13  N1  UNL     1      -0.306   3.246  -0.338  1.00  0.00    -0.228 NA
HETATM   14  C11 UNL     1      -1.474   2.874  -1.099  1.00  0.00     0.257 C 
HETATM   15  N2  UNL     1      -2.432   2.070  -1.385  1.00  0.00    -0.165 NA
HETATM   16  N3  UNL     1      -2.537   0.869  -0.661  1.00  0.00    -0.266 N 
HETATM   17  C17 UNL     1      -1.915   0.313   0.472  1.00  0.00     0.145 C 
HETATM   18  C18 UNL     1      -0.864  -0.454   0.689  1.00  0.00     0.079 C 
HETATM   19  N4  UNL     1      -0.045  -0.916  -0.414  1.00  0.00    -0.382 N 
HETATM   20  C19 UNL     1       0.932  -2.021  -0.327  1.00  0.00     0.160 C 
HETATM   21  H16 UNL     1      -0.188  -0.398  -1.312  1.00  0.00     0.160 HD
ENDROOT
BRANCH  16  22
HETATM   22  C12 UNL     1      -3.513  -0.145  -1.092  1.00  0.00     0.160 A 
HETATM   23  C13 UNL     1      -2.876  -1.423  -1.389  1.00  0.00     0.048 A 
HETATM   24  C14 UNL     1      -3.371  -2.242  -0.505  1.00  0.00     0.136 A 
HETATM   25  F1  UNL     1      -2.946  -3.550  -0.539  1.00  0.00    -0.205 F 
HETATM   26  C15 UNL     1      -4.326  -1.656   0.421  1.00  0.00     0.070 A 
HETATM   27 CL1  UNL     1      -5.177  -2.450   1.721  1.00  0.00    -0.081 Cl
HETATM   28  C16 UNL     1      -4.420  -0.364   0.065  1.00  0.00     0.031 A 
ENDBRANCH  16  22
TORSDOF 1
