REMARK  9 active torsions:
REMARK  status: ('A' for Active; 'I' for Inactive)
REMARK    1  A    between atoms: C4_6  and  N3_7 
REMARK    2  A    between atoms: C7_11  and  O1_12 
REMARK    3  A    between atoms: O1_12  and  C8_13 
REMARK    4  A    between atoms: C8_13  and  C9_14 
REMARK    5  A    between atoms: C17_23  and  C18_24 
REMARK    6  A    between atoms: C18_24  and  O2_25 
REMARK    7  A    between atoms: O2_25  and  C19_26 
REMARK    8  A    between atoms: C19_26  and  C20_27 
REMARK    9  A    between atoms: C20_27  and  N4_28 
ROOT
HETATM    1  C1  UNL     1      -3.373  -4.253  -1.981  1.00  0.00     0.071 C 
HETATM    2  C2  UNL     1      -1.913  -4.143  -2.243  1.00  0.00     0.044 A 
HETATM    3  N1  UNL     1      -1.236  -5.012  -3.025  1.00  0.00    -0.246 NA
HETATM    4  C3  UNL     1       0.090  -4.834  -3.207  1.00  0.00     0.235 A 
HETATM    5  N2  UNL     1       0.780  -3.821  -2.641  1.00  0.00    -0.224 NA
HETATM    6  C4  UNL     1       0.132  -2.929  -1.850  1.00  0.00     0.141 A 
HETATM    7  C17 UNL     1      -1.215  -3.107  -1.663  1.00  0.00     0.036 A 
ENDROOT
BRANCH   6   8
HETATM    8  N3  UNL     1       0.978  -1.917  -1.344  1.00  0.00    -0.336 N 
HETATM    9  C5  UNL     1       1.937  -2.498  -0.436  1.00  0.00     0.119 A 
HETATM   10  C6  UNL     1       2.878  -1.821   0.211  1.00  0.00     0.082 A 
HETATM   11 CL1  UNL     1       4.057  -2.490   1.318  1.00  0.00    -0.080 Cl
HETATM   12  C7  UNL     1       2.986  -0.366   0.019  1.00  0.00     0.090 A 
HETATM   13  C15 UNL     1       2.095   0.141  -0.817  1.00  0.00     0.032 A 
HETATM   14  C16 UNL     1       1.003  -0.491  -1.598  1.00  0.00     0.160 A 
BRANCH  12  15
HETATM   15  O1  UNL     1       3.912   0.470   0.623  1.00  0.00    -0.345 OA
BRANCH  15  16
HETATM   16  C8  UNL     1       4.448   1.594  -0.053  1.00  0.00     0.214 C 
BRANCH  16  17
HETATM   17  C9  UNL     1       5.419   2.284   0.836  1.00  0.00    -0.031 A 
HETATM   18  C10 UNL     1       6.739   1.854   0.743  1.00  0.00     0.009 A 
HETATM   19  C11 UNL     1       7.734   2.434   1.534  1.00  0.00     0.004 A 
HETATM   20  C12 UNL     1       7.437   3.447   2.427  1.00  0.00     0.042 A 
HETATM   21  C13 UNL     1       6.104   3.835   2.476  1.00  0.00     0.117 A 
HETATM   22  F1  UNL     1       5.826   4.836   3.361  1.00  0.00    -0.206 F 
HETATM   23  C14 UNL     1       5.101   3.298   1.725  1.00  0.00     0.051 A 
ENDBRANCH  16  17
ENDBRANCH  15  16
ENDBRANCH  12  15
ENDBRANCH   6   8
BRANCH   7  24
HETATM   24  C18 UNL     1      -1.952  -2.150  -0.789  1.00  0.00     0.212 C 
BRANCH  24  25
HETATM   25  O2  UNL     1      -2.699  -1.251  -1.493  1.00  0.00    -0.385 OA
BRANCH  25  26
HETATM   26  C19 UNL     1      -3.462  -0.348  -0.795  1.00  0.00     0.187 C 
BRANCH  26  27
HETATM   27  C20 UNL     1      -2.645   0.525   0.069  1.00  0.00     0.143 C 
BRANCH  27  28
HETATM   28  N4  UNL     1      -3.391   1.501   0.818  1.00  0.00    -0.406 N 
HETATM   29  C21 UNL     1      -4.239   1.040   1.836  1.00  0.00     0.143 C 
HETATM   30  C22 UNL     1      -5.663   1.506   1.813  1.00  0.00     0.187 C 
HETATM   31  O3  UNL     1      -5.855   2.682   1.110  1.00  0.00    -0.388 OA
HETATM   32  C23 UNL     1      -5.226   2.680  -0.127  1.00  0.00     0.187 C 
HETATM   33  C24 UNL     1      -3.738   2.690   0.136  1.00  0.00     0.143 C 
ENDBRANCH  27  28
ENDBRANCH  26  27
ENDBRANCH  25  26
ENDBRANCH  24  25
ENDBRANCH   7  24
TORSDOF 9
