REMARK  3 active torsions:
REMARK  status: ('A' for Active; 'I' for Inactive)
REMARK    1  A    between atoms: N1_4  and  C4_5 
REMARK    2  A    between atoms: C7_8  and  C8_9 
REMARK    3  A    between atoms: C8_9  and  C9_10 
ROOT
HETATM    1  C1  UNL     1      -1.061   3.695   2.504  1.00  0.00     0.064 C 
HETATM    2  C2  UNL     1      -0.912   2.378   1.828  1.00  0.00     0.014 C 
HETATM    3  C3  UNL     1       0.278   1.972   1.350  1.00  0.00     0.138 C 
HETATM    4  N1  UNL     1       0.460   0.732   0.704  1.00  0.00    -0.243 N 
HETATM    5  N3  UNL     1      -0.653   0.211   0.063  1.00  0.00    -0.161 NA
HETATM    6  C16 UNL     1      -0.664  -0.235  -1.151  1.00  0.00     0.254 C 
HETATM    7  N4  UNL     1      -2.019  -0.595  -1.177  1.00  0.00    -0.254 NA
HETATM    8  C17 UNL     1      -3.013   0.150  -1.510  1.00  0.00     0.128 C 
HETATM    9  C18 UNL     1      -4.409  -0.319  -1.505  1.00  0.00     0.287 C 
HETATM   10  C19 UNL     1      -4.400  -1.777  -1.940  1.00  0.00     0.209 C 
HETATM   11  O1  UNL     1      -4.849  -2.631  -0.934  1.00  0.00    -0.387 OA
HETATM   12  C20 UNL     1      -6.198  -2.415  -0.657  1.00  0.00     0.198 C 
HETATM   13  C21 UNL     1      -6.348  -0.943  -0.378  1.00  0.00     0.299 C 
HETATM   14  N5  UNL     1      -5.058  -0.278  -0.229  1.00  0.00     0.102 N 
HETATM   15  C22 UNL     1      -5.359   1.053   0.253  1.00  0.00     0.273 C 
HETATM   16  C23 UNL     1      -4.403   1.481   1.349  1.00  0.00     0.032 C 
HETATM   17  O2  UNL     1      -3.087   1.492   0.898  1.00  0.00     0.000 OA
HETATM   18  N6  UNL     1      -2.187   1.759   1.832  1.00  0.00    -0.225 NA
HETATM   19  H26 UNL     1      -2.209   1.942   0.780  1.00  0.00     0.147 HD
ENDROOT
BRANCH   4  20
HETATM   20  C4  UNL     1       1.727   0.095   0.731  1.00  0.00     0.059 A 
HETATM   21  C5  UNL     1       1.981  -1.130   0.150  1.00  0.00     0.032 A 
HETATM   22  C6  UNL     1       3.195  -1.775   0.155  1.00  0.00     0.011 A 
HETATM   23  C7  UNL     1       4.253  -1.161   0.787  1.00  0.00    -0.031 A 
HETATM   24  C14 UNL     1       4.051   0.060   1.381  1.00  0.00     0.043 A 
HETATM   25 CL1  UNL     1       5.421   0.803   2.174  1.00  0.00    -0.084 Cl
HETATM   26  C15 UNL     1       2.821   0.659   1.348  1.00  0.00     0.056 A 
BRANCH  23  27
HETATM   27  C8  UNL     1       5.572  -1.852   0.795  1.00  0.00     0.099 C 
BRANCH  27  28
HETATM   28  C9  UNL     1       6.515  -1.235  -0.186  1.00  0.00     0.041 A 
HETATM   29  C10 UNL     1       6.536  -1.724  -1.491  1.00  0.00     0.069 A 
HETATM   30  C11 UNL     1       7.402  -1.164  -2.409  1.00  0.00     0.119 A 
HETATM   31  F1  UNL     1       7.478  -1.595  -3.713  1.00  0.00    -0.206 F 
HETATM   32  C12 UNL     1       8.254  -0.137  -2.096  1.00  0.00     0.061 A 
HETATM   33  C13 UNL     1       8.199   0.322  -0.777  1.00  0.00     0.120 A 
HETATM   34  N2  UNL     1       7.348  -0.234   0.110  1.00  0.00    -0.265 NA
ENDBRANCH  27  28
ENDBRANCH  23  27
ENDBRANCH   4  20
TORSDOF 3
