REMARK  4 active torsions:
REMARK  status: ('A' for Active; 'I' for Inactive)
REMARK    1  A    between atoms: C2_2  and  C3_3 
REMARK    2  A    between atoms: C4_5  and  C5_6 
REMARK    3  A    between atoms: N1_14  and  C12_15 
REMARK    4  A    between atoms: C21_29  and  N5_30 
ROOT
HETATM    1  C12 UNL     1      -0.771   0.381   0.210  1.00  0.00     0.160 A 
HETATM    2  N2  UNL     1      -0.255   1.423   0.944  1.00  0.00    -0.222 NA
HETATM    3  C13 UNL     1      -0.880   2.634   0.842  1.00  0.00     0.235 A 
HETATM    4  N3  UNL     1      -1.942   2.702   0.035  1.00  0.00    -0.242 NA
HETATM    5  C14 UNL     1      -2.477   1.722  -0.694  1.00  0.00     0.101 A 
HETATM    6  C15 UNL     1      -1.890   0.476  -0.631  1.00  0.00     0.127 A 
HETATM    7  N4  UNL     1      -2.085  -0.848  -1.179  1.00  0.00    -0.261 N 
HETATM    8  O1  UNL     1      -3.106  -1.004  -0.355  1.00  0.00    -0.280 OA
HETATM    9  C16 UNL     1      -3.663  -2.263  -0.279  1.00  0.00     0.203 C 
HETATM   10  C17 UNL     1      -4.867  -2.167   0.701  1.00  0.00     0.055 C 
HETATM   11  C18 UNL     1      -5.768  -1.050   0.112  1.00  0.00     0.169 C 
HETATM   12  O2  UNL     1      -4.967   0.109   0.041  1.00  0.00    -0.391 OA
HETATM   13  C19 UNL     1      -5.645   1.112  -0.568  1.00  0.00     0.170 C 
HETATM   14  C20 UNL     1      -4.909   2.391  -0.730  1.00  0.00     0.068 C 
HETATM   15  C21 UNL     1      -3.599   2.338  -1.423  1.00  0.00     0.274 C 
HETATM   16  H13 UNL     1      -1.347  -0.968  -1.900  1.00  0.00     0.194 HD
ENDROOT
BRANCH   1  17
HETATM   17  N1  UNL     1      -0.021  -0.810   0.382  1.00  0.00    -0.333 N 
HETATM   18  C11 UNL     1      -0.407  -2.141   0.877  1.00  0.00     0.156 C 
HETATM   19  C10 UNL     1       0.725  -2.824   1.543  1.00  0.00     0.013 C 
HETATM   20  C9  UNL     1       1.955  -2.312   1.767  1.00  0.00     0.022 C 
HETATM   21  C8  UNL     1       2.166  -0.932   1.291  1.00  0.00     0.108 C 
HETATM   22 CL1  UNL     1       3.110  -3.367   2.589  1.00  0.00    -0.088 Cl
HETATM   23  C6  UNL     1       3.561  -0.544   1.063  1.00  0.00    -0.062 C 
HETATM   24  C22 UNL     1       1.352  -0.756   0.031  1.00  0.00     0.238 C 
HETATM   25  C5  UNL     1       4.066  -0.085  -0.100  1.00  0.00    -0.029 C 
HETATM   26  C7  UNL     1       4.530  -0.647   2.184  1.00  0.00     0.045 C 
HETATM   27  C23 UNL     1       3.023  -0.020  -1.185  1.00  0.00     0.209 C 
HETATM   28  O3  UNL     1       1.774   0.348  -0.695  1.00  0.00    -0.361 OA
BRANCH  25  29
HETATM   29  C4  UNL     1       5.406   0.323  -0.428  1.00  0.00     0.051 C 
HETATM   30  C3  UNL     1       6.640   0.486  -0.007  1.00  0.00     0.116 C 
HETATM   31  F1  UNL     1       7.233   0.259   1.217  1.00  0.00    -0.206 F 
BRANCH  30  32
HETATM   32  C2  UNL     1       7.736   0.995  -0.858  1.00  0.00     0.032 C 
HETATM   33  C1  UNL     1       8.988   1.192  -0.537  1.00  0.00     0.014 C 
ENDBRANCH  30  32
ENDBRANCH  25  29
ENDBRANCH   1  17
BRANCH  15  34
HETATM   34  N5  UNL     1      -3.308   3.674  -1.945  1.00  0.00     0.088 N 
HETATM   35  H25 UNL     1      -3.280   4.364  -1.143  1.00  0.00     0.313 HD
HETATM   36  H26 UNL     1      -4.207   3.935  -2.451  1.00  0.00     0.313 HD
ENDBRANCH  15  34
TORSDOF 4
