REMARK  2 active torsions:
REMARK  status: ('A' for Active; 'I' for Inactive)
REMARK    1  A    between atoms: C4_5  and  N2_6 
REMARK    2  A    between atoms: N2_6  and  C5_7 
ROOT
HETATM    1  C1  UNL     1       3.895   0.445  -1.061  1.00  0.00     0.062 C 
HETATM    2  C2  UNL     1       3.520   1.491  -0.073  1.00  0.00     0.033 C 
HETATM    3  C3  UNL     1       4.015   2.857  -0.172  1.00  0.00     0.096 C 
HETATM    4  N1  UNL     1       4.393   3.954  -0.259  1.00  0.00    -0.192 NA
HETATM    5  C4  UNL     1       2.698   1.156   0.940  1.00  0.00     0.101 C 
ENDROOT
BRANCH   5   6
HETATM    6  N2  UNL     1       2.314  -0.212   0.881  1.00  0.00    -0.387 N 
HETATM    7  H5  UNL     1       2.983  -1.013   0.844  1.00  0.00     0.159 HD
BRANCH   6   8
HETATM    8  C5  UNL     1       0.869  -0.377   0.879  1.00  0.00     0.144 C 
HETATM    9  C6  UNL     1       0.443  -1.755   0.821  1.00  0.00     0.023 C 
HETATM   10  C7  UNL     1      -0.226  -2.762   0.313  1.00  0.00     0.034 C 
HETATM   11 CL1  UNL     1      -0.466  -4.468   0.625  1.00  0.00    -0.087 Cl
HETATM   12  C8  UNL     1      -0.982  -2.426  -0.947  1.00  0.00     0.219 C 
HETATM   13  O1  UNL     1      -2.358  -2.630  -0.627  1.00  0.00    -0.381 OA
HETATM   14  C9  UNL     1      -2.573  -1.727   0.478  1.00  0.00     0.207 C 
HETATM   15  C10 UNL     1      -2.331  -0.354   0.013  1.00  0.00    -0.025 A 
HETATM   16  C11 UNL     1      -3.600   0.144  -0.334  1.00  0.00     0.010 A 
HETATM   17  C15 UNL     1      -1.259   0.526  -0.179  1.00  0.00    -0.014 A 
HETATM   18  C12 UNL     1      -3.904   1.390  -0.837  1.00  0.00     0.001 A 
HETATM   19  C13 UNL     1      -2.893   2.294  -1.047  1.00  0.00     0.001 A 
HETATM   20  C14 UNL     1      -1.634   1.785  -0.697  1.00  0.00     0.011 A 
HETATM   21  C16 UNL     1       0.196   0.554  -0.043  1.00  0.00     0.230 C 
HETATM   22  F1  UNL     1       0.613   1.867   0.251  1.00  0.00    -0.242 F 
ENDBRANCH   6   8
ENDBRANCH   5   6
TORSDOF 2
