REMARK  5 active torsions:
REMARK  status: ('A' for Active; 'I' for Inactive)
REMARK    1  A    between atoms: C4_5  and  C5_6 
REMARK    2  A    between atoms: C5_6  and  O1_7 
REMARK    3  A    between atoms: O1_7  and  C6_8 
REMARK    4  A    between atoms: C9_11  and  N1_12 
REMARK    5  A    between atoms: N1_12  and  C10_13 
ROOT
HETATM    1  C6  UNL     1       1.097   0.056  -0.030  1.00  0.00     0.090 A 
HETATM    2  C7  UNL     1       1.705  -0.912  -0.802  1.00  0.00     0.041 A 
HETATM    3  C8  UNL     1       3.079  -0.940  -0.907  1.00  0.00     0.032 A 
HETATM    4  C9  UNL     1       3.915  -0.034  -0.268  1.00  0.00     0.030 A 
HETATM    5  C11 UNL     1       3.242   0.904   0.485  1.00  0.00     0.056 A 
HETATM    6  C12 UNL     1       1.877   0.988   0.632  1.00  0.00     0.069 A 
HETATM    7 CL2  UNL     1       1.126   2.229   1.620  1.00  0.00    -0.081 Cl
ENDROOT
BRANCH   1   8
HETATM    8  O1  UNL     1      -0.283   0.128   0.109  1.00  0.00    -0.345 OA
BRANCH   8   9
HETATM    9  C5  UNL     1      -1.070  -0.829  -0.572  1.00  0.00     0.210 C 
BRANCH   9  10
HETATM   10  C4  UNL     1      -2.505  -0.514  -0.246  1.00  0.00    -0.052 C 
HETATM   11  C3  UNL     1      -2.651   0.527   0.555  1.00  0.00     0.008 C 
HETATM   12  C2  UNL     1      -3.925   1.066   1.042  1.00  0.00     0.042 C 
HETATM   13  C1  UNL     1      -5.133   0.936   0.476  1.00  0.00     0.116 C 
HETATM   14  F1  UNL     1      -6.185   1.509   1.084  1.00  0.00    -0.206 F 
HETATM   15  C15 UNL     1      -5.429   0.218  -0.760  1.00  0.00     0.038 C 
HETATM   16  C14 UNL     1      -4.694  -0.753  -1.271  1.00  0.00    -0.019 C 
HETATM   17  C13 UNL     1      -3.440  -1.459  -0.907  1.00  0.00     0.063 C 
ENDBRANCH   9  10
ENDBRANCH   8   9
ENDBRANCH   1   8
BRANCH   4  18
HETATM   18  N1  UNL     1       5.325  -0.079  -0.389  1.00  0.00    -0.377 N 
HETATM   19  H7  UNL     1       5.725  -0.834  -0.989  1.00  0.00     0.160 HD
BRANCH  18  20
HETATM   20  C10 UNL     1       6.207   0.862   0.275  1.00  0.00     0.235 C 
HETATM   21 CL1  UNL     1       5.933   0.701   2.027  1.00  0.00    -0.109 Cl
ENDBRANCH  18  20
ENDBRANCH   4  18
TORSDOF 5
