REMARK  3 active torsions:
REMARK  status: ('A' for Active; 'I' for Inactive)
REMARK    1  A    between atoms: C2_2  and  C3_3 
REMARK    2  A    between atoms: C4_5  and  C5_6 
REMARK    3  A    between atoms: C12_17  and  O1_18 
ROOT
HETATM    1  C5  UNL     1       1.800  -0.958  -0.119  1.00  0.00     0.047 C 
HETATM    2  C6  UNL     1       1.341  -2.075   0.488  1.00  0.00     0.055 C 
HETATM    3  C7  UNL     1      -0.025  -2.453   0.449  1.00  0.00     0.042 A 
HETATM    4  N1  UNL     1      -0.573  -1.847  -0.498  1.00  0.00    -0.329 N 
HETATM    5  C8  UNL     1      -0.149  -0.973  -1.463  1.00  0.00     0.206 C 
HETATM    6  N2  UNL     1       0.151   0.129  -2.169  1.00  0.00    -0.263 NA
HETATM    7  C9  UNL     1      -0.291   1.286  -1.277  1.00  0.00     0.298 C 
HETATM    8  N3  UNL     1      -0.610   0.460  -0.071  1.00  0.00    -0.272 N 
HETATM    9  N4  UNL     1       0.639  -0.091   0.165  1.00  0.00    -0.299 N 
HETATM   10  C10 UNL     1      -1.940   0.429   0.351  1.00  0.00     0.065 A 
HETATM   11  C11 UNL     1      -2.353   1.706   0.580  1.00  0.00     0.068 A 
HETATM   12  C12 UNL     1      -3.638   1.972   0.986  1.00  0.00     0.068 A 
HETATM   13  C13 UNL     1      -4.475   0.896   1.145  1.00  0.00     0.037 A 
HETATM   14  C14 UNL     1      -4.022  -0.383   0.903  1.00  0.00     0.016 A 
HETATM   15  C15 UNL     1      -2.713  -0.691   0.488  1.00  0.00    -0.009 A 
HETATM   16  C16 UNL     1      -2.627  -2.136   0.405  1.00  0.00     0.018 C 
HETATM   17  C17 UNL     1      -1.436  -2.801   0.403  1.00  0.00     0.164 A 
HETATM   18  H9  UNL     1       0.606   0.497   1.039  1.00  0.00     0.187 HD
ENDROOT
BRANCH   1  19
HETATM   19  C4  UNL     1       2.497   0.201  -0.713  1.00  0.00     0.191 A 
HETATM   20  C3  UNL     1       3.825   0.397  -0.620  1.00  0.00     0.036 A 
HETATM   21 CL1  UNL     1       3.479   1.847  -1.577  1.00  0.00    -0.203 Cl
BRANCH  20  22
HETATM   22  C2  UNL     1       5.277   0.412  -0.395  1.00  0.00     0.011 C 
HETATM   23  C1  UNL     1       6.241   1.210  -0.728  1.00  0.00     0.007 C 
ENDBRANCH  20  22
ENDBRANCH   1  19
BRANCH  12  24
HETATM   24  O1  UNL     1      -4.107   3.261   1.235  1.00  0.00    -0.361 OA
HETATM   25  H11 UNL     1      -3.691   4.080   0.816  1.00  0.00     0.217 HD
ENDBRANCH  12  24
TORSDOF 3
