REMARK  2 active torsions:
REMARK  status: ('A' for Active; 'I' for Inactive)
REMARK    1  A    between atoms: N1_1  and  C1_2 
REMARK    2  A    between atoms: C1_2  and  N2_3 
ROOT
HETATM    1  N2  UNL     1       5.002  -0.716   0.073  1.00  0.00    -0.318 N 
HETATM    2  C2  UNL     1       5.190   0.449   0.855  1.00  0.00     0.211 A 
HETATM    3  N3  UNL     1       4.194   1.216   1.142  1.00  0.00    -0.247 NA
HETATM    4  C3  UNL     1       2.892   0.900   0.677  1.00  0.00     0.046 A 
HETATM    5  C4  UNL     1       2.648  -0.215  -0.080  1.00  0.00     0.053 A 
HETATM    6  C5  UNL     1       3.729  -1.049  -0.397  1.00  0.00     0.024 A 
HETATM    7  C6  UNL     1       3.441  -2.046  -1.153  1.00  0.00     0.092 A 
HETATM    8  C7  UNL     1       2.521  -2.866  -1.899  1.00  0.00     0.244 A 
HETATM    9  O1  UNL     1       1.858  -1.922  -1.324  1.00  0.00     0.000 OA
HETATM   10  N4  UNL     1       1.132  -2.893  -2.156  1.00  0.00     0.099 N 
HETATM   11  C8  UNL     1      -0.284  -2.576  -2.150  1.00  0.00     0.273 C 
HETATM   12  C9  UNL     1      -0.939  -2.758  -0.797  1.00  0.00     0.056 C 
HETATM   13  C10 UNL     1      -2.407  -2.435  -0.843  1.00  0.00     0.169 C 
HETATM   14  O2  UNL     1      -2.604  -1.089  -0.958  1.00  0.00    -0.391 OA
HETATM   15  C11 UNL     1      -3.959  -0.768  -1.146  1.00  0.00     0.172 C 
HETATM   16  C12 UNL     1      -4.139   0.701  -1.088  1.00  0.00     0.065 C 
HETATM   17  C13 UNL     1      -3.947   1.260   0.273  1.00  0.00    -0.050 A 
HETATM   18  C14 UNL     1      -4.903   0.604   1.048  1.00  0.00     0.007 A 
HETATM   19  C15 UNL     1      -5.079   0.836   2.421  1.00  0.00     0.001 A 
HETATM   20  C16 UNL     1      -4.271   1.763   3.063  1.00  0.00     0.001 A 
HETATM   21  C17 UNL     1      -3.338   2.389   2.259  1.00  0.00     0.008 A 
HETATM   22  C18 UNL     1      -3.149   2.177   0.913  1.00  0.00    -0.045 A 
HETATM   23  C19 UNL     1      -2.082   2.953   0.253  1.00  0.00     0.109 C 
HETATM   24  C20 UNL     1      -1.348   3.831   1.203  1.00  0.00     0.098 C 
HETATM   25  F1  UNL     1      -1.692   4.919   1.875  1.00  0.00    -0.211 F 
HETATM   26  C21 UNL     1      -0.080   3.574   1.509  1.00  0.00     0.035 C 
HETATM   27  C22 UNL     1       1.053   2.716   1.312  1.00  0.00    -0.012 C 
HETATM   28  C23 UNL     1       2.155   2.034   1.234  1.00  0.00     0.074 C 
HETATM   29  H8  UNL     1       1.425  -3.743  -2.758  1.00  0.00     0.317 HD
ENDROOT
BRANCH   1  30
HETATM   30  C1  UNL     1       6.112  -1.571  -0.247  1.00  0.00     0.397 C 
BRANCH  30  31
HETATM   31  N1  UNL     1       7.134  -0.882  -1.011  1.00  0.00     0.096 N 
HETATM   32  H1  UNL     1       8.084  -1.066  -0.627  1.00  0.00     0.314 HD
HETATM   33  H2  UNL     1       6.967   0.152  -1.013  1.00  0.00     0.314 HD
ENDBRANCH  30  31
ENDBRANCH   1  30
TORSDOF 2
