REMARK  9 active torsions:
REMARK  status: ('A' for Active; 'I' for Inactive)
REMARK    1  A    between atoms: C4_6  and  C5_7 
REMARK    2  A    between atoms: C8_10  and  C9_11 
REMARK    3  A    between atoms: C9_11  and  C10_12 
REMARK    4  A    between atoms: C17_20  and  C18_21 
REMARK    5  A    between atoms: C18_21  and  C19_22 
REMARK    6  A    between atoms: C19_22  and  C20_23 
REMARK    7  A    between atoms: C20_23  and  C21_24 
REMARK    8  A    between atoms: C21_24  and  C22_25 
REMARK    9  A    between atoms: C22_25  and  N3_26 
ROOT
HETATM    1  C1  UNL     1       2.413   0.229   3.428  1.00  0.00     0.072 C 
HETATM    2  C2  UNL     1       0.954   0.196   3.594  1.00  0.00     0.053 A 
HETATM    3  N1  UNL     1       0.482   0.240   4.849  1.00  0.00    -0.245 NA
HETATM    4  C3  UNL     1      -0.844   0.211   5.034  1.00  0.00     0.234 A 
HETATM    5  N2  UNL     1      -1.703   0.139   4.019  1.00  0.00    -0.240 NA
HETATM    6  C4  UNL     1      -1.331   0.090   2.732  1.00  0.00     0.085 A 
HETATM    7  C17 UNL     1       0.032   0.122   2.563  1.00  0.00     0.071 A 
ENDROOT
BRANCH   6   8
HETATM    8  C5  UNL     1      -2.291   0.009   1.644  1.00  0.00    -0.024 A 
HETATM    9  C6  UNL     1      -2.352  -0.038   0.341  1.00  0.00     0.010 A 
HETATM   10  C7  UNL     1      -3.665  -0.120  -0.262  1.00  0.00     0.004 A 
HETATM   11  C8  UNL     1      -4.488  -0.123   0.767  1.00  0.00    -0.071 A 
HETATM   12  C16 UNL     1      -3.733  -0.046   2.003  1.00  0.00     0.075 A 
BRANCH  11  13
HETATM   13  C9  UNL     1      -5.966  -0.195   0.711  1.00  0.00     0.073 C 
BRANCH  13  14
HETATM   14  C10 UNL     1      -6.460  -0.265  -0.704  1.00  0.00    -0.051 A 
HETATM   15  C11 UNL     1      -6.629  -1.453  -1.409  1.00  0.00     0.007 A 
HETATM   16  C12 UNL     1      -7.093  -1.426  -2.714  1.00  0.00     0.004 A 
HETATM   17  C13 UNL     1      -7.395  -0.208  -3.332  1.00  0.00     0.042 A 
HETATM   18  C14 UNL     1      -7.231   0.982  -2.641  1.00  0.00     0.116 A 
HETATM   19  F1  UNL     1      -7.508   2.205  -3.183  1.00  0.00    -0.206 F 
HETATM   20  C15 UNL     1      -6.765   0.946  -1.333  1.00  0.00     0.049 A 
ENDBRANCH  13  14
ENDBRANCH  11  13
ENDBRANCH   6   8
BRANCH   7  21
HETATM   21  C18 UNL     1       0.637   0.070   1.267  1.00  0.00    -0.062 C 
BRANCH  21  22
HETATM   22  C19 UNL     1       1.162   0.012   0.178  1.00  0.00    -0.101 C 
BRANCH  22  23
HETATM   23  C20 UNL     1       1.792  -0.080  -1.140  1.00  0.00     0.096 C 
BRANCH  23  24
HETATM   24  C21 UNL     1       3.306  -0.018  -0.917  1.00  0.00     0.042 C 
BRANCH  24  25
HETATM   25  C22 UNL     1       4.052  -0.108  -2.211  1.00  0.00     0.273 C 
BRANCH  25  26
HETATM   26  N3  UNL     1       5.462  -0.044  -1.941  1.00  0.00     0.092 N 
HETATM   27  C23 UNL     1       5.917   1.237  -1.453  1.00  0.00     0.298 C 
HETATM   28  C24 UNL     1       7.384   1.055  -1.048  1.00  0.00     0.198 C 
HETATM   29  O1  UNL     1       7.435   0.366   0.162  1.00  0.00    -0.388 OA
HETATM   30  C25 UNL     1       6.375  -0.531   0.288  1.00  0.00     0.198 C 
HETATM   31  C26 UNL     1       5.957  -1.071  -1.081  1.00  0.00     0.298 C 
ENDBRANCH  25  26
ENDBRANCH  24  25
ENDBRANCH  23  24
ENDBRANCH  22  23
ENDBRANCH  21  22
ENDBRANCH   7  21
TORSDOF 9
