REMARK  0 active torsions:
REMARK  status: ('A' for Active; 'I' for Inactive)
ROOT
HETATM    1  F1  UNL     1       4.510  -0.054  -0.563  1.00  0.00    -0.209 F 
HETATM    2  C1  UNL     1       3.257   0.168  -1.081  1.00  0.00     0.116 C 
HETATM    3  C2  UNL     1       3.182   1.399  -1.612  1.00  0.00     0.040 C 
HETATM    4  C3  UNL     1       2.050   2.080  -2.278  1.00  0.00     0.004 C 
HETATM    5  C4  UNL     1       0.741   1.863  -1.988  1.00  0.00     0.012 C 
HETATM    6  C5  UNL     1       0.081   0.959  -1.004  1.00  0.00    -0.024 C 
HETATM    7  C6  UNL     1      -1.122   1.535  -1.096  1.00  0.00     0.049 C 
HETATM    8  C7  UNL     1      -2.161   0.943  -0.234  1.00  0.00     0.076 C 
HETATM    9  C8  UNL     1      -2.149   1.844   0.799  1.00  0.00     0.030 C 
HETATM   10  C9  UNL     1      -2.016   1.312   2.239  1.00  0.00     0.150 C 
HETATM   11  N1  UNL     1      -1.097   0.134   2.170  1.00  0.00    -0.380 N 
HETATM   12  C10 UNL     1      -1.395  -0.945   1.243  1.00  0.00     0.129 A 
HETATM   13  C11 UNL     1      -0.596  -2.019   1.403  1.00  0.00     0.159 A 
HETATM   14  N2  UNL     1      -0.618  -3.266   0.893  1.00  0.00    -0.222 NA
HETATM   15  C12 UNL     1      -1.658  -3.540  -0.001  1.00  0.00     0.238 A 
HETATM   16  N3  UNL     1      -2.509  -2.528  -0.255  1.00  0.00    -0.215 NA
HETATM   17  C13 UNL     1      -2.380  -1.337   0.312  1.00  0.00     0.202 A 
HETATM   18  O1  UNL     1      -3.194  -0.140   0.070  1.00  0.00    -0.290 OA
HETATM   19  N4  UNL     1       0.656  -1.426   1.938  1.00  0.00    -0.348 N 
HETATM   20  C14 UNL     1       0.999  -0.845   0.640  1.00  0.00     0.099 C 
HETATM   21  C15 UNL     1       0.896  -0.092  -0.386  1.00  0.00    -0.007 C 
HETATM   22  C16 UNL     1       2.088  -0.728  -1.111  1.00  0.00     0.179 C 
HETATM   23 CL1  UNL     1       2.416  -2.362  -0.680  1.00  0.00    -0.112 Cl
HETATM   24  H8  UNL     1      -0.253   0.061   2.766  1.00  0.00     0.160 HD
HETATM   25  H10 UNL     1       0.441  -1.808   2.816  1.00  0.00     0.167 HD
ENDROOT
TORSDOF 0
