REMARK  6 active torsions:
REMARK  status: ('A' for Active; 'I' for Inactive)
REMARK    1  A    between atoms: C2_2  and  C3_4 
REMARK    2  A    between atoms: C4_5  and  C5_6 
REMARK    3  A    between atoms: C6_7  and  C7_8 
REMARK    4  A    between atoms: C7_8  and  O1_9 
REMARK    5  A    between atoms: O1_9  and  C8_10 
REMARK    6  A    between atoms: N1_15  and  C13_16 
ROOT
HETATM    1  C8  UNL     1       0.204  -0.736  -0.866  1.00  0.00     0.365 C 
HETATM    2  C9  UNL     1       1.025  -1.511  -1.857  1.00  0.00     0.091 C 
HETATM    3  C10 UNL     1       1.576  -0.488  -2.818  1.00  0.00    -0.025 C 
HETATM    4  C11 UNL     1       0.604   0.415  -3.023  1.00  0.00    -0.001 C 
HETATM    5  C12 UNL     1      -0.761   0.541  -2.509  1.00  0.00     0.306 C 
HETATM    6  N1  UNL     1      -1.062  -0.476  -1.475  1.00  0.00     0.149 N 
ENDROOT
BRANCH   6   7
HETATM    7  C13 UNL     1      -2.156  -0.047  -0.732  1.00  0.00     0.371 C 
HETATM    8  N2  UNL     1      -3.222   0.426  -1.601  1.00  0.00    -0.277 N 
HETATM    9  N3  UNL     1      -4.118   1.308  -0.927  1.00  0.00    -0.186 NA
HETATM   10  H17 UNL     1      -3.447   0.239  -2.611  1.00  0.00     0.185 HD
HETATM   11  C14 UNL     1      -4.372   1.046   0.337  1.00  0.00     0.032 C 
HETATM   12  C15 UNL     1      -5.284   1.914   1.091  1.00  0.00     0.068 C 
HETATM   13  C16 UNL     1      -3.799  -0.099   1.105  1.00  0.00     0.094 C 
HETATM   14  C17 UNL     1      -2.782  -0.875   0.291  1.00  0.00    -0.025 C 
HETATM   15  C18 UNL     1      -2.682  -2.166   0.672  1.00  0.00    -0.024 C 
HETATM   16  C19 UNL     1      -3.339  -2.962   1.719  1.00  0.00     0.036 C 
ENDBRANCH   6   7
BRANCH   1  17
HETATM   17  O1  UNL     1       0.172  -1.205   0.407  1.00  0.00    -0.353 OA
BRANCH  17  18
HETATM   18  C7  UNL     1       0.604  -0.396   1.416  1.00  0.00     0.198 C 
BRANCH  18  19
HETATM   19  C6  UNL     1       2.001   0.020   1.274  1.00  0.00    -0.001 C 
HETATM   20  C5  UNL     1       3.164   0.073   0.703  1.00  0.00    -0.002 C 
BRANCH  20  21
HETATM   21  C4  UNL     1       4.356   0.760   1.109  1.00  0.00     0.002 C 
HETATM   22  C3  UNL     1       5.394   0.678   0.346  1.00  0.00     0.036 C 
BRANCH  22  23
HETATM   23  C2  UNL     1       6.485   1.428   0.916  1.00  0.00     0.077 A 
HETATM   24  C1  UNL     1       7.693   1.932   1.017  1.00  0.00     0.250 A 
HETATM   25  F1  UNL     1       6.583   2.140   2.035  1.00  0.00    -0.367 F 
ENDBRANCH  22  23
ENDBRANCH  20  21
ENDBRANCH  18  19
ENDBRANCH  17  18
ENDBRANCH   1  17
TORSDOF 6
