REMARK  0 active torsions:
REMARK  status: ('A' for Active; 'I' for Inactive)
ROOT
HETATM    1  F1  UNL     1      -0.115   4.868   1.256  1.00  0.00    -0.243 F 
HETATM    2  C1  UNL     1       0.465   3.773   0.595  1.00  0.00     0.114 C 
HETATM    3  C2  UNL     1       1.490   3.031   0.093  1.00  0.00     0.151 C 
HETATM    4  C3  UNL     1       2.979   3.142   0.022  1.00  0.00     0.007 C 
HETATM    5  C4  UNL     1       3.194   1.972  -0.632  1.00  0.00     0.007 C 
HETATM    6  C5  UNL     1       2.016   1.177  -0.955  1.00  0.00     0.061 C 
HETATM    7  C6  UNL     1       2.381  -0.052  -1.737  1.00  0.00     0.044 C 
HETATM    8  C7  UNL     1       3.256  -0.958  -0.989  1.00  0.00    -0.055 C 
HETATM    9  C8  UNL     1       3.153  -2.083  -0.290  1.00  0.00     0.007 C 
HETATM   10  C9  UNL     1       2.067  -2.960   0.065  1.00  0.00    -0.003 C 
HETATM   11  C10 UNL     1       0.772  -3.127  -0.072  1.00  0.00    -0.025 C 
HETATM   12  C11 UNL     1      -0.327  -4.031   0.298  1.00  0.00     0.057 C 
HETATM   13  C12 UNL     1      -1.405  -3.333   1.108  1.00  0.00     0.276 C 
HETATM   14  N1  UNL     1      -2.061  -2.270   0.403  1.00  0.00     0.093 N 
HETATM   15  C13 UNL     1      -3.458  -2.629   0.210  1.00  0.00     0.298 C 
HETATM   16  C14 UNL     1      -4.208  -1.519  -0.495  1.00  0.00     0.198 C 
HETATM   17  O1  UNL     1      -3.380  -0.410  -0.691  1.00  0.00    -0.382 OA
HETATM   18  C15 UNL     1      -2.954  -0.055   0.613  1.00  0.00     0.157 C 
HETATM   19  C16 UNL     1      -1.876  -0.987   1.020  1.00  0.00     0.305 C 
HETATM   20  C17 UNL     1      -2.594   1.417   0.645  1.00  0.00     0.043 C 
HETATM   21  C18 UNL     1      -3.400   2.121  -0.426  1.00  0.00    -0.019 C 
HETATM   22  C19 UNL     1      -3.043   3.274  -0.951  1.00  0.00    -0.003 C 
HETATM   23  C20 UNL     1      -1.660   3.637  -0.584  1.00  0.00     0.005 C 
HETATM   24  C21 UNL     1      -0.740   2.998   0.172  1.00  0.00    -0.045 C 
HETATM   25  C22 UNL     1      -1.126   1.583   0.425  1.00  0.00     0.048 C 
HETATM   26  C23 UNL     1       4.706  -0.657  -0.871  1.00  0.00     0.049 C 
HETATM   27  C24 UNL     1       5.296   0.562  -0.895  1.00  0.00     0.104 C 
HETATM   28 CL1  UNL     1       7.035   0.645  -0.981  1.00  0.00    -0.065 Cl
HETATM   29  N2  UNL     1       4.597   1.825  -0.841  1.00  0.00    -0.351 N 
HETATM   30  H28 UNL     1       5.086   2.721  -0.949  1.00  0.00     0.166 HD
ENDROOT
TORSDOF 0
