REMARK  7 active torsions:
REMARK  status: ('A' for Active; 'I' for Inactive)
REMARK    1  A    between atoms: N3_6  and  C4_7 
REMARK    2  A    between atoms: C7_10  and  O1_11 
REMARK    3  A    between atoms: O1_11  and  C8_12 
REMARK    4  A    between atoms: C8_12  and  C9_13 
REMARK    5  A    between atoms: C18_24  and  C19_25 
REMARK    6  A    between atoms: C20_26  and  C21_27 
REMARK    7  A    between atoms: C24_30  and  O2_31 
ROOT
HETATM    1  C1  UNL     1      -3.090   3.821   0.002  1.00  0.00     0.072 C 
HETATM    2  C2  UNL     1      -1.948   3.197   0.693  1.00  0.00     0.052 C 
HETATM    3  N1  UNL     1      -0.984   3.898   1.151  1.00  0.00    -0.244 NA
HETATM    4  C3  UNL     1       0.204   3.485   1.845  1.00  0.00     0.255 C 
HETATM    5  N2  UNL     1       0.738   2.289   1.926  1.00  0.00    -0.161 NA
HETATM    6  N3  UNL     1       0.270   1.086   1.341  1.00  0.00    -0.243 N 
HETATM    7  C17 UNL     1      -1.107   0.869   1.057  1.00  0.00     0.141 C 
HETATM    8  C18 UNL     1      -2.060   1.745   0.781  1.00  0.00     0.059 C 
ENDROOT
BRANCH   6   9
HETATM    9  C4  UNL     1       1.251   0.100   1.053  1.00  0.00     0.059 A 
HETATM   10  C5  UNL     1       2.529   0.395   1.476  1.00  0.00     0.034 A 
HETATM   11  C6  UNL     1       3.568  -0.473   1.257  1.00  0.00     0.041 A 
HETATM   12  C7  UNL     1       3.420  -1.674   0.614  1.00  0.00     0.091 A 
HETATM   13  C15 UNL     1       2.113  -1.972   0.184  1.00  0.00     0.069 A 
HETATM   14 CL1  UNL     1       1.566  -3.424  -0.671  1.00  0.00    -0.081 Cl
HETATM   15  C16 UNL     1       1.043  -1.093   0.402  1.00  0.00     0.058 A 
BRANCH  12  16
HETATM   16  O1  UNL     1       4.196  -2.722   0.248  1.00  0.00    -0.345 OA
BRANCH  16  17
HETATM   17  C8  UNL     1       5.549  -2.929   0.425  1.00  0.00     0.214 C 
BRANCH  17  18
HETATM   18  C9  UNL     1       6.435  -1.946  -0.219  1.00  0.00    -0.031 A 
HETATM   19  C10 UNL     1       6.675  -2.246  -1.566  1.00  0.00     0.009 A 
HETATM   20  C11 UNL     1       7.480  -1.501  -2.400  1.00  0.00     0.004 A 
HETATM   21  C12 UNL     1       8.104  -0.380  -1.901  1.00  0.00     0.042 A 
HETATM   22  C13 UNL     1       7.888  -0.062  -0.585  1.00  0.00     0.117 A 
HETATM   23  F1  UNL     1       8.445   1.018   0.023  1.00  0.00    -0.206 F 
HETATM   24  C14 UNL     1       7.078  -0.827   0.222  1.00  0.00     0.051 A 
ENDBRANCH  17  18
ENDBRANCH  16  17
ENDBRANCH  12  16
ENDBRANCH   6   9
BRANCH   8  25
HETATM   25  C19 UNL     1      -3.338   1.120   0.550  1.00  0.00    -0.063 C 
HETATM   26  C20 UNL     1      -4.407   0.610   0.376  1.00  0.00    -0.096 C 
BRANCH  26  27
HETATM   27  C21 UNL     1      -5.712  -0.024   0.185  1.00  0.00     0.068 C 
HETATM   28  C22 UNL     1      -6.707   0.872  -0.504  1.00  0.00     0.020 C 
HETATM   29  C23 UNL     1      -7.161   0.117  -1.738  1.00  0.00     0.033 C 
HETATM   30  C24 UNL     1      -6.890  -1.316  -1.351  1.00  0.00     0.119 C 
HETATM   31  C25 UNL     1      -5.491  -1.203  -0.741  1.00  0.00     0.048 C 
BRANCH  30  32
HETATM   32  O2  UNL     1      -7.789  -1.678  -0.332  1.00  0.00    -0.396 OA
HETATM   33  H21 UNL     1      -8.046  -0.891   0.207  1.00  0.00     0.210 HD
ENDBRANCH  30  32
ENDBRANCH  26  27
ENDBRANCH   8  25
TORSDOF 7
