REMARK  9 active torsions:
REMARK  status: ('A' for Active; 'I' for Inactive)
REMARK    1  A    between atoms: C7_8  and  O1_9 
REMARK    2  A    between atoms: O1_9  and  C8_10 
REMARK    3  A    between atoms: C11_13  and  C12_14 
REMARK    4  A    between atoms: C13_15  and  C14_16 
REMARK       I    between atoms: C14_16  and  N1_18 
REMARK    5  A    between atoms: N1_18  and  C15_19 
REMARK    6  A    between atoms: C15_19  and  C16_20 
REMARK    7  A    between atoms: C16_20  and  N2_21 
REMARK    8  A    between atoms: C21_27  and  C22_28 
REMARK    9  A    between atoms: C22_28  and  N3_29 
ROOT
HETATM    1  C8  UNL     1      -3.954  -0.178  -0.223  1.00  0.00     0.166 C 
HETATM    2  C9  UNL     1      -2.978   0.249   0.596  1.00  0.00     0.059 C 
HETATM    3  C10 UNL     1      -1.525   0.028   0.769  1.00  0.00     0.018 C 
HETATM    4  C11 UNL     1      -0.692  -0.920   0.370  1.00  0.00    -0.009 C 
HETATM    5  C21 UNL     1      -0.870  -2.136  -0.406  1.00  0.00     0.073 C 
HETATM    6  N4  UNL     1      -1.806  -2.534  -1.215  1.00  0.00    -0.244 NA
HETATM    7  C23 UNL     1      -3.012  -1.998  -1.685  1.00  0.00     0.236 C 
HETATM    8  N5  UNL     1      -3.837  -1.091  -1.302  1.00  0.00    -0.218 NA
ENDROOT
BRANCH   4   9
HETATM    9  C12 UNL     1       0.674  -0.750   0.761  1.00  0.00     0.019 C 
HETATM   10  C13 UNL     1       1.505   0.014   1.399  1.00  0.00     0.075 C 
BRANCH  10  11
HETATM   11  C14 UNL     1       2.900   0.156   1.779  1.00  0.00     0.241 C 
HETATM   12  O2  UNL     1       3.253   1.151   2.459  1.00  0.00    -0.269 OA
HETATM   13  N1  UNL     1       3.943  -0.747   1.449  1.00  0.00    -0.356 N 
HETATM   14  H13 UNL     1       3.632  -1.586   0.872  1.00  0.00     0.162 HD
BRANCH  13  15
HETATM   15  C15 UNL     1       5.331  -0.602   1.830  1.00  0.00     0.142 C 
BRANCH  15  16
HETATM   16  C16 UNL     1       5.944   0.656   1.298  1.00  0.00     0.136 C 
BRANCH  16  17
HETATM   17  N2  UNL     1       5.959   0.802  -0.111  1.00  0.00    -0.407 N 
HETATM   18  C17 UNL     1       6.811  -0.085  -0.829  1.00  0.00     0.143 C 
HETATM   19  C18 UNL     1       8.128   0.673  -1.047  1.00  0.00     0.187 C 
HETATM   20  O3  UNL     1       7.945   1.900  -1.640  1.00  0.00    -0.388 OA
HETATM   21  C19 UNL     1       6.627   2.205  -1.926  1.00  0.00     0.187 C 
HETATM   22  C20 UNL     1       5.854   2.128  -0.624  1.00  0.00     0.143 C 
ENDBRANCH  16  17
ENDBRANCH  15  16
ENDBRANCH  13  15
ENDBRANCH  10  11
ENDBRANCH   4   9
BRANCH   5  23
HETATM   23  C22 UNL     1       0.213  -3.165  -0.292  1.00  0.00     0.326 C 
BRANCH  23  24
HETATM   24  N3  UNL     1       0.383  -3.502   1.091  1.00  0.00     0.083 N 
HETATM   25  H28 UNL     1      -0.316  -3.007   1.691  1.00  0.00     0.313 HD
HETATM   26  H29 UNL     1       0.293  -4.518   1.304  1.00  0.00     0.313 HD
ENDBRANCH  23  24
ENDBRANCH   5  23
BRANCH   1  27
HETATM   27  O1  UNL     1      -5.121   0.431   0.167  1.00  0.00    -0.321 OA
BRANCH  27  28
HETATM   28  C7  UNL     1      -6.283   0.255  -0.620  1.00  0.00     0.196 A 
HETATM   29  C2  UNL     1      -7.489   0.857   0.063  1.00  0.00     0.147 A 
HETATM   30  C1  UNL     1      -8.483  -0.229   0.331  1.00  0.00     0.059 C 
HETATM   31  F1  UNL     1      -7.084   1.349   1.291  1.00  0.00    -0.236 F 
HETATM   32  C3  UNL     1      -8.069   1.889  -0.796  1.00  0.00     0.019 A 
HETATM   33  C4  UNL     1      -7.811   2.409  -1.976  1.00  0.00    -0.001 A 
HETATM   34  C5  UNL     1      -6.648   1.828  -2.625  1.00  0.00    -0.002 A 
HETATM   35  C6  UNL     1      -6.032   0.875  -1.945  1.00  0.00     0.009 A 
ENDBRANCH  27  28
ENDBRANCH   1  27
TORSDOF 9
