REMARK  6 active torsions:
REMARK  status: ('A' for Active; 'I' for Inactive)
REMARK    1  A    between atoms: N1_2  and  C2_3 
REMARK    2  A    between atoms: C5_7  and  C6_8 
REMARK    3  A    between atoms: N4_11  and  C8_12 
REMARK    4  A    between atoms: C8_12  and  C9_13 
REMARK    5  A    between atoms: C9_13  and  N5_14 
REMARK    6  A    between atoms: C22_29  and  C23_30 
ROOT
HETATM    1  C6  UNL     1       2.719  -0.721   0.543  1.00  0.00     0.013 C 
HETATM    2  C7  UNL     1       1.429  -0.539   0.690  1.00  0.00     0.115 C 
HETATM    3  N3  UNL     1       0.033  -0.496   0.844  1.00  0.00    -0.329 N 
HETATM    4  N4  UNL     1      -0.975  -0.321  -0.147  1.00  0.00    -0.226 NA
HETATM    5  C14 UNL     1      -2.174  -1.096   0.189  1.00  0.00     0.147 C 
HETATM    6  C15 UNL     1      -1.660  -2.480   0.449  1.00  0.00    -0.062 A 
HETATM    7  C16 UNL     1      -1.301  -3.022  -0.743  1.00  0.00     0.040 A 
HETATM    8  C17 UNL     1      -0.601  -4.153  -1.032  1.00  0.00     0.020 A 
HETATM    9  C18 UNL     1      -0.687  -4.064   0.311  1.00  0.00     0.060 A 
HETATM   10  C19 UNL     1      -0.820  -3.899   1.668  1.00  0.00     0.111 A 
HETATM   11  C20 UNL     1      -1.544  -2.735   1.793  1.00  0.00    -0.007 A 
HETATM   12  C21 UNL     1       0.576  -4.613   0.947  1.00  0.00     0.167 A 
HETATM   13  O1  UNL     1       1.591  -5.131   1.518  1.00  0.00    -0.281 OA
HETATM   14  N6  UNL     1       1.678  -3.743   0.468  1.00  0.00    -0.331 N 
HETATM   15  C22 UNL     1       3.047  -3.227   0.345  1.00  0.00     0.073 C 
HETATM   16  C24 UNL     1       3.442  -1.961   0.385  1.00  0.00     0.048 C 
HETATM   17  H8  UNL     1      -0.368  -0.609   1.824  1.00  0.00     0.180 HD
HETATM   18  H27 UNL     1       1.439  -3.010  -0.256  1.00  0.00     0.168 HD
ENDROOT
BRANCH   1  19
HETATM   19  C5  UNL     1       3.566   0.503   0.493  1.00  0.00     0.088 A 
HETATM   20  C4  UNL     1       4.913   0.614   0.351  1.00  0.00     0.148 A 
HETATM   21  N2  UNL     1       5.602   1.763   0.318  1.00  0.00    -0.267 NA
HETATM   22  C3  UNL     1       4.933   2.927   0.434  1.00  0.00     0.166 A 
HETATM   23  C2  UNL     1       3.566   2.862   0.580  1.00  0.00     0.141 A 
HETATM   24  N7  UNL     1       2.905   1.697   0.609  1.00  0.00    -0.228 NA
BRANCH  23  25
HETATM   25  N1  UNL     1       2.816   4.061   0.707  1.00  0.00    -0.378 N 
HETATM   26  C1  UNL     1       3.492   5.344   0.683  1.00  0.00     0.147 C 
HETATM   27  H4  UNL     1       1.780   4.068   0.819  1.00  0.00     0.160 HD
ENDBRANCH  23  25
ENDBRANCH   1  19
BRANCH  15  28
HETATM   28  C23 UNL     1       3.882  -4.371   0.168  1.00  0.00     0.288 C 
HETATM   29  O2  UNL     1       5.141  -4.225   0.033  1.00  0.00    -0.300 OA
ENDBRANCH  15  28
BRANCH   4  30
HETATM   30  C8  UNL     1      -1.198   1.085  -0.212  1.00  0.00     0.144 C 
BRANCH  30  31
HETATM   31  C9  UNL     1      -2.039   1.591  -1.326  1.00  0.00     0.288 C 
BRANCH  31  32
HETATM   32  N5  UNL     1      -3.349   1.036  -1.266  1.00  0.00     0.089 N 
HETATM   33  C10 UNL     1      -4.157   1.460  -0.161  1.00  0.00     0.272 C 
HETATM   34  C11 UNL     1      -5.275   2.308  -0.698  1.00  0.00     0.032 C 
HETATM   35  C12 UNL     1      -5.307   2.059  -2.173  1.00  0.00     0.032 C 
HETATM   36  C13 UNL     1      -4.110   1.221  -2.481  1.00  0.00     0.272 C 
ENDBRANCH  31  32
ENDBRANCH  30  31
ENDBRANCH   4  30
TORSDOF 6
