REMARK  4 active torsions:
REMARK  status: ('A' for Active; 'I' for Inactive)
REMARK    1  A    between atoms: N1_2  and  C2_3 
REMARK    2  A    between atoms: C8_10  and  N3_11 
REMARK    3  A    between atoms: N3_11  and  C9_12 
REMARK    4  A    between atoms: C9_12  and  C10_13 
ROOT
HETATM    1  C2  UNL     1      -2.298   0.665  -1.107  1.00  0.00     0.132 A 
HETATM    2  N2  UNL     1      -3.058   1.640  -1.570  1.00  0.00    -0.242 NA
HETATM    3  C3  UNL     1      -2.778   2.918  -1.367  1.00  0.00     0.126 A 
HETATM    4  C4  UNL     1      -1.631   3.127  -0.633  1.00  0.00    -0.031 A 
HETATM    5  C5  UNL     1      -1.253   4.542  -0.367  1.00  0.00     0.050 C 
HETATM    6  C6  UNL     1      -0.860   2.103  -0.164  1.00  0.00     0.018 A 
HETATM    7  C7  UNL     1      -1.108   0.719  -0.352  1.00  0.00     0.036 A 
HETATM    8  C8  UNL     1      -0.453  -0.541   0.068  1.00  0.00     0.280 C 
HETATM    9  C11 UNL     1       0.423  -1.162  -0.958  1.00  0.00     0.118 C 
HETATM   10  C12 UNL     1      -0.219  -2.387  -1.514  1.00  0.00     0.029 C 
HETATM   11  C13 UNL     1       0.800  -3.454  -1.742  1.00  0.00     0.021 C 
HETATM   12  C14 UNL     1       1.906  -3.103  -0.833  1.00  0.00     0.118 C 
HETATM   13  N4  UNL     1       1.755  -1.654  -0.556  1.00  0.00    -0.394 N 
HETATM   14  C15 UNL     1       2.842  -0.823   0.042  1.00  0.00     0.052 A 
HETATM   15  C16 UNL     1       2.763  -1.266   1.321  1.00  0.00     0.059 A 
HETATM   16  C17 UNL     1       3.189  -0.378   2.294  1.00  0.00    -0.024 A 
HETATM   17  C18 UNL     1       3.302   0.150   1.035  1.00  0.00     0.079 A 
HETATM   18  C19 UNL     1       3.364   0.553  -0.271  1.00  0.00     0.060 A 
HETATM   19  C20 UNL     1       2.935  -0.350  -1.214  1.00  0.00    -0.014 A 
HETATM   20  C21 UNL     1       2.880   1.535   1.263  1.00  0.00     0.298 A 
HETATM   21  O1  UNL     1       1.702   1.635   1.573  1.00  0.00    -0.128 OA
HETATM   22  N5  UNL     1       2.474   2.920   1.487  1.00  0.00     0.108 N 
HETATM   23  C22 UNL     1       1.018   3.115   1.810  1.00  0.00     0.349 C 
HETATM   24  C23 UNL     1       0.272   2.615   0.673  1.00  0.00     0.125 C 
HETATM   25  O2  UNL     1       0.957   2.490  -0.426  1.00  0.00    -0.194 OA
HETATM   26  H26 UNL     1       3.329   3.544   1.374  1.00  0.00     0.328 HD
ENDROOT
BRANCH   8  27
HETATM   27  N3  UNL     1      -1.500  -1.486   0.499  1.00  0.00     0.095 N 
HETATM   28  H10 UNL     1      -2.300  -0.879   0.834  1.00  0.00     0.316 HD
BRANCH  27  29
HETATM   29  C9  UNL     1      -1.169  -2.394   1.507  1.00  0.00     0.285 C 
BRANCH  29  30
HETATM   30  C10 UNL     1      -1.112  -1.958   2.922  1.00  0.00     0.144 C 
HETATM   31 CL1  UNL     1      -0.018  -0.692   3.371  1.00  0.00    -0.129 Cl
ENDBRANCH  29  30
ENDBRANCH  27  29
ENDBRANCH   8  27
BRANCH   1  32
HETATM   32  N1  UNL     1      -2.948  -0.572  -1.476  1.00  0.00    -0.379 N 
HETATM   33  C1  UNL     1      -4.172  -0.670  -2.259  1.00  0.00     0.147 C 
HETATM   34  H4  UNL     1      -2.854  -1.597  -1.368  1.00  0.00     0.160 HD
ENDBRANCH   1  32
TORSDOF 4
