REMARK  2 active torsions:
REMARK  status: ('A' for Active; 'I' for Inactive)
REMARK    1  A    between atoms: C5_7  and  C6_8 
REMARK    2  A    between atoms: C8_10  and  C9_11 
ROOT
HETATM    1  C1  UNL     1      -5.787  -1.358   0.546  1.00  0.00     0.180 C 
HETATM    2  N1  UNL     1      -4.866  -0.842  -0.446  1.00  0.00    -0.274 N 
HETATM    3  N2  UNL     1      -5.130  -0.648  -1.726  1.00  0.00    -0.184 NA
HETATM    4  C2  UNL     1      -4.024  -0.157  -2.329  1.00  0.00     0.152 A 
HETATM    5  C3  UNL     1      -3.066  -0.062  -1.339  1.00  0.00     0.012 A 
HETATM    6  C4  UNL     1      -1.762   0.376  -1.401  1.00  0.00     0.029 A 
HETATM    7  C5  UNL     1      -0.967   0.389  -0.276  1.00  0.00    -0.005 A 
HETATM    8  C14 UNL     1      -1.475  -0.042   0.941  1.00  0.00     0.016 A 
HETATM    9  C15 UNL     1      -2.791  -0.475   0.965  1.00  0.00     0.033 A 
HETATM   10  C16 UNL     1      -3.615  -0.500  -0.152  1.00  0.00     0.064 A 
ENDROOT
BRANCH   7  11
HETATM   11  C6  UNL     1       0.440   0.845  -0.269  1.00  0.00     0.087 A 
HETATM   12  C7  UNL     1       1.324   0.918   0.715  1.00  0.00     0.041 A 
HETATM   13  C8  UNL     1       2.567   1.445   0.152  1.00  0.00     0.185 A 
HETATM   14  N3  UNL     1       2.274   1.656  -1.247  1.00  0.00    -0.179 NA
HETATM   15  N4  UNL     1       1.073   1.305  -1.431  1.00  0.00    -0.154 NA
BRANCH  13  16
HETATM   16  C9  UNL     1       3.690   0.446   0.217  1.00  0.00    -0.047 A 
HETATM   17  C10 UNL     1       3.913  -0.789   0.632  1.00  0.00     0.005 A 
HETATM   18  C11 UNL     1       5.288  -1.199   0.395  1.00  0.00    -0.003 A 
HETATM   19  C12 UNL     1       5.898  -0.160  -0.184  1.00  0.00    -0.022 A 
HETATM   20  C13 UNL     1       4.967   0.967  -0.354  1.00  0.00     0.064 A 
ENDBRANCH  13  16
ENDBRANCH   7  11
TORSDOF 2
