REMARK  3 active torsions:
REMARK  status: ('A' for Active; 'I' for Inactive)
REMARK    1  A    between atoms: C3_3  and  C4_4 
REMARK    2  A    between atoms: C9_11  and  O2_12 
REMARK    3  A    between atoms: C14_17  and  O3_18 
ROOT
HETATM    1  C4  UNL     1       2.899   0.650   0.678  1.00  0.00     0.069 A 
HETATM    2  N1  UNL     1       2.806   1.836   1.123  1.00  0.00    -0.248 NA
HETATM    3  C5  UNL     1       1.646   2.091   0.303  1.00  0.00     0.068 A 
HETATM    4  C6  UNL     1       0.534   2.474  -0.354  1.00  0.00     0.032 C 
HETATM    5  C7  UNL     1      -0.575   2.582  -1.275  1.00  0.00     0.206 C 
HETATM    6  O1  UNL     1      -1.870   2.468  -0.697  1.00  0.00    -0.342 OA
HETATM    7  C8  UNL     1      -2.095   1.160  -0.178  1.00  0.00     0.135 A 
HETATM    8  C9  UNL     1      -2.378   0.508  -1.363  1.00  0.00     0.104 A 
HETATM    9  C11 UNL     1      -2.676  -0.834  -1.481  1.00  0.00     0.048 A 
HETATM   10  C12 UNL     1      -2.685  -1.564  -0.293  1.00  0.00    -0.033 A 
HETATM   11  C13 UNL     1      -2.407  -0.907   0.885  1.00  0.00     0.048 A 
HETATM   12  C14 UNL     1      -2.113   0.428   0.977  1.00  0.00     0.104 A 
HETATM   13  C16 UNL     1      -2.932  -3.053  -0.297  1.00  0.00     0.188 C 
HETATM   14  N2  UNL     1      -1.621  -3.667  -0.350  1.00  0.00    -0.281 NA
HETATM   15  C17 UNL     1      -0.558  -3.035  -0.420  1.00  0.00     0.196 C 
HETATM   16  N3  UNL     1       0.704  -2.478  -0.498  1.00  0.00    -0.381 N 
HETATM   17  C18 UNL     1       1.740  -1.641  -1.064  1.00  0.00     0.148 C 
HETATM   18  C19 UNL     1       1.276  -0.217  -0.919  1.00  0.00     0.009 C 
HETATM   19  C20 UNL     1       1.765   0.744  -0.187  1.00  0.00     0.019 A 
HETATM   20  H20 UNL     1       1.001  -3.050   0.357  1.00  0.00     0.160 HD
ENDROOT
BRANCH   1  21
HETATM   21  C3  UNL     1       4.055   0.139   1.380  1.00  0.00     0.028 C 
HETATM   22  C2  UNL     1       4.865   0.649   2.253  1.00  0.00    -0.029 C 
HETATM   23  C1  UNL     1       5.101   1.895   2.989  1.00  0.00     0.036 C 
ENDBRANCH   1  21
BRANCH   8  24
HETATM   24  O2  UNL     1      -2.445   0.969  -2.694  1.00  0.00    -0.353 OA
HETATM   25  C10 UNL     1      -2.759   0.099  -3.757  1.00  0.00     0.210 C 
ENDBRANCH   8  24
BRANCH  12  26
HETATM   26  O3  UNL     1      -1.830   1.120   2.139  1.00  0.00    -0.353 OA
HETATM   27  C15 UNL     1      -1.806   0.519   3.414  1.00  0.00     0.210 C 
ENDBRANCH  12  26
TORSDOF 3
