REMARK  5 active torsions:
REMARK  status: ('A' for Active; 'I' for Inactive)
REMARK    1  A    between atoms: O1_2  and  C2_3 
REMARK    2  A    between atoms: C4_5  and  N1_6 
REMARK    3  A    between atoms: N1_6  and  C5_7 
REMARK    4  A    between atoms: C8_11  and  N3_12 
REMARK    5  A    between atoms: N3_12  and  C9_13 
ROOT
HETATM    1  C5  UNL     1      -1.232  -1.607   0.004  1.00  0.00     0.728 A 
HETATM    2  N2  UNL     1      -0.972  -2.461  -1.010  1.00  0.00    -0.075 NA
HETATM    3  C6  UNL     1       0.235  -2.525  -1.599  1.00  0.00     0.140 A 
HETATM    4  C7  UNL     1       1.175  -1.654  -1.085  1.00  0.00     0.071 A 
HETATM    5  C8  UNL     1       0.966  -0.768  -0.060  1.00  0.00     0.148 A 
HETATM    6  N5  UNL     1      -0.270  -0.785   0.456  1.00  0.00    -0.045 NA
ENDROOT
BRANCH   5   7
HETATM    7  N3  UNL     1       1.904   0.138   0.479  1.00  0.00    -0.339 N 
HETATM    8  H8  UNL     1       1.628   0.698   1.324  1.00  0.00     0.167 HD
BRANCH   7   9
HETATM    9  C9  UNL     1       3.215   0.480   0.106  1.00  0.00     0.052 A 
HETATM   10  C10 UNL     1       3.703   0.557  -1.180  1.00  0.00     0.146 A 
HETATM   11  N4  UNL     1       4.948   0.851  -1.552  1.00  0.00    -0.258 NA
HETATM   12  C11 UNL     1       5.880   1.113  -0.618  1.00  0.00     0.066 A 
HETATM   13  C12 UNL     1       7.174   1.413  -1.000  1.00  0.00     0.032 A 
HETATM   14  C16 UNL     1       5.499   1.065   0.704  1.00  0.00    -0.005 A 
HETATM   15  C13 UNL     1       8.147   1.681  -0.047  1.00  0.00     0.002 A 
HETATM   16  C14 UNL     1       7.786   1.638   1.287  1.00  0.00     0.001 A 
HETATM   17  C15 UNL     1       6.479   1.333   1.633  1.00  0.00     0.014 A 
HETATM   18  C17 UNL     1       4.212   0.759   1.047  1.00  0.00     0.044 A 
ENDBRANCH   7   9
ENDBRANCH   5   7
BRANCH   1  19
HETATM   19  N1  UNL     1      -2.544  -1.689   0.493  1.00  0.00    -0.188 N 
HETATM   20  H5  UNL     1      -2.364  -2.370   1.274  1.00  0.00     0.184 HD
BRANCH  19  21
HETATM   21  C4  UNL     1      -3.870  -1.245   0.342  1.00  0.00     0.050 C 
HETATM   22  C3  UNL     1      -4.260   0.145   0.229  1.00  0.00     0.064 C 
HETATM   23  C2  UNL     1      -5.450   0.629  -0.107  1.00  0.00     0.071 C 
HETATM   24  C20 UNL     1      -6.658  -0.184  -0.444  1.00  0.00     0.232 C 
HETATM   25  O2  UNL     1      -6.783  -1.156   0.526  1.00  0.00    -0.381 OA
HETATM   26  C19 UNL     1      -6.180  -2.348   0.172  1.00  0.00     0.197 C 
HETATM   27  C18 UNL     1      -4.697  -2.292   0.316  1.00  0.00     0.029 C 
BRANCH  23  28
HETATM   28  O1  UNL     1      -5.533   1.990  -0.134  1.00  0.00    -0.358 OA
HETATM   29  C1  UNL     1      -4.781   2.904   0.612  1.00  0.00     0.209 C 
ENDBRANCH  23  28
ENDBRANCH  19  21
ENDBRANCH   1  19
TORSDOF 5
