REMARK  4 active torsions:
REMARK  status: ('A' for Active; 'I' for Inactive)
REMARK    1  A    between atoms: C2_3  and  C3_4 
REMARK    2  A    between atoms: N2_11  and  C10_12 
REMARK    3  A    between atoms: C10_12  and  C11_13 
REMARK    4  A    between atoms: C15_19  and  N5_20 
ROOT
HETATM    1  C10 UNL     1      -0.851  -1.596  -0.767  1.00  0.00     0.178 C 
ENDROOT
BRANCH   1   2
HETATM    2  N2  UNL     1       0.464  -0.993  -0.646  1.00  0.00    -0.295 N 
HETATM    3  N1  UNL     1       1.304  -0.725   0.351  1.00  0.00    -0.292 N 
HETATM    4  C1  UNL     1       1.275  -0.924   1.806  1.00  0.00     0.178 C 
HETATM    5  C2  UNL     1       2.197  -0.196  -0.505  1.00  0.00     0.077 A 
HETATM    6  C9  UNL     1       1.327  -0.473  -1.539  1.00  0.00     0.142 A 
BRANCH   5   7
HETATM    7  C3  UNL     1       3.514   0.418  -0.467  1.00  0.00    -0.005 C 
HETATM    8  C4  UNL     1       4.135   0.850  -1.563  1.00  0.00     0.014 C 
HETATM    9  C5  UNL     1       5.459   1.461  -1.477  1.00  0.00     0.014 C 
HETATM   10  C6  UNL     1       5.811   1.844  -0.275  1.00  0.00    -0.014 C 
HETATM   11  C7  UNL     1       5.343   1.314   0.788  1.00  0.00    -0.013 C 
HETATM   12  C8  UNL     1       4.237   0.601   0.767  1.00  0.00     0.027 C 
ENDBRANCH   5   7
ENDBRANCH   1   2
BRANCH   1  13
HETATM   13  C11 UNL     1      -1.896  -0.562  -0.651  1.00  0.00     0.028 C 
HETATM   14  C12 UNL     1      -2.887  -0.413   0.208  1.00  0.00     0.074 A 
HETATM   15  N3  UNL     1      -3.058  -1.372   1.242  1.00  0.00    -0.277 N 
HETATM   16  C15 UNL     1      -3.733   0.756   0.004  1.00  0.00     0.055 A 
HETATM   17  N4  UNL     1      -4.155  -1.089   2.086  1.00  0.00    -0.187 NA
HETATM   18  H11 UNL     1      -2.465  -2.199   1.392  1.00  0.00     0.189 HD
HETATM   19  C13 UNL     1      -4.918  -0.062   1.926  1.00  0.00     0.141 A 
HETATM   20  C14 UNL     1      -4.740   0.936   0.851  1.00  0.00     0.052 A 
BRANCH  16  21
HETATM   21  N5  UNL     1      -3.529   1.690  -1.040  1.00  0.00    -0.397 N 
HETATM   22  H14 UNL     1      -3.451   1.356  -2.024  1.00  0.00     0.156 HD
HETATM   23  H15 UNL     1      -3.439   2.747  -0.968  1.00  0.00     0.156 HD
ENDBRANCH  16  21
ENDBRANCH   1  13
TORSDOF 4
