REMARK  5 active torsions:
REMARK  status: ('A' for Active; 'I' for Inactive)
REMARK    1  A    between atoms: C4_4  and  S1_5 
REMARK    2  A    between atoms: S1_5  and  C5_6 
REMARK    3  A    between atoms: C5_6  and  C6_7 
REMARK    4  A    between atoms: N1_9  and  C8_10 
REMARK    5  A    between atoms: C12_14  and  C13_15 
ROOT
HETATM    1  C6  UNL     1       0.906   0.096  -2.466  1.00  0.00     0.079 A 
HETATM    2  C7  UNL     1       0.178   0.351  -1.324  1.00  0.00     0.143 A 
HETATM    3  N1  UNL     1      -0.959  -0.326  -1.447  1.00  0.00    -0.247 N 
HETATM    4  N4  UNL     1      -0.932  -0.966  -2.607  1.00  0.00     0.009 NA
HETATM    5  N5  UNL     1       0.196  -0.725  -3.250  1.00  0.00    -0.162 NA
ENDROOT
BRANCH   3   6
HETATM    6  C8  UNL     1      -2.083  -0.435  -0.572  1.00  0.00     0.055 A 
HETATM    7  C9  UNL     1      -2.550  -1.729  -0.342  1.00  0.00     0.031 A 
HETATM    8  C10 UNL     1      -3.620  -2.062   0.467  1.00  0.00     0.003 A 
HETATM    9  C11 UNL     1      -4.242  -0.977   1.073  1.00  0.00     0.015 A 
HETATM   10  C12 UNL     1      -3.816   0.321   0.875  1.00  0.00     0.015 A 
HETATM   11  C14 UNL     1      -2.740   0.600   0.057  1.00  0.00     0.046 A 
BRANCH  10  12
HETATM   12  C13 UNL     1      -4.454   1.464   1.499  1.00  0.00     0.174 A 
HETATM   13  N2  UNL     1      -5.765   1.741   1.908  1.00  0.00    -0.153 NA
HETATM   14  N3  UNL     1      -4.723   2.674   2.067  1.00  0.00    -0.257 N 
HETATM   15  H10 UNL     1      -4.396   3.610   2.388  1.00  0.00     0.191 HD
ENDBRANCH  10  12
ENDBRANCH   3   6
BRANCH   1  16
HETATM   16  C5  UNL     1       2.239   0.606  -2.829  1.00  0.00     0.141 C 
BRANCH  16  17
HETATM   17  S1  UNL     1       3.590  -0.468  -2.256  1.00  0.00    -0.124 SA
BRANCH  17  18
HETATM   18  C4  UNL     1       3.592  -0.419  -0.475  1.00  0.00     0.000 A 
HETATM   19  C3  UNL     1       2.921  -1.226   0.419  1.00  0.00     0.018 A 
HETATM   20  C2  UNL     1       3.067  -1.010   1.773  1.00  0.00     0.001 A 
HETATM   21  C1  UNL     1       3.881   0.011   2.262  1.00  0.00     0.000 A 
HETATM   22  C16 UNL     1       4.567   0.837   1.369  1.00  0.00     0.001 A 
HETATM   23  C15 UNL     1       4.412   0.609  -0.002  1.00  0.00     0.018 A 
ENDBRANCH  17  18
ENDBRANCH  16  17
ENDBRANCH   1  16
TORSDOF 5
