REMARK  4 active torsions:
REMARK  status: ('A' for Active; 'I' for Inactive)
REMARK    1  A    between atoms: C2_2  and  C3_3 
REMARK    2  A    between atoms: C2_2  and  N1_10 
REMARK    3  A    between atoms: C3_3  and  C4_4 
REMARK    4  A    between atoms: N2_11  and  N3_12 
ROOT
HETATM    1  N3  UNL     1      -1.326   0.547   0.413  1.00  0.00    -0.237 N 
HETATM    2  C10 UNL     1      -1.918  -0.725   0.148  1.00  0.00     0.119 C 
HETATM    3  C11 UNL     1      -3.099  -0.559  -0.393  1.00  0.00    -0.057 C 
HETATM    4  C12 UNL     1      -3.971  -1.698  -0.787  1.00  0.00     0.045 C 
HETATM    5  C13 UNL     1      -3.440   0.864  -0.556  1.00  0.00     0.083 C 
HETATM    6  C14 UNL     1      -4.624   1.299   0.275  1.00  0.00     0.188 C 
HETATM    7  N4  UNL     1      -4.262   1.660   1.618  1.00  0.00    -0.174 NA
HETATM    8  N5  UNL     1      -3.209   2.315   1.820  1.00  0.00    -0.076 NA
HETATM    9  N6  UNL     1      -2.413   2.680   0.752  1.00  0.00    -0.270 N 
HETATM   10  C15 UNL     1      -2.179   1.593  -0.163  1.00  0.00     0.237 C 
HETATM   11  H17 UNL     1      -1.996   3.639   0.580  1.00  0.00     0.186 HD
ENDROOT
BRANCH   1  12
HETATM   12  N2  UNL     1      -0.190   1.060   1.051  1.00  0.00    -0.064 NA
HETATM   13  N1  UNL     1       0.946   0.670   0.638  1.00  0.00    -0.141 NA
BRANCH  13  14
HETATM   14  C2  UNL     1       1.072  -0.241  -0.418  1.00  0.00     0.041 C 
HETATM   15  C1  UNL     1       0.340   0.053  -1.479  1.00  0.00     0.062 C 
BRANCH  14  16
HETATM   16  C3  UNL     1       1.991  -1.387  -0.205  1.00  0.00     0.095 C 
BRANCH  16  17
HETATM   17  C4  UNL     1       3.383  -0.926   0.061  1.00  0.00    -0.053 A 
HETATM   18  C5  UNL     1       3.765  -0.692   1.350  1.00  0.00     0.007 A 
HETATM   19  C6  UNL     1       5.067  -0.265   1.552  1.00  0.00     0.001 A 
HETATM   20  C7  UNL     1       5.955  -0.080   0.499  1.00  0.00     0.000 A 
HETATM   21  C8  UNL     1       5.519  -0.332  -0.788  1.00  0.00     0.001 A 
HETATM   22  C9  UNL     1       4.213  -0.764  -1.037  1.00  0.00     0.007 A 
ENDBRANCH  16  17
ENDBRANCH  14  16
ENDBRANCH  13  14
ENDBRANCH   1  12
TORSDOF 4
