REMARK  1 active torsions:
REMARK  status: ('A' for Active; 'I' for Inactive)
REMARK    1  A    between atoms: O1_2  and  C2_3 
ROOT
HETATM    1  C2  UNL     1      -3.335  -0.713   0.122  1.00  0.00     0.195 C 
HETATM    2  C3  UNL     1      -4.173   0.293   0.885  1.00  0.00     0.008 C 
HETATM    3  C4  UNL     1      -4.219   1.631   0.926  1.00  0.00    -0.008 C 
HETATM    4  C5  UNL     1      -3.559   2.792   0.287  1.00  0.00     0.150 C 
HETATM    5  N1  UNL     1      -2.190   2.985   0.762  1.00  0.00    -0.351 N 
HETATM    6  C6  UNL     1      -1.310   1.908   0.998  1.00  0.00     0.243 C 
HETATM    7  N2  UNL     1      -1.269   0.601   1.162  1.00  0.00    -0.211 NA
HETATM    8  C7  UNL     1      -1.910  -0.502   0.468  1.00  0.00     0.069 C 
HETATM    9  C8  UNL     1      -1.177  -1.541   0.026  1.00  0.00     0.023 C 
HETATM   10  C9  UNL     1       0.283  -1.433   0.320  1.00  0.00     0.149 C 
HETATM   11  N3  UNL     1       1.023  -1.401  -0.909  1.00  0.00    -0.384 N 
HETATM   12  C10 UNL     1       2.422  -1.037  -0.732  1.00  0.00     0.061 C 
HETATM   13  C11 UNL     1       3.736  -1.170  -0.454  1.00  0.00    -0.016 C 
HETATM   14  C12 UNL     1       4.702  -2.163  -0.021  1.00  0.00     0.010 C 
HETATM   15  C13 UNL     1       5.852  -1.548   0.326  1.00  0.00     0.000 C 
HETATM   16  C14 UNL     1       5.971  -0.082   0.170  1.00  0.00    -0.003 C 
HETATM   17  C15 UNL     1       5.078   0.779  -0.348  1.00  0.00    -0.011 C 
HETATM   18  C16 UNL     1       3.852   0.233  -0.862  1.00  0.00     0.097 C 
HETATM   19  C17 UNL     1       2.509   0.490  -0.571  1.00  0.00     0.070 C 
HETATM   20  N4  UNL     1       1.438   0.989  -0.304  1.00  0.00    -0.265 NA
HETATM   21  C18 UNL     1       0.852   2.194  -0.048  1.00  0.00     0.327 C 
HETATM   22  O2  UNL     1       0.018   2.158   1.128  1.00  0.00    -0.299 OA
HETATM   23  H9  UNL     1      -1.609   3.799   1.008  1.00  0.00     0.163 HD
HETATM   24  H13 UNL     1       1.152  -1.493  -1.929  1.00  0.00     0.160 HD
ENDROOT
BRANCH   1  25
HETATM   25  O1  UNL     1      -3.803  -1.982   0.324  1.00  0.00    -0.381 OA
HETATM   26  C1  UNL     1      -4.335  -2.538  -0.811  1.00  0.00     0.202 C 
ENDBRANCH   1  25
TORSDOF 1
