REMARK  0 active torsions:
REMARK  status: ('A' for Active; 'I' for Inactive)
ROOT
HETATM    1  C1  UNL     1       1.408  -2.528   0.317  1.00  0.00     0.113 C 
HETATM    2  N1  UNL     1       0.271  -2.978   0.799  1.00  0.00    -0.243 NA
HETATM    3  C2  UNL     1      -0.788  -3.316  -0.062  1.00  0.00     0.169 A 
HETATM    4  C3  UNL     1      -1.422  -4.455  -0.497  1.00  0.00     0.073 A 
HETATM    5  C4  UNL     1      -2.457  -4.302  -1.393  1.00  0.00     0.140 A 
HETATM    6  N2  UNL     1      -2.823  -3.080  -1.818  1.00  0.00    -0.075 NA
HETATM    7  C5  UNL     1      -2.197  -1.971  -1.387  1.00  0.00     0.724 A 
HETATM    8  N3  UNL     1      -1.166  -2.075  -0.497  1.00  0.00    -0.043 NA
HETATM    9  N4  UNL     1      -2.466  -0.621  -1.739  1.00  0.00    -0.212 N 
HETATM   10  C6  UNL     1      -3.252   0.077  -0.720  1.00  0.00     0.155 C 
HETATM   11  C7  UNL     1      -4.239  -0.868  -0.074  1.00  0.00     0.204 C 
HETATM   12  O1  UNL     1      -4.296  -0.380   1.248  1.00  0.00    -0.360 OA
HETATM   13  C8  UNL     1      -3.121   0.276   1.549  1.00  0.00     0.139 C 
HETATM   14  C9  UNL     1      -2.470   0.567   0.410  1.00  0.00    -0.033 C 
HETATM   15  C10 UNL     1      -1.168   1.292   0.517  1.00  0.00     0.042 C 
HETATM   16  O2  UNL     1      -1.270   2.413   1.356  1.00  0.00     0.000 OA
HETATM   17  C11 UNL     1      -0.197   3.232   1.579  1.00  0.00    -0.018 C 
HETATM   18  C12 UNL     1       1.082   3.342   1.160  1.00  0.00     0.043 C 
HETATM   19  C13 UNL     1       2.094   4.351   1.557  1.00  0.00    -0.021 C 
HETATM   20  C14 UNL     1       3.168   4.020   0.868  1.00  0.00    -0.004 C 
HETATM   21  C15 UNL     1       3.402   2.949  -0.073  1.00  0.00    -0.004 C 
HETATM   22  C16 UNL     1       3.069   1.904  -0.765  1.00  0.00    -0.022 C 
HETATM   23  C17 UNL     1       3.216   0.786  -1.708  1.00  0.00     0.073 C 
HETATM   24  C18 UNL     1       2.982  -0.510  -1.060  1.00  0.00     0.087 C 
HETATM   25  N5  UNL     1       2.994  -0.710   0.226  1.00  0.00    -0.300 NA
HETATM   26  C19 UNL     1       2.743  -2.058   0.703  1.00  0.00     0.194 C 
HETATM   27  H4  UNL     1      -1.962  -0.664  -2.648  1.00  0.00     0.178 HD
ENDROOT
TORSDOF 0
