REMARK  5 active torsions:
REMARK  status: ('A' for Active; 'I' for Inactive)
REMARK    1  A    between atoms: O1_2  and  C2_3 
REMARK    2  A    between atoms: C3_4  and  C4_5 
REMARK    3  A    between atoms: C4_5  and  N1_6 
REMARK    4  A    between atoms: C4_5  and  O2_24 
REMARK    5  A    between atoms: N1_6  and  C5_7 
ROOT
HETATM    1  C5  UNL     1       1.196   0.736   0.744  1.00  0.00     0.725 A 
HETATM    2  N2  UNL     1       1.540   1.609   1.699  1.00  0.00    -0.075 NA
HETATM    3  C6  UNL     1       0.607   2.037   2.564  1.00  0.00     0.139 A 
HETATM    4  C7  UNL     1      -0.660   1.540   2.406  1.00  0.00     0.053 A 
HETATM    5  C8  UNL     1      -1.081   0.650   1.460  1.00  0.00     0.089 A 
HETATM    6  C9  UNL     1      -2.380   0.095   1.186  1.00  0.00     0.018 A 
HETATM    7  C10 UNL     1      -2.543  -0.444  -0.096  1.00  0.00     0.029 A 
HETATM    8  C11 UNL     1      -3.705  -1.033  -0.528  1.00  0.00    -0.006 A 
HETATM    9  C12 UNL     1      -3.822  -1.549  -1.800  1.00  0.00     0.014 A 
HETATM   10  C13 UNL     1      -5.017  -2.131  -2.185  1.00  0.00     0.001 A 
HETATM   11  C14 UNL     1      -6.102  -2.212  -1.334  1.00  0.00     0.002 A 
HETATM   12  C15 UNL     1      -5.961  -1.690  -0.070  1.00  0.00     0.032 A 
HETATM   13  C16 UNL     1      -4.779  -1.115   0.310  1.00  0.00     0.067 A 
HETATM   14  N3  UNL     1      -4.639  -0.612   1.521  1.00  0.00    -0.252 NA
HETATM   15  C17 UNL     1      -3.506  -0.036   1.953  1.00  0.00     0.044 A 
HETATM   16  C18 UNL     1      -3.434   0.453   3.349  1.00  0.00     0.071 C 
HETATM   17  N4  UNL     1      -0.067   0.301   0.661  1.00  0.00    -0.062 NA
ENDROOT
BRANCH   1  18
HETATM   18  N1  UNL     1       2.143   0.246  -0.198  1.00  0.00    -0.193 N 
HETATM   19  H7  UNL     1       1.822  -0.432  -0.934  1.00  0.00     0.180 HD
BRANCH  18  20
HETATM   20  C4  UNL     1       3.536   0.588  -0.254  1.00  0.00     0.263 C 
BRANCH  20  21
HETATM   21  C3  UNL     1       4.233  -0.109  -1.383  1.00  0.00     0.050 C 
HETATM   22  C2  UNL     1       3.751  -0.284  -2.625  1.00  0.00     0.134 C 
BRANCH  22  23
HETATM   23  O1  UNL     1       4.419  -0.942  -3.675  1.00  0.00    -0.368 OA
HETATM   24  C1  UNL     1       5.724  -1.427  -3.378  1.00  0.00     0.208 C 
ENDBRANCH  22  23
ENDBRANCH  20  21
BRANCH  20  25
HETATM   25  O2  UNL     1       3.824   1.930  -0.243  1.00  0.00    -0.368 OA
HETATM   26  C19 UNL     1       4.610   2.371   0.787  1.00  0.00     0.204 C 
ENDBRANCH  20  25
ENDBRANCH  18  20
ENDBRANCH   1  18
TORSDOF 5
