REMARK  6 active torsions:
REMARK  status: ('A' for Active; 'I' for Inactive)
REMARK    1  A    between atoms: O1_2  and  C2_3 
REMARK    2  A    between atoms: C2_3  and  C3_4 
REMARK    3  A    between atoms: C3_4  and  C4_5 
REMARK    4  A    between atoms: C4_5  and  N1_6 
REMARK    5  A    between atoms: N1_6  and  C5_7 
REMARK    6  A    between atoms: N3_12  and  C9_13 
ROOT
HETATM    1  C5  UNL     1       1.111   1.653   0.273  1.00  0.00     0.703 A 
HETATM    2  N2  UNL     1       2.031   2.502  -0.085  1.00  0.00    -0.077 NA
HETATM    3  C6  UNL     1       1.767   3.321  -1.214  1.00  0.00     0.134 A 
HETATM    4  C7  UNL     1       0.605   3.176  -1.825  1.00  0.00     0.014 A 
HETATM    5  C8  UNL     1      -0.553   2.260  -1.530  1.00  0.00     0.176 A 
HETATM    6  N3  UNL     1      -0.137   1.435  -0.398  1.00  0.00    -0.177 N 
ENDROOT
BRANCH   6   7
HETATM    7  C9  UNL     1      -1.059   0.425  -0.023  1.00  0.00     0.070 A 
HETATM    8  C10 UNL     1      -0.736  -0.822   0.469  1.00  0.00     0.147 A 
HETATM    9  N4  UNL     1      -1.656  -1.739   0.831  1.00  0.00    -0.258 NA
HETATM   10  C11 UNL     1      -2.971  -1.490   0.731  1.00  0.00     0.066 A 
HETATM   11  C12 UNL     1      -3.919  -2.415   1.096  1.00  0.00     0.032 A 
HETATM   12  C16 UNL     1      -3.424  -0.277   0.251  1.00  0.00    -0.005 A 
HETATM   13  C13 UNL     1      -5.288  -2.160   0.994  1.00  0.00     0.002 A 
HETATM   14  C14 UNL     1      -5.662  -0.925   0.505  1.00  0.00     0.001 A 
HETATM   15  C15 UNL     1      -4.763   0.066   0.114  1.00  0.00     0.014 A 
HETATM   16  C17 UNL     1      -2.430   0.622  -0.103  1.00  0.00     0.045 A 
ENDBRANCH   6   7
BRANCH   1  17
HETATM   17  N1  UNL     1       1.419   0.845   1.434  1.00  0.00    -0.221 N 
HETATM   18  H8  UNL     1       0.558   0.662   2.043  1.00  0.00     0.178 HD
BRANCH  17  19
HETATM   19  C4  UNL     1       2.821   0.425   1.588  1.00  0.00     0.167 C 
BRANCH  19  20
HETATM   20  C3  UNL     1       3.250  -0.537   0.577  1.00  0.00     0.017 C 
BRANCH  20  21
HETATM   21  C2  UNL     1       3.206  -1.342  -0.461  1.00  0.00     0.131 C 
BRANCH  21  22
HETATM   22  O1  UNL     1       3.988  -2.221  -1.200  1.00  0.00    -0.368 OA
HETATM   23  C1  UNL     1       5.361  -2.408  -0.962  1.00  0.00     0.208 C 
ENDBRANCH  21  22
ENDBRANCH  20  21
ENDBRANCH  19  20
ENDBRANCH  17  19
ENDBRANCH   1  17
TORSDOF 6
