REMARK  7 active torsions:
REMARK  status: ('A' for Active; 'I' for Inactive)
REMARK    1  A    between atoms: O1_1  and  C1_2 
REMARK    2  A    between atoms: C1_2  and  C2_3 
REMARK    3  A    between atoms: N1_6  and  C5_7 
REMARK    4  A    between atoms: C8_11  and  C9_12 
REMARK    5  A    between atoms: C9_12  and  N3_13 
REMARK    6  A    between atoms: C19_25  and  C20_26 
REMARK    7  A    between atoms: C20_26  and  O2_27 
ROOT
HETATM    1  C5  UNL     1       1.442  -0.149   1.379  1.00  0.00     0.728 A 
HETATM    2  N2  UNL     1       1.452  -0.227   2.737  1.00  0.00    -0.075 NA
HETATM    3  C6  UNL     1       0.339  -0.638   3.387  1.00  0.00     0.138 A 
HETATM    4  C7  UNL     1      -0.813  -0.984   2.712  1.00  0.00     0.049 A 
HETATM    5  C8  UNL     1      -0.822  -0.905   1.344  1.00  0.00     0.073 A 
HETATM    6  N5  UNL     1       0.323  -0.487   0.771  1.00  0.00    -0.066 NA
ENDROOT
BRANCH   1   7
HETATM    7  N1  UNL     1       2.581   0.272   0.615  1.00  0.00    -0.186 N 
HETATM    8  C4  UNL     1       2.476   0.319  -0.839  1.00  0.00     0.175 A 
HETATM    9  C3  UNL     1       3.734   0.764  -1.460  1.00  0.00     0.004 A 
HETATM   10  C2  UNL     1       4.859   1.094  -0.856  1.00  0.00    -0.027 A 
HETATM   11  C19 UNL     1       4.897   1.025   0.593  1.00  0.00    -0.011 A 
HETATM   12  C18 UNL     1       3.803   0.636   1.205  1.00  0.00     0.119 A 
BRANCH  10  13
HETATM   13  C1  UNL     1       6.017   1.518  -1.666  1.00  0.00     0.203 C 
BRANCH  13  14
HETATM   14  O1  UNL     1       7.116   0.689  -1.481  1.00  0.00    -0.396 OA
HETATM   15  H1  UNL     1       7.032  -0.126  -2.049  1.00  0.00     0.209 HD
ENDBRANCH  13  14
ENDBRANCH  10  13
BRANCH  11  16
HETATM   16  C20 UNL     1       6.089   1.380   1.371  1.00  0.00     0.205 C 
BRANCH  16  17
HETATM   17  O2  UNL     1       7.206   0.605   1.091  1.00  0.00    -0.396 OA
HETATM   18  H23 UNL     1       7.245  -0.189   1.685  1.00  0.00     0.209 HD
ENDBRANCH  16  17
ENDBRANCH  11  16
ENDBRANCH   1   7
BRANCH   5  19
HETATM   19  C9  UNL     1      -1.940  -1.228   0.424  1.00  0.00     0.187 C 
BRANCH  19  20
HETATM   20  N3  UNL     1      -2.844  -0.175   0.123  1.00  0.00    -0.359 N 
HETATM   21  C10 UNL     1      -3.694   0.473   1.040  1.00  0.00     0.090 C 
HETATM   22  C11 UNL     1      -4.892   0.662   1.450  1.00  0.00     0.014 C 
HETATM   23  C12 UNL     1      -6.102   0.084   0.931  1.00  0.00     0.002 C 
HETATM   24  C13 UNL     1      -6.126  -0.802  -0.108  1.00  0.00     0.003 C 
HETATM   25  C14 UNL     1      -6.325  -1.780  -1.233  1.00  0.00     0.051 C 
HETATM   26  C15 UNL     1      -5.794  -1.284  -2.526  1.00  0.00     0.089 C 
HETATM   27  N4  UNL     1      -4.787  -0.614  -2.965  1.00  0.00    -0.276 NA
HETATM   28  C16 UNL     1      -3.779  -0.115  -2.146  1.00  0.00     0.133 C 
HETATM   29  C17 UNL     1      -2.874   0.279  -1.258  1.00  0.00     0.110 C 
ENDBRANCH  19  20
ENDBRANCH   5  19
TORSDOF 7
