REMARK  1 active torsions:
REMARK  status: ('A' for Active; 'I' for Inactive)
REMARK    1  A    between atoms: O1_2  and  C2_3 
ROOT
HETATM    1  C2  UNL     1       2.753   1.621  -0.563  1.00  0.00     0.080 C 
HETATM    2  C3  UNL     1       2.745   0.363  -0.206  1.00  0.00     0.017 C 
HETATM    3  C4  UNL     1       2.556  -1.029   0.147  1.00  0.00     0.086 C 
HETATM    4  C5  UNL     1       1.217  -1.603  -0.235  1.00  0.00     0.030 C 
HETATM    5  N1  UNL     1       0.321  -1.102  -1.021  1.00  0.00    -0.264 NA
HETATM    6  C6  UNL     1      -0.061   0.238  -1.037  1.00  0.00     0.260 A 
HETATM    7  C7  UNL     1      -0.536   1.451  -1.140  1.00  0.00     0.049 A 
HETATM    8  C8  UNL     1      -1.880   1.997  -1.414  1.00  0.00     0.155 C 
HETATM    9  N2  UNL     1      -2.487   2.827  -0.466  1.00  0.00    -0.268 NA
HETATM   10  S1  UNL     1      -3.140   2.175   0.984  1.00  0.00    -0.076 SA
HETATM   11  C9  UNL     1      -2.730   0.450   1.227  1.00  0.00     0.209 A 
HETATM   12  C10 UNL     1      -2.201   1.235   2.198  1.00  0.00     0.667 A 
HETATM   13  N3  UNL     1      -1.660   0.015   2.085  1.00  0.00    -0.065 NA
HETATM   14  C11 UNL     1      -2.051  -0.864   1.198  1.00  0.00     0.161 A 
HETATM   15  C12 UNL     1      -0.916  -1.604   1.568  1.00  0.00     0.037 A 
HETATM   16  C13 UNL     1      -1.062  -2.608   0.651  1.00  0.00     0.009 A 
HETATM   17  C14 UNL     1      -1.944  -2.935  -0.335  1.00  0.00     0.052 A 
HETATM   18  C15 UNL     1      -3.073  -2.306  -0.778  1.00  0.00     0.014 A 
HETATM   19  C16 UNL     1      -2.732  -1.432   0.185  1.00  0.00     0.020 A 
HETATM   20  C17 UNL     1      -3.358  -0.209   0.222  1.00  0.00     0.087 A 
HETATM   21  N4  UNL     1      -0.054  -3.623   0.398  1.00  0.00    -0.388 N 
HETATM   22  C18 UNL     1       1.187  -2.925   0.485  1.00  0.00     0.174 C 
HETATM   23  N5  UNL     1       0.848   1.457  -0.877  1.00  0.00    -0.328 N 
HETATM   24  C19 UNL     1       1.633   2.422  -1.023  1.00  0.00     0.130 C 
HETATM   25  H10 UNL     1      -3.193   3.457  -0.904  1.00  0.00     0.134 HD
HETATM   26  H16 UNL     1      -0.065  -4.626   0.198  1.00  0.00     0.159 HD
ENDROOT
BRANCH   1  27
HETATM   27  O1  UNL     1       3.556   2.734  -0.703  1.00  0.00    -0.355 OA
HETATM   28  C1  UNL     1       4.450   3.225   0.270  1.00  0.00     0.210 C 
ENDBRANCH   1  27
TORSDOF 1
