REMARK  5 active torsions:
REMARK  status: ('A' for Active; 'I' for Inactive)
REMARK    1  A    between atoms: C3_4  and  N2_5 
REMARK    2  A    between atoms: N2_5  and  C4_6 
REMARK    3  A    between atoms: C6_8  and  O1_9 
REMARK    4  A    between atoms: C8_11  and  O2_12 
REMARK    5  A    between atoms: C10_14  and  O3_15 
ROOT
HETATM    1  C1  UNL     1       2.078   0.216   2.038  1.00  0.00     0.044 C 
HETATM    2  C2  UNL     1       1.943   0.361   0.732  1.00  0.00     0.084 A 
HETATM    3  N1  UNL     1       0.709   0.878   0.243  1.00  0.00    -0.065 NA
HETATM    4  C3  UNL     1       0.597   1.008  -1.058  1.00  0.00     0.727 A 
HETATM    5  N3  UNL     1       1.600   0.682  -2.027  1.00  0.00    -0.076 NA
HETATM    6  C13 UNL     1       2.721   0.212  -1.536  1.00  0.00     0.153 A 
HETATM    7  C14 UNL     1       3.078  -0.022  -0.108  1.00  0.00     0.151 A 
HETATM    8  C15 UNL     1       4.351   0.605   0.275  1.00  0.00     0.032 A 
HETATM    9  C16 UNL     1       5.277  -0.297   0.564  1.00  0.00    -0.008 A 
HETATM   10  C17 UNL     1       6.597  -0.331   0.967  1.00  0.00     0.013 A 
HETATM   11  C18 UNL     1       7.266  -1.536   1.181  1.00  0.00     0.001 A 
HETATM   12  C19 UNL     1       6.619  -2.746   0.994  1.00  0.00     0.002 A 
HETATM   13  C20 UNL     1       5.294  -2.705   0.590  1.00  0.00     0.032 A 
HETATM   14  C21 UNL     1       4.635  -1.505   0.379  1.00  0.00     0.063 A 
HETATM   15  N4  UNL     1       3.402  -1.441   0.002  1.00  0.00    -0.262 NA
ENDROOT
BRANCH   4  16
HETATM   16  N2  UNL     1      -0.649   1.526  -1.502  1.00  0.00    -0.188 N 
HETATM   17  H3  UNL     1      -0.653   2.240  -2.291  1.00  0.00     0.184 HD
BRANCH  16  18
HETATM   18  C4  UNL     1      -1.904   1.157  -0.972  1.00  0.00     0.054 A 
HETATM   19  C5  UNL     1      -3.083   1.767  -1.410  1.00  0.00     0.069 A 
HETATM   20  C6  UNL     1      -4.331   1.438  -0.927  1.00  0.00     0.106 A 
HETATM   21  C8  UNL     1      -4.468   0.465   0.035  1.00  0.00     0.135 A 
HETATM   22  C10 UNL     1      -3.340  -0.172   0.506  1.00  0.00     0.106 A 
HETATM   23  C12 UNL     1      -2.122   0.198  -0.014  1.00  0.00     0.069 A 
BRANCH  20  24
HETATM   24  O1  UNL     1      -5.454   2.074  -1.397  1.00  0.00    -0.353 OA
HETATM   25  C7  UNL     1      -5.413   3.084  -2.382  1.00  0.00     0.210 C 
ENDBRANCH  20  24
BRANCH  21  26
HETATM   26  O2  UNL     1      -5.735   0.152   0.505  1.00  0.00    -0.351 OA
HETATM   27  C9  UNL     1      -6.491  -0.864  -0.143  1.00  0.00     0.210 C 
ENDBRANCH  21  26
BRANCH  22  28
HETATM   28  O3  UNL     1      -3.470  -1.150   1.471  1.00  0.00    -0.353 OA
HETATM   29  C11 UNL     1      -2.308  -1.812   1.961  1.00  0.00     0.210 C 
ENDBRANCH  22  28
ENDBRANCH  16  18
ENDBRANCH   4  16
TORSDOF 5
