REMARK  3 active torsions:
REMARK  status: ('A' for Active; 'I' for Inactive)
REMARK    1  A    between atoms: O1_2  and  C2_3 
REMARK    2  A    between atoms: C2_3  and  C3_4 
REMARK    3  A    between atoms: C15_17  and  O2_18 
ROOT
HETATM    1  C3  UNL     1      -1.418  -0.864   0.375  1.00  0.00     0.136 C 
HETATM    2  C4  UNL     1      -2.826  -0.389   0.287  1.00  0.00     0.013 C 
HETATM    3  C5  UNL     1      -3.347   0.065   1.410  1.00  0.00    -0.028 C 
HETATM    4  C6  UNL     1      -2.474   0.281   2.380  1.00  0.00     0.012 C 
HETATM    5  C7  UNL     1      -2.029   1.385   1.585  1.00  0.00     0.001 C 
HETATM    6  C8  UNL     1      -1.928   2.580   0.998  1.00  0.00    -0.000 C 
HETATM    7  C9  UNL     1      -1.907   3.910   0.413  1.00  0.00    -0.004 C 
HETATM    8  C10 UNL     1      -0.954   4.183  -0.455  1.00  0.00    -0.021 C 
HETATM    9  C11 UNL     1       0.265   3.776  -1.255  1.00  0.00     0.086 C 
HETATM   10  C12 UNL     1       0.383   2.285  -0.981  1.00  0.00     0.033 C 
HETATM   11  N1  UNL     1       1.312   1.890  -0.289  1.00  0.00    -0.290 NA
HETATM   12  C13 UNL     1       2.419   2.339   0.407  1.00  0.00     0.179 C 
HETATM   13  C14 UNL     1       3.252   1.123   0.809  1.00  0.00     0.028 C 
HETATM   14  C15 UNL     1       2.798  -0.160   0.623  1.00  0.00     0.054 C 
HETATM   15  C17 UNL     1       1.774  -1.181   0.199  1.00  0.00     0.110 A 
HETATM   16  C18 UNL     1       0.511  -1.368  -0.313  1.00  0.00     0.047 A 
HETATM   17  O3  UNL     1       1.053  -2.584  -0.116  1.00  0.00     0.000 OA
HETATM   18  C19 UNL     1       1.272  -3.422  -1.267  1.00  0.00     0.000 C 
HETATM   19  N2  UNL     1      -0.563  -0.566  -0.720  1.00  0.00    -0.347 N 
HETATM   20  C20 UNL     1      -1.234   0.330  -1.522  1.00  0.00     0.094 C 
HETATM   21  C21 UNL     1      -0.750   1.568  -1.571  1.00  0.00     0.044 C 
ENDROOT
BRANCH   1  22
HETATM   22  C2  UNL     1      -1.729  -2.364   0.295  1.00  0.00     0.196 C 
BRANCH  22  23
HETATM   23  O1  UNL     1      -2.342  -2.671  -0.899  1.00  0.00    -0.394 OA
HETATM   24  C1  UNL     1      -2.676  -3.997  -1.018  1.00  0.00     0.201 C 
ENDBRANCH  22  23
ENDBRANCH   1  22
BRANCH  14  25
HETATM   25  O2  UNL     1       3.512  -1.325   0.954  1.00  0.00    -0.360 OA
HETATM   26  C16 UNL     1       4.933  -1.328   0.937  1.00  0.00     0.209 C 
ENDBRANCH  14  25
TORSDOF 3
