REMARK  1 active torsions:
REMARK  status: ('A' for Active; 'I' for Inactive)
REMARK    1  A    between atoms: O1_2  and  C2_3 
ROOT
HETATM    1  C2  UNL     1      -0.006   1.435  -0.734  1.00  0.00     0.129 C 
HETATM    2  C3  UNL     1       1.268   1.504  -1.016  1.00  0.00     0.061 C 
HETATM    3  C4  UNL     1       2.604   1.306  -0.515  1.00  0.00    -0.001 C 
HETATM    4  C5  UNL     1       3.599   1.011   0.290  1.00  0.00     0.085 C 
HETATM    5  N1  UNL     1       4.153   0.581   1.516  1.00  0.00    -0.361 N 
HETATM    6  C6  UNL     1       4.427  -0.787   1.664  1.00  0.00     0.206 C 
HETATM    7  N2  UNL     1       4.101  -1.936   1.223  1.00  0.00    -0.255 NA
HETATM    8  C7  UNL     1       3.114  -1.976   0.214  1.00  0.00     0.135 C 
HETATM    9  C8  UNL     1       1.959  -2.418  -0.214  1.00  0.00     0.109 C 
HETATM   10  N3  UNL     1       0.755  -2.814  -0.784  1.00  0.00    -0.351 N 
HETATM   11  C9  UNL     1      -0.420  -2.022  -0.470  1.00  0.00     0.099 C 
HETATM   12  C10 UNL     1      -0.583  -1.479   0.733  1.00  0.00     0.027 C 
HETATM   13  C11 UNL     1      -1.516  -0.663   1.480  1.00  0.00     0.025 C 
HETATM   14  C12 UNL     1      -1.429  -0.755   2.970  1.00  0.00     0.036 C 
HETATM   15  C13 UNL     1      -2.268   0.469   3.321  1.00  0.00    -0.029 C 
HETATM   16  C14 UNL     1      -2.079   1.399   2.348  1.00  0.00    -0.023 C 
HETATM   17  C15 UNL     1      -1.143   0.858   1.347  1.00  0.00     0.048 C 
HETATM   18  C16 UNL     1      -1.368   1.241  -0.073  1.00  0.00     0.170 C 
HETATM   19  O2  UNL     1      -1.963   0.215  -0.748  1.00  0.00    -0.358 OA
HETATM   20  C17 UNL     1      -2.946   0.477  -1.653  1.00  0.00     0.340 C 
HETATM   21  O3  UNL     1      -3.383  -0.776  -2.102  1.00  0.00    -0.348 OA
HETATM   22  C18 UNL     1      -2.333  -1.519  -2.608  1.00  0.00     0.294 C 
HETATM   23  N4  UNL     1      -1.387  -1.853  -1.529  1.00  0.00    -0.355 N 
HETATM   24  H7  UNL     1       4.377   1.173   2.320  1.00  0.00     0.166 HD
HETATM   25  H11 UNL     1       0.702  -3.630  -1.397  1.00  0.00     0.166 HD
HETATM   26  H24 UNL     1      -1.576  -2.895  -1.368  1.00  0.00     0.163 HD
ENDROOT
BRANCH   1  27
HETATM   27  O1  UNL     1      -0.024   1.885  -2.058  1.00  0.00    -0.378 OA
HETATM   28  C1  UNL     1      -0.434   3.183  -2.437  1.00  0.00     0.202 C 
ENDBRANCH   1  27
TORSDOF 1
