REMARK  4 active torsions:
REMARK  status: ('A' for Active; 'I' for Inactive)
REMARK    1  A    between atoms: C5_5  and  C6_6 
REMARK       I    between atoms: C6_6  and  N1_8 
REMARK    2  A    between atoms: N1_8  and  C7_9 
REMARK    3  A    between atoms: N2_16  and  C14_17 
REMARK    4  A    between atoms: C14_17  and  C15_18 
ROOT
HETATM    1  C1  UNL     1       3.086  -2.734   0.687  1.00  0.00     0.032 C 
HETATM    2  C2  UNL     1       2.383  -1.576  -0.003  1.00  0.00     0.075 C 
HETATM    3  C3  UNL     1       1.010  -2.124  -0.414  1.00  0.00     0.025 C 
HETATM    4  C4  UNL     1       0.478  -1.111  -1.403  1.00  0.00     0.017 C 
HETATM    5  C5  UNL     1       0.398   0.245  -0.748  1.00  0.00     0.095 C 
HETATM    6  C13 UNL     1       0.953   0.263   0.647  1.00  0.00     0.131 C 
HETATM    7  N2  UNL     1       2.165  -0.451   0.809  1.00  0.00    -0.406 N 
ENDROOT
BRANCH   5   8
HETATM    8  C6  UNL     1      -0.980   0.729  -0.832  1.00  0.00     0.223 C 
HETATM    9  O1  UNL     1      -1.269   1.825  -1.419  1.00  0.00    -0.273 OA
HETATM   10  N1  UNL     1      -2.100   0.046  -0.284  1.00  0.00    -0.356 N 
HETATM   11  H10 UNL     1      -1.897  -0.858   0.204  1.00  0.00     0.162 HD
BRANCH  10  12
HETATM   12  C7  UNL     1      -3.462   0.540  -0.376  1.00  0.00     0.084 C 
HETATM   13  C8  UNL     1      -4.089   0.800   0.950  1.00  0.00     0.025 C 
HETATM   14  C9  UNL     1      -5.356   0.019   1.190  1.00  0.00     0.002 C 
HETATM   15  C10 UNL     1      -6.314   0.017   0.046  1.00  0.00     0.000 C 
HETATM   16  C11 UNL     1      -5.703   0.313  -1.290  1.00  0.00     0.002 C 
HETATM   17  C12 UNL     1      -4.318  -0.318  -1.280  1.00  0.00     0.025 C 
ENDBRANCH  10  12
ENDBRANCH   5   8
BRANCH   7  18
HETATM   18  C14 UNL     1       3.260   0.232   1.370  1.00  0.00     0.139 C 
BRANCH  18  19
HETATM   19  C15 UNL     1       3.866   1.326   0.549  1.00  0.00     0.104 C 
HETATM   20  C16 UNL     1       4.403   0.861  -0.792  1.00  0.00     0.128 C 
HETATM   21  N3  UNL     1       5.351   1.937  -1.059  1.00  0.00    -0.246 NA
HETATM   22  N4  UNL     1       5.711   2.465   0.173  1.00  0.00    -0.193 NA
HETATM   23  H29 UNL     1       4.906   2.699  -1.629  1.00  0.00     0.141 HD
HETATM   24  N5  UNL     1       5.142   1.700   1.180  1.00  0.00    -0.240 NA
HETATM   25  H30 UNL     1       6.772   2.393   0.218  1.00  0.00     0.160 HD
HETATM   26  H31 UNL     1       5.708   0.801   1.208  1.00  0.00     0.142 HD
ENDBRANCH  18  19
ENDBRANCH   7  18
TORSDOF 4
