REMARK  6 active torsions:
REMARK  status: ('A' for Active; 'I' for Inactive)
REMARK    1  A    between atoms: N1_2  and  C2_3 
REMARK    2  A    between atoms: C4_5  and  N2_6 
REMARK    3  A    between atoms: C5_7  and  C6_8 
REMARK    4  A    between atoms: C7_9  and  N3_10 
REMARK    5  A    between atoms: C7_9  and  N4_11 
REMARK    6  A    between atoms: N4_11  and  C8_12 
ROOT
HETATM    1  C6  UNL     1       1.645   0.641  -0.978  1.00  0.00     0.067 C 
HETATM    2  C7  UNL     1       2.509   1.018  -1.912  1.00  0.00     0.100 C 
ENDROOT
BRANCH   1   3
HETATM    3  C5  UNL     1       0.209   0.609  -1.251  1.00  0.00     0.118 C 
HETATM    4  N2  UNL     1      -0.663   0.248  -0.370  1.00  0.00    -0.256 NA
BRANCH   4   5
HETATM    5  C4  UNL     1      -2.061   0.232  -0.679  1.00  0.00     0.219 A 
HETATM    6  C3  UNL     1      -2.946   0.836   0.374  1.00  0.00     0.066 A 
HETATM    7  C2  UNL     1      -3.648  -0.258   0.624  1.00  0.00     0.052 A 
HETATM    8  C21 UNL     1      -2.848  -0.952  -0.376  1.00  0.00     0.281 A 
HETATM    9  N6  UNL     1      -3.394  -1.458  -1.623  1.00  0.00     0.114 N 
HETATM   10  C20 UNL     1      -2.806  -2.311  -0.678  1.00  0.00     0.328 A 
HETATM   11  C19 UNL     1      -4.722  -0.992  -1.694  1.00  0.00     0.276 C 
HETATM   12  C18 UNL     1      -4.691   0.315  -2.458  1.00  0.00     0.056 C 
HETATM   13  C17 UNL     1      -3.618   1.262  -2.047  1.00  0.00     0.173 C 
HETATM   14  O1  UNL     1      -2.346   0.723  -1.952  1.00  0.00    -0.353 OA
BRANCH   7  15
HETATM   15  N1  UNL     1      -4.733  -0.564   1.524  1.00  0.00    -0.395 N 
HETATM   16  C1  UNL     1      -5.539   0.522   2.051  1.00  0.00     0.146 C 
HETATM   17  H4  UNL     1      -4.889  -1.556   1.757  1.00  0.00     0.159 HD
ENDBRANCH   7  15
ENDBRANCH   4   5
ENDBRANCH   1   3
BRANCH   2  18
HETATM   18  N3  UNL     1       2.045   1.394  -3.183  1.00  0.00    -0.385 N 
HETATM   19  H8  UNL     1       1.827   2.352  -3.589  1.00  0.00     0.157 HD
HETATM   20  H9  UNL     1       1.735   1.138  -4.154  1.00  0.00     0.157 HD
ENDBRANCH   2  18
BRANCH   2  21
HETATM   21  N4  UNL     1       3.893   1.026  -1.581  1.00  0.00    -0.342 N 
HETATM   22  H10 UNL     1       4.522   1.615  -2.177  1.00  0.00     0.167 HD
BRANCH  21  23
HETATM   23  C8  UNL     1       4.395   0.267  -0.488  1.00  0.00     0.052 A 
HETATM   24  C9  UNL     1       4.845  -1.035  -0.568  1.00  0.00     0.146 A 
HETATM   25  N5  UNL     1       5.298  -1.650   0.541  1.00  0.00    -0.258 NA
HETATM   26  C10 UNL     1       5.334  -1.045   1.746  1.00  0.00     0.066 A 
HETATM   27  C11 UNL     1       5.798  -1.671   2.885  1.00  0.00     0.032 A 
HETATM   28  C15 UNL     1       4.892   0.271   1.887  1.00  0.00    -0.005 A 
HETATM   29  C12 UNL     1       5.833  -1.046   4.120  1.00  0.00     0.002 A 
HETATM   30  C13 UNL     1       5.375   0.270   4.185  1.00  0.00     0.001 A 
HETATM   31  C14 UNL     1       4.898   0.961   3.092  1.00  0.00     0.014 A 
HETATM   32  C16 UNL     1       4.429   0.892   0.741  1.00  0.00     0.044 A 
ENDBRANCH  21  23
ENDBRANCH   2  21
TORSDOF 6
