REMARK  5 active torsions:
REMARK  status: ('A' for Active; 'I' for Inactive)
REMARK    1  A    between atoms: N1_2  and  N2_3 
REMARK    2  A    between atoms: C7_10  and  C8_11 
REMARK    3  A    between atoms: C8_11  and  N4_12 
REMARK    4  A    between atoms: C10_14  and  C11_15 
REMARK       I    between atoms: C11_15  and  N5_17 
REMARK    5  A    between atoms: N5_17  and  C12_18 
ROOT
HETATM    1  N4  UNL     1       0.138  -0.391  -0.174  1.00  0.00     0.097 N 
HETATM    2  C9  UNL     1      -0.985   0.421   0.294  1.00  0.00     0.287 C 
HETATM    3  C10 UNL     1      -1.634  -0.089   1.529  1.00  0.00     0.106 C 
HETATM    4  C18 UNL     1      -1.743  -1.573   1.627  1.00  0.00     0.018 C 
HETATM    5  C19 UNL     1      -0.493  -2.299   1.195  1.00  0.00     0.036 C 
HETATM    6  C20 UNL     1       0.550  -1.209   0.901  1.00  0.00     0.219 C 
HETATM    7  C21 UNL     1       1.926  -1.780   0.849  1.00  0.00     0.043 C 
ENDROOT
BRANCH   1   8
HETATM    8  C8  UNL     1       1.062   0.509  -0.751  1.00  0.00     0.300 C 
BRANCH   8   9
HETATM    9  C7  UNL     1       2.285  -0.022  -1.345  1.00  0.00     0.006 C 
HETATM   10  C6  UNL     1       3.506   0.296  -0.973  1.00  0.00    -0.073 C 
HETATM   11  C5  UNL     1       3.834   1.277   0.149  1.00  0.00     0.074 C 
HETATM   12  C22 UNL     1       4.840  -0.140  -1.476  1.00  0.00     0.034 C 
HETATM   13  C4  UNL     1       5.273   0.797   0.389  1.00  0.00     0.099 A 
HETATM   14  N2  UNL     1       6.579   1.337   0.135  1.00  0.00    -0.269 N 
HETATM   15  C3  UNL     1       5.388  -0.445   0.915  1.00  0.00     0.005 A 
HETATM   16  C2  UNL     1       5.824  -0.630  -0.497  1.00  0.00     0.119 A 
HETATM   17  N3  UNL     1       7.099   0.127  -0.447  1.00  0.00    -0.218 NA
HETATM   18  H3  UNL     1       7.378   0.300  -1.434  1.00  0.00     0.148 HD
HETATM   19  C23 UNL     1       4.622  -1.227  -2.511  1.00  0.00     0.017 C 
BRANCH  14  20
HETATM   20  N1  UNL     1       6.834   2.693   0.497  1.00  0.00    -0.247 NA
HETATM   21  C1  UNL     1       8.082   2.985   0.640  1.00  0.00     0.306 C 
ENDBRANCH  14  20
ENDBRANCH   8   9
ENDBRANCH   1   8
BRANCH   3  22
HETATM   22  C11 UNL     1      -3.053   0.423   1.505  1.00  0.00     0.223 C 
HETATM   23  O1  UNL     1      -3.684   1.174   2.323  1.00  0.00    -0.273 OA
HETATM   24  N5  UNL     1      -3.860   0.021   0.390  1.00  0.00    -0.356 N 
HETATM   25  H14 UNL     1      -3.436  -0.600  -0.344  1.00  0.00     0.162 HD
BRANCH  24  26
HETATM   26  C12 UNL     1      -5.227   0.372   0.139  1.00  0.00     0.084 C 
HETATM   27  C13 UNL     1      -5.376   1.195  -1.120  1.00  0.00     0.025 C 
HETATM   28  C14 UNL     1      -6.811   1.078  -1.576  1.00  0.00     0.002 C 
HETATM   29  C15 UNL     1      -7.748   1.019  -0.365  1.00  0.00     0.000 C 
HETATM   30  C16 UNL     1      -7.566  -0.360   0.259  1.00  0.00     0.002 C 
HETATM   31  C17 UNL     1      -6.146  -0.808   0.066  1.00  0.00     0.025 C 
ENDBRANCH  24  26
ENDBRANCH   3  22
TORSDOF 5
