REMARK  2 active torsions:
REMARK  status: ('A' for Active; 'I' for Inactive)
REMARK    1  A    between atoms: C2_2  and  C3_3 
REMARK    2  A    between atoms: C5_5  and  C6_6 
ROOT
HETATM    1  C6  UNL     1       1.793   0.123   1.466  1.00  0.00     0.052 C 
HETATM    2  C7  UNL     1       0.812   0.495   2.479  1.00  0.00     0.200 C 
HETATM    3  N1  UNL     1      -0.338   1.136   1.875  1.00  0.00    -0.308 N 
HETATM    4  N2  UNL     1      -1.410   0.866   1.046  1.00  0.00    -0.191 NA
HETATM    5  C8  UNL     1      -1.634   1.502  -0.031  1.00  0.00     0.150 C 
HETATM    6  C9  UNL     1      -2.821   1.130  -0.851  1.00  0.00    -0.011 A 
HETATM    7  C10 UNL     1      -3.642   2.182  -1.158  1.00  0.00     0.013 A 
HETATM    8  C11 UNL     1      -4.779   1.998  -1.922  1.00  0.00     0.001 A 
HETATM    9  C12 UNL     1      -5.089   0.731  -2.381  1.00  0.00     0.001 A 
HETATM   10  C13 UNL     1      -4.255  -0.319  -2.065  1.00  0.00     0.008 A 
HETATM   11  C14 UNL     1      -3.119  -0.179  -1.310  1.00  0.00    -0.046 A 
HETATM   12  C15 UNL     1      -2.087  -1.084  -0.819  1.00  0.00     0.040 C 
HETATM   13  C16 UNL     1      -1.852  -2.318  -1.676  1.00  0.00     0.011 C 
HETATM   14  C17 UNL     1      -0.729  -3.144  -1.010  1.00  0.00     0.062 C 
HETATM   15  C18 UNL     1       0.464  -2.224  -0.857  1.00  0.00     0.069 A 
HETATM   16  C19 UNL     1       0.486  -1.553   0.376  1.00  0.00     0.142 A 
HETATM   17  N3  UNL     1       1.531  -0.737   0.379  1.00  0.00    -0.250 N 
HETATM   18  N4  UNL     1       2.153  -0.876  -0.779  1.00  0.00     0.009 NA
HETATM   19  N5  UNL     1       1.527  -1.764  -1.532  1.00  0.00    -0.163 NA
HETATM   20  H9  UNL     1      -0.481   2.168   2.096  1.00  0.00     0.182 HD
ENDROOT
BRANCH   1  21
HETATM   21  C5  UNL     1       3.010   0.637   1.566  1.00  0.00     0.043 C 
HETATM   22  C3  UNL     1       4.292   0.634   0.914  1.00  0.00    -0.019 C 
HETATM   23  C4  UNL     1       5.572   0.149   1.405  1.00  0.00     0.057 C 
BRANCH  22  24
HETATM   24  C2  UNL     1       4.317   1.133  -0.293  1.00  0.00    -0.148 C 
HETATM   25  C1  UNL     1       4.369   1.852  -1.386  1.00  0.00     0.097 C 
ENDBRANCH  22  24
ENDBRANCH   1  21
TORSDOF 2
