REMARK  0 active torsions:
REMARK  status: ('A' for Active; 'I' for Inactive)
ROOT
HETATM    1  C1  UNL     1       3.058   1.907  -4.079  1.00  0.00     0.117 C 
HETATM    2  N1  UNL     1       2.123   1.171  -3.586  1.00  0.00    -0.242 NA
HETATM    3  C2  UNL     1       2.629   1.513  -2.291  1.00  0.00     0.083 C 
HETATM    4  C3  UNL     1       2.666   1.801  -0.994  1.00  0.00     0.017 C 
HETATM    5  C4  UNL     1       1.248   1.626  -1.031  1.00  0.00     0.044 C 
HETATM    6  C5  UNL     1       0.063   1.598  -0.512  1.00  0.00    -0.015 C 
HETATM    7  C6  UNL     1      -1.094   1.643   0.342  1.00  0.00     0.021 C 
HETATM    8  C7  UNL     1      -2.246   1.383  -0.229  1.00  0.00     0.006 C 
HETATM    9  C8  UNL     1      -2.626   1.045  -1.617  1.00  0.00     0.057 C 
HETATM   10  C9  UNL     1      -3.429   2.280  -2.081  1.00  0.00     0.007 C 
HETATM   11  C10 UNL     1      -4.629   2.319  -1.167  1.00  0.00     0.020 C 
HETATM   12  C11 UNL     1      -4.303   2.373   0.294  1.00  0.00     0.122 C 
HETATM   13  N2  UNL     1      -3.336   1.414   0.720  1.00  0.00    -0.384 N 
HETATM   14  C12 UNL     1      -3.086   0.461   1.785  1.00  0.00     0.125 C 
HETATM   15  C13 UNL     1      -3.300  -0.943   1.273  1.00  0.00     0.046 C 
HETATM   16  C14 UNL     1      -2.924  -1.948   2.310  1.00  0.00     0.170 C 
HETATM   17  O1  UNL     1      -1.618  -1.927   2.764  1.00  0.00    -0.381 OA
HETATM   18  C15 UNL     1      -0.540  -2.144   1.856  1.00  0.00     0.068 A 
HETATM   19  C16 UNL     1       0.422  -2.857   2.671  1.00  0.00     0.008 A 
HETATM   20  C17 UNL     1       1.562  -3.142   1.902  1.00  0.00     0.028 A 
HETATM   21  C18 UNL     1       1.835  -2.840   0.575  1.00  0.00     0.045 A 
HETATM   22  C19 UNL     1       0.705  -2.135   0.026  1.00  0.00     0.012 A 
HETATM   23  C20 UNL     1      -0.583  -1.681   0.483  1.00  0.00     0.136 A 
HETATM   24  N3  UNL     1       2.910  -3.055  -0.290  1.00  0.00    -0.188 N 
HETATM   25  C21 UNL     1       3.859  -1.994  -0.337  1.00  0.00     0.728 A 
HETATM   26  N4  UNL     1       4.700  -1.952   0.697  1.00  0.00    -0.075 NA
HETATM   27  C22 UNL     1       5.631  -0.976   0.729  1.00  0.00     0.140 A 
HETATM   28  C23 UNL     1       5.628  -0.089  -0.334  1.00  0.00     0.071 A 
HETATM   29  C24 UNL     1       4.757  -0.143  -1.392  1.00  0.00     0.148 A 
HETATM   30  N5  UNL     1       3.838  -1.128  -1.399  1.00  0.00    -0.045 NA
HETATM   31  N6  UNL     1       4.917   0.857  -2.377  1.00  0.00    -0.337 N 
HETATM   32  C25 UNL     1       3.826   1.408  -3.149  1.00  0.00     0.094 C 
HETATM   33  H23 UNL     1       2.493  -3.999  -0.548  1.00  0.00     0.184 HD
HETATM   34  H26 UNL     1       5.849   1.255  -2.599  1.00  0.00     0.167 HD
ENDROOT
TORSDOF 0
