REMARK  4 active torsions:
REMARK  status: ('A' for Active; 'I' for Inactive)
REMARK    1  A    between atoms: C4_4  and  C5_5 
REMARK    2  A    between atoms: C6_6  and  C7_7 
REMARK    3  A    between atoms: C7_7  and  N1_8 
REMARK    4  A    between atoms: C9_10  and  C10_11 
ROOT
HETATM    1  C1  UNL     1       4.668   3.128   0.146  1.00  0.00     0.017 C 
HETATM    2  C2  UNL     1       4.869   2.294  -0.700  1.00  0.00    -0.089 C 
HETATM    3  C3  UNL     1       5.115   1.323  -1.720  1.00  0.00     0.063 C 
HETATM    4  C4  UNL     1       4.554   0.138  -1.539  1.00  0.00     0.009 C 
ENDROOT
BRANCH   4   5
HETATM    5  C5  UNL     1       3.784   0.086  -0.303  1.00  0.00    -0.002 C 
HETATM    6  C6  UNL     1       3.116  -0.969   0.135  1.00  0.00    -0.006 C 
BRANCH   6   7
HETATM    7  C7  UNL     1       2.287  -1.233   1.335  1.00  0.00     0.173 C 
BRANCH   7   8
HETATM    8  N1  UNL     1       0.910  -1.600   0.980  1.00  0.00    -0.279 N 
HETATM    9  C8  UNL     1      -0.146  -0.763   0.814  1.00  0.00     0.143 A 
HETATM   10  C9  UNL     1      -1.239  -1.550   0.484  1.00  0.00     0.120 A 
HETATM   11  N4  UNL     1      -0.814  -2.837   0.460  1.00  0.00    -0.156 NA
HETATM   12  N5  UNL     1       0.495  -2.855   0.763  1.00  0.00     0.005 NA
BRANCH  10  13
HETATM   13  C10 UNL     1      -2.604  -1.106   0.209  1.00  0.00     0.090 A 
HETATM   14  C11 UNL     1      -3.627  -1.977  -0.113  1.00  0.00     0.036 A 
HETATM   15  C12 UNL     1      -4.747  -1.196  -0.299  1.00  0.00     0.030 A 
HETATM   16  C13 UNL     1      -4.345   0.093  -0.082  1.00  0.00     0.041 A 
HETATM   17  N2  UNL     1      -3.019   0.174   0.235  1.00  0.00    -0.236 N 
HETATM   18  C15 UNL     1      -4.949   1.474  -0.089  1.00  0.00     0.107 A 
HETATM   19  N3  UNL     1      -2.709   1.515   0.437  1.00  0.00    -0.183 NA
HETATM   20  C14 UNL     1      -3.733   2.283   0.272  1.00  0.00     0.118 A 
ENDBRANCH  10  13
ENDBRANCH   7   8
ENDBRANCH   6   7
ENDBRANCH   4   5
TORSDOF 4
