REMARK  1 active torsions:
REMARK  status: ('A' for Active; 'I' for Inactive)
REMARK    1  A    between atoms: C9_9  and  C10_10 
ROOT
HETATM    1  C1  UNL     1      -3.155   1.562   0.327  1.00  0.00     0.062 C 
HETATM    2  C2  UNL     1      -2.900   0.548   1.172  1.00  0.00     0.041 C 
HETATM    3  C3  UNL     1      -3.833  -0.646   1.090  1.00  0.00     0.096 C 
HETATM    4  C4  UNL     1      -3.044  -1.848   0.707  1.00  0.00    -0.033 A 
HETATM    5  C5  UNL     1      -1.778  -1.746   0.354  1.00  0.00     0.040 A 
HETATM    6  C6  UNL     1      -0.916  -2.811  -0.025  1.00  0.00     0.054 A 
HETATM    7  C7  UNL     1       0.318  -2.326  -0.308  1.00  0.00     0.017 C 
HETATM    8  C8  UNL     1       0.318  -0.875  -0.116  1.00  0.00     0.076 C 
HETATM    9  C9  UNL     1       0.936   0.258  -0.139  1.00  0.00     0.048 C 
HETATM   10  N1  UNL     1      -0.035   1.249   0.276  1.00  0.00    -0.263 N 
HETATM   11  N2  UNL     1      -0.702   1.525   1.460  1.00  0.00    -0.068 NA
HETATM   12  N3  UNL     1      -1.831   1.205   1.718  1.00  0.00    -0.141 NA
HETATM   13  N4  UNL     1      -1.920  -3.791   0.140  1.00  0.00    -0.261 NA
HETATM   14  C16 UNL     1      -3.017  -3.280   0.519  1.00  0.00     0.124 A 
HETATM   15  H13 UNL     1      -0.188   1.828  -0.599  1.00  0.00     0.190 HD
ENDROOT
BRANCH   9  16
HETATM   16  C10 UNL     1       2.261   0.866  -0.427  1.00  0.00    -0.011 A 
HETATM   17  C11 UNL     1       2.543   2.198  -0.346  1.00  0.00     0.013 A 
HETATM   18  C12 UNL     1       3.799   2.602  -0.635  1.00  0.00     0.001 A 
HETATM   19  C13 UNL     1       4.821   1.761  -1.007  1.00  0.00     0.000 A 
HETATM   20  C14 UNL     1       4.560   0.390  -1.098  1.00  0.00     0.001 A 
HETATM   21  C15 UNL     1       3.277  -0.021  -0.803  1.00  0.00     0.013 A 
ENDBRANCH   9  16
TORSDOF 1
