REMARK  4 active torsions:
REMARK  status: ('A' for Active; 'I' for Inactive)
REMARK    1  A    between atoms: C1_3  and  C2_4 
REMARK    2  A    between atoms: C6_8  and  C7_9 
REMARK    3  A    between atoms: N2_11  and  C9_12 
REMARK    4  A    between atoms: C9_12  and  C10_13 
ROOT
HETATM    1  C7  UNL     1       0.900  -0.724   0.210  1.00  0.00     0.108 A 
HETATM    2  C8  UNL     1      -0.206  -0.933  -0.545  1.00  0.00     0.148 A 
HETATM    3  N2  UNL     1      -1.149  -1.478   0.245  1.00  0.00    -0.256 N 
HETATM    4  N3  UNL     1      -0.669  -1.613   1.456  1.00  0.00    -0.066 NA
HETATM    5  N4  UNL     1       0.561  -1.160   1.435  1.00  0.00    -0.130 NA
ENDROOT
BRANCH   1   6
HETATM    6  C6  UNL     1       2.156  -0.149  -0.250  1.00  0.00    -0.003 A 
HETATM    7  C5  UNL     1       2.326   0.246  -1.556  1.00  0.00     0.014 A 
HETATM    8  C4  UNL     1       3.483   0.798  -2.068  1.00  0.00     0.002 A 
HETATM    9  C3  UNL     1       4.539   0.956  -1.183  1.00  0.00     0.013 A 
HETATM   10  C2  UNL     1       4.437   0.578   0.152  1.00  0.00    -0.015 A 
HETATM   11  C16 UNL     1       3.243   0.035   0.577  1.00  0.00     0.027 A 
BRANCH  10  12
HETATM   12  C1  UNL     1       5.556   0.752   1.067  1.00  0.00     0.163 C 
HETATM   13  N1  UNL     1       5.459   0.400   2.305  1.00  0.00    -0.099 NA
HETATM   14  F1  UNL     1       6.445   0.528   3.209  1.00  0.00    -0.075 F 
ENDBRANCH  10  12
ENDBRANCH   1   6
BRANCH   3  15
HETATM   15  C9  UNL     1      -2.480  -1.860  -0.157  1.00  0.00     0.190 C 
BRANCH  15  16
HETATM   16  C10 UNL     1      -3.420  -0.736   0.021  1.00  0.00    -0.038 A 
HETATM   17  C11 UNL     1      -3.661   0.185  -0.986  1.00  0.00     0.009 A 
HETATM   18  C12 UNL     1      -4.536   1.266  -0.874  1.00  0.00     0.001 A 
HETATM   19  C13 UNL     1      -5.197   1.409   0.329  1.00  0.00     0.000 A 
HETATM   20  C14 UNL     1      -4.971   0.502   1.344  1.00  0.00     0.001 A 
HETATM   21  C15 UNL     1      -4.102  -0.564   1.222  1.00  0.00     0.009 A 
ENDBRANCH  15  16
ENDBRANCH   3  15
TORSDOF 4
