REMARK  3 active torsions:
REMARK  status: ('A' for Active; 'I' for Inactive)
REMARK    1  A    between atoms: C5_7  and  C6_8 
REMARK    2  A    between atoms: C6_8  and  C7_9 
REMARK    3  A    between atoms: C7_9  and  C8_10 
ROOT
HETATM    1  C1  UNL     1       4.957   0.269   0.347  1.00  0.00    -0.020 C 
HETATM    2  C2  UNL     1       4.507  -0.513   1.392  1.00  0.00    -0.025 C 
HETATM    3  C3  UNL     1       3.098  -0.909   1.312  1.00  0.00     0.075 C 
HETATM    4  C4  UNL     1       2.132  -0.393   2.258  1.00  0.00     0.115 C 
HETATM    5  N1  UNL     1       0.939  -0.406   1.756  1.00  0.00    -0.195 NA
HETATM    6  N2  UNL     1       0.615  -0.848   0.491  1.00  0.00    -0.304 N 
HETATM    7  C5  UNL     1       0.103  -0.550  -0.876  1.00  0.00     0.156 C 
HETATM    8  C14 UNL     1       0.974   0.538  -1.435  1.00  0.00     0.093 A 
HETATM    9  C15 UNL     1       2.183  -0.001  -1.820  1.00  0.00     0.144 A 
HETATM   10  N3  UNL     1       2.642   1.209  -1.985  1.00  0.00    -0.262 N 
HETATM   11  N4  UNL     1       2.018   2.378  -1.816  1.00  0.00     0.008 NA
HETATM   12  N5  UNL     1       0.784   1.904  -1.410  1.00  0.00    -0.161 NA
HETATM   13  C16 UNL     1       4.052   1.534  -2.046  1.00  0.00     0.096 C 
HETATM   14  C17 UNL     1       4.750   1.021  -0.955  1.00  0.00     0.061 C 
HETATM   15  H6  UNL     1       0.873  -1.869   0.664  1.00  0.00     0.183 HD
ENDROOT
BRANCH   7  16
HETATM   16  C6  UNL     1      -1.292  -0.020  -0.690  1.00  0.00     0.038 C 
BRANCH  16  17
HETATM   17  C7  UNL     1      -2.163  -1.050  -0.004  1.00  0.00     0.041 C 
BRANCH  17  18
HETATM   18  C8  UNL     1      -3.554  -0.594   0.212  1.00  0.00    -0.058 A 
HETATM   19  C9  UNL     1      -4.555  -0.798  -0.715  1.00  0.00     0.007 A 
HETATM   20  C10 UNL     1      -5.846  -0.365  -0.494  1.00  0.00     0.001 A 
HETATM   21  C11 UNL     1      -6.169   0.292   0.675  1.00  0.00     0.000 A 
HETATM   22  C12 UNL     1      -5.133   0.480   1.587  1.00  0.00     0.001 A 
HETATM   23  C13 UNL     1      -3.829   0.065   1.411  1.00  0.00     0.007 A 
ENDBRANCH  17  18
ENDBRANCH  16  17
ENDBRANCH   7  16
TORSDOF 3
