REMARK  4 active torsions:
REMARK  status: ('A' for Active; 'I' for Inactive)
REMARK    1  A    between atoms: C1_2  and  C2_3 
REMARK    2  A    between atoms: C5_7  and  C6_8 
REMARK    3  A    between atoms: N3_10  and  C8_11 
REMARK    4  A    between atoms: C8_11  and  C9_12 
ROOT
HETATM    1  C6  UNL     1      -1.024  -0.571  -0.635  1.00  0.00     0.110 A 
HETATM    2  C7  UNL     1       0.062   0.165  -1.036  1.00  0.00     0.148 A 
HETATM    3  N3  UNL     1       1.093  -0.612  -1.382  1.00  0.00    -0.256 N 
HETATM    4  N4  UNL     1       0.664  -1.849  -1.201  1.00  0.00    -0.066 NA
HETATM    5  N5  UNL     1      -0.580  -1.844  -0.761  1.00  0.00    -0.130 NA
ENDROOT
BRANCH   1   6
HETATM    6  C5  UNL     1      -2.370  -0.306  -0.166  1.00  0.00     0.025 A 
HETATM    7  C4  UNL     1      -2.896   1.039  -0.013  1.00  0.00     0.061 A 
HETATM    8  C3  UNL     1      -4.280   0.859   0.480  1.00  0.00     0.044 A 
HETATM    9  N2  UNL     1      -2.527   2.230  -0.172  1.00  0.00    -0.299 NA
HETATM   10  C2  UNL     1      -4.509  -0.438   0.592  1.00  0.00    -0.016 A 
HETATM   11  C15 UNL     1      -3.314  -1.161   0.187  1.00  0.00     0.029 A 
HETATM   12  H4  UNL     1      -1.677   2.670  -0.483  1.00  0.00     0.187 HD
BRANCH  10  13
HETATM   13  C1  UNL     1      -5.744  -1.084   1.043  1.00  0.00     0.118 C 
HETATM   14  N1  UNL     1      -6.762  -0.392   1.386  1.00  0.00    -0.311 NA
HETATM   15  H1  UNL     1      -6.860   0.629   1.396  1.00  0.00     0.186 HD
ENDBRANCH  10  13
ENDBRANCH   1   6
BRANCH   3  16
HETATM   16  C8  UNL     1       2.388  -0.155  -1.850  1.00  0.00     0.190 C 
BRANCH  16  17
HETATM   17  C9  UNL     1       3.296   0.034  -0.706  1.00  0.00    -0.038 A 
HETATM   18  C10 UNL     1       4.103  -0.988  -0.240  1.00  0.00     0.009 A 
HETATM   19  C11 UNL     1       4.970  -0.850   0.833  1.00  0.00     0.001 A 
HETATM   20  C12 UNL     1       5.021   0.372   1.457  1.00  0.00     0.000 A 
HETATM   21  C13 UNL     1       4.229   1.422   1.021  1.00  0.00     0.001 A 
HETATM   22  C14 UNL     1       3.376   1.251  -0.051  1.00  0.00     0.009 A 
ENDBRANCH  16  17
ENDBRANCH   3  16
TORSDOF 4
