REMARK  0 active torsions:
REMARK  status: ('A' for Active; 'I' for Inactive)
ROOT
HETATM    1  C1  UNL     1      -1.898   0.673   2.965  1.00  0.00     0.152 C 
HETATM    2  N1  UNL     1      -1.827   0.497   1.531  1.00  0.00    -0.359 N 
HETATM    3  C2  UNL     1      -1.184   0.983   0.367  1.00  0.00     0.049 C 
HETATM    4  C3  UNL     1      -2.057   1.015  -0.663  1.00  0.00     0.114 C 
HETATM    5  N2  UNL     1      -3.234   0.395  -0.183  1.00  0.00    -0.373 N 
HETATM    6  C4  UNL     1      -2.643  -0.490   0.834  1.00  0.00     0.207 C 
HETATM    7  C5  UNL     1      -1.871  -1.594   0.270  1.00  0.00     0.019 C 
HETATM    8  C6  UNL     1      -1.310  -2.668  -0.183  1.00  0.00    -0.001 C 
HETATM    9  C7  UNL     1      -0.429  -3.629  -0.777  1.00  0.00    -0.004 C 
HETATM   10  C8  UNL     1       0.757  -3.459  -1.338  1.00  0.00    -0.019 C 
HETATM   11  C9  UNL     1       1.126  -2.012  -1.284  1.00  0.00     0.092 C 
HETATM   12  C10 UNL     1       2.275  -1.460  -1.760  1.00  0.00     0.070 C 
HETATM   13  N3  UNL     1       2.403  -0.070  -1.599  1.00  0.00    -0.397 N 
HETATM   14  C11 UNL     1       2.927   1.077  -1.049  1.00  0.00     0.096 C 
HETATM   15  C12 UNL     1       2.480   1.996  -0.272  1.00  0.00     0.008 A 
HETATM   16  C13 UNL     1       3.292   3.110   0.140  1.00  0.00     0.049 A 
HETATM   17  P1  UNL     1       2.152   4.193   1.219  1.00  0.00     0.061 P 
HETATM   18  N4  UNL     1       0.764   3.030   0.978  1.00  0.00    -0.356 N 
HETATM   19  C14 UNL     1       1.244   2.038   0.191  1.00  0.00     0.045 A 
HETATM   20  C15 UNL     1       0.139   1.410   0.180  1.00  0.00     0.061 C 
HETATM   21  H5  UNL     1      -4.240   0.521  -0.461  1.00  0.00     0.161 HD
HETATM   22  H13 UNL     1       1.750   0.459  -2.276  1.00  0.00     0.158 HD
HETATM   23  H16 UNL     1      -0.138   3.294   1.461  1.00  0.00     0.165 HD
ENDROOT
TORSDOF 0
