REMARK  4 active torsions:
REMARK  status: ('A' for Active; 'I' for Inactive)
REMARK    1  A    between atoms: N1_1  and  N2_2 
REMARK    2  A    between atoms: N2_2  and  C1_3 
REMARK    3  A    between atoms: N2_2  and  C8_15 
REMARK    4  A    between atoms: C8_15  and  C9_16 
ROOT
HETATM    1  C1  UNL     1      -0.202  -0.980  -0.095  1.00  0.00     0.114 C 
HETATM    2  C2  UNL     1       0.831  -0.253  -0.580  1.00  0.00    -0.005 C 
HETATM    3  C3  UNL     1       1.605   0.614  -1.443  1.00  0.00     0.021 C 
HETATM    4  C4  UNL     1       2.838   0.780  -1.094  1.00  0.00     0.257 A 
HETATM    5  C5  UNL     1       3.524   0.164   0.014  1.00  0.00     0.213 A 
HETATM    6  C6  UNL     1       4.781   0.630   0.193  1.00  0.00     0.211 A 
HETATM    7  N3  UNL     1       4.267   1.406  -0.907  1.00  0.00     0.045 N 
HETATM    8  N4  UNL     1       3.423   2.216   0.025  1.00  0.00    -0.047 NA
HETATM    9  S1  UNL     1       2.248   1.569   0.838  1.00  0.00     0.028 SA
HETATM   10  N5  UNL     1       0.921   1.606   1.966  1.00  0.00    -0.116 NA
HETATM   11  N6  UNL     1       0.534   0.442   1.787  1.00  0.00    -0.163 NA
HETATM   12  C7  UNL     1       1.483  -0.060   0.777  1.00  0.00     0.252 A 
HETATM   13  H8  UNL     1       4.642   1.163  -1.884  1.00  0.00     0.312 HD
ENDROOT
BRANCH   1  14
HETATM   14  N2  UNL     1      -0.618  -1.832   0.964  1.00  0.00    -0.321 N 
BRANCH  14  15
HETATM   15  N1  UNL     1       0.394  -2.753   1.334  1.00  0.00    -0.248 NA
HETATM   16  H1  UNL     1       0.221  -2.947   2.347  1.00  0.00     0.143 HD
HETATM   17  H2  UNL     1       0.275  -3.661   0.829  1.00  0.00     0.143 HD
ENDBRANCH  14  15
BRANCH  14  18
HETATM   18  C8  UNL     1      -1.947  -1.571   1.415  1.00  0.00     0.180 C 
BRANCH  18  19
HETATM   19  C9  UNL     1      -2.668  -0.496   0.724  1.00  0.00    -0.039 A 
HETATM   20  C10 UNL     1      -3.404  -0.864  -0.410  1.00  0.00     0.009 A 
HETATM   21  C11 UNL     1      -4.146   0.008  -1.184  1.00  0.00     0.001 A 
HETATM   22  C12 UNL     1      -4.176   1.339  -0.831  1.00  0.00     0.000 A 
HETATM   23  C13 UNL     1      -3.458   1.735   0.286  1.00  0.00     0.001 A 
HETATM   24  C14 UNL     1      -2.725   0.837   1.041  1.00  0.00     0.009 A 
ENDBRANCH  18  19
ENDBRANCH  14  18
ENDBRANCH   1  14
TORSDOF 4
