REMARK  2 active torsions:
REMARK  status: ('A' for Active; 'I' for Inactive)
REMARK    1  A    between atoms: C11_12  and  C12_13 
REMARK    2  A    between atoms: C12_13  and  C13_14 
ROOT
HETATM    1  C1  UNL     1      -1.834  -1.079   1.264  1.00  0.00     0.048 C 
HETATM    2  C2  UNL     1      -2.444  -0.120   0.339  1.00  0.00    -0.029 A 
HETATM    3  C3  UNL     1      -3.764  -0.098   0.185  1.00  0.00    -0.001 A 
HETATM    4  C4  UNL     1      -4.886  -0.834   0.734  1.00  0.00     0.129 A 
HETATM    5  N1  UNL     1      -5.976  -0.364   0.200  1.00  0.00    -0.271 NA
HETATM    6  C5  UNL     1      -5.642   0.684  -0.708  1.00  0.00     0.128 A 
HETATM    7  C6  UNL     1      -4.344   0.867  -0.741  1.00  0.00    -0.007 A 
HETATM    8  C7  UNL     1      -3.512   1.791  -1.488  1.00  0.00     0.013 A 
HETATM    9  C8  UNL     1      -2.208   1.697  -1.269  1.00  0.00     0.021 A 
HETATM   10  C9  UNL     1      -1.489   0.769  -0.363  1.00  0.00     0.130 A 
HETATM   11  C10 UNL     1      -0.259   0.196  -0.835  1.00  0.00     0.052 A 
HETATM   12  C11 UNL     1       0.431   0.882   0.044  1.00  0.00     0.049 A 
HETATM   13  O1  UNL     1      -0.710   1.467   0.543  1.00  0.00    -0.332 OA
ENDROOT
BRANCH  12  14
HETATM   14  C12 UNL     1       1.809   1.112   0.506  1.00  0.00     0.076 C 
BRANCH  14  15
HETATM   15  C13 UNL     1       2.803   0.303  -0.268  1.00  0.00     0.036 C 
HETATM   16  C14 UNL     1       2.578  -1.143  -0.170  1.00  0.00    -0.022 C 
HETATM   17  C15 UNL     1       3.588  -2.009  -0.154  1.00  0.00    -0.026 C 
HETATM   18  C16 UNL     1       5.032  -1.646  -0.230  1.00  0.00     0.053 C 
HETATM   19  C17 UNL     1       5.183  -0.180   0.085  1.00  0.00    -0.026 C 
HETATM   20  C18 UNL     1       4.174   0.708   0.069  1.00  0.00    -0.022 C 
ENDBRANCH  14  15
ENDBRANCH  12  14
TORSDOF 2
