REMARK  6 active torsions:
REMARK  status: ('A' for Active; 'I' for Inactive)
REMARK    1  A    between atoms: C2_2  and  C3_3 
REMARK    2  A    between atoms: C4_4  and  C5_5 
REMARK    3  A    between atoms: C6_6  and  C7_7 
REMARK    4  A    between atoms: C7_7  and  N1_8 
REMARK    5  A    between atoms: C9_10  and  C10_11 
REMARK    6  A    between atoms: P1_19  and  C15_20 
ROOT
HETATM    1  C10 UNL     1      -1.420   0.144  -0.819  1.00  0.00    -0.003 C 
HETATM    2  C11 UNL     1      -1.403   0.845   0.302  1.00  0.00     0.016 C 
HETATM    3  C12 UNL     1      -2.608   1.108   1.067  1.00  0.00     0.033 C 
HETATM    4  C13 UNL     1      -3.802   0.691   0.757  1.00  0.00     0.056 C 
HETATM    5  N2  UNL     1      -5.110   0.805   1.294  1.00  0.00    -0.260 N 
HETATM    6  N3  UNL     1      -6.293   0.679   0.626  1.00  0.00    -0.073 NA
HETATM    7  N4  UNL     1      -6.473   0.444  -0.561  1.00  0.00    -0.170 NA
HETATM    8  C14 UNL     1      -5.423   0.243  -1.532  1.00  0.00     0.214 C 
HETATM    9  P1  UNL     1      -3.973  -0.428  -0.669  1.00  0.00    -0.049 P 
HETATM   10  C17 UNL     1      -2.608  -0.398  -1.473  1.00  0.00     0.024 C 
HETATM   11  H13 UNL     1      -5.026   1.026   2.343  1.00  0.00     0.191 HD
ENDROOT
BRANCH   1  12
HETATM   12  C9  UNL     1      -0.120  -0.029  -1.453  1.00  0.00     0.108 A 
HETATM   13  C8  UNL     1       1.105   0.440  -1.036  1.00  0.00     0.148 A 
HETATM   14  N1  UNL     1       2.055   0.061  -1.908  1.00  0.00    -0.257 N 
HETATM   15  N6  UNL     1       1.426  -0.631  -2.847  1.00  0.00    -0.066 NA
HETATM   16  N5  UNL     1       0.140  -0.693  -2.593  1.00  0.00    -0.130 NA
BRANCH  14  17
HETATM   17  C7  UNL     1       3.501   0.294  -1.933  1.00  0.00     0.179 C 
BRANCH  17  18
HETATM   18  C6  UNL     1       4.141  -0.816  -1.209  1.00  0.00    -0.005 C 
HETATM   19  C5  UNL     1       4.906  -0.810  -0.133  1.00  0.00    -0.002 C 
BRANCH  19  20
HETATM   20  C4  UNL     1       5.245   0.434   0.542  1.00  0.00    -0.000 C 
HETATM   21  C3  UNL     1       6.022   0.459   1.637  1.00  0.00    -0.001 C 
BRANCH  21  22
HETATM   22  C2  UNL     1       6.373   1.693   2.328  1.00  0.00    -0.010 C 
HETATM   23  C1  UNL     1       7.141   1.690   3.405  1.00  0.00     0.011 C 
ENDBRANCH  21  22
ENDBRANCH  19  20
ENDBRANCH  17  18
ENDBRANCH  14  17
ENDBRANCH   1  12
BRANCH   9  24
HETATM   24  C15 UNL     1      -4.270  -2.130  -0.123  1.00  0.00     0.037 C 
HETATM   25  C16 UNL     1      -4.430  -2.176   1.381  1.00  0.00     0.010 C 
ENDBRANCH   9  24
TORSDOF 6
