REMARK  2 active torsions:
REMARK  status: ('A' for Active; 'I' for Inactive)
REMARK    1  A    between atoms: C2_3  and  C3_4 
REMARK    2  A    between atoms: C3_4  and  C4_5 
ROOT
HETATM    1  C4  UNL     1       1.623   0.394  -1.339  1.00  0.00     0.069 A 
HETATM    2  C5  UNL     1       0.505   1.095  -0.873  1.00  0.00     0.070 A 
HETATM    3  C6  UNL     1      -0.567   0.257  -1.177  1.00  0.00     0.121 A 
HETATM    4  C7  UNL     1      -1.921   0.628  -0.850  1.00  0.00     0.052 A 
HETATM    5  S1  UNL     1      -2.842  -0.493  -0.135  1.00  0.00    -0.034 SA
HETATM    6  N1  UNL     1      -2.923  -2.142   0.483  1.00  0.00    -0.234 NA
HETATM    7  C8  UNL     1      -4.150  -2.262   0.943  1.00  0.00     0.103 A 
HETATM    8  C9  UNL     1      -5.140  -1.173   0.889  1.00  0.00     0.094 A 
HETATM    9  C10 UNL     1      -4.531   0.002   0.261  1.00  0.00    -0.001 A 
HETATM   10  C11 UNL     1      -4.800   1.262  -0.099  1.00  0.00     0.016 A 
HETATM   11  C12 UNL     1      -3.826   2.162  -0.753  1.00  0.00     0.003 A 
HETATM   12  C13 UNL     1      -2.570   1.942  -1.101  1.00  0.00     0.023 A 
HETATM   13  O1  UNL     1      -0.124  -0.833  -1.765  1.00  0.00    -0.212 OA
HETATM   14  N2  UNL     1       1.183  -0.771  -1.871  1.00  0.00    -0.132 NA
ENDROOT
BRANCH   1  15
HETATM   15  C3  UNL     1       3.019   0.912  -1.229  1.00  0.00     0.099 C 
BRANCH  15  16
HETATM   16  C2  UNL     1       3.542   0.420   0.084  1.00  0.00    -0.059 C 
HETATM   17  C1  UNL     1       3.929   1.290   1.003  1.00  0.00    -0.105 C 
HETATM   18  B1  UNL     1       6.110   0.654   0.522  1.00  0.00     0.186 B 
HETATM   19  C16 UNL     1       5.910  -0.849   1.361  1.00  0.00    -0.025 C 
HETATM   20  C15 UNL     1       4.680  -1.570   0.929  1.00  0.00    -0.036 C 
HETATM   21  C14 UNL     1       3.625  -1.011   0.360  1.00  0.00     0.002 C 
ENDBRANCH  15  16
ENDBRANCH   1  15
TORSDOF 2
