REMARK  3 active torsions:
REMARK  status: ('A' for Active; 'I' for Inactive)
REMARK    1  A    between atoms: C1_2  and  O1_5 
REMARK    2  A    between atoms: O1_5  and  C2_6 
REMARK    3  A    between atoms: N1_14  and  C10_15 
ROOT
HETATM    1  C2  UNL     1       3.631   0.290   0.146  1.00  0.00     0.079 A 
HETATM    2  C3  UNL     1       4.016  -0.787  -0.668  1.00  0.00     0.040 A 
HETATM    3  C4  UNL     1       3.094  -1.215  -1.603  1.00  0.00     0.040 A 
HETATM    4  C5  UNL     1       1.845  -0.689  -1.809  1.00  0.00     0.083 A 
HETATM    5  C6  UNL     1       1.385   0.371  -1.056  1.00  0.00    -0.020 A 
HETATM    6  C7  UNL     1       2.339   0.800  -0.101  1.00  0.00     0.047 A 
HETATM    7  C8  UNL     1       0.261   1.349  -0.785  1.00  0.00     0.061 C 
HETATM    8  C9  UNL     1      -0.426   1.111   0.529  1.00  0.00     0.129 C 
HETATM    9  N1  UNL     1      -1.449   0.076   0.516  1.00  0.00    -0.362 N 
HETATM   10  C16 UNL     1      -0.821  -1.135   0.127  1.00  0.00     0.274 C 
HETATM   11  N2  UNL     1      -1.453  -2.389   0.159  1.00  0.00    -0.263 NA
HETATM   12  C17 UNL     1      -1.036  -3.250  -0.765  1.00  0.00     0.230 C 
HETATM   13  N3  UNL     1      -0.078  -2.450  -1.409  1.00  0.00    -0.230 NA
HETATM   14  C18 UNL     1       0.164  -2.297  -2.653  1.00  0.00     0.260 C 
HETATM   15  O2  UNL     1       1.203  -1.397  -2.846  1.00  0.00    -0.304 OA
ENDROOT
BRANCH   9  16
HETATM   16  C10 UNL     1      -2.803   0.315   0.835  1.00  0.00     0.031 A 
HETATM   17  C11 UNL     1      -3.777  -0.641   1.022  1.00  0.00     0.029 A 
HETATM   18  C12 UNL     1      -5.088  -0.400   1.321  1.00  0.00     0.002 A 
HETATM   19  C13 UNL     1      -5.519   0.903   1.455  1.00  0.00     0.000 A 
HETATM   20  C14 UNL     1      -4.576   1.906   1.276  1.00  0.00     0.002 A 
HETATM   21  C15 UNL     1      -3.262   1.607   0.975  1.00  0.00     0.029 A 
ENDBRANCH   9  16
BRANCH   1  22
HETATM   22  O1  UNL     1       4.569   0.700   1.074  1.00  0.00    -0.255 OA
BRANCH  22  23
HETATM   23  C1  UNL     1       5.537   1.672   0.822  1.00  0.00     0.530 C 
HETATM   24  F1  UNL     1       6.327   1.853   1.965  1.00  0.00    -0.144 F 
HETATM   25  F2  UNL     1       4.961   2.902   0.569  1.00  0.00    -0.144 F 
HETATM   26  F3  UNL     1       6.322   1.285  -0.245  1.00  0.00    -0.144 F 
ENDBRANCH  22  23
ENDBRANCH   1  22
TORSDOF 3
