REMARK  2 active torsions:
REMARK  status: ('A' for Active; 'I' for Inactive)
REMARK    1  A    between atoms: C2_2  and  C3_3 
REMARK    2  A    between atoms: C4_4  and  C5_5 
ROOT
HETATM    1  C5  UNL     1       0.556  -0.724   0.096  1.00  0.00     0.076 C 
HETATM    2  C6  UNL     1       0.130   0.612   0.080  1.00  0.00     0.009 A 
HETATM    3  C7  UNL     1       0.271   1.725   0.933  1.00  0.00     0.051 A 
HETATM    4  C8  UNL     1       0.098   3.049   1.247  1.00  0.00    -0.008 A 
HETATM    5  C9  UNL     1      -0.595   3.582   0.138  1.00  0.00    -0.004 A 
HETATM    6  C10 UNL     1      -0.994   2.828  -1.008  1.00  0.00     0.007 A 
HETATM    7  C11 UNL     1      -0.457   1.732  -0.507  1.00  0.00     0.091 A 
HETATM    8  N1  UNL     1      -1.418   0.672  -1.039  1.00  0.00    -0.275 N 
HETATM    9  C12 UNL     1      -1.997  -0.076   0.275  1.00  0.00     0.113 C 
HETATM   10  C13 UNL     1      -1.935  -1.309   1.108  1.00  0.00     0.099 A 
HETATM   11  C14 UNL     1      -2.517  -2.605   0.205  1.00  0.00     0.132 C 
HETATM   12  C15 UNL     1      -2.392  -1.831  -0.978  1.00  0.00    -0.084 C 
HETATM   13  C16 UNL     1      -2.295  -1.260  -1.812  1.00  0.00     0.021 C 
HETATM   14  N2  UNL     1      -2.148  -0.432  -2.967  1.00  0.00    -0.033 NA
HETATM   15  N3  UNL     1      -1.502   0.771  -2.477  1.00  0.00    -0.014 NA
HETATM   16  N4  UNL     1      -1.363  -0.916   2.362  1.00  0.00    -0.297 N 
HETATM   17  N5  UNL     1      -0.239  -0.260   2.558  1.00  0.00    -0.194 NA
HETATM   18  C17 UNL     1       0.467   0.742   2.084  1.00  0.00     0.128 C 
HETATM   19  H12 UNL     1      -2.249  -1.430   2.370  1.00  0.00     0.219 HD
ENDROOT
BRANCH   1  20
HETATM   20  C4  UNL     1       1.481  -1.237  -0.753  1.00  0.00    -0.046 C 
HETATM   21  C3  UNL     1       2.795  -1.578  -0.878  1.00  0.00     0.007 C 
BRANCH  21  22
HETATM   22  C2  UNL     1       3.391  -1.253  -2.146  1.00  0.00    -0.010 C 
HETATM   23  C1  UNL     1       4.649  -1.520  -2.399  1.00  0.00     0.011 C 
ENDBRANCH  21  22
ENDBRANCH   1  20
TORSDOF 2
