REMARK  4 active torsions:
REMARK  status: ('A' for Active; 'I' for Inactive)
REMARK    1  A    between atoms: C5_7  and  N3_8 
REMARK    2  A    between atoms: C7_10  and  C8_11 
REMARK    3  A    between atoms: C8_11  and  C9_12 
REMARK    4  A    between atoms: C9_12  and  C10_13 
ROOT
HETATM    1  N3  UNL     1       2.012   0.408  -0.879  1.00  0.00    -0.251 N 
HETATM    2  C6  UNL     1       0.859  -0.176  -0.460  1.00  0.00     0.142 A 
HETATM    3  C7  UNL     1      -0.197   0.177  -1.297  1.00  0.00     0.070 A 
HETATM    4  N4  UNL     1       0.387   0.982  -2.211  1.00  0.00    -0.163 NA
HETATM    5  N5  UNL     1       1.678   1.106  -1.951  1.00  0.00     0.009 NA
ENDROOT
BRANCH   1   6
HETATM    6  C5  UNL     1       3.295   0.276  -0.270  1.00  0.00     0.037 A 
HETATM    7  C4  UNL     1       4.430   1.003  -0.892  1.00  0.00     0.122 A 
HETATM    8  C3  UNL     1       5.667   0.746  -0.125  1.00  0.00     0.088 A 
HETATM    9  C2  UNL     1       5.787  -0.101   1.079  1.00  0.00     0.076 A 
HETATM   10  N2  UNL     1       6.933   0.985  -0.033  1.00  0.00    -0.176 NA
HETATM   11  C1  UNL     1       4.662  -0.657   1.470  1.00  0.00     0.035 A 
HETATM   12  N1  UNL     1       7.190   0.208   1.123  1.00  0.00    -0.276 N 
HETATM   13  C16 UNL     1       3.394  -0.485   0.810  1.00  0.00     0.029 A 
HETATM   14  H2  UNL     1       7.880  -0.136   1.826  1.00  0.00     0.189 HD
ENDBRANCH   1   6
BRANCH   3  15
HETATM   15  C8  UNL     1      -1.613  -0.262  -1.166  1.00  0.00     0.067 C 
BRANCH  15  16
HETATM   16  C9  UNL     1      -2.417   0.673  -0.316  1.00  0.00     0.044 C 
BRANCH  16  17
HETATM   17  C10 UNL     1      -3.805   0.112  -0.273  1.00  0.00    -0.058 A 
HETATM   18  C11 UNL     1      -4.747   0.485  -1.226  1.00  0.00     0.007 A 
HETATM   19  C12 UNL     1      -6.043   0.002  -1.239  1.00  0.00     0.001 A 
HETATM   20  C13 UNL     1      -6.348  -0.883  -0.237  1.00  0.00     0.000 A 
HETATM   21  C14 UNL     1      -5.481  -1.316   0.757  1.00  0.00     0.001 A 
HETATM   22  C15 UNL     1      -4.202  -0.793   0.709  1.00  0.00     0.007 A 
ENDBRANCH  16  17
ENDBRANCH  15  16
ENDBRANCH   3  15
TORSDOF 4
