REMARK  4 active torsions:
REMARK  status: ('A' for Active; 'I' for Inactive)
REMARK    1  A    between atoms: C4_4  and  C5_5 
REMARK    2  A    between atoms: C5_5  and  N1_6 
REMARK    3  A    between atoms: N1_6  and  C6_7 
REMARK    4  A    between atoms: C7_9  and  C8_10 
ROOT
HETATM    1  C6  UNL     1      -0.698  -0.222   0.402  1.00  0.00     0.167 A 
HETATM    2  N2  UNL     1       0.427   0.104   0.258  1.00  0.00    -0.223 NA
HETATM    3  C7  UNL     1       1.499  -0.633   0.159  1.00  0.00     0.083 A 
HETATM    4  C14 UNL     1       1.238  -1.999   0.242  1.00  0.00     0.086 A 
HETATM    5  S2  UNL     1      -0.638  -2.024   0.463  1.00  0.00    -0.062 SA
ENDROOT
BRANCH   3   6
HETATM    6  C8  UNL     1       2.895  -0.168  -0.023  1.00  0.00     0.036 A 
HETATM    7  C9  UNL     1       3.960  -0.986  -0.184  1.00  0.00     0.055 A 
HETATM    8  C10 UNL     1       5.251  -0.535  -0.357  1.00  0.00     0.092 A 
HETATM    9  N3  UNL     1       6.401  -1.211  -0.531  1.00  0.00    -0.150 NA
HETATM   10  C12 UNL     1       5.698   0.843  -0.399  1.00  0.00     0.020 A 
HETATM   11  N4  UNL     1       7.425  -0.420  -0.662  1.00  0.00    -0.161 NA
HETATM   12  C11 UNL     1       7.083   0.880  -0.593  1.00  0.00     0.155 A 
HETATM   13  C13 UNL     1       4.848   1.925  -0.264  1.00  0.00     0.065 A 
HETATM   14  S1  UNL     1       3.210   1.530  -0.041  1.00  0.00    -0.099 SA
ENDBRANCH   3   6
BRANCH   1  15
HETATM   15  N1  UNL     1      -1.733   0.828   0.472  1.00  0.00    -0.365 N 
HETATM   16  H6  UNL     1      -1.705   1.458   1.302  1.00  0.00     0.162 HD
BRANCH  15  17
HETATM   17  C5  UNL     1      -2.675   0.843  -0.649  1.00  0.00     0.149 C 
BRANCH  17  18
HETATM   18  C4  UNL     1      -3.510  -0.390  -0.638  1.00  0.00    -0.000 C 
HETATM   19  C3  UNL     1      -4.837  -0.285  -0.523  1.00  0.00    -0.057 A 
HETATM   20  C2  UNL     1      -5.519   1.021  -0.407  1.00  0.00     0.003 A 
HETATM   21  C15 UNL     1      -6.092  -1.074  -0.447  1.00  0.00     0.065 A 
HETATM   22  C1  UNL     1      -6.662   0.317  -0.339  1.00  0.00    -0.022 A 
ENDBRANCH  17  18
ENDBRANCH  15  17
ENDBRANCH   1  15
TORSDOF 4
