REMARK  4 active torsions:
REMARK  status: ('A' for Active; 'I' for Inactive)
REMARK    1  A    between atoms: C1_2  and  O1_5 
REMARK    2  A    between atoms: O1_5  and  C2_6 
REMARK    3  A    between atoms: C7_12  and  N2_13 
REMARK    4  A    between atoms: N2_13  and  C8_14 
ROOT
HETATM    1  C2  UNL     1      -4.149  -0.499  -0.222  1.00  0.00     0.178 C 
HETATM    2  C3  UNL     1      -3.832   0.920   0.095  1.00  0.00     0.007 C 
HETATM    3  C4  UNL     1      -2.750   1.269   0.765  1.00  0.00    -0.009 C 
HETATM    4  C5  UNL     1      -1.634   0.525   1.355  1.00  0.00     0.147 C 
HETATM    5  N1  UNL     1      -0.340   0.889   0.792  1.00  0.00    -0.380 N 
HETATM    6  C6  UNL     1       0.183   0.697  -0.485  1.00  0.00     0.129 A 
HETATM    7  C7  UNL     1       1.522   0.430  -0.683  1.00  0.00     0.160 A 
HETATM    8  N3  UNL     1       2.045   0.248  -1.899  1.00  0.00    -0.222 NA
HETATM    9  C14 UNL     1       1.290   0.314  -2.996  1.00  0.00     0.238 A 
HETATM   10  N4  UNL     1      -0.034   0.574  -2.846  1.00  0.00    -0.215 NA
HETATM   11  C15 UNL     1      -0.580   0.761  -1.630  1.00  0.00     0.201 A 
HETATM   12  O2  UNL     1      -1.931   1.001  -1.811  1.00  0.00    -0.302 OA
HETATM   13  C16 UNL     1      -2.825  -0.017  -2.172  1.00  0.00     0.143 C 
HETATM   14  C17 UNL     1      -3.800  -0.754  -1.661  1.00  0.00     0.033 C 
HETATM   15  H6  UNL     1       0.300   1.386   1.447  1.00  0.00     0.160 HD
ENDROOT
BRANCH   7  16
HETATM   16  N2  UNL     1       2.396   0.318   0.414  1.00  0.00    -0.339 N 
HETATM   17  H7  UNL     1       1.963   0.393   1.375  1.00  0.00     0.167 HD
BRANCH  16  18
HETATM   18  C8  UNL     1       3.790   0.109   0.446  1.00  0.00     0.035 A 
HETATM   19  C9  UNL     1       4.645   0.134  -0.608  1.00  0.00     0.029 A 
HETATM   20  C10 UNL     1       5.998  -0.080  -0.566  1.00  0.00     0.004 A 
HETATM   21  C11 UNL     1       6.575  -0.352   0.665  1.00  0.00     0.019 A 
HETATM   22  C12 UNL     1       5.777  -0.394   1.771  1.00  0.00     0.013 A 
HETATM   23 BR1  UNL     1       6.575  -0.768   3.445  1.00  0.00    -0.051 Br
HETATM   24  C13 UNL     1       4.430  -0.167   1.642  1.00  0.00     0.048 A 
ENDBRANCH  16  18
ENDBRANCH   7  16
BRANCH   1  25
HETATM   25  O1  UNL     1      -5.516  -0.646   0.004  1.00  0.00    -0.284 OA
BRANCH  25  26
HETATM   26  C1  UNL     1      -5.805  -1.592   0.985  1.00  0.00     0.525 C 
HETATM   27  F1  UNL     1      -7.198  -1.634   1.108  1.00  0.00    -0.144 F 
HETATM   28  F2  UNL     1      -5.393  -2.858   0.675  1.00  0.00    -0.144 F 
HETATM   29  F3  UNL     1      -5.307  -1.277   2.217  1.00  0.00    -0.144 F 
ENDBRANCH  25  26
ENDBRANCH   1  25
TORSDOF 4
