REMARK  2 active torsions:
REMARK  status: ('A' for Active; 'I' for Inactive)
REMARK    1  A    between atoms: C9_9  and  N1_10 
REMARK    2  A    between atoms: N1_10  and  C10_11 
ROOT
HETATM    1  C1  UNL     1       4.988   0.390  -1.104  1.00  0.00    -0.026 C 
HETATM    2  C2  UNL     1       5.355  -0.439  -0.131  1.00  0.00    -0.024 C 
HETATM    3  C3  UNL     1       4.656  -0.326   1.191  1.00  0.00     0.085 C 
HETATM    4  C4  UNL     1       3.217  -0.115   0.885  1.00  0.00     0.032 A 
HETATM    5  C5  UNL     1       2.838   0.701  -0.086  1.00  0.00    -0.047 A 
HETATM    6  C6  UNL     1       3.903   1.403  -0.867  1.00  0.00     0.063 C 
HETATM    7  C7  UNL     1       1.442   1.003  -0.497  1.00  0.00     0.096 A 
HETATM    8  C8  UNL     1       0.455   0.261   0.333  1.00  0.00     0.045 A 
HETATM    9  C9  UNL     1      -0.816   0.419   0.097  1.00  0.00     0.115 C 
HETATM   10  N4  UNL     1       0.837  -0.619   1.380  1.00  0.00    -0.303 N 
HETATM   11  N5  UNL     1       2.213  -0.801   1.650  1.00  0.00    -0.304 N 
HETATM   12  H16 UNL     1       0.203  -1.157   1.986  1.00  0.00     0.186 HD
HETATM   13  H17 UNL     1       2.568  -1.440   2.413  1.00  0.00     0.186 HD
ENDROOT
BRANCH   9  14
HETATM   14  N1  UNL     1      -1.854  -0.251   0.841  1.00  0.00    -0.366 N 
HETATM   15  H10 UNL     1      -1.925  -0.318   1.896  1.00  0.00     0.165 HD
BRANCH  14  16
HETATM   16  C10 UNL     1      -2.864  -0.873   0.082  1.00  0.00     0.024 C 
HETATM   17  C11 UNL     1      -3.287  -1.789  -0.767  1.00  0.00     0.028 C 
HETATM   18  C12 UNL     1      -4.707  -1.713  -1.035  1.00  0.00     0.029 C 
HETATM   19  C13 UNL     1      -5.273  -0.731  -0.355  1.00  0.00     0.043 A 
HETATM   20  N2  UNL     1      -6.225   0.174   0.183  1.00  0.00    -0.282 N 
HETATM   21  C15 UNL     1      -4.016  -0.051  -0.009  1.00  0.00     0.129 A 
HETATM   22  N3  UNL     1      -5.613   1.226   0.872  1.00  0.00    -0.190 NA
HETATM   23  H13 UNL     1      -7.228  -0.112  -0.035  1.00  0.00     0.189 HD
HETATM   24  C14 UNL     1      -4.332   1.100   0.794  1.00  0.00     0.128 A 
ENDBRANCH  14  16
ENDBRANCH   9  14
TORSDOF 2
