REMARK  0 active torsions:
REMARK  status: ('A' for Active; 'I' for Inactive)
ROOT
HETATM    1  C1  UNL     1      -0.236   2.418   0.325  1.00  0.00     0.146 C 
HETATM    2  N1  UNL     1      -0.425   2.324   1.637  1.00  0.00    -0.191 NA
HETATM    3  N2  UNL     1      -0.451   1.087   2.356  1.00  0.00    -0.308 N 
HETATM    4  C2  UNL     1      -1.159   0.003   1.861  1.00  0.00     0.118 C 
HETATM    5  C3  UNL     1      -2.399   0.442   0.947  1.00  0.00     0.062 C 
HETATM    6  C4  UNL     1      -1.624   0.308  -0.334  1.00  0.00    -0.064 C 
HETATM    7  C5  UNL     1      -0.578   1.239  -0.559  1.00  0.00    -0.030 C 
HETATM    8  C6  UNL     1       0.505   1.268  -1.611  1.00  0.00     0.100 C 
HETATM    9  C7  UNL     1       1.800   0.850  -0.884  1.00  0.00     0.048 A 
HETATM   10  C8  UNL     1       3.206   1.135  -0.637  1.00  0.00     0.080 A 
HETATM   11  S1  UNL     1       3.557  -0.327   0.531  1.00  0.00    -0.062 SA
HETATM   12  C9  UNL     1       2.064  -1.002   0.538  1.00  0.00     0.167 A 
HETATM   13  N3  UNL     1       1.424  -0.149  -0.285  1.00  0.00    -0.228 NA
HETATM   14  N4  UNL     1       1.057  -2.088   1.012  1.00  0.00    -0.358 N 
HETATM   15  C10 UNL     1      -0.148  -1.944   0.149  1.00  0.00     0.053 A 
HETATM   16  C11 UNL     1      -0.053  -2.532  -1.058  1.00  0.00     0.028 A 
HETATM   17  C12 UNL     1      -0.745  -1.822  -2.024  1.00  0.00     0.007 A 
HETATM   18  C13 UNL     1      -1.415  -0.603  -1.550  1.00  0.00    -0.015 A 
HETATM   19  C14 UNL     1      -0.829  -1.096  -0.353  1.00  0.00     0.077 A 
HETATM   20  C15 UNL     1      -0.488  -1.084   1.114  1.00  0.00     0.028 A 
HETATM   21  H2  UNL     1       0.036   0.913   3.278  1.00  0.00     0.182 HD
HETATM   22  H9  UNL     1       1.651  -2.491   1.766  1.00  0.00     0.162 HD
ENDROOT
TORSDOF 0
