REMARK  2 active torsions:
REMARK  status: ('A' for Active; 'I' for Inactive)
REMARK    1  A    between atoms: C10_12  and  N2_13 
REMARK    2  A    between atoms: N2_13  and  C11_14 
ROOT
HETATM    1  C1  UNL     1      -4.825  -0.291   1.304  1.00  0.00     0.150 C 
HETATM    2  N1  UNL     1      -3.544   0.226   0.782  1.00  0.00    -0.383 N 
HETATM    3  C2  UNL     1      -2.349   1.092   0.929  1.00  0.00     0.157 C 
HETATM    4  C3  UNL     1      -1.556   0.744  -0.311  1.00  0.00     0.064 C 
HETATM    5  C4  UNL     1      -0.857   2.099  -0.629  1.00  0.00     0.044 C 
HETATM    6  C5  UNL     1      -2.646   0.700  -1.361  1.00  0.00     0.034 C 
HETATM    7  C6  UNL     1      -3.044  -0.266  -0.504  1.00  0.00     0.028 C 
HETATM    8  C7  UNL     1      -3.001  -1.787  -0.679  1.00  0.00     0.028 C 
HETATM    9  C8  UNL     1      -1.792  -2.386  -0.902  1.00  0.00     0.011 C 
HETATM   10  C9  UNL     1      -0.697  -1.609  -0.186  1.00  0.00     0.172 C 
HETATM   11  S1  UNL     1       0.899  -1.774  -1.008  1.00  0.00    -0.094 SA
HETATM   12  C10 UNL     1       0.698  -0.202  -0.051  1.00  0.00     0.248 C 
HETATM   13  N3  UNL     1      -0.664  -0.243  -0.418  1.00  0.00    -0.354 N 
ENDROOT
BRANCH  12  14
HETATM   14  N2  UNL     1       1.629   0.722  -0.597  1.00  0.00    -0.360 N 
HETATM   15  H14 UNL     1       1.633   1.618  -1.126  1.00  0.00     0.162 HD
BRANCH  14  16
HETATM   16  C11 UNL     1       3.001   0.328  -0.374  1.00  0.00     0.030 A 
HETATM   17  C12 UNL     1       4.110   1.028  -0.830  1.00  0.00     0.029 A 
HETATM   18  C13 UNL     1       5.427   0.725  -0.650  1.00  0.00     0.002 A 
HETATM   19  C14 UNL     1       5.696  -0.416   0.072  1.00  0.00     0.000 A 
HETATM   20  C15 UNL     1       4.682  -1.188   0.572  1.00  0.00     0.002 A 
HETATM   21  C16 UNL     1       3.395  -0.806   0.342  1.00  0.00     0.029 A 
ENDBRANCH  14  16
ENDBRANCH  12  14
TORSDOF 2
