REMARK  4 active torsions:
REMARK  status: ('A' for Active; 'I' for Inactive)
REMARK    1  A    between atoms: C4_4  and  C5_5 
REMARK    2  A    between atoms: C5_5  and  C6_6 
REMARK    3  A    between atoms: C6_6  and  C7_7 
REMARK    4  A    between atoms: N1_9  and  C9_10 
ROOT
HETATM    1  C7  UNL     1      -0.062  -0.476  -0.879  1.00  0.00     0.070 A 
HETATM    2  C8  UNL     1       0.853  -0.621   0.143  1.00  0.00     0.143 A 
HETATM    3  N1  UNL     1       2.072  -0.294  -0.323  1.00  0.00    -0.247 N 
HETATM    4  N2  UNL     1       1.925   0.047  -1.605  1.00  0.00     0.009 NA
HETATM    5  N3  UNL     1       0.639  -0.061  -1.945  1.00  0.00    -0.163 NA
ENDROOT
BRANCH   1   6
HETATM    6  C6  UNL     1      -1.508  -0.761  -0.686  1.00  0.00     0.067 C 
BRANCH   6   7
HETATM    7  C5  UNL     1      -2.175   0.498  -0.242  1.00  0.00     0.044 C 
BRANCH   7   8
HETATM    8  C4  UNL     1      -3.625   0.373  -0.007  1.00  0.00    -0.058 A 
HETATM    9  C3  UNL     1      -4.499   0.613  -1.062  1.00  0.00     0.007 A 
HETATM   10  C2  UNL     1      -5.887   0.539  -1.006  1.00  0.00     0.001 A 
HETATM   11  C1  UNL     1      -6.421   0.191   0.226  1.00  0.00     0.000 A 
HETATM   12  C17 UNL     1      -5.594  -0.057   1.305  1.00  0.00     0.001 A 
HETATM   13  C16 UNL     1      -4.219   0.027   1.211  1.00  0.00     0.007 A 
ENDBRANCH   7   8
ENDBRANCH   6   7
ENDBRANCH   1   6
BRANCH   3  14
HETATM   14  C9  UNL     1       3.411  -0.215   0.150  1.00  0.00     0.054 A 
HETATM   15  C10 UNL     1       4.145  -1.368   0.375  1.00  0.00     0.032 A 
HETATM   16  C11 UNL     1       5.437  -1.345   0.829  1.00  0.00     0.010 A 
HETATM   17  C12 UNL     1       5.999  -0.099   1.061  1.00  0.00    -0.047 A 
HETATM   18  C13 UNL     1       5.324   1.115   0.858  1.00  0.00    -0.045 A 
HETATM   19  C15 UNL     1       6.709   1.156   1.345  1.00  0.00     0.078 A 
HETATM   20  C14 UNL     1       4.013   0.980   0.394  1.00  0.00     0.039 A 
ENDBRANCH   3  14
TORSDOF 4
