REMARK  4 active torsions:
REMARK  status: ('A' for Active; 'I' for Inactive)
REMARK    1  A    between atoms: C3_4  and  C4_5 
REMARK    2  A    between atoms: C5_6  and  C6_7 
REMARK    3  A    between atoms: C6_7  and  N1_8 
REMARK    4  A    between atoms: C8_11  and  C9_12 
ROOT
HETATM    1  B1  UNL     1       4.021   5.350  -1.727  1.00  0.00     0.189 B 
HETATM    2  C1  UNL     1       3.689   3.184  -1.378  1.00  0.00    -0.255 C 
HETATM    3  C2  UNL     1       3.495   1.838  -1.184  1.00  0.00     0.085 C 
HETATM    4  C3  UNL     1       2.500   1.110  -1.538  1.00  0.00     0.010 C 
ENDROOT
BRANCH   4   5
HETATM    5  C4  UNL     1       3.274   0.018  -0.898  1.00  0.00    -0.027 C 
HETATM    6  C5  UNL     1       2.738  -1.197  -0.903  1.00  0.00    -0.010 C 
BRANCH   6   7
HETATM    7  C6  UNL     1       1.494  -1.904  -1.381  1.00  0.00     0.164 C 
BRANCH   7   8
HETATM    8  N1  UNL     1       0.801  -2.549  -0.287  1.00  0.00    -0.313 N 
HETATM    9  S1  UNL     1       1.082  -4.110   0.287  1.00  0.00    -0.021 SA
HETATM   10  C7  UNL     1      -0.149  -3.526   1.281  1.00  0.00     0.099 A 
HETATM   11  C8  UNL     1      -0.181  -2.312   0.635  1.00  0.00     0.059 A 
BRANCH  11  12
HETATM   12  C9  UNL     1      -1.035  -1.113   0.878  1.00  0.00    -0.007 C 
HETATM   13  C10 UNL     1      -1.940  -1.202   1.886  1.00  0.00     0.016 C 
HETATM   14  C11 UNL     1      -2.837  -0.103   2.225  1.00  0.00     0.033 C 
HETATM   15  C12 UNL     1      -2.981   1.086   1.684  1.00  0.00     0.055 A 
HETATM   16  N2  UNL     1      -3.435   2.386   1.438  1.00  0.00    -0.278 N 
HETATM   17  P1  UNL     1      -2.281   0.812   0.002  1.00  0.00    -0.039 P 
HETATM   18  N3  UNL     1      -3.237   3.062   0.283  1.00  0.00    -0.186 NA
HETATM   19  H10 UNL     1      -3.944   2.697   2.332  1.00  0.00     0.189 HD
HETATM   20  C13 UNL     1      -2.610   2.406  -0.620  1.00  0.00     0.146 A 
HETATM   21  C14 UNL     1      -0.887   0.186   0.148  1.00  0.00     0.024 C 
HETATM   22  H12 UNL     1      -3.221  -0.110  -0.664  1.00  0.00     0.068 HD
ENDBRANCH  11  12
ENDBRANCH   7   8
ENDBRANCH   6   7
ENDBRANCH   4   5
TORSDOF 4
