REMARK  4 active torsions:
REMARK  status: ('A' for Active; 'I' for Inactive)
REMARK    1  A    between atoms: C1_2  and  O1_5 
REMARK    2  A    between atoms: O1_5  and  C2_6 
REMARK    3  A    between atoms: C7_14  and  N3_15 
REMARK    4  A    between atoms: N3_15  and  C8_16 
ROOT
HETATM    1  C2  UNL     1       4.403   0.410  -0.038  1.00  0.00     0.091 C 
HETATM    2  C3  UNL     1       3.552   1.302   0.410  1.00  0.00     0.035 C 
HETATM    3  C4  UNL     1       2.812   0.813   1.423  1.00  0.00     0.159 C 
HETATM    4  O2  UNL     1       2.347  -0.457   0.996  1.00  0.00    -0.301 OA
HETATM    5  C5  UNL     1       1.014  -0.822   1.024  1.00  0.00     0.201 A 
HETATM    6  N1  UNL     1       0.733  -1.448   2.178  1.00  0.00    -0.215 NA
HETATM    7  C6  UNL     1      -0.462  -1.929   2.527  1.00  0.00     0.238 A 
HETATM    8  N2  UNL     1      -1.500  -1.784   1.654  1.00  0.00    -0.222 NA
HETATM    9  C7  UNL     1      -1.224  -1.149   0.479  1.00  0.00     0.160 A 
HETATM   10  C14 UNL     1       0.009  -0.647   0.104  1.00  0.00     0.129 A 
HETATM   11  N4  UNL     1       0.072  -0.028  -1.171  1.00  0.00    -0.380 N 
HETATM   12  C15 UNL     1       1.195   0.796  -1.543  1.00  0.00     0.147 C 
HETATM   13  C16 UNL     1       2.396  -0.057  -1.651  1.00  0.00    -0.005 C 
HETATM   14  C17 UNL     1       3.563  -0.157  -1.067  1.00  0.00     0.035 C 
HETATM   15  H8  UNL     1      -0.695  -0.173  -1.837  1.00  0.00     0.160 HD
ENDROOT
BRANCH   9  16
HETATM   16  N3  UNL     1      -2.395  -1.074  -0.321  1.00  0.00    -0.338 N 
HETATM   17  H3  UNL     1      -2.175  -1.742  -1.091  1.00  0.00     0.167 HD
BRANCH  16  18
HETATM   18  C8  UNL     1      -3.622  -0.360  -0.270  1.00  0.00     0.051 A 
HETATM   19  C9  UNL     1      -4.633  -1.330  -0.223  1.00  0.00     0.031 A 
HETATM   20  C10 UNL     1      -5.969  -0.921  -0.156  1.00  0.00     0.002 A 
HETATM   21  C11 UNL     1      -6.314   0.410  -0.138  1.00  0.00     0.002 A 
HETATM   22  C12 UNL     1      -5.291   1.362  -0.186  1.00  0.00     0.021 A 
HETATM   23  C13 UNL     1      -3.981   0.962  -0.250  1.00  0.00     0.037 A 
HETATM   24 BR1  UNL     1      -2.477   2.126  -0.316  1.00  0.00    -0.049 Br
ENDBRANCH  16  18
ENDBRANCH   9  16
BRANCH   1  25
HETATM   25  O1  UNL     1       5.638   0.296   0.519  1.00  0.00    -0.254 OA
BRANCH  25  26
HETATM   26  C1  UNL     1       6.480   1.403   0.792  1.00  0.00     0.530 C 
HETATM   27  F1  UNL     1       7.666   0.846   1.231  1.00  0.00    -0.144 F 
HETATM   28  F2  UNL     1       6.681   2.137  -0.358  1.00  0.00    -0.144 F 
HETATM   29  F3  UNL     1       5.919   2.237   1.724  1.00  0.00    -0.144 F 
ENDBRANCH  25  26
ENDBRANCH   1  25
TORSDOF 4
