REMARK  5 active torsions:
REMARK  status: ('A' for Active; 'I' for Inactive)
REMARK    1  A    between atoms: C2_2  and  C7_9 
REMARK    2  A    between atoms: C3_3  and  C4_4 
REMARK    3  A    between atoms: C9_12  and  N3_13 
REMARK    4  A    between atoms: N3_13  and  C10_14 
REMARK    5  A    between atoms: C10_14  and  C11_15 
ROOT
HETATM    1  C7  UNL     1      -1.247  -0.336   0.669  1.00  0.00     0.072 A 
HETATM    2  C8  UNL     1      -1.151  -1.707   1.094  1.00  0.00     0.085 A 
HETATM    3  S1  UNL     1       0.567  -2.023   0.891  1.00  0.00    -0.062 SA
HETATM    4  C9  UNL     1       0.951  -0.275   0.259  1.00  0.00     0.167 A 
HETATM    5  N4  UNL     1      -0.137   0.241   0.286  1.00  0.00    -0.224 NA
ENDROOT
BRANCH   1   6
HETATM    6  C2  UNL     1      -2.540   0.340   0.681  1.00  0.00    -0.034 C 
HETATM    7  C1  UNL     1      -2.717   1.754   0.257  1.00  0.00     0.050 C 
HETATM    8  C3  UNL     1      -3.597  -0.339   1.088  1.00  0.00     0.009 C 
BRANCH   8   9
HETATM    9  C4  UNL     1      -4.996   0.017   1.222  1.00  0.00     0.129 C 
HETATM   10  C5  UNL     1      -5.821  -0.966   0.381  1.00  0.00     0.079 C 
HETATM   11  C6  UNL     1      -6.349  -0.177  -0.742  1.00  0.00     0.113 C 
HETATM   12  N1  UNL     1      -6.097   1.063  -0.559  1.00  0.00    -0.195 NA
HETATM   13  N2  UNL     1      -5.401   1.266   0.654  1.00  0.00    -0.306 N 
HETATM   14  H9  UNL     1      -5.363   2.314   0.826  1.00  0.00     0.183 HD
ENDBRANCH   8   9
ENDBRANCH   1   6
BRANCH   4  15
HETATM   15  N3  UNL     1       2.295   0.032  -0.079  1.00  0.00    -0.365 N 
HETATM   16  H11 UNL     1       2.376   1.015  -0.410  1.00  0.00     0.162 HD
BRANCH  15  17
HETATM   17  C10 UNL     1       3.363  -0.971   0.055  1.00  0.00     0.160 C 
BRANCH  17  18
HETATM   18  C11 UNL     1       4.635  -0.383  -0.361  1.00  0.00    -0.041 A 
HETATM   19  C12 UNL     1       5.075  -0.441  -1.660  1.00  0.00     0.009 A 
HETATM   20  C13 UNL     1       6.270   0.110  -2.054  1.00  0.00     0.001 A 
HETATM   21  C14 UNL     1       7.081   0.753  -1.138  1.00  0.00     0.000 A 
HETATM   22  C15 UNL     1       6.689   0.846   0.196  1.00  0.00     0.001 A 
HETATM   23  C16 UNL     1       5.467   0.270   0.550  1.00  0.00     0.009 A 
ENDBRANCH  17  18
ENDBRANCH  15  17
ENDBRANCH   4  15
TORSDOF 5
