REMARK  3 active torsions:
REMARK  status: ('A' for Active; 'I' for Inactive)
REMARK    1  A    between atoms: C4_7  and  C5_8 
REMARK    2  A    between atoms: C10_16  and  N6_17 
REMARK    3  A    between atoms: N6_17  and  C11_18 
ROOT
HETATM    1  C5  UNL     1       1.584   1.165   0.001  1.00  0.00     0.131 A 
HETATM    2  N3  UNL     1       1.661   2.500  -0.029  1.00  0.00    -0.058 NA
HETATM    3  C6  UNL     1       0.465   3.087  -0.070  1.00  0.00     0.735 A 
HETATM    4  N4  UNL     1       0.177   4.400  -0.104  1.00  0.00    -0.074 NA
HETATM    5  C7  UNL     1      -1.105   4.830  -0.140  1.00  0.00     0.138 A 
HETATM    6  C8  UNL     1      -2.069   3.846  -0.140  1.00  0.00     0.038 A 
HETATM    7  C9  UNL     1      -1.674   2.535  -0.104  1.00  0.00     0.118 A 
HETATM    8  N5  UNL     1      -0.414   2.074  -0.067  1.00  0.00    -0.137 N 
HETATM    9  C10 UNL     1       0.238   0.899  -0.027  1.00  0.00     0.155 A 
ENDROOT
BRANCH   1  10
HETATM   10  C4  UNL     1       2.795   0.386   0.030  1.00  0.00    -0.001 C 
HETATM   11  C3  UNL     1       3.938   0.988  -0.232  1.00  0.00     0.020 C 
HETATM   12  C2  UNL     1       5.250   0.330  -0.247  1.00  0.00     0.046 C 
HETATM   13  S1  UNL     1       5.488  -0.943   0.575  1.00  0.00    -0.114 SA
HETATM   14  N2  UNL     1       6.028  -2.184  -0.505  1.00  0.00    -0.057 NA
HETATM   15  C18 UNL     1       3.824  -1.787   0.629  1.00  0.00     0.019 C 
HETATM   16  H2  UNL     1       6.155  -1.030   1.558  1.00  0.00     0.109 HD
HETATM   17  N1  UNL     1       5.597  -3.332   0.465  1.00  0.00    -0.182 NA
HETATM   18  C1  UNL     1       4.492  -3.018   0.957  1.00  0.00     0.153 C 
HETATM   19  C17 UNL     1       2.848  -0.973   0.440  1.00  0.00     0.033 C 
ENDBRANCH   1  10
BRANCH   9  20
HETATM   20  N6  UNL     1      -0.381  -0.368  -0.090  1.00  0.00    -0.369 N 
HETATM   21  H8  UNL     1       0.294  -1.126  -0.240  1.00  0.00     0.161 HD
BRANCH  20  22
HETATM   22  C11 UNL     1      -1.597  -1.118  -0.087  1.00  0.00     0.083 C 
HETATM   23  C12 UNL     1      -2.470  -0.796  -1.238  1.00  0.00     0.025 C 
HETATM   24  C13 UNL     1      -3.941  -0.745  -0.986  1.00  0.00     0.002 C 
HETATM   25  C14 UNL     1      -4.441  -1.742   0.008  1.00  0.00     0.000 C 
HETATM   26  C15 UNL     1      -3.495  -1.967   1.157  1.00  0.00     0.002 C 
HETATM   27  C16 UNL     1      -2.403  -0.911   1.187  1.00  0.00     0.025 C 
ENDBRANCH  20  22
ENDBRANCH   9  20
TORSDOF 3
