REMARK  1 active torsions:
REMARK  status: ('A' for Active; 'I' for Inactive)
REMARK    1  A    between atoms: C2_2  and  C3_3 
ROOT
HETATM    1  C3  UNL     1      -0.304   0.641  -0.584  1.00  0.00     0.038 C 
HETATM    2  C4  UNL     1       0.599   0.697  -1.766  1.00  0.00     0.009 C 
HETATM    3  C5  UNL     1       1.719   1.384  -1.607  1.00  0.00     0.082 C 
HETATM    4  N1  UNL     1       2.680   2.196  -0.889  1.00  0.00    -0.375 N 
HETATM    5  C6  UNL     1       2.853   1.123   0.108  1.00  0.00     0.393 C 
HETATM    6  N2  UNL     1       2.824  -0.069  -0.709  1.00  0.00     0.109 N 
HETATM    7  C7  UNL     1       2.453  -1.233  -0.056  1.00  0.00     0.252 C 
HETATM    8  C8  UNL     1       3.132  -1.452   1.268  1.00  0.00     0.044 C 
HETATM    9  C9  UNL     1       1.838  -2.224   1.552  1.00  0.00     0.039 C 
HETATM   10  C10 UNL     1       1.140  -1.148   0.697  1.00  0.00    -0.043 C 
HETATM   11  C11 UNL     1       0.030  -0.408   0.384  1.00  0.00    -0.054 C 
HETATM   12  C12 UNL     1      -1.149  -0.852   1.245  1.00  0.00     0.062 C 
HETATM   13  C13 UNL     1      -1.885  -1.822   0.339  1.00  0.00    -0.025 C 
HETATM   14  C14 UNL     1      -3.005  -2.004  -0.328  1.00  0.00    -0.010 C 
HETATM   15  C15 UNL     1      -3.905  -0.859  -0.162  1.00  0.00     0.168 C 
HETATM   16  N3  UNL     1      -4.036  -0.177  -1.470  1.00  0.00    -0.311 N 
HETATM   17  N4  UNL     1      -2.701  -0.091  -1.847  1.00  0.00    -0.194 NA
HETATM   18  C16 UNL     1      -1.680   0.264  -1.165  1.00  0.00     0.129 C 
HETATM   19  H8  UNL     1       2.935   3.151  -1.213  1.00  0.00     0.160 HD
HETATM   20  H11 UNL     1       3.675  -0.164  -1.270  1.00  0.00     0.318 HD
HETATM   21  H23 UNL     1      -4.121   0.297  -2.380  1.00  0.00     0.182 HD
ENDROOT
BRANCH   1  22
HETATM   22  C2  UNL     1      -0.492   2.045  -0.100  1.00  0.00     0.019 C 
HETATM   23  C1  UNL     1      -1.340   2.300   1.084  1.00  0.00     0.007 C 
ENDBRANCH   1  22
TORSDOF 1
