REMARK  4 active torsions:
REMARK  status: ('A' for Active; 'I' for Inactive)
REMARK    1  A    between atoms: C1_2  and  O1_5 
REMARK    2  A    between atoms: O1_5  and  C2_6 
REMARK    3  A    between atoms: C10_15  and  N2_16 
REMARK    4  A    between atoms: N2_16  and  C11_17 
ROOT
HETATM    1  C2  UNL     1      -4.546  -0.552  -0.055  1.00  0.00     0.079 A 
HETATM    2  C3  UNL     1      -4.726   0.001  -1.301  1.00  0.00     0.040 A 
HETATM    3  C4  UNL     1      -3.643   0.220  -2.157  1.00  0.00     0.040 A 
HETATM    4  C5  UNL     1      -2.384  -0.141  -1.706  1.00  0.00     0.086 A 
HETATM    5  C6  UNL     1      -2.210  -0.707  -0.433  1.00  0.00    -0.004 A 
HETATM    6  C7  UNL     1      -3.293  -0.912   0.394  1.00  0.00     0.048 A 
HETATM    7  C8  UNL     1      -0.944  -1.153   0.175  1.00  0.00     0.161 C 
HETATM    8  N1  UNL     1       0.055  -0.113   0.207  1.00  0.00    -0.379 N 
HETATM    9  C9  UNL     1       0.522   0.590  -0.946  1.00  0.00     0.129 A 
HETATM   10  C10 UNL     1       1.718   1.217  -0.671  1.00  0.00     0.160 A 
HETATM   11  N3  UNL     1       2.294   1.929  -1.668  1.00  0.00    -0.222 NA
HETATM   12  C17 UNL     1       1.719   2.022  -2.890  1.00  0.00     0.238 A 
HETATM   13  N4  UNL     1       0.546   1.413  -3.178  1.00  0.00    -0.215 NA
HETATM   14  C18 UNL     1      -0.054   0.692  -2.197  1.00  0.00     0.202 A 
HETATM   15  O2  UNL     1      -1.282   0.082  -2.568  1.00  0.00    -0.289 OA
HETATM   16  H6  UNL     1       0.463   0.138   1.131  1.00  0.00     0.160 HD
ENDROOT
BRANCH  10  17
HETATM   17  N2  UNL     1       2.345   1.116   0.625  1.00  0.00    -0.339 N 
HETATM   18  H7  UNL     1       1.789   1.667   1.333  1.00  0.00     0.167 HD
BRANCH  17  19
HETATM   19  C11 UNL     1       3.517   0.426   1.021  1.00  0.00     0.035 A 
HETATM   20  C12 UNL     1       3.780   0.147   2.346  1.00  0.00     0.029 A 
HETATM   21  C13 UNL     1       4.952  -0.505   2.634  1.00  0.00     0.004 A 
HETATM   22  C14 UNL     1       5.864  -0.888   1.673  1.00  0.00     0.019 A 
HETATM   23  C15 UNL     1       5.605  -0.611   0.336  1.00  0.00     0.013 A 
HETATM   24 BR1  UNL     1       6.883  -1.144  -1.002  1.00  0.00    -0.051 Br
HETATM   25  C16 UNL     1       4.429   0.044   0.036  1.00  0.00     0.048 A 
ENDBRANCH  17  19
ENDBRANCH  10  17
BRANCH   1  26
HETATM   26  O1  UNL     1      -5.751  -0.696   0.671  1.00  0.00    -0.255 OA
BRANCH  26  27
HETATM   27  C1  UNL     1      -6.142   0.409   1.496  1.00  0.00     0.530 C 
HETATM   28  F1  UNL     1      -6.315   1.539   0.699  1.00  0.00    -0.144 F 
HETATM   29  F2  UNL     1      -7.220   0.121   2.284  1.00  0.00    -0.144 F 
HETATM   30  F3  UNL     1      -5.072   0.705   2.349  1.00  0.00    -0.144 F 
ENDBRANCH  26  27
ENDBRANCH   1  26
TORSDOF 4
