REMARK  5 active torsions:
REMARK  status: ('A' for Active; 'I' for Inactive)
REMARK    1  A    between atoms: N1_2  and  C3_4 
REMARK    2  A    between atoms: C3_4  and  C4_5 
REMARK    3  A    between atoms: C4_5  and  N2_6 
REMARK    4  A    between atoms: C8_11  and  C9_12 
REMARK    5  A    between atoms: C8_11  and  C13_18 
ROOT
HETATM    1  N2  UNL     1       1.202   0.221  -0.965  1.00  0.00    -0.341 N 
HETATM    2  C5  UNL     1       1.894  -0.505  -1.960  1.00  0.00     0.203 A 
HETATM    3  N3  UNL     1       1.008  -1.163  -2.597  1.00  0.00    -0.279 NA
HETATM    4  C6  UNL     1      -0.324  -0.982  -2.135  1.00  0.00     0.208 A 
HETATM    5  C7  UNL     1      -0.190  -0.013  -1.022  1.00  0.00     0.043 A 
HETATM    6  C8  UNL     1      -1.218   0.500  -0.390  1.00  0.00    -0.001 C 
ENDROOT
BRANCH   6   7
HETATM    7  C9  UNL     1      -2.576  -0.005  -0.698  1.00  0.00     0.024 C 
HETATM    8  C10 UNL     1      -3.034  -1.225  -0.385  1.00  0.00    -0.019 C 
HETATM    9  C11 UNL     1      -4.389  -1.740  -0.693  1.00  0.00     0.147 C 
HETATM   10  C12 UNL     1      -2.507  -2.436   0.341  1.00  0.00     0.181 C 
HETATM   11  N4  UNL     1      -4.348  -3.028  -0.712  1.00  0.00    -0.191 NA
HETATM   12  N5  UNL     1      -3.069  -3.516  -0.443  1.00  0.00    -0.310 N 
HETATM   13  H16 UNL     1      -2.569  -4.405  -0.697  1.00  0.00     0.182 HD
ENDBRANCH   6   7
BRANCH   6  14
HETATM   14  C13 UNL     1      -1.537   1.549   0.563  1.00  0.00    -0.024 A 
HETATM   15  C14 UNL     1      -2.240   1.396   1.742  1.00  0.00     0.015 A 
HETATM   16  C15 UNL     1      -2.542   2.441   2.585  1.00  0.00     0.043 A 
HETATM   17  C16 UNL     1      -2.120   3.702   2.229  1.00  0.00     0.116 A 
HETATM   18  F1  UNL     1      -2.413   4.754   3.059  1.00  0.00    -0.206 F 
HETATM   19  C17 UNL     1      -1.423   3.992   1.100  1.00  0.00     0.043 A 
HETATM   20  C18 UNL     1      -1.172   2.883   0.328  1.00  0.00     0.015 A 
ENDBRANCH   6  14
BRANCH   1  21
HETATM   21  C4  UNL     1       1.934   1.040  -0.038  1.00  0.00     0.149 C 
BRANCH  21  22
HETATM   22  C3  UNL     1       2.781   0.174   0.883  1.00  0.00     0.136 C 
BRANCH  22  23
HETATM   23  N1  UNL     1       3.762  -0.613   0.274  1.00  0.00    -0.419 N 
HETATM   24  C1  UNL     1       4.885  -0.004  -0.315  1.00  0.00     0.142 C 
HETATM   25  C2  UNL     1       3.589  -2.003   0.155  1.00  0.00     0.142 C 
ENDBRANCH  22  23
ENDBRANCH  21  22
ENDBRANCH   1  21
TORSDOF 5
