REMARK  3 active torsions:
REMARK  status: ('A' for Active; 'I' for Inactive)
REMARK    1  A    between atoms: C3_4  and  C4_5 
REMARK    2  A    between atoms: C17_20  and  C18_21 
REMARK    3  A    between atoms: N2_22  and  N3_23 
ROOT
HETATM    1  N1  UNL     1       1.004  -1.882  -1.788  1.00  0.00    -0.304 NA
HETATM    2  C1  UNL     1       0.376  -1.464  -0.750  1.00  0.00     0.041 C 
HETATM    3  C2  UNL     1       0.227  -0.133  -0.016  1.00  0.00    -0.003 C 
HETATM    4  C3  UNL     1       1.151   0.741   0.359  1.00  0.00     0.023 C 
HETATM    5  C10 UNL     1      -1.176  -0.114   0.153  1.00  0.00     0.169 C 
HETATM    6  O1  UNL     1      -1.465  -1.016   1.102  1.00  0.00    -0.379 OA
HETATM    7  C11 UNL     1      -0.504  -1.989   1.332  1.00  0.00     0.179 C 
HETATM    8  C12 UNL     1      -0.377  -2.559  -0.119  1.00  0.00     0.067 C 
HETATM    9  C13 UNL     1      -1.756  -2.878  -0.450  1.00  0.00     0.011 C 
HETATM   10  C14 UNL     1      -2.668  -1.960  -0.344  1.00  0.00     0.021 C 
HETATM   11  C15 UNL     1      -3.842  -1.209  -0.327  1.00  0.00    -0.024 C 
HETATM   12  C16 UNL     1      -3.466   0.102   0.065  1.00  0.00    -0.018 C 
HETATM   13  C17 UNL     1      -2.187   0.912   0.444  1.00  0.00     0.084 C 
HETATM   14  H1  UNL     1       1.021  -2.828  -2.192  1.00  0.00     0.186 HD
ENDROOT
BRANCH   4  15
HETATM   15  C4  UNL     1       2.576   0.688   0.178  1.00  0.00    -0.035 A 
HETATM   16  C5  UNL     1       3.286   0.961   1.351  1.00  0.00     0.014 A 
HETATM   17  C6  UNL     1       4.682   0.938   1.312  1.00  0.00     0.043 A 
HETATM   18  C7  UNL     1       5.396   0.656   0.169  1.00  0.00     0.116 A 
HETATM   19  F1  UNL     1       6.740   0.624   0.095  1.00  0.00    -0.206 F 
HETATM   20  C8  UNL     1       4.710   0.386  -0.994  1.00  0.00     0.043 A 
HETATM   21  C9  UNL     1       3.338   0.416  -0.933  1.00  0.00     0.014 A 
ENDBRANCH   4  15
BRANCH  13  22
HETATM   22  C18 UNL     1      -2.134   2.040  -0.515  1.00  0.00     0.122 C 
HETATM   23  N2  UNL     1      -2.346   3.217  -0.947  1.00  0.00    -0.198 NA
BRANCH  23  24
HETATM   24  N3  UNL     1      -3.035   4.105  -0.131  1.00  0.00    -0.323 N 
HETATM   25  H17 UNL     1      -3.809   3.739   0.460  1.00  0.00     0.179 HD
HETATM   26  H18 UNL     1      -2.873   5.142  -0.027  1.00  0.00     0.179 HD
ENDBRANCH  23  24
ENDBRANCH  13  22
TORSDOF 3
