REMARK  5 active torsions:
REMARK  status: ('A' for Active; 'I' for Inactive)
REMARK    1  A    between atoms: N1_2  and  C3_4 
REMARK    2  A    between atoms: C3_4  and  C4_5 
REMARK    3  A    between atoms: C4_5  and  N2_6 
REMARK    4  A    between atoms: C6_9  and  C7_10 
REMARK    5  A    between atoms: C13_17  and  C14_18 
ROOT
HETATM    1  N2  UNL     1       1.074  -1.043  -0.746  1.00  0.00    -0.337 N 
HETATM    2  C5  UNL     1       1.187  -2.380  -0.464  1.00  0.00     0.210 A 
HETATM    3  N3  UNL     1      -0.062  -2.796  -0.247  1.00  0.00    -0.241 NA
HETATM    4  C6  UNL     1      -0.919  -1.795  -0.381  1.00  0.00     0.096 A 
HETATM    5  C13 UNL     1      -0.211  -0.682  -0.697  1.00  0.00     0.076 A 
ENDROOT
BRANCH   5   6
HETATM    6  C14 UNL     1      -0.802   0.612  -0.814  1.00  0.00    -0.002 C 
HETATM    7  C15 UNL     1      -0.237   1.840  -0.729  1.00  0.00     0.009 C 
HETATM    8  C16 UNL     1      -0.442   3.293  -0.781  1.00  0.00     0.180 C 
HETATM    9  N4  UNL     1      -1.560   3.814   0.018  1.00  0.00    -0.258 N 
HETATM   10  N5  UNL     1      -1.946   4.878   0.838  1.00  0.00    -0.181 NA
HETATM   11  C18 UNL     1      -2.880   3.231   0.207  1.00  0.00     0.113 A 
HETATM   12  C17 UNL     1      -3.155   4.415   1.055  1.00  0.00     0.177 A 
HETATM   13  S1  UNL     1      -3.375   1.785  -0.476  1.00  0.00    -0.080 SA
HETATM   14  C19 UNL     1      -2.255   0.729  -1.155  1.00  0.00     0.065 C 
ENDBRANCH   5   6
BRANCH   1  15
HETATM   15  C4  UNL     1       2.291  -0.348  -0.992  1.00  0.00     0.160 C 
BRANCH  15  16
HETATM   16  C3  UNL     1       2.956   0.063   0.286  1.00  0.00     0.291 C 
BRANCH  16  17
HETATM   17  N1  UNL     1       4.192   0.792   0.059  1.00  0.00     0.081 N 
HETATM   18  C1  UNL     1       4.734   1.130   1.358  1.00  0.00     0.309 C 
HETATM   19  C2  UNL     1       5.161  -0.002  -0.655  1.00  0.00     0.309 C 
ENDBRANCH  16  17
ENDBRANCH  15  16
ENDBRANCH   1  15
BRANCH   4  20
HETATM   20  C7  UNL     1      -2.283  -2.189  -0.085  1.00  0.00    -0.005 A 
HETATM   21  C8  UNL     1      -2.504  -2.622   1.246  1.00  0.00     0.017 A 
HETATM   22  C9  UNL     1      -3.676  -3.102   1.837  1.00  0.00     0.043 A 
HETATM   23  C10 UNL     1      -4.748  -3.147   0.977  1.00  0.00     0.116 A 
HETATM   24  F1  UNL     1      -5.933  -3.594   1.446  1.00  0.00    -0.206 F 
HETATM   25  C11 UNL     1      -4.677  -2.760  -0.338  1.00  0.00     0.043 A 
HETATM   26  C12 UNL     1      -3.465  -2.313  -0.778  1.00  0.00     0.017 A 
ENDBRANCH   4  20
TORSDOF 5
