REMARK  6 active torsions:
REMARK  status: ('A' for Active; 'I' for Inactive)
REMARK    1  A    between atoms: C5_7  and  C6_8 
REMARK    2  A    between atoms: C7_9  and  C8_10 
REMARK    3  A    between atoms: C9_11  and  C10_12 
REMARK    4  A    between atoms: N4_20  and  C16_21 
REMARK    5  A    between atoms: C16_21  and  C17_22 
REMARK    6  A    between atoms: C17_22  and  N5_23 
ROOT
HETATM    1  C8  UNL     1      -0.758   1.376   0.203  1.00  0.00     0.061 A 
HETATM    2  C9  UNL     1      -1.175   2.582  -0.368  1.00  0.00     0.074 A 
HETATM    3  N3  UNL     1      -2.506   2.458  -0.361  1.00  0.00    -0.245 NA
HETATM    4  C15 UNL     1      -2.904   1.290   0.162  1.00  0.00     0.210 A 
HETATM    5  N4  UNL     1      -1.804   0.617   0.513  1.00  0.00    -0.338 N 
ENDROOT
BRANCH   1   6
HETATM    6  C7  UNL     1       0.635   1.041   0.403  1.00  0.00     0.030 C 
HETATM    7  C6  UNL     1       1.391   0.062   0.866  1.00  0.00     0.007 C 
BRANCH   7   8
HETATM    8  C5  UNL     1       2.849  -0.119   1.001  1.00  0.00     0.158 C 
HETATM    9  C3  UNL     1       3.331  -1.227   0.147  1.00  0.00    -0.015 C 
HETATM   10  C2  UNL     1       3.480  -2.462   0.551  1.00  0.00    -0.020 C 
HETATM   11  C4  UNL     1       3.587  -0.664  -1.173  1.00  0.00     0.147 C 
HETATM   12  C1  UNL     1       3.955  -3.608  -0.253  1.00  0.00     0.036 C 
HETATM   13  N1  UNL     1       3.648   0.641  -1.069  1.00  0.00    -0.190 NA
HETATM   14  N2  UNL     1       3.444   1.018   0.277  1.00  0.00    -0.301 N 
HETATM   15  H6  UNL     1       3.767   2.007   0.423  1.00  0.00     0.183 HD
ENDBRANCH   7   8
ENDBRANCH   1   6
BRANCH   2  16
HETATM   16  C10 UNL     1      -0.366   3.726  -0.864  1.00  0.00     0.088 A 
HETATM   17  C11 UNL     1      -0.812   4.241  -2.165  1.00  0.00    -0.009 A 
HETATM   18  C12 UNL     1      -1.220   5.497  -2.091  1.00  0.00     0.039 A 
HETATM   19  C13 UNL     1      -1.079   5.949  -0.689  1.00  0.00     0.113 A 
HETATM   20  F1  UNL     1      -1.372   7.163  -0.139  1.00  0.00    -0.206 F 
HETATM   21  C14 UNL     1      -0.590   4.933   0.011  1.00  0.00     0.030 A 
ENDBRANCH   2  16
BRANCH   5  22
HETATM   22  C16 UNL     1      -1.895  -0.690   1.125  1.00  0.00     0.160 C 
BRANCH  22  23
HETATM   23  C17 UNL     1      -1.851  -1.796   0.099  1.00  0.00     0.291 C 
BRANCH  23  24
HETATM   24  N5  UNL     1      -1.948  -3.076   0.782  1.00  0.00     0.081 N 
HETATM   25  C18 UNL     1      -3.232  -3.295   1.381  1.00  0.00     0.309 C 
HETATM   26  C19 UNL     1      -1.750  -4.089  -0.250  1.00  0.00     0.309 C 
ENDBRANCH  23  24
ENDBRANCH  22  23
ENDBRANCH   5  22
TORSDOF 6
