REMARK  6 active torsions:
REMARK  status: ('A' for Active; 'I' for Inactive)
REMARK    1  A    between atoms: O1_1  and  C1_2 
REMARK    2  A    between atoms: C1_2  and  C2_3 
REMARK    3  A    between atoms: C2_3  and  N1_4 
REMARK    4  A    between atoms: C4_7  and  C5_8 
REMARK    5  A    between atoms: C11_15  and  C12_16 
REMARK    6  A    between atoms: C12_16  and  C13_17 
ROOT
HETATM    1  N1  UNL     1       0.120   1.787  -1.388  1.00  0.00    -0.338 N 
HETATM    2  C3  UNL     1       1.251   2.437  -1.705  1.00  0.00     0.210 A 
HETATM    3  N2  UNL     1       2.310   1.697  -1.399  1.00  0.00    -0.241 NA
HETATM    4  C4  UNL     1       1.878   0.539  -0.871  1.00  0.00     0.095 A 
HETATM    5  C11 UNL     1       0.500   0.601  -0.868  1.00  0.00     0.066 A 
ENDROOT
BRANCH   5   6
HETATM    6  C12 UNL     1      -0.452  -0.362  -0.425  1.00  0.00     0.044 C 
BRANCH   6   7
HETATM    7  C13 UNL     1      -1.437  -0.978   0.117  1.00  0.00    -0.026 A 
HETATM    8  C14 UNL     1      -2.328  -0.149   0.920  1.00  0.00     0.036 A 
HETATM    9  C15 UNL     1      -3.462  -0.379   1.562  1.00  0.00     0.035 A 
HETATM   10 CL1  UNL     1      -4.407   0.767   2.486  1.00  0.00    -0.084 Cl
HETATM   11  C16 UNL     1      -4.001  -1.718   1.552  1.00  0.00     0.025 A 
HETATM   12  C17 UNL     1      -3.528  -2.790   0.989  1.00  0.00     0.010 A 
HETATM   13  P1  UNL     1      -1.968  -2.750   0.047  1.00  0.00    -0.071 P 
HETATM   14  H15 UNL     1      -1.017  -3.585   0.768  1.00  0.00     0.066 HD
ENDBRANCH   6   7
ENDBRANCH   5   6
BRANCH   1  15
HETATM   15  C2  UNL     1      -1.088   2.511  -1.644  1.00  0.00     0.156 C 
BRANCH  15  16
HETATM   16  C1  UNL     1      -1.394   3.466  -0.517  1.00  0.00     0.184 C 
BRANCH  16  17
HETATM   17  O1  UNL     1      -2.581   4.174  -0.708  1.00  0.00    -0.399 OA
HETATM   18  H1  UNL     1      -2.682   4.740   0.115  1.00  0.00     0.209 HD
ENDBRANCH  16  17
ENDBRANCH  15  16
ENDBRANCH   1  15
BRANCH   4  19
HETATM   19  C5  UNL     1       2.723  -0.550  -0.398  1.00  0.00    -0.005 A 
HETATM   20  C6  UNL     1       3.810  -1.166  -0.987  1.00  0.00     0.017 A 
HETATM   21  C7  UNL     1       4.479  -2.176  -0.330  1.00  0.00     0.043 A 
HETATM   22  C8  UNL     1       4.086  -2.597   0.924  1.00  0.00     0.116 A 
HETATM   23  F1  UNL     1       4.759  -3.595   1.566  1.00  0.00    -0.206 F 
HETATM   24  C9  UNL     1       3.004  -1.991   1.521  1.00  0.00     0.043 A 
HETATM   25  C10 UNL     1       2.325  -0.979   0.875  1.00  0.00     0.017 A 
ENDBRANCH   4  19
TORSDOF 6
