REMARK  4 active torsions:
REMARK  status: ('A' for Active; 'I' for Inactive)
REMARK    1  A    between atoms: C4_5  and  C5_6 
REMARK    2  A    between atoms: N1_8  and  C7_9 
REMARK    3  A    between atoms: C7_9  and  C8_10 
REMARK    4  A    between atoms: C8_10  and  N2_11 
ROOT
HETATM    1  C5  UNL     1       2.546  -0.740  -0.441  1.00  0.00     0.084 A 
HETATM    2  C6  UNL     1       1.362  -0.062  -0.637  1.00  0.00     0.124 A 
HETATM    3  N1  UNL     1       0.349  -0.896  -0.937  1.00  0.00    -0.347 N 
HETATM    4  C13 UNL     1       0.900  -2.131  -0.932  1.00  0.00     0.210 A 
HETATM    5  N3  UNL     1       2.213  -2.044  -0.636  1.00  0.00    -0.242 NA
ENDROOT
BRANCH   3   6
HETATM    6  C7  UNL     1      -1.041  -0.652  -1.218  1.00  0.00     0.159 C 
BRANCH   6   7
HETATM    7  C8  UNL     1      -1.881  -0.684   0.034  1.00  0.00     0.292 C 
BRANCH   7   8
HETATM    8  N2  UNL     1      -3.288  -0.442  -0.210  1.00  0.00     0.094 N 
HETATM    9  C9  UNL     1      -4.034  -0.485   1.014  1.00  0.00     0.298 C 
HETATM   10  C10 UNL     1      -4.380   0.948   1.392  1.00  0.00     0.198 C 
HETATM   11  O1  UNL     1      -5.303   1.416   0.477  1.00  0.00    -0.388 OA
HETATM   12  C11 UNL     1      -4.987   1.150  -0.837  1.00  0.00     0.198 C 
HETATM   13  C12 UNL     1      -3.529   0.745  -0.994  1.00  0.00     0.298 C 
ENDBRANCH   7   8
ENDBRANCH   6   7
ENDBRANCH   3   6
BRANCH   1  14
HETATM   14  C4  UNL     1       3.860  -0.194  -0.102  1.00  0.00    -0.006 A 
HETATM   15  C3  UNL     1       4.073   1.170   0.072  1.00  0.00     0.017 A 
HETATM   16  C2  UNL     1       5.352   1.630   0.396  1.00  0.00     0.043 A 
HETATM   17  C1  UNL     1       6.350   0.694   0.527  1.00  0.00     0.116 A 
HETATM   18  F1  UNL     1       7.618   1.114   0.844  1.00  0.00    -0.206 F 
HETATM   19  C15 UNL     1       6.203  -0.667   0.367  1.00  0.00     0.043 A 
HETATM   20  C14 UNL     1       4.907  -1.082   0.044  1.00  0.00     0.017 A 
ENDBRANCH   1  14
TORSDOF 4
