REMARK  8 active torsions:
REMARK  status: ('A' for Active; 'I' for Inactive)
REMARK    1  A    between atoms: N1_2  and  N2_3 
REMARK    2  A    between atoms: N2_3  and  C2_4 
REMARK    3  A    between atoms: C5_7  and  C6_8 
REMARK    4  A    between atoms: C7_9  and  C8_10 
REMARK    5  A    between atoms: N4_18  and  C14_19 
REMARK    6  A    between atoms: C14_19  and  C15_20 
REMARK    7  A    between atoms: C15_20  and  C16_21 
REMARK    8  A    between atoms: C16_21  and  N5_22 
ROOT
HETATM    1  C6  UNL     1       1.228  -1.375   0.684  1.00  0.00     0.071 A 
HETATM    2  C7  UNL     1       1.810  -2.626   0.474  1.00  0.00     0.074 A 
HETATM    3  N3  UNL     1       0.906  -3.591   0.741  1.00  0.00    -0.245 NA
HETATM    4  C13 UNL     1      -0.236  -2.990   1.114  1.00  0.00     0.210 A 
HETATM    5  N4  UNL     1      -0.023  -1.663   1.074  1.00  0.00    -0.339 N 
ENDROOT
BRANCH   1   6
HETATM    6  C5  UNL     1       1.935  -0.123   0.478  1.00  0.00    -0.007 A 
HETATM    7  C4  UNL     1       2.014   0.971   1.281  1.00  0.00     0.016 A 
HETATM    8  C3  UNL     1       2.721   2.106   0.947  1.00  0.00     0.032 A 
HETATM    9  C2  UNL     1       3.401   2.184  -0.253  1.00  0.00     0.050 A 
HETATM   10  C22 UNL     1       3.331   1.071  -1.088  1.00  0.00     0.032 A 
HETATM   11  C21 UNL     1       2.618  -0.059  -0.741  1.00  0.00     0.016 A 
BRANCH   9  12
HETATM   12  N2  UNL     1       4.127   3.361  -0.583  1.00  0.00    -0.280 N 
HETATM   13  H3  UNL     1       5.068   3.115  -0.174  1.00  0.00     0.189 HD
BRANCH  12  14
HETATM   14  N1  UNL     1       3.756   4.526  -1.249  1.00  0.00    -0.198 NA
HETATM   15  C1  UNL     1       3.990   5.651  -0.641  1.00  0.00     0.173 C 
ENDBRANCH  12  14
ENDBRANCH   9  12
ENDBRANCH   1   6
BRANCH   2  16
HETATM   16  C8  UNL     1       3.169  -3.015   0.037  1.00  0.00     0.088 A 
HETATM   17  C9  UNL     1       3.725  -4.117   0.861  1.00  0.00    -0.009 A 
HETATM   18  C10 UNL     1       3.987  -5.204   0.120  1.00  0.00     0.039 A 
HETATM   19  C11 UNL     1       3.621  -4.896  -1.259  1.00  0.00     0.113 A 
HETATM   20  F1  UNL     1       3.777  -5.812  -2.242  1.00  0.00    -0.206 F 
HETATM   21  C12 UNL     1       3.155  -3.652  -1.309  1.00  0.00     0.030 A 
ENDBRANCH   2  16
BRANCH   5  22
HETATM   22  C14 UNL     1      -1.049  -0.737   1.407  1.00  0.00     0.132 C 
BRANCH  22  23
HETATM   23  C15 UNL     1      -1.896  -0.339   0.204  1.00  0.00     0.050 C 
BRANCH  23  24
HETATM   24  C16 UNL     1      -2.932   0.635   0.698  1.00  0.00     0.274 C 
BRANCH  24  25
HETATM   25  N5  UNL     1      -3.809   1.092  -0.358  1.00  0.00     0.092 N 
HETATM   26  C17 UNL     1      -4.669   0.035  -0.848  1.00  0.00     0.298 C 
HETATM   27  C18 UNL     1      -5.836   0.605  -1.606  1.00  0.00     0.198 C 
HETATM   28  O1  UNL     1      -5.702   1.939  -1.911  1.00  0.00    -0.388 OA
HETATM   29  C19 UNL     1      -5.548   2.735  -0.778  1.00  0.00     0.198 C 
HETATM   30  C20 UNL     1      -4.695   2.081   0.263  1.00  0.00     0.298 C 
ENDBRANCH  24  25
ENDBRANCH  23  24
ENDBRANCH  22  23
ENDBRANCH   5  22
TORSDOF 8
