REMARK  8 active torsions:
REMARK  status: ('A' for Active; 'I' for Inactive)
REMARK    1  A    between atoms: C2_2  and  C3_3 
REMARK    2  A    between atoms: C3_3  and  N1_4 
REMARK    3  A    between atoms: C3_3  and  C4_6 
REMARK    4  A    between atoms: N3_9  and  C6_10 
REMARK    5  A    between atoms: C6_10  and  C7_11 
REMARK    6  A    between atoms: C7_11  and  C8_12 
REMARK    7  A    between atoms: C8_12  and  N4_13 
REMARK    8  A    between atoms: C13_19  and  C14_20 
ROOT
HETATM    1  C4  UNL     1      -2.760   1.311  -0.407  1.00  0.00     0.084 A 
HETATM    2  N2  UNL     1      -2.109   2.465  -0.732  1.00  0.00    -0.244 NA
HETATM    3  C5  UNL     1      -0.882   2.140  -1.160  1.00  0.00     0.210 A 
HETATM    4  N3  UNL     1      -0.786   0.786  -1.097  1.00  0.00    -0.339 N 
HETATM    5  C13 UNL     1      -1.924   0.244  -0.639  1.00  0.00     0.072 A 
ENDROOT
BRANCH   4   6
HETATM    6  C6  UNL     1       0.467   0.179  -1.483  1.00  0.00     0.132 C 
BRANCH   6   7
HETATM    7  C7  UNL     1       1.394   0.119  -0.269  1.00  0.00     0.050 C 
BRANCH   7   8
HETATM    8  C8  UNL     1       2.680  -0.518  -0.699  1.00  0.00     0.274 C 
BRANCH   8   9
HETATM    9  N4  UNL     1       3.628  -0.608   0.423  1.00  0.00     0.092 N 
HETATM   10  C9  UNL     1       4.029   0.708   0.754  1.00  0.00     0.298 C 
HETATM   11  C10 UNL     1       5.503   0.983   0.726  1.00  0.00     0.198 C 
HETATM   12  O1  UNL     1       6.273  -0.091   1.100  1.00  0.00    -0.388 OA
HETATM   13  C11 UNL     1       6.045  -1.091   0.157  1.00  0.00     0.198 C 
HETATM   14  C12 UNL     1       4.631  -1.546   0.073  1.00  0.00     0.298 C 
ENDBRANCH   8   9
ENDBRANCH   7   8
ENDBRANCH   6   7
ENDBRANCH   4   6
BRANCH   5  15
HETATM   15  C14 UNL     1      -2.256  -1.142  -0.414  1.00  0.00    -0.007 A 
HETATM   16  C15 UNL     1      -2.064  -2.111  -1.377  1.00  0.00     0.014 A 
HETATM   17  C16 UNL     1      -2.336  -3.444  -1.241  1.00  0.00     0.001 A 
HETATM   18  C17 UNL     1      -2.857  -3.904  -0.031  1.00  0.00     0.000 A 
HETATM   19  C18 UNL     1      -3.073  -2.995   0.972  1.00  0.00     0.001 A 
HETATM   20  C19 UNL     1      -2.770  -1.669   0.749  1.00  0.00     0.014 A 
ENDBRANCH   5  15
BRANCH   1  21
HETATM   21  C3  UNL     1      -4.142   1.427   0.116  1.00  0.00     0.147 C 
BRANCH  21  22
HETATM   22  C2  UNL     1      -4.891   2.346  -0.831  1.00  0.00     0.018 C 
HETATM   23  C1  UNL     1      -5.218   3.622  -0.573  1.00  0.00     0.007 C 
ENDBRANCH  21  22
BRANCH  21  24
HETATM   24  N1  UNL     1      -4.149   2.192   1.378  1.00  0.00    -0.152 NA
HETATM   25  F1  UNL     1      -3.500   1.470   2.292  1.00  0.00    -0.135 F 
HETATM   26  H5  UNL     1      -5.142   2.387   1.603  1.00  0.00     0.160 HD
ENDBRANCH  21  24
ENDBRANCH   1  21
TORSDOF 8
