REMARK  4 active torsions:
REMARK  status: ('A' for Active; 'I' for Inactive)
REMARK    1  A    between atoms: C2_2  and  C3_3 
REMARK    2  A    between atoms: C4_4  and  C5_5 
REMARK    3  A    between atoms: C14_15  and  C15_16 
REMARK    4  A    between atoms: C22_26  and  N4_28 
ROOT
HETATM    1  C5  UNL     1       1.843  -0.002   0.229  1.00  0.00     0.048 C 
HETATM    2  C6  UNL     1       2.797  -0.427   1.341  1.00  0.00     0.028 C 
HETATM    3  C7  UNL     1       1.266  -1.095  -0.510  1.00  0.00     0.021 C 
HETATM    4  C8  UNL     1       0.313  -1.882  -0.973  1.00  0.00     0.035 A 
HETATM    5  C9  UNL     1       0.749  -2.966  -1.841  1.00  0.00     0.029 A 
HETATM    6  C10 UNL     1       0.001  -3.880  -2.416  1.00  0.00     0.004 A 
HETATM    7  C11 UNL     1      -1.420  -3.772  -2.137  1.00  0.00     0.018 A 
HETATM    8  C12 UNL     1      -1.885  -2.810  -1.355  1.00  0.00     0.096 A 
HETATM    9  N1  UNL     1      -1.079  -1.795  -0.713  1.00  0.00    -0.331 N 
HETATM   10  C13 UNL     1      -2.019  -1.009   0.004  1.00  0.00     0.129 C 
HETATM   11  C14 UNL     1      -2.562   0.179  -0.142  1.00  0.00     0.084 C 
HETATM   12  N2  UNL     1      -2.049   0.796  -1.312  1.00  0.00    -0.242 NA
HETATM   13  C21 UNL     1      -0.876   1.369  -1.188  1.00  0.00     0.205 C 
HETATM   14  N3  UNL     1       0.002   1.498  -0.083  1.00  0.00    -0.350 N 
HETATM   15  C22 UNL     1       0.831   0.916   0.913  1.00  0.00     0.238 C 
HETATM   16  C23 UNL     1       1.650   2.034   1.570  1.00  0.00     0.075 C 
HETATM   17  H20 UNL     1      -0.080   2.562  -0.093  1.00  0.00     0.162 HD
ENDROOT
BRANCH  11  18
HETATM   18  C15 UNL     1      -3.529   0.800   0.737  1.00  0.00    -0.006 A 
HETATM   19  C16 UNL     1      -3.957   2.070   0.352  1.00  0.00     0.017 A 
HETATM   20  C17 UNL     1      -4.892   2.646   1.220  1.00  0.00     0.043 A 
HETATM   21  C18 UNL     1      -5.372   2.063   2.350  1.00  0.00     0.116 A 
HETATM   22  F1  UNL     1      -6.280   2.717   3.120  1.00  0.00    -0.206 F 
HETATM   23  C19 UNL     1      -4.930   0.821   2.693  1.00  0.00     0.043 A 
HETATM   24  C20 UNL     1      -4.002   0.194   1.874  1.00  0.00     0.017 A 
ENDBRANCH  11  18
BRANCH  15  25
HETATM   25  N4  UNL     1       0.094   0.296   1.963  1.00  0.00     0.108 N 
HETATM   26  H24 UNL     1       0.525   0.534   2.881  1.00  0.00     0.316 HD
HETATM   27  H25 UNL     1       0.121  -0.755   1.929  1.00  0.00     0.316 HD
ENDBRANCH  15  25
BRANCH   1  28
HETATM   28  C4  UNL     1       2.614   0.934  -0.672  1.00  0.00    -0.009 C 
HETATM   29  C3  UNL     1       3.837   0.864  -1.182  1.00  0.00    -0.004 C 
BRANCH  29  30
HETATM   30  C2  UNL     1       4.952  -0.057  -1.140  1.00  0.00    -0.011 C 
HETATM   31  C1  UNL     1       6.193  -0.144  -1.644  1.00  0.00     0.011 C 
ENDBRANCH  29  30
ENDBRANCH   1  28
TORSDOF 4
