REMARK  2 active torsions:
REMARK  status: ('A' for Active; 'I' for Inactive)
REMARK       I    between atoms: C2_2  and  N1_4 
REMARK    1  A    between atoms: N2_7  and  C5_8 
REMARK    2  A    between atoms: C8_12  and  C9_13 
ROOT
HETATM    1  C5  UNL     1      -0.204  -0.121  -0.086  1.00  0.00     0.026 C 
HETATM    2  C6  UNL     1      -0.835   1.089   0.068  1.00  0.00     0.113 C 
HETATM    3  N3  UNL     1      -2.266   1.411  -0.060  1.00  0.00    -0.366 N 
HETATM    4  C7  UNL     1      -3.273   0.509  -0.592  1.00  0.00     0.023 C 
HETATM    5  C8  UNL     1      -4.377   0.495   0.139  1.00  0.00     0.012 C 
HETATM    6  C10 UNL     1      -4.794  -0.884   0.572  1.00  0.00     0.055 C 
HETATM    7  C11 UNL     1      -3.943  -1.869   0.148  1.00  0.00     0.123 C 
HETATM    8  F2  UNL     1      -3.983  -3.163   0.501  1.00  0.00    -0.206 F 
HETATM    9  C12 UNL     1      -2.750  -1.606  -0.711  1.00  0.00    -0.017 C 
HETATM   10  C13 UNL     1      -1.639  -2.200  -0.329  1.00  0.00    -0.010 C 
HETATM   11  C14 UNL     1      -0.322  -1.528  -0.505  1.00  0.00     0.086 C 
HETATM   12  C15 UNL     1      -3.171  -0.542  -1.766  1.00  0.00     0.099 C 
HETATM   13  H9  UNL     1      -2.816   2.221   0.194  1.00  0.00     0.165 HD
ENDROOT
BRANCH   1  14
HETATM   14  N2  UNL     1       1.114   0.232   0.380  1.00  0.00    -0.380 N 
HETATM   15  C4  UNL     1       1.640  -0.407   1.545  1.00  0.00     0.142 C 
HETATM   16  C3  UNL     1       2.932   0.306   1.955  1.00  0.00     0.145 C 
HETATM   17  N1  UNL     1       3.776   0.262   0.776  1.00  0.00    -0.349 N 
HETATM   18  C2  UNL     1       5.014  -0.439   0.780  1.00  0.00     0.215 C 
HETATM   19  C17 UNL     1       3.320   0.958  -0.414  1.00  0.00     0.145 C 
HETATM   20  C1  UNL     1       5.841  -0.454  -0.448  1.00  0.00     0.117 C 
HETATM   21  O1  UNL     1       5.344  -1.011   1.831  1.00  0.00    -0.274 OA
HETATM   22  C16 UNL     1       1.854   1.247  -0.384  1.00  0.00     0.142 C 
ENDBRANCH   1  14
BRANCH   5  23
HETATM   23  C9  UNL     1      -4.734   1.867   0.412  1.00  0.00     0.276 C 
HETATM   24  F1  UNL     1      -6.124   1.769   0.358  1.00  0.00    -0.232 F 
HETATM   25 BR1  UNL     1      -4.544   2.441   2.233  1.00  0.00    -0.051 Br
ENDBRANCH   5  23
TORSDOF 2
