REMARK  2 active torsions:
REMARK  status: ('A' for Active; 'I' for Inactive)
REMARK    1  A    between atoms: C3_3  and  C4_5 
REMARK    2  A    between atoms: C20_26  and  O2_27 
ROOT
HETATM    1  C4  UNL     1       3.314  -1.419  -0.927  1.00  0.00     0.208 A 
HETATM    2  C5  UNL     1       1.937  -1.274  -0.665  1.00  0.00     0.145 A 
HETATM    3  F1  UNL     1       2.947  -2.265  -0.755  1.00  0.00    -0.380 F 
HETATM    4  C6  UNL     1       1.133  -2.438  -0.621  1.00  0.00     0.236 A 
HETATM    5  C7  UNL     1       0.651  -1.058  -0.390  1.00  0.00     0.101 A 
HETATM    6  C8  UNL     1       1.092   0.395  -0.321  1.00  0.00     0.280 C 
HETATM    7  N1  UNL     1       0.337   1.134   0.695  1.00  0.00     0.084 N 
HETATM    8  C9  UNL     1       0.783   2.453   0.856  1.00  0.00     0.269 C 
HETATM    9  C10 UNL     1      -0.107   3.251   1.815  1.00  0.00     0.032 C 
HETATM   10  C11 UNL     1      -1.519   3.275   1.346  1.00  0.00     0.028 C 
HETATM   11  C12 UNL     1      -1.899   4.151   0.203  1.00  0.00     0.169 C 
HETATM   12  O1  UNL     1      -3.245   3.653  -0.270  1.00  0.00    -0.375 OA
HETATM   13  C13 UNL     1      -2.987   2.276  -0.889  1.00  0.00     0.114 A 
HETATM   14  C14 UNL     1      -1.875   2.224  -1.514  1.00  0.00     0.085 A 
HETATM   15  C15 UNL     1      -2.286   0.695  -1.808  1.00  0.00     0.032 A 
HETATM   16  N2  UNL     1      -2.738  -0.504  -2.034  1.00  0.00    -0.250 NA
HETATM   17  C16 UNL     1      -1.502  -1.418  -2.245  1.00  0.00     0.237 C 
HETATM   18  N3  UNL     1      -0.945  -1.978  -1.237  1.00  0.00    -0.155 N 
HETATM   19  C17 UNL     1      -1.452  -1.787   0.180  1.00  0.00     0.313 A 
HETATM   20  C18 UNL     1      -2.354  -0.888  -0.114  1.00  0.00     0.121 A 
HETATM   21  C19 UNL     1      -2.811  -0.700   1.315  1.00  0.00     0.019 A 
HETATM   22  C20 UNL     1      -3.237   0.066   0.233  1.00  0.00     0.079 A 
HETATM   23  C21 UNL     1      -3.655   0.856  -0.993  1.00  0.00     0.107 A 
HETATM   24  N4  UNL     1      -0.253  -2.453  -0.078  1.00  0.00     0.063 N 
HETATM   25  H9  UNL     1       0.245   0.598   1.546  1.00  0.00     0.315 HD
HETATM   26  H24 UNL     1       0.165  -3.404   0.274  1.00  0.00     0.314 HD
ENDROOT
BRANCH   1  27
HETATM   27  C3  UNL     1       3.655  -2.899  -0.770  1.00  0.00     0.018 C 
HETATM   28  C2  UNL     1       4.958  -3.068  -1.070  1.00  0.00    -0.013 C 
HETATM   29  C1  UNL     1       5.130  -4.541  -0.845  1.00  0.00     0.037 C 
HETATM   30 BR1  UNL     1       2.834  -4.502  -0.289  1.00  0.00    -0.053 Br
ENDBRANCH   1  27
BRANCH  22  31
HETATM   31  O2  UNL     1      -4.193   1.011   0.942  1.00  0.00    -0.388 OA
HETATM   32  H22 UNL     1      -4.822   0.517   1.517  1.00  0.00     0.210 HD
ENDBRANCH  22  31
TORSDOF 2
