REMARK  5 active torsions:
REMARK  status: ('A' for Active; 'I' for Inactive)
REMARK    1  A    between atoms: C4_5  and  C5_6 
REMARK    2  A    between atoms: C5_6  and  O1_7 
REMARK    3  A    between atoms: O1_7  and  C6_8 
REMARK    4  A    between atoms: C14_17  and  P1_18 
REMARK    5  A    between atoms: C15_19  and  O2_20 
ROOT
HETATM    1  C6  UNL     1      -1.610   0.651  -0.174  1.00  0.00     0.082 A 
HETATM    2  C7  UNL     1      -2.687   0.119  -0.741  1.00  0.00    -0.030 A 
HETATM    3  C8  UNL     1      -2.633  -1.026  -1.660  1.00  0.00     0.085 C 
HETATM    4  C9  UNL     1      -3.840  -1.899  -1.602  1.00  0.00     0.093 C 
HETATM    5  N2  UNL     1      -4.904  -2.071  -0.881  1.00  0.00    -0.277 NA
HETATM    6  C10 UNL     1      -5.203  -1.269   0.275  1.00  0.00     0.112 C 
HETATM    7  C11 UNL     1      -4.792  -0.033   0.534  1.00  0.00     0.005 C 
HETATM    8  C12 UNL     1      -3.912   0.843  -0.312  1.00  0.00     0.065 A 
HETATM    9  C13 UNL     1      -3.348   1.876   0.595  1.00  0.00     0.001 A 
HETATM   10  C14 UNL     1      -2.031   1.762   0.671  1.00  0.00    -0.006 A 
ENDROOT
BRANCH   1  11
HETATM   11  O1  UNL     1      -0.253   0.363  -0.235  1.00  0.00    -0.349 OA
BRANCH  11  12
HETATM   12  C5  UNL     1       0.261  -0.602   0.630  1.00  0.00     0.183 C 
BRANCH  12  13
HETATM   13  C4  UNL     1       1.727  -0.852   0.499  1.00  0.00     0.042 C 
HETATM   14  C3  UNL     1       2.128  -1.324  -0.866  1.00  0.00     0.039 C 
HETATM   15  C2  UNL     1       3.599  -1.045  -1.082  1.00  0.00     0.272 C 
HETATM   16  N1  UNL     1       3.941   0.342  -1.075  1.00  0.00     0.086 N 
HETATM   17  C1  UNL     1       5.214   0.455  -0.361  1.00  0.00     0.310 C 
HETATM   18  C16 UNL     1       2.962   1.089  -0.305  1.00  0.00     0.303 C 
HETATM   19  C15 UNL     1       2.621   0.267   0.911  1.00  0.00     0.152 C 
BRANCH  19  20
HETATM   20  O2  UNL     1       2.192   1.007   1.994  1.00  0.00    -0.393 OA
HETATM   21  H21 UNL     1       1.895   0.382   2.679  1.00  0.00     0.210 HD
ENDBRANCH  19  20
ENDBRANCH  12  13
ENDBRANCH  11  12
ENDBRANCH   1  11
BRANCH  10  22
HETATM   22  P1  UNL     1      -1.207   2.982   1.761  1.00  0.00    -0.104 P 
HETATM   23  H18 UNL     1      -1.690   2.877   3.104  1.00  0.00     0.059 HD
HETATM   24  H19 UNL     1       0.216   2.881   1.610  1.00  0.00     0.059 HD
ENDBRANCH  10  22
TORSDOF 5
