REMARK  7 active torsions:
REMARK  status: ('A' for Active; 'I' for Inactive)
REMARK    1  A    between atoms: C3_4  and  C4_5 
REMARK    2  A    between atoms: C5_6  and  C6_7 
REMARK    3  A    between atoms: C7_8  and  O2_9 
REMARK    4  A    between atoms: O2_9  and  C8_10 
REMARK    5  A    between atoms: C8_10  and  C9_11 
REMARK    6  A    between atoms: C16_21  and  N4_22 
REMARK    7  A    between atoms: N4_22  and  C17_23 
ROOT
HETATM    1  C4  UNL     1      -2.030  -0.616   0.083  1.00  0.00     0.025 A 
HETATM    2  C5  UNL     1      -0.787  -0.039   0.353  1.00  0.00     0.070 A 
HETATM    3  N2  UNL     1      -0.738   1.283   0.550  1.00  0.00    -0.241 NA
HETATM    4  C15 UNL     1      -1.813   2.047   0.498  1.00  0.00     0.235 A 
HETATM    5  N3  UNL     1      -2.971   1.466   0.239  1.00  0.00    -0.224 NA
HETATM    6  C16 UNL     1      -3.160   0.161   0.022  1.00  0.00     0.138 A 
ENDROOT
BRANCH   2   7
HETATM    7  C6  UNL     1       0.419  -0.837   0.400  1.00  0.00     0.056 C 
HETATM    8  C7  UNL     1       1.538  -0.189   0.614  1.00  0.00     0.137 C 
BRANCH   8   9
HETATM    9  O2  UNL     1       2.838  -0.636   0.711  1.00  0.00    -0.363 OA
BRANCH   9  10
HETATM   10  C8  UNL     1       3.361  -1.627  -0.170  1.00  0.00     0.179 C 
BRANCH  10  11
HETATM   11  C9  UNL     1       4.819  -1.348  -0.484  1.00  0.00     0.013 C 
HETATM   12  C10 UNL     1       5.707  -1.340   0.712  1.00  0.00     0.037 C 
HETATM   13  C11 UNL     1       5.973   0.058   1.226  1.00  0.00     0.272 C 
HETATM   14  N1  UNL     1       6.628   0.882   0.232  1.00  0.00     0.084 N 
HETATM   15  C12 UNL     1       6.287   2.274   0.488  1.00  0.00     0.309 C 
HETATM   16  C13 UNL     1       6.278   0.529  -1.125  1.00  0.00     0.272 C 
HETATM   17  C14 UNL     1       4.867   0.003  -1.185  1.00  0.00     0.037 C 
ENDBRANCH  10  11
ENDBRANCH   9  10
ENDBRANCH   8   9
ENDBRANCH   2   7
BRANCH   1  18
HETATM   18  C3  UNL     1      -2.236  -2.043  -0.122  1.00  0.00     0.059 A 
HETATM   19  C2  UNL     1      -2.525  -3.365  -0.321  1.00  0.00    -0.019 A 
HETATM   20  O1  UNL     1      -3.730  -2.631  -0.331  1.00  0.00     0.000 OA
HETATM   21  C1  UNL     1      -4.943  -3.422  -0.313  1.00  0.00     0.000 C 
ENDBRANCH   1  18
BRANCH   6  22
HETATM   22  N4  UNL     1      -4.503  -0.101  -0.289  1.00  0.00    -0.338 N 
HETATM   23  H23 UNL     1      -5.273  -0.658  -0.628  1.00  0.00     0.167 HD
BRANCH  22  24
HETATM   24  C17 UNL     1      -5.526   0.906  -0.095  1.00  0.00     0.072 A 
HETATM   25  C18 UNL     1      -6.653   0.960   0.719  1.00  0.00     0.034 A 
HETATM   26  C19 UNL     1      -7.479   2.051   0.764  1.00  0.00     0.021 A 
HETATM   27  C20 UNL     1      -7.198   3.149  -0.025  1.00  0.00     0.014 A 
HETATM   28 BR1  UNL     1      -8.422   4.589   0.139  1.00  0.00    -0.051 Br
HETATM   29  C21 UNL     1      -6.089   3.154  -0.858  1.00  0.00     0.063 A 
HETATM   30  C22 UNL     1      -5.263   2.030  -0.886  1.00  0.00     0.144 A 
HETATM   31  F1  UNL     1      -4.268   2.292  -1.800  1.00  0.00    -0.204 F 
ENDBRANCH  22  24
ENDBRANCH   6  22
TORSDOF 7
