REMARK  1 active torsions:
REMARK  status: ('A' for Active; 'I' for Inactive)
REMARK    1  A    between atoms: O2_15  and  C14_16 
ROOT
HETATM    1  O1  UNL     1       3.061  -2.812   0.323  1.00  0.00    -0.273 OA
HETATM    2  C1  UNL     1       2.561  -1.811  -0.227  1.00  0.00     0.227 C 
HETATM    3  C2  UNL     1       1.267  -1.577  -1.059  1.00  0.00     0.142 C 
HETATM    4  C3  UNL     1       0.642  -0.563  -0.160  1.00  0.00    -0.032 C 
HETATM    5  C4  UNL     1      -0.288  -1.310   0.418  1.00  0.00    -0.071 C 
HETATM    6  C5  UNL     1      -1.097  -2.459   0.740  1.00  0.00     0.039 C 
HETATM    7  C6  UNL     1      -2.616  -1.989   0.617  1.00  0.00     0.039 C 
HETATM    8  C7  UNL     1      -2.475  -0.594   0.051  1.00  0.00    -0.069 A 
HETATM    9  C8  UNL     1      -2.922  -0.068  -1.173  1.00  0.00     0.000 A 
HETATM   10  C9  UNL     1      -2.452   1.179  -1.517  1.00  0.00    -0.014 A 
HETATM   11  C10 UNL     1      -1.636   1.653  -0.558  1.00  0.00     0.007 A 
HETATM   12  C11 UNL     1      -1.014   1.525   0.654  1.00  0.00     0.020 A 
HETATM   13  C12 UNL     1      -1.655   0.371   0.590  1.00  0.00     0.004 A 
HETATM   14  C13 UNL     1      -0.855  -0.463   1.585  1.00  0.00     0.050 C 
HETATM   15  O2  UNL     1      -0.740   2.710  -0.221  1.00  0.00     0.000 OA
HETATM   16  C14 UNL     1       0.663   2.142  -0.187  1.00  0.00    -0.009 A 
HETATM   17  C15 UNL     1       1.471   3.212  -0.201  1.00  0.00     0.032 A 
HETATM   18  C16 UNL     1       2.814   3.004  -0.183  1.00  0.00     0.120 A 
HETATM   19  N1  UNL     1       3.341   1.796  -0.155  1.00  0.00    -0.242 NA
HETATM   20  C17 UNL     1       2.478   0.750  -0.144  1.00  0.00     0.141 A 
HETATM   21  C18 UNL     1       1.088   0.813  -0.153  1.00  0.00     0.028 A 
HETATM   22  N2  UNL     1       3.200  -0.509  -0.170  1.00  0.00    -0.311 N 
HETATM   23  H14 UNL     1       4.280  -0.513  -0.121  1.00  0.00     0.170 HD
ENDROOT
TORSDOF 1
