REMARK  2 active torsions:
REMARK  status: ('A' for Active; 'I' for Inactive)
REMARK    1  A    between atoms: O1_2  and  C2_3 
REMARK    2  A    between atoms: C9_12  and  C10_13 
ROOT
HETATM    1  C2  UNL     1       0.170   0.577  -0.472  1.00  0.00     0.184 C 
HETATM    2  C3  UNL     1       0.717   0.856   0.907  1.00  0.00    -0.021 C 
HETATM    3  C4  UNL     1      -0.228   0.600   1.897  1.00  0.00     0.034 C 
HETATM    4  C5  UNL     1       0.431  -0.400   2.875  1.00  0.00     0.206 C 
HETATM    5  N1  UNL     1       1.002  -1.362   1.802  1.00  0.00    -0.291 NA
HETATM    6  C6  UNL     1       0.034  -1.945   1.180  1.00  0.00     0.025 C 
HETATM    7  C7  UNL     1      -1.497  -1.940   1.268  1.00  0.00     0.169 C 
HETATM    8  N2  UNL     1      -1.654  -1.291   0.119  1.00  0.00    -0.401 N 
HETATM    9  C8  UNL     1      -0.845  -0.436  -0.605  1.00  0.00     0.088 C 
HETATM   10  C9  UNL     1      -1.992   0.514  -0.584  1.00  0.00    -0.024 C 
HETATM   11  C11 UNL     1      -2.279   1.206   0.600  1.00  0.00     0.094 C 
HETATM   12  N3  UNL     1      -1.590   1.132   1.906  1.00  0.00    -0.367 N 
HETATM   13  C12 UNL     1      -0.182  -1.443  -1.251  1.00  0.00     0.050 C 
HETATM   14  C13 UNL     1       1.237  -1.184  -1.826  1.00  0.00     0.182 C 
HETATM   15  O2  UNL     1       2.175  -1.033  -0.824  1.00  0.00    -0.363 OA
HETATM   16  C14 UNL     1       3.302  -0.436  -0.513  1.00  0.00     0.131 C 
HETATM   17  C15 UNL     1       3.014   0.538   0.327  1.00  0.00     0.002 C 
HETATM   18  C16 UNL     1       2.055   1.327   1.122  1.00  0.00     0.068 C 
HETATM   19  C17 UNL     1       0.282  -2.520  -0.162  1.00  0.00     0.065 C 
HETATM   20  H9  UNL     1      -2.306  -1.772  -0.515  1.00  0.00     0.154 HD
HETATM   21  H13 UNL     1      -1.768   1.328   2.873  1.00  0.00     0.165 HD
ENDROOT
BRANCH   1  22
HETATM   22  O1  UNL     1      -0.276   1.958  -0.650  1.00  0.00    -0.383 OA
HETATM   23  C1  UNL     1       0.417   2.580  -1.648  1.00  0.00     0.202 C 
ENDBRANCH   1  22
BRANCH  10  24
HETATM   24  C10 UNL     1      -2.926   0.880  -1.606  1.00  0.00     0.123 C 
HETATM   25 BR1  UNL     1      -4.188   2.167  -0.930  1.00  0.00    -0.092 Br
ENDBRANCH  10  24
TORSDOF 2
