REMARK  6 active torsions:
REMARK  status: ('A' for Active; 'I' for Inactive)
REMARK    1  A    between atoms: C2_2  and  C3_4 
REMARK    2  A    between atoms: C4_5  and  C5_6 
REMARK    3  A    between atoms: C6_7  and  N1_8 
REMARK    4  A    between atoms: N1_8  and  C7_9 
REMARK    5  A    between atoms: C14_19  and  O1_20 
REMARK    6  A    between atoms: O1_20  and  C15_21 
ROOT
HETATM    1  C7  UNL     1       1.174  -2.356   0.352  1.00  0.00     0.159 A 
HETATM    2  N2  UNL     1       1.309  -3.713   0.364  1.00  0.00    -0.222 NA
HETATM    3  C8  UNL     1       0.238  -4.426   0.826  1.00  0.00     0.238 A 
HETATM    4  N3  UNL     1      -0.906  -3.867   1.255  1.00  0.00    -0.215 NA
HETATM    5  C9  UNL     1      -1.038  -2.508   1.241  1.00  0.00     0.202 A 
HETATM    6  C10 UNL     1       0.009  -1.766   0.787  1.00  0.00     0.129 A 
HETATM    7  N4  UNL     1       0.160  -0.339   0.638  1.00  0.00    -0.379 N 
HETATM    8  C11 UNL     1      -0.856   0.668   0.581  1.00  0.00     0.161 C 
HETATM    9  C12 UNL     1      -2.240   0.209   0.535  1.00  0.00    -0.004 A 
HETATM   10  C13 UNL     1      -3.037   1.147  -0.136  1.00  0.00     0.048 A 
HETATM   11  C14 UNL     1      -4.396   1.034  -0.360  1.00  0.00     0.075 A 
HETATM   12  C16 UNL     1      -4.985  -0.107   0.130  1.00  0.00     0.040 A 
HETATM   13  C17 UNL     1      -4.294  -1.091   0.804  1.00  0.00     0.040 A 
HETATM   14  C18 UNL     1      -2.929  -0.924   0.999  1.00  0.00     0.086 A 
HETATM   15  O2  UNL     1      -2.235  -1.944   1.690  1.00  0.00    -0.289 OA
HETATM   16  H9  UNL     1       1.149  -0.020   0.560  1.00  0.00     0.160 HD
ENDROOT
BRANCH   1  17
HETATM   17  N1  UNL     1       2.339  -1.717  -0.151  1.00  0.00    -0.349 N 
HETATM   18  H7  UNL     1       1.987  -1.477  -1.082  1.00  0.00     0.167 HD
BRANCH  17  19
HETATM   19  C6  UNL     1       3.593  -1.511   0.522  1.00  0.00     0.090 C 
HETATM   20  C5  UNL     1       4.327  -0.434   0.400  1.00  0.00     0.017 C 
BRANCH  20  21
HETATM   21  C4  UNL     1       3.961   0.700  -0.440  1.00  0.00     0.003 C 
HETATM   22  C3  UNL     1       4.607   1.820  -0.647  1.00  0.00     0.018 C 
BRANCH  22  23
HETATM   23  C2  UNL     1       5.868   2.196  -0.071  1.00  0.00     0.001 C 
HETATM   24  C1  UNL     1       6.409   3.359  -0.374  1.00  0.00     0.032 C 
HETATM   25 BR1  UNL     1       7.139   1.466   1.124  1.00  0.00    -0.052 Br
ENDBRANCH  22  23
ENDBRANCH  20  21
ENDBRANCH  17  19
ENDBRANCH   1  17
BRANCH  11  26
HETATM   26  O1  UNL     1      -5.076   2.026  -1.039  1.00  0.00    -0.290 OA
BRANCH  26  27
HETATM   27  C15 UNL     1      -6.458   2.008  -1.306  1.00  0.00     0.505 C 
HETATM   28  F1  UNL     1      -7.070   3.240  -1.189  1.00  0.00    -0.184 F 
HETATM   29  F2  UNL     1      -6.606   1.630  -2.651  1.00  0.00    -0.184 F 
ENDBRANCH  26  27
ENDBRANCH  11  26
TORSDOF 6
