REMARK  6 active torsions:
REMARK  status: ('A' for Active; 'I' for Inactive)
REMARK    1  A    between atoms: O1_2  and  C2_3 
REMARK    2  A    between atoms: C4_5  and  N1_6 
REMARK    3  A    between atoms: N1_6  and  C5_7 
REMARK    4  A    between atoms: C14_20  and  O2_21 
REMARK    5  A    between atoms: O2_21  and  C15_22 
REMARK    6  A    between atoms: C15_22  and  C16_23 
ROOT
HETATM    1  C2  UNL     1      -0.905  -1.427  -0.949  1.00  0.00     0.102 C 
HETATM    2  C3  UNL     1      -2.034  -2.151  -1.069  1.00  0.00     0.074 C 
HETATM    3  C4  UNL     1      -2.921  -1.814   0.071  1.00  0.00     0.194 A 
HETATM    4  N2  UNL     1      -3.781  -2.790   0.608  1.00  0.00    -0.240 NA
HETATM    5  C11 UNL     1      -3.635  -2.821   1.885  1.00  0.00     0.230 A 
HETATM    6  N3  UNL     1      -2.639  -1.858   2.302  1.00  0.00    -0.242 NA
HETATM    7  C12 UNL     1      -2.201  -1.260   1.198  1.00  0.00     0.093 A 
HETATM    8  C13 UNL     1      -1.031  -0.391   1.216  1.00  0.00     0.071 C 
HETATM    9  C14 UNL     1      -0.325  -0.527   0.054  1.00  0.00     0.103 C 
ENDROOT
BRANCH   3  10
HETATM   10  N1  UNL     1      -3.887  -0.775  -0.453  1.00  0.00    -0.351 N 
HETATM   11  H5  UNL     1      -3.634  -0.793  -1.488  1.00  0.00     0.163 HD
BRANCH  10  12
HETATM   12  C5  UNL     1      -4.924   0.191  -0.367  1.00  0.00     0.069 A 
HETATM   13  C6  UNL     1      -5.439   0.891  -1.466  1.00  0.00     0.034 A 
HETATM   14  C7  UNL     1      -6.427   1.788  -1.189  1.00  0.00     0.021 A 
HETATM   15  C8  UNL     1      -6.884   1.993   0.073  1.00  0.00     0.014 A 
HETATM   16 BR1  UNL     1      -8.262   3.303   0.148  1.00  0.00    -0.051 Br
HETATM   17  C9  UNL     1      -6.401   1.324   1.174  1.00  0.00     0.063 A 
HETATM   18  C10 UNL     1      -5.408   0.421   0.899  1.00  0.00     0.144 A 
HETATM   19  F1  UNL     1      -5.067  -0.116   2.091  1.00  0.00    -0.204 F 
ENDBRANCH  10  12
ENDBRANCH   3  10
BRANCH   1  20
HETATM   20  O1  UNL     1       0.039  -1.576  -1.995  1.00  0.00    -0.353 OA
HETATM   21  C1  UNL     1      -0.055  -2.629  -2.936  1.00  0.00     0.210 C 
ENDBRANCH   1  20
BRANCH   9  22
HETATM   22  O2  UNL     1       0.859   0.171  -0.101  1.00  0.00    -0.348 OA
BRANCH  22  23
HETATM   23  C15 UNL     1       2.118  -0.347  -0.388  1.00  0.00     0.180 C 
BRANCH  23  24
HETATM   24  C16 UNL     1       3.182   0.727  -0.484  1.00  0.00     0.013 C 
HETATM   25  C17 UNL     1       3.218   1.426   0.870  1.00  0.00     0.037 C 
HETATM   26  C18 UNL     1       4.658   1.458   1.385  1.00  0.00     0.272 C 
HETATM   27  N4  UNL     1       5.572   1.891   0.365  1.00  0.00     0.084 N 
HETATM   28  C19 UNL     1       6.884   1.986   0.940  1.00  0.00     0.309 C 
HETATM   29  C20 UNL     1       5.563   1.110  -0.833  1.00  0.00     0.272 C 
HETATM   30  C21 UNL     1       4.509   0.030  -0.701  1.00  0.00     0.037 C 
ENDBRANCH  23  24
ENDBRANCH  22  23
ENDBRANCH   9  22
TORSDOF 6
