REMARK  4 active torsions:
REMARK  status: ('A' for Active; 'I' for Inactive)
REMARK    1  A    between atoms: C7_7  and  N1_8 
REMARK    2  A    between atoms: N1_8  and  C8_9 
REMARK    3  A    between atoms: C9_10  and  C10_11 
REMARK    4  A    between atoms: C11_12  and  C12_13 
ROOT
HETATM    1  C1  UNL     1      -2.196   2.305   3.030  1.00  0.00     0.024 C 
HETATM    2  C2  UNL     1      -1.459   1.247   2.356  1.00  0.00     0.025 A 
HETATM    3  C3  UNL     1      -0.881   0.259   3.069  1.00  0.00     0.018 A 
HETATM    4  C4  UNL     1      -0.111  -0.994   3.287  1.00  0.00    -0.014 C 
HETATM    5  C5  UNL     1       0.620  -1.838   2.526  1.00  0.00    -0.001 C 
HETATM    6  C6  UNL     1       1.001  -1.812   1.138  1.00  0.00     0.026 C 
HETATM    7  C7  UNL     1       0.973  -1.063   0.007  1.00  0.00     0.029 C 
HETATM    8  C13 UNL     1       0.885   0.368   0.349  1.00  0.00     0.205 C 
HETATM    9  N2  UNL     1      -0.144   1.249   0.092  1.00  0.00    -0.290 NA
HETATM   10  C14 UNL     1      -1.108   1.626   0.907  1.00  0.00     0.035 C 
HETATM   11  C15 UNL     1      -1.918   2.590   0.140  1.00  0.00     0.172 C 
HETATM   12  N3  UNL     1      -2.899   1.885  -0.564  1.00  0.00    -0.407 N 
HETATM   13  C16 UNL     1      -4.150   1.615   0.006  1.00  0.00     0.117 C 
HETATM   14  C17 UNL     1      -4.074   0.290   0.709  1.00  0.00     0.024 C 
HETATM   15  C18 UNL     1      -2.958  -0.618   0.304  1.00  0.00    -0.012 C 
HETATM   16  C19 UNL     1      -2.505  -0.402  -1.092  1.00  0.00     0.024 C 
HETATM   17  C20 UNL     1      -2.471   1.015  -1.597  1.00  0.00     0.117 C 
HETATM   18  C21 UNL     1      -2.004  -0.967   1.352  1.00  0.00     0.005 C 
HETATM   19  O1  UNL     1      -0.878  -0.097   1.681  1.00  0.00     0.000 OA
ENDROOT
BRANCH   7  20
HETATM   20  N1  UNL     1       1.353  -1.127  -1.354  1.00  0.00    -0.368 N 
HETATM   21  H7  UNL     1       0.658  -0.825  -2.057  1.00  0.00     0.165 HD
BRANCH  20  22
HETATM   22  C8  UNL     1       2.561  -1.547  -1.967  1.00  0.00     0.088 C 
HETATM   23  C9  UNL     1       3.758  -0.996  -1.883  1.00  0.00     0.017 C 
BRANCH  23  24
HETATM   24  C10 UNL     1       4.983  -1.452  -2.526  1.00  0.00    -0.002 C 
HETATM   25  C11 UNL     1       6.101  -0.771  -2.329  1.00  0.00    -0.016 C 
BRANCH  25  26
HETATM   26  C12 UNL     1       7.336  -1.242  -2.986  1.00  0.00     0.112 C 
HETATM   27 BR1  UNL     1       7.970   0.168  -4.137  1.00  0.00    -0.092 Br
ENDBRANCH  25  26
ENDBRANCH  23  24
ENDBRANCH  20  22
ENDBRANCH   7  20
TORSDOF 4
