REMARK  0 active torsions:
REMARK  status: ('A' for Active; 'I' for Inactive)
ROOT
HETATM    1  C1  UNL     1      -3.532   1.449   1.462  1.00  0.00     0.019 C 
HETATM    2  C2  UNL     1      -3.626   1.411   0.106  1.00  0.00    -0.062 C 
HETATM    3  C3  UNL     1      -4.924   0.918  -0.338  1.00  0.00     0.000 C 
HETATM    4  C4  UNL     1      -4.766   0.938  -1.656  1.00  0.00    -0.106 C 
HETATM    5  B1  UNL     1      -3.731  -0.420  -2.198  1.00  0.00     0.254 B 
HETATM    6  C5  UNL     1      -2.844  -1.260  -0.901  1.00  0.00     0.289 C 
HETATM    7  N1  UNL     1      -1.863  -0.503  -0.324  1.00  0.00    -0.260 NA
HETATM    8  C6  UNL     1      -0.676  -0.291  -0.538  1.00  0.00     0.202 C 
HETATM    9  N2  UNL     1      -0.928   0.548   0.644  1.00  0.00    -0.354 N 
HETATM   10  C7  UNL     1      -1.208   1.957   0.347  1.00  0.00     0.012 C 
HETATM   11  C8  UNL     1      -0.481   2.963   0.819  1.00  0.00     0.028 C 
HETATM   12  C9  UNL     1       0.663   2.706   1.682  1.00  0.00     0.301 C 
HETATM   13  N3  UNL     1       1.941   3.161   1.188  1.00  0.00     0.087 N 
HETATM   14  C10 UNL     1       2.975   2.881   2.186  1.00  0.00     0.310 C 
HETATM   15  C11 UNL     1       2.366   2.448   0.003  1.00  0.00     0.272 C 
HETATM   16  C12 UNL     1       2.715   0.998   0.260  1.00  0.00     0.032 C 
HETATM   17  C13 UNL     1       3.125   0.407  -1.063  1.00  0.00     0.028 C 
HETATM   18  C14 UNL     1       3.516  -1.022  -1.030  1.00  0.00     0.169 C 
HETATM   19  O1  UNL     1       2.488  -1.909  -0.575  1.00  0.00    -0.370 OA
HETATM   20  C15 UNL     1       2.507  -3.249  -1.030  1.00  0.00     0.226 A 
HETATM   21  C16 UNL     1       1.522  -4.078  -1.273  1.00  0.00     0.022 A 
HETATM   22 BR1  UNL     1       3.231  -4.862  -1.608  1.00  0.00    -0.092 Br
HETATM   23  C17 UNL     1       0.293  -4.820  -1.466  1.00  0.00     0.057 C 
HETATM   24  C18 UNL     1      -0.929  -4.408  -1.207  1.00  0.00     0.123 C 
HETATM   25  F1  UNL     1      -1.913  -5.283  -1.479  1.00  0.00    -0.209 F 
HETATM   26  C19 UNL     1      -1.456  -3.170  -0.597  1.00  0.00     0.341 C 
HETATM   27  N4  UNL     1      -2.275  -2.434  -1.523  1.00  0.00     0.104 N 
HETATM   28  C20 UNL     1      -2.383   1.908  -0.550  1.00  0.00     0.094 C 
HETATM   29  H6  UNL     1      -1.001   0.593   1.715  1.00  0.00     0.166 HD
HETATM   30  H25 UNL     1      -1.712  -2.171  -2.381  1.00  0.00     0.317 HD
ENDROOT
TORSDOF 0
