REMARK  2 active torsions:
REMARK  status: ('A' for Active; 'I' for Inactive)
REMARK    1  A    between atoms: O1_2  and  C2_3 
REMARK    2  A    between atoms: C8_11  and  O2_12 
ROOT
HETATM    1  C2  UNL     1       1.009  -1.133   0.515  1.00  0.00     0.098 C 
HETATM    2  C3  UNL     1      -0.138  -1.889   0.678  1.00  0.00     0.168 C 
HETATM    3  C4  UNL     1      -1.552  -1.394   0.523  1.00  0.00     0.019 A 
HETATM    4  N1  UNL     1      -1.782  -0.174   0.845  1.00  0.00    -0.339 N 
HETATM    5  C5  UNL     1      -0.845   0.680   1.331  1.00  0.00     0.205 C 
HETATM    6  N2  UNL     1       0.060   1.365   0.898  1.00  0.00    -0.271 NA
HETATM    7  C6  UNL     1       0.381   1.400  -0.590  1.00  0.00     0.167 C 
HETATM    8  C7  UNL     1       1.733   1.280  -0.343  1.00  0.00     0.040 C 
HETATM    9  C8  UNL     1       2.020   0.003   0.207  1.00  0.00     0.074 C 
HETATM   10  C10 UNL     1      -0.771   1.862  -1.243  1.00  0.00    -0.029 A 
HETATM   11  C11 UNL     1      -1.643   2.582  -1.979  1.00  0.00     0.009 A 
HETATM   12  C12 UNL     1      -2.977   2.231  -2.018  1.00  0.00     0.001 A 
HETATM   13  C13 UNL     1      -3.628   1.191  -1.387  1.00  0.00     0.009 A 
HETATM   14  C14 UNL     1      -3.110   0.232  -0.554  1.00  0.00    -0.036 A 
HETATM   15  C15 UNL     1      -1.901   0.997  -0.854  1.00  0.00     0.018 A 
HETATM   16  C16 UNL     1      -2.914  -0.916   0.374  1.00  0.00     0.194 A 
ENDROOT
BRANCH   1  17
HETATM   17  O1  UNL     1       1.756  -2.311   0.878  1.00  0.00    -0.383 OA
HETATM   18  C1  UNL     1       2.033  -2.647   2.199  1.00  0.00     0.202 C 
ENDBRANCH   1  17
BRANCH   9  19
HETATM   19  O2  UNL     1       3.322  -0.248   0.495  1.00  0.00    -0.358 OA
HETATM   20  C9  UNL     1       4.316  -0.311  -0.501  1.00  0.00     0.209 C 
ENDBRANCH   9  19
TORSDOF 2
