REMARK  6 active torsions:
REMARK  status: ('A' for Active; 'I' for Inactive)
REMARK    1  A    between atoms: O1_2  and  C2_3 
REMARK    2  A    between atoms: C7_10  and  N1_11 
REMARK    3  A    between atoms: N1_11  and  C8_12 
REMARK    4  A    between atoms: C12_18  and  O2_19 
REMARK    5  A    between atoms: O2_19  and  C13_20 
REMARK    6  A    between atoms: C13_20  and  C14_21 
ROOT
HETATM    1  C8  UNL     1      -2.389  -1.153  -0.353  1.00  0.00     0.145 A 
HETATM    2  N2  UNL     1      -3.677  -1.423  -0.632  1.00  0.00    -0.223 NA
HETATM    3  C9  UNL     1      -3.895  -2.684  -1.108  1.00  0.00     0.236 A 
HETATM    4  N3  UNL     1      -2.924  -3.603  -1.294  1.00  0.00    -0.241 NA
HETATM    5  C10 UNL     1      -1.622  -3.318  -1.008  1.00  0.00     0.077 A 
HETATM    6  C11 UNL     1      -1.356  -2.053  -0.524  1.00  0.00     0.072 A 
HETATM    7  C12 UNL     1       0.059  -2.378  -0.437  1.00  0.00     0.087 A 
HETATM    8  C20 UNL     1      -0.199  -3.596  -0.904  1.00  0.00     0.070 A 
ENDROOT
BRANCH   1   9
HETATM    9  N1  UNL     1      -2.068   0.127   0.144  1.00  0.00    -0.335 N 
HETATM   10  H6  UNL     1      -1.097   0.427   0.388  1.00  0.00     0.168 HD
BRANCH   9  11
HETATM   11  C7  UNL     1      -3.043   1.140   0.363  1.00  0.00     0.106 A 
HETATM   12  C2  UNL     1      -3.454   2.087  -0.550  1.00  0.00     0.099 A 
HETATM   13  C3  UNL     1      -4.412   3.020  -0.214  1.00  0.00     0.058 A 
HETATM   14  C4  UNL     1      -4.950   2.985   1.057  1.00  0.00     0.016 A 
HETATM   15 BR1  UNL     1      -6.275   4.291   1.493  1.00  0.00    -0.051 Br
HETATM   16  C5  UNL     1      -4.556   2.039   2.006  1.00  0.00     0.064 A 
HETATM   17  C6  UNL     1      -3.591   1.110   1.647  1.00  0.00     0.147 A 
HETATM   18  F1  UNL     1      -3.279   0.239   2.634  1.00  0.00    -0.204 F 
BRANCH  12  19
HETATM   19  O1  UNL     1      -2.816   1.985  -1.779  1.00  0.00    -0.353 OA
HETATM   20  C1  UNL     1      -3.114   2.883  -2.851  1.00  0.00     0.210 C 
ENDBRANCH  12  19
ENDBRANCH   9  11
ENDBRANCH   1   9
BRANCH   7  21
HETATM   21  O2  UNL     1       1.241  -1.737  -0.043  1.00  0.00    -0.350 OA
BRANCH  21  22
HETATM   22  C13 UNL     1       1.801  -2.104   1.205  1.00  0.00     0.180 C 
BRANCH  22  23
HETATM   23  C14 UNL     1       3.086  -1.324   1.504  1.00  0.00     0.013 C 
HETATM   24  C15 UNL     1       4.076  -1.621   0.422  1.00  0.00     0.037 C 
HETATM   25  C16 UNL     1       5.228  -0.648   0.396  1.00  0.00     0.272 C 
HETATM   26  N4  UNL     1       4.834   0.714   0.567  1.00  0.00     0.084 N 
HETATM   27  C17 UNL     1       4.080   1.286  -0.505  1.00  0.00     0.309 C 
HETATM   28  C18 UNL     1       4.125   0.843   1.827  1.00  0.00     0.272 C 
HETATM   29  C19 UNL     1       2.799   0.129   1.680  1.00  0.00     0.037 C 
ENDBRANCH  22  23
ENDBRANCH  21  22
ENDBRANCH   7  21
TORSDOF 6
