REMARK  3 active torsions:
REMARK  status: ('A' for Active; 'I' for Inactive)
REMARK    1  A    between atoms: O1_2  and  C2_3 
REMARK    2  A    between atoms: C5_6  and  C6_7 
REMARK    3  A    between atoms: C14_18  and  O2_19 
ROOT
HETATM    1  C2  UNL     1      -1.783  -0.354   0.669  1.00  0.00     0.081 A 
HETATM    2  C3  UNL     1      -0.462  -0.249   0.705  1.00  0.00     0.051 A 
HETATM    3  C4  UNL     1      -0.010   0.257  -0.587  1.00  0.00     0.024 A 
HETATM    4  C5  UNL     1       1.276   0.523  -1.005  1.00  0.00     0.081 A 
HETATM    5  N1  UNL     1       1.394   0.992  -2.276  1.00  0.00    -0.240 NA
HETATM    6  C12 UNL     1       0.333   1.178  -3.056  1.00  0.00     0.234 A 
HETATM    7  N2  UNL     1      -0.920   0.923  -2.659  1.00  0.00    -0.242 NA
HETATM    8  C13 UNL     1      -1.094   0.460  -1.417  1.00  0.00     0.084 A 
HETATM    9  C14 UNL     1      -2.301   0.085  -0.675  1.00  0.00     0.230 A 
ENDROOT
BRANCH   4  10
HETATM   10  C6  UNL     1       2.491   0.346  -0.214  1.00  0.00    -0.005 A 
HETATM   11  C7  UNL     1       2.665   0.731   1.100  1.00  0.00     0.014 A 
HETATM   12  C8  UNL     1       3.852   0.522   1.767  1.00  0.00     0.002 A 
HETATM   13  C9  UNL     1       4.870  -0.084   1.090  1.00  0.00     0.019 A 
HETATM   14  C10 UNL     1       4.740  -0.485  -0.226  1.00  0.00     0.011 A 
HETATM   15 BR1  UNL     1       6.276  -1.314  -0.999  1.00  0.00    -0.051 Br
HETATM   16  C11 UNL     1       3.543  -0.269  -0.883  1.00  0.00     0.032 A 
ENDBRANCH   4  10
BRANCH   1  17
HETATM   17  O1  UNL     1      -2.578  -0.805   1.723  1.00  0.00    -0.357 OA
HETATM   18  C1  UNL     1      -3.259  -2.034   1.620  1.00  0.00     0.209 C 
ENDBRANCH   1  17
BRANCH   9  19
HETATM   19  O2  UNL     1      -3.030   1.254  -0.393  1.00  0.00    -0.378 OA
HETATM   20  C15 UNL     1      -4.326   1.031  -0.805  1.00  0.00     0.203 C 
ENDBRANCH   9  19
TORSDOF 3
