REMARK  3 active torsions:
REMARK  status: ('A' for Active; 'I' for Inactive)
REMARK    1  A    between atoms: O1_2  and  C2_3 
REMARK    2  A    between atoms: C11_15  and  N3_16 
REMARK    3  A    between atoms: N3_16  and  C12_17 
ROOT
HETATM    1  C2  UNL     1      -1.670  -0.425   1.465  1.00  0.00     0.099 C 
HETATM    2  C3  UNL     1      -0.501   0.140   1.018  1.00  0.00     0.032 C 
HETATM    3  C4  UNL     1      -0.717   0.057  -0.402  1.00  0.00     0.043 C 
HETATM    4  C5  UNL     1      -0.854  -1.388  -0.765  1.00  0.00     0.031 C 
HETATM    5  C6  UNL     1      -2.019   0.835  -0.325  1.00  0.00     0.033 C 
HETATM    6  C7  UNL     1      -2.728   0.051   0.523  1.00  0.00     0.107 C 
HETATM    7  O2  UNL     1      -4.065   0.111   0.051  1.00  0.00    -0.301 OA
HETATM    8  C8  UNL     1      -4.223  -0.105  -1.367  1.00  0.00     0.431 C 
HETATM    9  N1  UNL     1      -3.508  -0.064  -2.423  1.00  0.00    -0.362 NA
HETATM   10  C9  UNL     1      -2.175   0.229  -2.660  1.00  0.00     0.198 C 
HETATM   11  N2  UNL     1      -0.915   0.507  -2.683  1.00  0.00    -0.247 NA
HETATM   12  C10 UNL     1      -0.090   0.695  -1.490  1.00  0.00     0.067 C 
HETATM   13  C11 UNL     1       1.016   1.373  -1.612  1.00  0.00     0.117 C 
ENDROOT
BRANCH  13  14
HETATM   14  N3  UNL     1       1.817   1.557  -0.455  1.00  0.00    -0.364 N 
HETATM   15  H12 UNL     1       1.509   2.402   0.077  1.00  0.00     0.165 HD
BRANCH  14  16
HETATM   16  C12 UNL     1       2.893   0.698  -0.079  1.00  0.00     0.033 A 
HETATM   17  C13 UNL     1       3.171  -0.366  -0.882  1.00  0.00     0.029 A 
HETATM   18  C14 UNL     1       4.227  -1.194  -0.497  1.00  0.00     0.004 A 
HETATM   19  C15 UNL     1       4.927  -0.919   0.636  1.00  0.00     0.019 A 
HETATM   20  C16 UNL     1       4.605   0.186   1.430  1.00  0.00     0.013 A 
HETATM   21 BR1  UNL     1       5.580   0.574   3.013  1.00  0.00    -0.051 Br
HETATM   22  C17 UNL     1       3.557   1.041   1.084  1.00  0.00     0.048 A 
ENDBRANCH  14  16
ENDBRANCH  13  14
BRANCH   1  23
HETATM   23  O1  UNL     1      -2.225  -1.252   2.446  1.00  0.00    -0.353 OA
HETATM   24  C1  UNL     1      -3.217  -0.798   3.341  1.00  0.00     0.210 C 
ENDBRANCH   1  23
TORSDOF 3
