REMARK  4 active torsions:
REMARK  status: ('A' for Active; 'I' for Inactive)
REMARK    1  A    between atoms: O1_2  and  C2_3 
REMARK    2  A    between atoms: C6_9  and  N3_10 
REMARK    3  A    between atoms: N3_10  and  C7_11 
REMARK    4  A    between atoms: C15_20  and  O2_21 
ROOT
HETATM    1  C2  UNL     1      -1.992   0.536  -0.325  1.00  0.00     0.192 C 
HETATM    2  C3  UNL     1      -1.254  -0.003   0.757  1.00  0.00     0.048 A 
HETATM    3  C4  UNL     1      -1.705  -0.320   2.031  1.00  0.00     0.070 A 
HETATM    4  N1  UNL     1      -0.983  -0.892   3.031  1.00  0.00    -0.241 NA
HETATM    5  C5  UNL     1       0.304  -1.211   2.848  1.00  0.00     0.235 A 
HETATM    6  N2  UNL     1       0.763  -0.910   1.625  1.00  0.00    -0.224 NA
HETATM    7  C6  UNL     1       0.053  -0.350   0.645  1.00  0.00     0.140 A 
HETATM    8  C13 UNL     1      -3.061   0.026   2.474  1.00  0.00     0.031 C 
HETATM    9  C14 UNL     1      -3.687   0.654   1.494  1.00  0.00     0.010 C 
HETATM   10  C15 UNL     1      -3.352   1.060   0.148  1.00  0.00     0.174 C 
ENDROOT
BRANCH   7  11
HETATM   11  N3  UNL     1       0.866  -0.179  -0.503  1.00  0.00    -0.340 N 
HETATM   12  H6  UNL     1       0.646   0.195  -1.416  1.00  0.00     0.167 HD
BRANCH  11  13
HETATM   13  C7  UNL     1       2.248  -0.480  -0.679  1.00  0.00     0.035 A 
HETATM   14  C8  UNL     1       2.890  -0.941  -1.813  1.00  0.00     0.029 A 
HETATM   15  C9  UNL     1       4.238  -1.182  -1.878  1.00  0.00     0.004 A 
HETATM   16  C10 UNL     1       5.010  -0.960  -0.765  1.00  0.00     0.019 A 
HETATM   17  C11 UNL     1       4.409  -0.497   0.398  1.00  0.00     0.013 A 
HETATM   18 BR1  UNL     1       5.648  -0.251   1.836  1.00  0.00    -0.051 Br
HETATM   19  C12 UNL     1       3.048  -0.260   0.441  1.00  0.00     0.048 A 
ENDBRANCH  11  13
ENDBRANCH   7  11
BRANCH   1  20
HETATM   20  O1  UNL     1      -1.430   1.428  -1.210  1.00  0.00    -0.383 OA
HETATM   21  C1  UNL     1      -1.697   0.970  -2.527  1.00  0.00     0.202 C 
ENDBRANCH   1  20
BRANCH  10  22
HETATM   22  O2  UNL     1      -3.281   2.461   0.008  1.00  0.00    -0.389 OA
HETATM   23  H14 UNL     1      -4.105   2.784  -0.394  1.00  0.00     0.210 HD
ENDBRANCH  10  22
TORSDOF 4
