REMARK  8 active torsions:
REMARK  status: ('A' for Active; 'I' for Inactive)
REMARK    1  A    between atoms: C1_2  and  C3_4 
REMARK    2  A    between atoms: C4_5  and  C5_6 
REMARK    3  A    between atoms: C5_6  and  C6_7 
REMARK    4  A    between atoms: C6_7  and  C7_8 
REMARK    5  A    between atoms: C7_8  and  N1_9 
REMARK    6  A    between atoms: N1_9  and  C8_10 
REMARK    7  A    between atoms: C12_16  and  O1_17 
REMARK    8  A    between atoms: C14_19  and  O2_20 
ROOT
HETATM    1  C8  UNL     1      -0.790  -1.777  -1.068  1.00  0.00     0.141 A 
HETATM    2  N2  UNL     1      -0.944  -2.885  -1.811  1.00  0.00    -0.224 NA
HETATM    3  C9  UNL     1      -2.177  -3.363  -2.113  1.00  0.00     0.236 A 
HETATM    4  N3  UNL     1      -3.235  -2.683  -1.640  1.00  0.00    -0.241 NA
HETATM    5  C10 UNL     1      -3.128  -1.581  -0.900  1.00  0.00     0.075 A 
HETATM    6  C11 UNL     1      -4.255  -0.924  -0.412  1.00  0.00     0.072 A 
HETATM    7  C12 UNL     1      -4.075   0.198   0.369  1.00  0.00     0.103 A 
HETATM    8  C14 UNL     1      -2.778   0.651   0.653  1.00  0.00     0.102 A 
HETATM    9  C16 UNL     1      -1.647   0.022   0.183  1.00  0.00     0.057 A 
HETATM   10  C17 UNL     1      -1.883  -1.092  -0.590  1.00  0.00     0.042 A 
ENDROOT
BRANCH   1  11
HETATM   11  N1  UNL     1       0.584  -1.455  -0.860  1.00  0.00    -0.343 N 
HETATM   12  H9  UNL     1       1.026  -1.601   0.078  1.00  0.00     0.167 HD
BRANCH  11  13
HETATM   13  C7  UNL     1       1.300  -0.933  -1.958  1.00  0.00     0.145 C 
BRANCH  13  14
HETATM   14  C6  UNL     1       1.980   0.212  -1.930  1.00  0.00    -0.111 C 
BRANCH  14  15
HETATM   15  C5  UNL     1       2.738   1.242  -1.577  1.00  0.00     0.057 C 
BRANCH  15  16
HETATM   16  C4  UNL     1       4.000   0.866  -0.958  1.00  0.00     0.007 C 
HETATM   17  C3  UNL     1       4.349   0.772   0.310  1.00  0.00    -0.009 C 
BRANCH  17  18
HETATM   18  C1  UNL     1       5.734   0.350   0.447  1.00  0.00    -0.128 A 
HETATM   19  B1  UNL     1       5.799   0.309   2.037  1.00  0.00     0.197 B 
HETATM   20  H1  UNL     1       5.778   1.385   2.591  1.00  0.00    -0.018 HD
HETATM   21  H2  UNL     1       5.183  -0.574   2.565  1.00  0.00    -0.018 HD
HETATM   22  C2  UNL     1       6.937  -0.022   0.737  1.00  0.00    -0.024 A 
ENDBRANCH  17  18
ENDBRANCH  15  16
ENDBRANCH  14  15
ENDBRANCH  13  14
ENDBRANCH  11  13
ENDBRANCH   1  11
BRANCH   8  23
HETATM   23  O2  UNL     1      -2.596   1.793   1.446  1.00  0.00    -0.353 OA
HETATM   24  C15 UNL     1      -1.291   2.246   1.729  1.00  0.00     0.210 C 
ENDBRANCH   8  23
BRANCH   7  25
HETATM   25  O1  UNL     1      -5.053   0.960   0.926  1.00  0.00    -0.353 OA
HETATM   26  C13 UNL     1      -6.418   0.926   0.910  1.00  0.00     0.210 C 
ENDBRANCH   7  25
TORSDOF 8
