REMARK  5 active torsions:
REMARK  status: ('A' for Active; 'I' for Inactive)
REMARK    1  A    between atoms: C2_2  and  C3_3 
REMARK    2  A    between atoms: C4_4  and  N1_5 
REMARK    3  A    between atoms: C5_6  and  N2_7 
REMARK    4  A    between atoms: C12_17  and  O2_18 
REMARK    5  A    between atoms: O2_18  and  C13_19 
ROOT
HETATM    1  N2  UNL     1      -1.321  -0.138  -1.073  1.00  0.00    -0.345 N 
HETATM    2  C6  UNL     1      -1.146  -1.558  -1.423  1.00  0.00     0.276 C 
HETATM    3  N3  UNL     1      -1.983  -2.313  -0.505  1.00  0.00    -0.266 NA
HETATM    4  C7  UNL     1      -1.506  -3.352   0.129  1.00  0.00     0.190 C 
HETATM    5  N4  UNL     1      -0.265  -4.002   0.160  1.00  0.00    -0.379 NA
HETATM    6  C8  UNL     1       0.805  -3.627   0.749  1.00  0.00     0.471 C 
HETATM    7  O1  UNL     1       2.137  -3.669   1.175  1.00  0.00    -0.331 OA
HETATM    8  C9  UNL     1       3.126  -3.520   0.195  1.00  0.00     0.134 C 
HETATM    9  C10 UNL     1       3.307  -2.186   0.117  1.00  0.00     0.006 C 
HETATM   10  C11 UNL     1       3.148  -0.795   0.387  1.00  0.00     0.059 C 
HETATM   11  C12 UNL     1       2.548   0.158   1.073  1.00  0.00     0.108 C 
HETATM   12  C15 UNL     1       1.688   0.857   2.013  1.00  0.00     0.061 C 
HETATM   13  C16 UNL     1       0.619   1.742   1.493  1.00  0.00     0.118 C 
HETATM   14  N5  UNL     1      -0.433   1.120   0.754  1.00  0.00    -0.406 N 
HETATM   15  C17 UNL     1      -0.164   0.598  -0.526  1.00  0.00     0.243 C 
HETATM   16  H20 UNL     1      -1.074   0.588   1.350  1.00  0.00     0.154 HD
ENDROOT
BRANCH   1  17
HETATM   17  C5  UNL     1      -2.602   0.396  -1.284  1.00  0.00     0.061 A 
HETATM   18  C4  UNL     1      -3.658   0.743  -0.341  1.00  0.00     0.062 A 
HETATM   19  C3  UNL     1      -4.415   1.132  -1.336  1.00  0.00    -0.009 A 
HETATM   20  C18 UNL     1      -3.380   0.795  -2.296  1.00  0.00     0.045 A 
BRANCH  18  21
HETATM   21  N1  UNL     1      -4.014   0.772   1.030  1.00  0.00    -0.397 N 
HETATM   22  H4  UNL     1      -4.674   0.097   1.485  1.00  0.00     0.156 HD
HETATM   23  H5  UNL     1      -3.666   1.455   1.726  1.00  0.00     0.156 HD
ENDBRANCH  18  21
BRANCH  19  24
HETATM   24  C2  UNL     1      -5.741   1.682  -1.508  1.00  0.00    -0.013 C 
HETATM   25  C1  UNL     1      -6.270   1.992  -2.680  1.00  0.00     0.032 C 
ENDBRANCH  19  24
ENDBRANCH   1  17
BRANCH  11  26
HETATM   26  O2  UNL     1       3.361   0.975   0.299  1.00  0.00    -0.311 OA
BRANCH  26  27
HETATM   27  C13 UNL     1       4.554   1.525   0.808  1.00  0.00     0.351 C 
HETATM   28  C14 UNL     1       5.236   2.343  -0.264  1.00  0.00     0.126 C 
HETATM   29  F1  UNL     1       5.405   0.449   1.076  1.00  0.00    -0.176 F 
HETATM   30  F2  UNL     1       4.318   2.269   1.923  1.00  0.00    -0.176 F 
ENDBRANCH  26  27
ENDBRANCH  11  26
TORSDOF 5
