REMARK  5 active torsions:
REMARK  status: ('A' for Active; 'I' for Inactive)
REMARK    1  A    between atoms: O1_2  and  C2_3 
REMARK    2  A    between atoms: C2_3  and  C3_4 
REMARK    3  A    between atoms: C5_8  and  O2_9 
REMARK    4  A    between atoms: C8_12  and  N3_13 
REMARK    5  A    between atoms: N3_13  and  C10_15 
ROOT
HETATM    1  C3  UNL     1      -1.435   1.808   1.119  1.00  0.00     0.071 A 
HETATM    2  N1  UNL     1      -2.269   1.876   2.101  1.00  0.00    -0.244 NA
HETATM    3  C4  UNL     1      -2.792   0.752   2.795  1.00  0.00     0.230 A 
HETATM    4  N2  UNL     1      -2.459  -0.439   2.482  1.00  0.00    -0.246 NA
HETATM    5  C5  UNL     1      -1.535  -0.758   1.409  1.00  0.00     0.282 A 
HETATM    6  C7  UNL     1      -1.033   0.461   0.735  1.00  0.00     0.034 A 
HETATM    7  C8  UNL     1      -0.183   0.354  -0.259  1.00  0.00     0.104 C 
ENDROOT
BRANCH   1   8
HETATM    8  C2  UNL     1      -0.932   3.034   0.441  1.00  0.00     0.226 C 
BRANCH   8   9
HETATM    9  O1  UNL     1      -1.306   2.952  -0.893  1.00  0.00    -0.390 OA
HETATM   10  C1  UNL     1      -0.891   4.048  -1.643  1.00  0.00     0.201 C 
ENDBRANCH   8   9
ENDBRANCH   1   8
BRANCH   5  11
HETATM   11  O2  UNL     1      -2.201  -1.622   0.564  1.00  0.00    -0.365 OA
HETATM   12  C6  UNL     1      -1.650  -2.902   0.528  1.00  0.00     0.204 C 
ENDBRANCH   5  11
BRANCH   7  13
HETATM   13  N3  UNL     1       0.504  -0.642  -1.002  1.00  0.00    -0.360 N 
HETATM   14  C9  UNL     1      -0.030  -1.263  -2.199  1.00  0.00     0.155 C 
BRANCH  13  15
HETATM   15  C10 UNL     1       1.785  -1.050  -0.546  1.00  0.00     0.037 A 
HETATM   16  C11 UNL     1       2.451  -2.022  -1.276  1.00  0.00     0.049 A 
HETATM   17  C12 UNL     1       3.708  -2.452  -0.866  1.00  0.00     0.120 A 
HETATM   18  N4  UNL     1       4.283  -1.925   0.242  1.00  0.00    -0.253 NA
HETATM   19  C13 UNL     1       3.614  -0.984   0.930  1.00  0.00     0.104 A 
HETATM   20 BR1  UNL     1       4.361  -0.187   2.513  1.00  0.00    -0.029 Br
HETATM   21  C14 UNL     1       2.369  -0.513   0.582  1.00  0.00     0.069 A 
ENDBRANCH  13  15
ENDBRANCH   7  13
TORSDOF 5
