REMARK  1 active torsions:
REMARK  status: ('A' for Active; 'I' for Inactive)
REMARK    1  A    between atoms: O1_2  and  C2_3 
ROOT
HETATM    1  C2  UNL     1       2.715  -0.894   0.481  1.00  0.00     0.098 C 
HETATM    2  C3  UNL     1       2.995  -2.010  -0.172  1.00  0.00     0.019 C 
HETATM    3  C4  UNL     1       2.074  -2.656  -1.139  1.00  0.00     0.089 C 
HETATM    4  C5  UNL     1       0.988  -1.767  -1.604  1.00  0.00     0.042 C 
HETATM    5  N1  UNL     1      -0.103  -1.290  -1.994  1.00  0.00    -0.247 NA
HETATM    6  C6  UNL     1      -1.360  -1.872  -2.226  1.00  0.00     0.228 C 
HETATM    7  N2  UNL     1      -1.812  -0.880  -1.604  1.00  0.00    -0.263 NA
HETATM    8  C7  UNL     1      -3.115  -0.462  -1.246  1.00  0.00     0.274 C 
HETATM    9  N3  UNL     1      -3.113   0.361  -0.068  1.00  0.00    -0.368 N 
HETATM   10  C8  UNL     1      -3.777   1.263   0.836  1.00  0.00     0.088 C 
HETATM   11  C9  UNL     1      -2.971   2.066   1.556  1.00  0.00     0.027 C 
HETATM   12  C10 UNL     1      -1.680   1.802   0.933  1.00  0.00    -0.024 C 
HETATM   13  C11 UNL     1      -0.539   2.504   0.767  1.00  0.00     0.021 C 
HETATM   14 BR1  UNL     1      -0.497   4.253   1.511  1.00  0.00    -0.053 Br
HETATM   15  C12 UNL     1       0.352   1.780  -0.146  1.00  0.00     0.222 C 
HETATM   16  O2  UNL     1       1.606   1.343   0.314  1.00  0.00    -0.343 OA
HETATM   17  C13 UNL     1       1.974   0.082  -0.307  1.00  0.00     0.104 C 
HETATM   18  C14 UNL     1       1.833  -0.547  -1.507  1.00  0.00     0.067 C 
HETATM   19  C15 UNL     1      -1.860   0.343   0.644  1.00  0.00     0.163 C 
ENDROOT
BRANCH   1  20
HETATM   20  O1  UNL     1       3.113  -0.719   1.799  1.00  0.00    -0.353 OA
HETATM   21  C1  UNL     1       3.053   0.498   2.478  1.00  0.00     0.210 C 
ENDBRANCH   1  20
TORSDOF 1
