REMARK  4 active torsions:
REMARK  status: ('A' for Active; 'I' for Inactive)
REMARK    1  A    between atoms: O1_2  and  C2_3 
REMARK    2  A    between atoms: C6_9  and  N3_10 
REMARK    3  A    between atoms: N3_10  and  C8_12 
REMARK    4  A    between atoms: C16_21  and  O2_22 
ROOT
HETATM    1  C2  UNL     1       3.251   0.309  -0.354  1.00  0.00     0.103 A 
HETATM    2  C3  UNL     1       2.707   1.084  -1.359  1.00  0.00     0.072 A 
HETATM    3  C4  UNL     1       1.367   1.321  -1.371  1.00  0.00     0.075 A 
HETATM    4  N1  UNL     1       0.775   2.076  -2.335  1.00  0.00    -0.241 NA
HETATM    5  C5  UNL     1      -0.553   2.298  -2.328  1.00  0.00     0.236 A 
HETATM    6  N2  UNL     1      -1.313   1.766  -1.354  1.00  0.00    -0.223 NA
HETATM    7  C6  UNL     1      -0.802   1.006  -0.363  1.00  0.00     0.144 A 
HETATM    8  C14 UNL     1       0.554   0.803  -0.405  1.00  0.00     0.042 A 
HETATM    9  C15 UNL     1       1.099   0.030   0.597  1.00  0.00     0.057 A 
HETATM   10  C16 UNL     1       2.460  -0.230   0.638  1.00  0.00     0.102 A 
ENDROOT
BRANCH   7  11
HETATM   11  N3  UNL     1      -1.708   0.494   0.619  1.00  0.00    -0.334 N 
HETATM   12  C7  UNL     1      -1.552   0.833   2.020  1.00  0.00     0.158 C 
BRANCH  11  13
HETATM   13  C8  UNL     1      -2.748  -0.348   0.144  1.00  0.00     0.053 A 
HETATM   14  C9  UNL     1      -3.621   0.229  -0.756  1.00  0.00     0.031 A 
HETATM   15  C10 UNL     1      -4.689  -0.480  -1.303  1.00  0.00     0.002 A 
HETATM   16  C11 UNL     1      -4.886  -1.814  -0.930  1.00  0.00     0.002 A 
HETATM   17  C12 UNL     1      -4.021  -2.402  -0.032  1.00  0.00     0.021 A 
HETATM   18  C13 UNL     1      -2.981  -1.665   0.481  1.00  0.00     0.037 A 
HETATM   19 BR1  UNL     1      -1.780  -2.457   1.718  1.00  0.00    -0.049 Br
ENDBRANCH  11  13
ENDBRANCH   7  11
BRANCH  10  20
HETATM   20  O2  UNL     1       3.066  -0.994   1.611  1.00  0.00    -0.353 OA
HETATM   21  C17 UNL     1       2.358  -1.585   2.660  1.00  0.00     0.210 C 
ENDBRANCH  10  20
BRANCH   1  22
HETATM   22  O1  UNL     1       4.618   0.066  -0.339  1.00  0.00    -0.353 OA
HETATM   23  C1  UNL     1       5.468   0.596  -1.333  1.00  0.00     0.210 C 
ENDBRANCH   1  22
TORSDOF 4
