REMARK  3 active torsions:
REMARK  status: ('A' for Active; 'I' for Inactive)
REMARK    1  A    between atoms: O1_1  and  C1_2 
REMARK    2  A    between atoms: C9_11  and  N2_12 
REMARK    3  A    between atoms: N2_12  and  C10_13 
ROOT
HETATM    1  C1  UNL     1      -3.683  -1.159  -1.535  1.00  0.00     0.073 A 
HETATM    2  C2  UNL     1      -4.681  -0.242  -1.298  1.00  0.00     0.040 A 
HETATM    3  C3  UNL     1      -4.698   0.669  -0.272  1.00  0.00     0.040 A 
HETATM    4  C4  UNL     1      -3.683   0.748   0.641  1.00  0.00     0.076 A 
HETATM    5  C5  UNL     1      -2.886  -0.247   0.156  1.00  0.00     0.048 A 
HETATM    6  C6  UNL     1      -2.568  -1.244  -0.730  1.00  0.00    -0.005 A 
HETATM    7  C7  UNL     1      -1.262  -1.907  -0.578  1.00  0.00     0.161 C 
HETATM    8  N1  UNL     1      -0.486  -1.071   0.394  1.00  0.00    -0.381 N 
HETATM    9  C8  UNL     1      -0.172   0.302   0.687  1.00  0.00     0.108 A 
HETATM   10  C9  UNL     1       0.953   0.727   0.015  1.00  0.00     0.158 A 
HETATM   11  N3  UNL     1       1.363   1.988   0.116  1.00  0.00    -0.222 NA
HETATM   12  C16 UNL     1       0.694   2.858   0.872  1.00  0.00     0.236 A 
HETATM   13  N4  UNL     1      -0.393   2.459   1.531  1.00  0.00    -0.235 NA
HETATM   14  C17 UNL     1      -0.892   1.230   1.505  1.00  0.00     0.167 A 
HETATM   15  C18 UNL     1      -2.074   1.123   2.391  1.00  0.00     0.408 C 
HETATM   16  F2  UNL     1      -2.152  -0.125   2.968  1.00  0.00    -0.168 F 
HETATM   17  F3  UNL     1      -1.949   1.986   3.495  1.00  0.00    -0.168 F 
HETATM   18  O2  UNL     1      -3.269   1.437   1.754  1.00  0.00    -0.278 OA
HETATM   19  H7  UNL     1       0.071  -1.499   1.143  1.00  0.00     0.160 HD
ENDROOT
BRANCH  10  20
HETATM   20  N2  UNL     1       1.627  -0.297  -0.717  1.00  0.00    -0.337 N 
HETATM   21  H8  UNL     1       1.444  -1.068  -1.382  1.00  0.00     0.168 HD
BRANCH  20  22
HETATM   22  C10 UNL     1       3.026  -0.173  -0.403  1.00  0.00     0.074 A 
HETATM   23  C11 UNL     1       3.609  -1.225   0.305  1.00  0.00     0.052 A 
HETATM   24  C12 UNL     1       4.945  -1.131   0.631  1.00  0.00     0.013 A 
HETATM   25 BR1  UNL     1       5.807  -2.534   1.618  1.00  0.00    -0.051 Br
HETATM   26  C13 UNL     1       5.624  -0.003   0.238  1.00  0.00     0.022 A 
HETATM   27  C14 UNL     1       5.079   1.059  -0.466  1.00  0.00     0.046 A 
HETATM   28  C15 UNL     1       3.739   0.925  -0.774  1.00  0.00     0.143 A 
HETATM   29  F1  UNL     1       3.241   1.972  -1.505  1.00  0.00    -0.204 F 
ENDBRANCH  20  22
ENDBRANCH  10  20
BRANCH   1  30
HETATM   30  O1  UNL     1      -3.530  -2.122  -2.511  1.00  0.00    -0.360 OA
HETATM   31  H1  UNL     1      -4.075  -2.979  -2.522  1.00  0.00     0.217 HD
ENDBRANCH   1  30
TORSDOF 3
