REMARK  5 active torsions:
REMARK  status: ('A' for Active; 'I' for Inactive)
REMARK    1  A    between atoms: O1_2  and  C2_3 
REMARK    2  A    between atoms: C4_5  and  N1_6 
REMARK    3  A    between atoms: N1_6  and  C5_7 
REMARK    4  A    between atoms: N3_9  and  C6_10 
REMARK    5  A    between atoms: C13_18  and  O2_19 
ROOT
HETATM    1  C2  UNL     1       2.551  -0.208   0.044  1.00  0.00     0.106 A 
HETATM    2  C3  UNL     1       1.827   0.562  -0.879  1.00  0.00     0.090 A 
HETATM    3  C4  UNL     1       0.431   0.651  -0.829  1.00  0.00     0.138 A 
HETATM    4  N3  UNL     1      -0.189  -0.036   0.145  1.00  0.00    -0.304 N 
HETATM    5  C12 UNL     1       0.507  -0.773   1.028  1.00  0.00     0.138 A 
HETATM    6  C13 UNL     1       1.869  -0.897   1.028  1.00  0.00     0.117 A 
ENDROOT
BRANCH   4   7
HETATM    7  C6  UNL     1      -1.602   0.113   0.121  1.00  0.00     0.042 A 
HETATM    8  C7  UNL     1      -2.374  -0.629  -0.783  1.00  0.00     0.030 A 
HETATM    9  C8  UNL     1      -3.738  -0.509  -0.825  1.00  0.00     0.004 A 
HETATM   10  C9  UNL     1      -4.434   0.348   0.018  1.00  0.00     0.019 A 
HETATM   11  C10 UNL     1      -3.643   1.056   0.887  1.00  0.00     0.013 A 
HETATM   12 BR1  UNL     1      -4.567   2.245   2.063  1.00  0.00    -0.051 Br
HETATM   13  C11 UNL     1      -2.271   0.989   0.987  1.00  0.00     0.049 A 
ENDBRANCH   4   7
BRANCH   3  14
HETATM   14  N1  UNL     1       0.041   1.411  -1.778  1.00  0.00    -0.225 NA
BRANCH  14  15
HETATM   15  C5  UNL     1      -1.286   1.776  -2.101  1.00  0.00     0.225 C 
HETATM   16  N2  UNL     1      -1.639   1.366  -3.295  1.00  0.00    -0.293 NA
HETATM   17  H6  UNL     1      -2.589   1.550  -3.696  1.00  0.00     0.187 HD
ENDBRANCH  14  15
ENDBRANCH   3  14
BRANCH   6  18
HETATM   18  O2  UNL     1       2.552  -1.655   1.939  1.00  0.00    -0.352 OA
HETATM   19  C14 UNL     1       2.027  -2.407   2.985  1.00  0.00     0.210 C 
ENDBRANCH   6  18
BRANCH   1  20
HETATM   20  O1  UNL     1       3.927  -0.327   0.036  1.00  0.00    -0.353 OA
HETATM   21  C1  UNL     1       4.790   0.299  -0.883  1.00  0.00     0.210 C 
ENDBRANCH   1  20
TORSDOF 5
