REMARK  1 active torsions:
REMARK  status: ('A' for Active; 'I' for Inactive)
REMARK    1  A    between atoms: O1_2  and  C2_3 
ROOT
HETATM    1  C2  UNL     1      -1.246  -0.504  -0.124  1.00  0.00     0.050 C 
HETATM    2  C3  UNL     1      -0.760  -1.670   0.277  1.00  0.00     0.049 C 
HETATM    3  C4  UNL     1      -0.098  -2.509  -0.695  1.00  0.00     0.030 A 
HETATM    4  C5  UNL     1      -0.430  -3.605  -1.422  1.00  0.00     0.133 A 
HETATM    5  N1  UNL     1       0.463  -4.137  -2.273  1.00  0.00    -0.253 NA
HETATM    6  C6  UNL     1       1.658  -3.539  -2.356  1.00  0.00     0.234 A 
HETATM    7  N2  UNL     1       1.958  -2.454  -1.622  1.00  0.00    -0.224 NA
HETATM    8  C7  UNL     1       1.146  -1.841  -0.743  1.00  0.00     0.138 A 
HETATM    9  N3  UNL     1       1.935  -0.731  -0.237  1.00  0.00    -0.366 N 
HETATM   10  C8  UNL     1       3.210  -1.098   0.410  1.00  0.00     0.151 C 
HETATM   11  C9  UNL     1       1.845   0.677  -0.257  1.00  0.00     0.151 C 
HETATM   12  C10 UNL     1       1.789   1.400   0.994  1.00  0.00    -0.006 C 
HETATM   13  C11 UNL     1       0.989   2.208   1.638  1.00  0.00     0.016 C 
HETATM   14  C12 UNL     1       0.163   3.109   2.423  1.00  0.00     0.007 C 
HETATM   15 BR1  UNL     1       0.297   4.007   4.080  1.00  0.00    -0.051 Br
HETATM   16  C13 UNL     1      -1.038   3.499   1.993  1.00  0.00    -0.004 C 
HETATM   17  C14 UNL     1      -1.231   2.837   0.732  1.00  0.00     0.055 C 
HETATM   18  C15 UNL     1      -2.633   2.313   0.608  1.00  0.00    -0.027 C 
HETATM   19  C16 UNL     1      -3.143   1.042   0.624  1.00  0.00    -0.024 C 
HETATM   20  C17 UNL     1      -1.886   0.341   0.844  1.00  0.00     0.091 C 
ENDROOT
BRANCH   1  21
HETATM   21  O1  UNL     1      -0.730  -0.997  -1.299  1.00  0.00    -0.360 OA
HETATM   22  C1  UNL     1      -1.540  -0.987  -2.462  1.00  0.00     0.209 C 
ENDBRANCH   1  21
TORSDOF 1
