REMARK  4 active torsions:
REMARK  status: ('A' for Active; 'I' for Inactive)
REMARK    1  A    between atoms: O1_2  and  C2_3 
REMARK    2  A    between atoms: C6_9  and  C7_10 
REMARK    3  A    between atoms: C7_10  and  C8_11 
REMARK    4  A    between atoms: C13_17  and  O2_18 
ROOT
HETATM    1  C2  UNL     1       3.010  -0.118   0.605  1.00  0.00     0.076 A 
HETATM    2  C3  UNL     1       2.812   0.957  -0.238  1.00  0.00     0.069 A 
HETATM    3  C4  UNL     1       1.691   1.116  -1.015  1.00  0.00     0.073 A 
HETATM    4  N1  UNL     1       1.433   2.109  -1.867  1.00  0.00    -0.241 NA
HETATM    5  C5  UNL     1       0.295   2.124  -2.580  1.00  0.00     0.234 A 
HETATM    6  N2  UNL     1      -0.643   1.169  -2.489  1.00  0.00    -0.245 NA
HETATM    7  C6  UNL     1      -0.449   0.130  -1.643  1.00  0.00     0.052 A 
HETATM    8  C14 UNL     1       0.721   0.145  -0.937  1.00  0.00     0.018 A 
HETATM    9  C15 UNL     1       0.891  -0.931  -0.112  1.00  0.00     0.025 A 
HETATM   10  C16 UNL     1       2.018  -1.075   0.658  1.00  0.00    -0.028 A 
HETATM   11  C17 UNL     1       2.223  -2.231   1.567  1.00  0.00     0.051 C 
ENDROOT
BRANCH   7  12
HETATM   12  C7  UNL     1      -1.629  -0.735  -1.635  1.00  0.00     0.101 C 
BRANCH  12  13
HETATM   13  C8  UNL     1      -2.638  -0.368  -0.622  1.00  0.00    -0.018 A 
HETATM   14  C9  UNL     1      -3.653   0.459  -1.150  1.00  0.00     0.010 A 
HETATM   15  C10 UNL     1      -4.719   1.007  -0.470  1.00  0.00     0.002 A 
HETATM   16  C11 UNL     1      -4.832   0.734   0.875  1.00  0.00     0.022 A 
HETATM   17  C12 UNL     1      -3.879  -0.067   1.458  1.00  0.00     0.044 A 
HETATM   18 BR1  UNL     1      -3.972  -0.488   3.308  1.00  0.00    -0.048 Br
HETATM   19  C13 UNL     1      -2.851  -0.571   0.709  1.00  0.00     0.089 A 
BRANCH  19  20
HETATM   20  O2  UNL     1      -1.933  -1.368   1.355  1.00  0.00    -0.359 OA
HETATM   21  H11 UNL     1      -2.241  -2.304   1.657  1.00  0.00     0.217 HD
ENDBRANCH  19  20
ENDBRANCH  12  13
ENDBRANCH   7  12
BRANCH   1  22
HETATM   22  O1  UNL     1       4.191  -0.143   1.328  1.00  0.00    -0.355 OA
HETATM   23  C1  UNL     1       5.191   0.831   1.272  1.00  0.00     0.210 C 
ENDBRANCH   1  22
TORSDOF 4
