REMARK  4 active torsions:
REMARK  status: ('A' for Active; 'I' for Inactive)
REMARK    1  A    between atoms: O1_2  and  C2_3 
REMARK    2  A    between atoms: C6_9  and  O2_10 
REMARK    3  A    between atoms: O2_10  and  C7_11 
REMARK    4  A    between atoms: C15_20  and  O3_21 
ROOT
HETATM    1  C2  UNL     1      -3.334  -0.160   0.233  1.00  0.00     0.103 A 
HETATM    2  C3  UNL     1      -2.972  -1.474   0.013  1.00  0.00     0.072 A 
HETATM    3  C4  UNL     1      -1.679  -1.908  -0.140  1.00  0.00     0.075 A 
HETATM    4  N1  UNL     1      -1.326  -3.168  -0.351  1.00  0.00    -0.241 NA
HETATM    5  C5  UNL     1      -0.028  -3.546  -0.496  1.00  0.00     0.236 A 
HETATM    6  N2  UNL     1       0.967  -2.620  -0.427  1.00  0.00    -0.217 NA
HETATM    7  C6  UNL     1       0.663  -1.308  -0.211  1.00  0.00     0.179 A 
HETATM    8  C13 UNL     1      -0.669  -0.975  -0.071  1.00  0.00     0.048 A 
HETATM    9  C14 UNL     1      -0.972   0.349   0.146  1.00  0.00     0.057 A 
HETATM   10  C15 UNL     1      -2.287   0.747   0.296  1.00  0.00     0.102 A 
ENDROOT
BRANCH   7  11
HETATM   11  O2  UNL     1       1.631  -0.325  -0.132  1.00  0.00    -0.320 OA
BRANCH  11  12
HETATM   12  C7  UNL     1       2.986  -0.734  -0.285  1.00  0.00     0.177 C 
HETATM   13  C8  UNL     1       3.723  -0.283   0.936  1.00  0.00     0.006 C 
HETATM   14  C9  UNL     1       4.149   0.963   1.066  1.00  0.00    -0.023 C 
HETATM   15  C10 UNL     1       3.909   1.981  -0.014  1.00  0.00     0.073 C 
HETATM   16  C11 UNL     1       4.057   1.247  -1.313  1.00  0.00    -0.009 C 
HETATM   17 BR1  UNL     1       4.871   2.147  -2.787  1.00  0.00    -0.056 Br
HETATM   18  C12 UNL     1       3.629  -0.006  -1.429  1.00  0.00     0.024 C 
ENDBRANCH  11  12
ENDBRANCH   7  11
BRANCH  10  19
HETATM   19  O3  UNL     1      -2.635   2.080   0.517  1.00  0.00    -0.353 OA
HETATM   20  C16 UNL     1      -1.613   3.056   0.592  1.00  0.00     0.210 C 
ENDBRANCH  10  19
BRANCH   1  21
HETATM   21  O1  UNL     1      -4.633   0.257   0.383  1.00  0.00    -0.353 OA
HETATM   22  C1  UNL     1      -5.675  -0.694   0.313  1.00  0.00     0.210 C 
ENDBRANCH   1  21
TORSDOF 4
