REMARK  4 active torsions:
REMARK  status: ('A' for Active; 'I' for Inactive)
REMARK    1  A    between atoms: C6_8  and  O1_9 
REMARK    2  A    between atoms: O1_9  and  C7_10 
REMARK    3  A    between atoms: C15_19  and  C16_20 
REMARK    4  A    between atoms: C16_20  and  O2_21 
ROOT
HETATM    1  C1  UNL     1      -4.875   0.070  -0.261  1.00  0.00     0.049 C 
HETATM    2  C2  UNL     1      -3.432  -0.185  -0.245  1.00  0.00    -0.051 A 
HETATM    3  C3  UNL     1      -2.936  -1.478  -0.408  1.00  0.00     0.040 A 
HETATM    4  C4  UNL     1      -1.557  -1.661  -0.384  1.00  0.00     0.073 A 
HETATM    5  N1  UNL     1      -1.087  -2.891  -0.540  1.00  0.00    -0.241 NA
HETATM    6  C5  UNL     1       0.256  -3.103  -0.521  1.00  0.00     0.236 A 
HETATM    7  N2  UNL     1       1.099  -2.061  -0.345  1.00  0.00    -0.217 NA
HETATM    8  C6  UNL     1       0.612  -0.819  -0.188  1.00  0.00     0.183 A 
HETATM    9  C13 UNL     1      -0.748  -0.562  -0.201  1.00  0.00     0.047 A 
HETATM   10  C14 UNL     1      -1.215   0.723  -0.037  1.00  0.00     0.028 A 
HETATM   11  C15 UNL     1      -2.577   0.899  -0.062  1.00  0.00    -0.028 A 
ENDROOT
BRANCH   8  12
HETATM   12  O1  UNL     1       1.452   0.280  -0.003  1.00  0.00    -0.291 OA
BRANCH  12  13
HETATM   13  C7  UNL     1       2.826   0.192   0.034  1.00  0.00     0.079 A 
HETATM   14  C8  UNL     1       3.644   0.304  -1.095  1.00  0.00     0.037 A 
HETATM   15  C9  UNL     1       5.016   0.206  -0.989  1.00  0.00     0.004 A 
HETATM   16  C10 UNL     1       5.627  -0.008   0.251  1.00  0.00     0.019 A 
HETATM   17  C11 UNL     1       4.818  -0.118   1.365  1.00  0.00     0.013 A 
HETATM   18 BR1  UNL     1       5.641  -0.410   3.064  1.00  0.00    -0.051 Br
HETATM   19  C12 UNL     1       3.428  -0.021   1.276  1.00  0.00     0.056 A 
ENDBRANCH  12  13
ENDBRANCH   8  12
BRANCH  11  20
HETATM   20  C16 UNL     1      -3.125   2.277   0.112  1.00  0.00     0.203 C 
BRANCH  20  21
HETATM   21  O2  UNL     1      -2.081   3.209   0.281  1.00  0.00    -0.396 OA
HETATM   22  H13 UNL     1      -2.489   4.090   0.148  1.00  0.00     0.209 HD
ENDBRANCH  20  21
ENDBRANCH  11  20
TORSDOF 4
