REMARK  1 active torsions:
REMARK  status: ('A' for Active; 'I' for Inactive)
REMARK    1  A    between atoms: O1_2  and  C2_3 
ROOT
HETATM    1  C2  UNL     1      -1.415  -1.238  -0.618  1.00  0.00     0.048 C 
HETATM    2  C3  UNL     1      -0.338  -2.010  -0.619  1.00  0.00     0.010 C 
HETATM    3  C4  UNL     1       1.040  -2.597  -0.477  1.00  0.00     0.068 C 
HETATM    4  C5  UNL     1       1.904  -1.431  -0.065  1.00  0.00    -0.052 A 
HETATM    5  C6  UNL     1       3.030  -1.132  -0.843  1.00  0.00     0.007 A 
HETATM    6  C7  UNL     1       3.745   0.001  -0.512  1.00  0.00     0.003 A 
HETATM    7  C8  UNL     1       3.368   0.808   0.540  1.00  0.00     0.037 A 
HETATM    8  C9  UNL     1       2.260   0.513   1.304  1.00  0.00     0.072 A 
HETATM    9  C10 UNL     1       1.550  -0.620   0.977  1.00  0.00     0.044 A 
HETATM   10  O2  UNL     1       1.699   1.165   2.370  1.00  0.00    -0.319 OA
HETATM   11  C11 UNL     1       0.847   2.255   2.151  1.00  0.00     0.301 A 
HETATM   12  N1  UNL     1       1.650   3.415   1.931  1.00  0.00    -0.245 NA
HETATM   13  C12 UNL     1       1.301   3.972   0.852  1.00  0.00     0.230 A 
HETATM   14  N2  UNL     1       0.248   3.234   0.273  1.00  0.00    -0.246 NA
HETATM   15  C13 UNL     1      -0.068   2.190   1.011  1.00  0.00     0.070 A 
HETATM   16  C14 UNL     1      -1.189   1.419   0.423  1.00  0.00     0.105 A 
HETATM   17  C15 UNL     1      -1.425   0.185  -0.096  1.00  0.00     0.018 A 
HETATM   18  O3  UNL     1      -2.597   0.973  -0.123  1.00  0.00     0.000 OA
HETATM   19  C16 UNL     1      -3.494   1.079  -1.172  1.00  0.00     0.000 C 
ENDROOT
BRANCH   1  20
HETATM   20  O1  UNL     1      -2.726  -1.528  -1.062  1.00  0.00    -0.360 OA
HETATM   21  C1  UNL     1      -3.368  -2.747  -0.832  1.00  0.00     0.209 C 
ENDBRANCH   1  20
TORSDOF 1
