REMARK  6 active torsions:
REMARK  status: ('A' for Active; 'I' for Inactive)
REMARK    1  A    between atoms: C2_2  and  C3_4 
REMARK    2  A    between atoms: C4_6  and  C5_7 
REMARK    3  A    between atoms: C6_8  and  N1_9 
REMARK    4  A    between atoms: N1_9  and  C7_10 
REMARK    5  A    between atoms: C11_16  and  O1_17 
REMARK    6  A    between atoms: C13_19  and  O2_20 
ROOT
HETATM    1  C7  UNL     1       0.290  -0.681  -1.094  1.00  0.00     0.141 A 
HETATM    2  N2  UNL     1       1.074  -0.029  -1.972  1.00  0.00    -0.224 NA
HETATM    3  C8  UNL     1       0.705   1.206  -2.420  1.00  0.00     0.236 A 
HETATM    4  N3  UNL     1      -0.442   1.755  -1.975  1.00  0.00    -0.241 NA
HETATM    5  C9  UNL     1      -1.249   1.111  -1.085  1.00  0.00     0.075 A 
HETATM    6  C10 UNL     1      -2.420   1.699  -0.646  1.00  0.00     0.072 A 
HETATM    7  C11 UNL     1      -3.210   1.014   0.254  1.00  0.00     0.103 A 
HETATM    8  C13 UNL     1      -2.831  -0.235   0.704  1.00  0.00     0.102 A 
HETATM    9  C15 UNL     1      -1.668  -0.842   0.279  1.00  0.00     0.057 A 
HETATM   10  C16 UNL     1      -0.890  -0.142  -0.621  1.00  0.00     0.042 A 
ENDROOT
BRANCH   1  11
HETATM   11  N1  UNL     1       0.761  -1.946  -0.697  1.00  0.00    -0.350 N 
HETATM   12  H6  UNL     1       0.373  -2.660  -0.044  1.00  0.00     0.166 HD
BRANCH  11  13
HETATM   13  C6  UNL     1       1.962  -2.467  -1.194  1.00  0.00     0.090 C 
HETATM   14  C5  UNL     1       3.142  -1.984  -0.840  1.00  0.00     0.020 C 
BRANCH  14  15
HETATM   15  C4  UNL     1       3.223  -0.876   0.097  1.00  0.00     0.045 C 
HETATM   16  C3  UNL     1       4.406  -0.390   0.454  1.00  0.00     0.137 C 
HETATM   17  F1  UNL     1       5.545  -0.908  -0.038  1.00  0.00    -0.204 F 
BRANCH  16  18
HETATM   18  C2  UNL     1       4.565   0.725   1.393  1.00  0.00     0.063 C 
HETATM   19  C1  UNL     1       5.741   1.225   1.762  1.00  0.00     0.040 C 
HETATM   20 CL1  UNL     1       3.223   1.551   2.156  1.00  0.00    -0.082 Cl
ENDBRANCH  16  18
ENDBRANCH  14  15
ENDBRANCH  11  13
ENDBRANCH   1  11
BRANCH   8  21
HETATM   21  O2  UNL     1      -3.670  -0.872   1.609  1.00  0.00    -0.353 OA
HETATM   22  C14 UNL     1      -3.300  -2.161   2.086  1.00  0.00     0.210 C 
ENDBRANCH   8  21
BRANCH   7  23
HETATM   23  O1  UNL     1      -4.389   1.598   0.702  1.00  0.00    -0.353 OA
HETATM   24  C12 UNL     1      -4.743   2.883   0.217  1.00  0.00     0.210 C 
ENDBRANCH   7  23
TORSDOF 6
