REMARK  5 active torsions:
REMARK  status: ('A' for Active; 'I' for Inactive)
REMARK    1  A    between atoms: C4_5  and  C5_6 
REMARK    2  A    between atoms: C5_6  and  O1_7 
REMARK    3  A    between atoms: O1_7  and  C6_8 
REMARK    4  A    between atoms: C10_14  and  O2_15 
REMARK    5  A    between atoms: C12_17  and  O3_18 
ROOT
HETATM    1  C1  UNL     1       5.756  -0.077   0.957  1.00  0.00     0.018 C 
HETATM    2  C2  UNL     1       5.244   0.014  -0.133  1.00  0.00    -0.070 C 
HETATM    3  C3  UNL     1       4.656   0.112  -1.439  1.00  0.00     0.061 C 
HETATM    4 BR1  UNL     1       5.347  -0.789  -2.973  1.00  0.00    -0.041 Br
HETATM    5  C4  UNL     1       3.578   0.866  -1.589  1.00  0.00     0.028 C 
ENDROOT
BRANCH   5   6
HETATM    6  C5  UNL     1       2.901   1.632  -0.543  1.00  0.00     0.207 C 
BRANCH   6   7
HETATM    7  O1  UNL     1       1.551   1.238  -0.357  1.00  0.00    -0.330 OA
BRANCH   7   8
HETATM    8  C6  UNL     1       1.157  -0.026   0.003  1.00  0.00     0.178 A 
HETATM    9  N1  UNL     1       1.965  -1.080   0.236  1.00  0.00    -0.217 NA
HETATM   10  C7  UNL     1       1.426  -2.271   0.585  1.00  0.00     0.236 A 
HETATM   11  N2  UNL     1       0.103  -2.469   0.717  1.00  0.00    -0.241 NA
HETATM   12  C8  UNL     1      -0.748  -1.441   0.494  1.00  0.00     0.075 A 
HETATM   13  C9  UNL     1      -2.095  -1.687   0.639  1.00  0.00     0.072 A 
HETATM   14  C15 UNL     1      -0.218  -0.214   0.135  1.00  0.00     0.048 A 
HETATM   15  C10 UNL     1      -2.968  -0.628   0.409  1.00  0.00     0.103 A 
HETATM   16  C12 UNL     1      -2.469   0.602   0.052  1.00  0.00     0.102 A 
HETATM   17  C14 UNL     1      -1.116   0.828  -0.089  1.00  0.00     0.057 A 
BRANCH  15  18
HETATM   18  O2  UNL     1      -4.340  -0.772   0.529  1.00  0.00    -0.353 OA
HETATM   19  C11 UNL     1      -4.892  -2.018   0.894  1.00  0.00     0.210 C 
ENDBRANCH  15  18
BRANCH  16  20
HETATM   20  O3  UNL     1      -3.357   1.664  -0.179  1.00  0.00    -0.353 OA
HETATM   21  C13 UNL     1      -2.808   2.918  -0.546  1.00  0.00     0.210 C 
ENDBRANCH  16  20
ENDBRANCH   7   8
ENDBRANCH   6   7
ENDBRANCH   5   6
TORSDOF 5
