REMARK  1 active torsions:
REMARK  status: ('A' for Active; 'I' for Inactive)
REMARK    1  A    between atoms: O1_2  and  C2_3 
ROOT
HETATM    1  C2  UNL     1       4.567   0.108   0.274  1.00  0.00     0.069 A 
HETATM    2  C3  UNL     1       4.311   1.295   0.925  1.00  0.00     0.039 A 
HETATM    3  C4  UNL     1       3.055   1.841   0.791  1.00  0.00     0.040 A 
HETATM    4  C5  UNL     1       2.066   1.254   0.043  1.00  0.00     0.085 A 
HETATM    5  C6  UNL     1       2.297   0.048  -0.629  1.00  0.00    -0.004 A 
HETATM    6  C7  UNL     1       3.562  -0.465  -0.470  1.00  0.00     0.048 A 
HETATM    7  C8  UNL     1       1.219  -0.575  -1.440  1.00  0.00     0.160 C 
HETATM    8  N1  UNL     1       0.230  -1.269  -0.625  1.00  0.00    -0.391 N 
HETATM    9  C9  UNL     1      -1.037  -1.890  -0.803  1.00  0.00     0.133 C 
HETATM   10  C10 UNL     1      -2.189  -1.259  -0.549  1.00  0.00     0.136 C 
HETATM   11  N2  UNL     1      -3.291  -2.111  -0.813  1.00  0.00    -0.370 N 
HETATM   12  C11 UNL     1      -4.709  -1.803  -1.055  1.00  0.00     0.148 C 
HETATM   13  C12 UNL     1      -5.159  -0.826  -0.026  1.00  0.00    -0.009 C 
HETATM   14  C13 UNL     1      -4.671   0.132   0.718  1.00  0.00    -0.003 C 
HETATM   15  C14 UNL     1      -3.305   0.671   0.823  1.00  0.00     0.130 C 
HETATM   16  C15 UNL     1      -3.423   2.176   0.562  1.00  0.00     0.039 C 
HETATM   17  N3  UNL     1      -2.350   0.075  -0.079  1.00  0.00    -0.243 N 
HETATM   18  N4  UNL     1      -1.357   0.876  -0.647  1.00  0.00    -0.158 NA
HETATM   19  C16 UNL     1      -0.339   1.272   0.035  1.00  0.00     0.281 C 
HETATM   20  O2  UNL     1       0.866   2.001   0.059  1.00  0.00    -0.302 OA
HETATM   21  H9  UNL     1       0.240  -1.497   0.393  1.00  0.00     0.159 HD
HETATM   22  H11 UNL     1      -3.004  -3.136  -0.830  1.00  0.00     0.161 HD
ENDROOT
BRANCH   1  23
HETATM   23  O1  UNL     1       5.788  -0.544   0.328  1.00  0.00    -0.356 OA
HETATM   24  C1  UNL     1       6.894  -0.081   1.041  1.00  0.00     0.210 C 
ENDBRANCH   1  23
TORSDOF 1
