REMARK  6 active torsions:
REMARK  status: ('A' for Active; 'I' for Inactive)
REMARK    1  A    between atoms: O1_2  and  C2_3 
REMARK    2  A    between atoms: C2_3  and  C3_4 
REMARK    3  A    between atoms: C3_4  and  O2_22 
REMARK    4  A    between atoms: C4_5  and  C5_6 
REMARK    5  A    between atoms: C9_12  and  N3_13 
REMARK    6  A    between atoms: N3_13  and  C10_14 
ROOT
HETATM    1  C5  UNL     1       0.698  -0.314  -0.505  1.00  0.00     0.089 A 
HETATM    2  C6  UNL     1      -0.645  -1.099  -0.622  1.00  0.00     0.139 A 
HETATM    3  N1  UNL     1      -0.708  -2.502  -0.320  1.00  0.00    -0.262 N 
HETATM    4  C7  UNL     1      -0.601  -2.494   1.183  1.00  0.00     0.223 A 
HETATM    5  N2  UNL     1      -0.408  -0.923   1.682  1.00  0.00    -0.262 NA
HETATM    6  C8  UNL     1      -0.420  -0.339   0.535  1.00  0.00     0.139 A 
HETATM    7  C9  UNL     1      -1.284   0.162  -0.699  1.00  0.00     0.056 A 
ENDROOT
BRANCH   7   8
HETATM    8  N3  UNL     1      -2.109   1.051  -1.360  1.00  0.00    -0.358 N 
HETATM    9  H9  UNL     1      -1.949   1.706  -2.100  1.00  0.00     0.165 HD
BRANCH   8  10
HETATM   10  C10 UNL     1      -3.414   0.940  -0.802  1.00  0.00     0.034 A 
HETATM   11  C11 UNL     1      -3.760   1.931   0.107  1.00  0.00     0.032 A 
HETATM   12  C12 UNL     1      -5.001   1.930   0.732  1.00  0.00     0.046 A 
HETATM   13  C13 UNL     1      -5.934   0.956   0.484  1.00  0.00     0.138 A 
HETATM   14  F1  UNL     1      -7.146   0.946   1.089  1.00  0.00    -0.204 F 
HETATM   15  C14 UNL     1      -5.564  -0.031  -0.433  1.00  0.00     0.074 A 
HETATM   16 CL1  UNL     1      -6.704  -1.310  -0.802  1.00  0.00    -0.081 Cl
HETATM   17  C15 UNL     1      -4.336  -0.041  -1.062  1.00  0.00     0.056 A 
ENDBRANCH   8  10
ENDBRANCH   7   8
BRANCH   1  18
HETATM   18  C4  UNL     1       1.830  -1.180  -0.294  1.00  0.00     0.018 C 
HETATM   19  C3  UNL     1       3.066  -0.738  -0.153  1.00  0.00     0.066 C 
BRANCH  19  20
HETATM   20  C2  UNL     1       3.533   0.676  -0.180  1.00  0.00     0.231 C 
BRANCH  20  21
HETATM   21  O1  UNL     1       4.443   0.948  -1.168  1.00  0.00    -0.390 OA
HETATM   22  C1  UNL     1       4.877   2.270  -1.181  1.00  0.00     0.201 C 
ENDBRANCH  20  21
ENDBRANCH  19  20
BRANCH  19  23
HETATM   23  O2  UNL     1       4.149  -1.586   0.047  1.00  0.00    -0.358 OA
HETATM   24  C16 UNL     1       4.057  -2.523   1.098  1.00  0.00     0.209 C 
ENDBRANCH  19  23
ENDBRANCH   1  18
TORSDOF 6
