REMARK  4 active torsions:
REMARK  status: ('A' for Active; 'I' for Inactive)
REMARK    1  A    between atoms: O1_2  and  C2_3 
REMARK    2  A    between atoms: C6_9  and  N3_10 
REMARK    3  A    between atoms: N3_10  and  C7_11 
REMARK    4  A    between atoms: C15_21  and  O2_22 
ROOT
HETATM    1  C2  UNL     1      -3.116  -0.125   0.017  1.00  0.00     0.103 A 
HETATM    2  C3  UNL     1      -2.513   0.219  -1.190  1.00  0.00     0.072 A 
HETATM    3  C4  UNL     1      -1.124   0.192  -1.297  1.00  0.00     0.075 A 
HETATM    4  N1  UNL     1      -0.554   0.531  -2.484  1.00  0.00    -0.241 NA
HETATM    5  C5  UNL     1       0.788   0.516  -2.622  1.00  0.00     0.236 A 
HETATM    6  N2  UNL     1       1.544   0.158  -1.558  1.00  0.00    -0.224 NA
HETATM    7  C6  UNL     1       0.965  -0.175  -0.390  1.00  0.00     0.142 A 
HETATM    8  C13 UNL     1      -0.380  -0.177  -0.197  1.00  0.00     0.042 A 
HETATM    9  C14 UNL     1      -0.943  -0.522   1.011  1.00  0.00     0.057 A 
HETATM   10  C15 UNL     1      -2.320  -0.489   1.094  1.00  0.00     0.102 A 
ENDROOT
BRANCH   7  11
HETATM   11  N3  UNL     1       1.875  -0.530   0.642  1.00  0.00    -0.339 N 
HETATM   12  H6  UNL     1       1.721  -0.826   1.629  1.00  0.00     0.167 HD
BRANCH  11  13
HETATM   13  C7  UNL     1       3.282  -0.522   0.420  1.00  0.00     0.049 C 
HETATM   14  C8  UNL     1       4.011  -1.588   0.127  1.00  0.00     0.047 C 
HETATM   15  C9  UNL     1       5.030  -1.477  -0.700  1.00  0.00     0.152 C 
HETATM   16  F1  UNL     1       5.470  -2.556  -1.376  1.00  0.00    -0.203 F 
HETATM   17  C10 UNL     1       5.631  -0.131  -0.825  1.00  0.00     0.084 C 
HETATM   18 CL1  UNL     1       6.701   0.160  -2.181  1.00  0.00    -0.080 Cl
HETATM   19  C11 UNL     1       5.327   0.771   0.091  1.00  0.00     0.003 C 
HETATM   20  C12 UNL     1       4.071   0.726   0.504  1.00  0.00     0.044 C 
ENDBRANCH  11  13
ENDBRANCH   7  11
BRANCH  10  21
HETATM   21  O2  UNL     1      -2.956  -0.825   2.282  1.00  0.00    -0.353 OA
HETATM   22  C16 UNL     1      -2.187  -1.206   3.417  1.00  0.00     0.210 C 
ENDBRANCH  10  21
BRANCH   1  23
HETATM   23  O1  UNL     1      -4.505  -0.108   0.156  1.00  0.00    -0.353 OA
HETATM   24  C1  UNL     1      -5.246   0.279  -1.002  1.00  0.00     0.210 C 
ENDBRANCH   1  23
TORSDOF 4
