REMARK  4 active torsions:
REMARK  status: ('A' for Active; 'I' for Inactive)
REMARK    1  A    between atoms: O1_2  and  C2_3 
REMARK    2  A    between atoms: C5_6  and  N1_7 
REMARK    3  A    between atoms: N1_7  and  C6_8 
REMARK    4  A    between atoms: C15_21  and  O2_22 
ROOT
HETATM    1  C2  UNL     1      -2.559   0.259   0.814  1.00  0.00     0.076 C 
HETATM    2  C3  UNL     1      -1.496  -0.400   0.744  1.00  0.00     0.032 C 
HETATM    3  C4  UNL     1      -0.361  -0.553  -0.177  1.00  0.00     0.219 A 
HETATM    4  C5  UNL     1       0.771  -1.182  -0.167  1.00  0.00     0.092 A 
HETATM    5  N2  UNL     1       0.494  -0.371   1.053  1.00  0.00    -0.241 NA
HETATM    6  C12 UNL     1       0.051   0.935   0.797  1.00  0.00     0.181 C 
HETATM    7  N3  UNL     1      -0.378   2.205   0.322  1.00  0.00    -0.247 NA
HETATM    8  C13 UNL     1      -0.638   2.180  -0.913  1.00  0.00     0.085 C 
HETATM    9  C14 UNL     1      -1.448   1.199  -1.302  1.00  0.00     0.045 C 
HETATM   10  C15 UNL     1      -2.515   1.088  -0.359  1.00  0.00     0.202 C 
ENDROOT
BRANCH   4  11
HETATM   11  N1  UNL     1       1.965  -1.885  -0.074  1.00  0.00    -0.370 N 
HETATM   12  H6  UNL     1       1.880  -2.857   0.272  1.00  0.00     0.161 HD
BRANCH  11  13
HETATM   13  C6  UNL     1       3.178  -1.253  -0.446  1.00  0.00     0.031 A 
HETATM   14  C7  UNL     1       4.314  -2.015  -0.330  1.00  0.00     0.032 A 
HETATM   15  C8  UNL     1       5.551  -1.508  -0.662  1.00  0.00     0.046 A 
HETATM   16  C9  UNL     1       5.614  -0.221  -1.110  1.00  0.00     0.138 A 
HETATM   17  F1  UNL     1       6.767   0.389  -1.467  1.00  0.00    -0.204 F 
HETATM   18  C10 UNL     1       4.463   0.558  -1.230  1.00  0.00     0.074 A 
HETATM   19 CL1  UNL     1       4.501   2.229  -1.806  1.00  0.00    -0.081 Cl
HETATM   20  C11 UNL     1       3.216   0.029  -0.889  1.00  0.00     0.056 A 
ENDBRANCH  11  13
ENDBRANCH   4  11
BRANCH   1  21
HETATM   21  O1  UNL     1      -3.402   0.067   1.892  1.00  0.00    -0.357 OA
HETATM   22  C1  UNL     1      -3.797  -1.297   2.109  1.00  0.00     0.209 C 
ENDBRANCH   1  21
BRANCH  10  23
HETATM   23  O2  UNL     1      -3.205   2.332  -0.155  1.00  0.00    -0.380 OA
HETATM   24  C16 UNL     1      -4.393   2.147  -0.809  1.00  0.00     0.202 C 
ENDBRANCH  10  23
TORSDOF 4
