REMARK  4 active torsions:
REMARK  status: ('A' for Active; 'I' for Inactive)
REMARK    1  A    between atoms: O1_2  and  C2_3 
REMARK    2  A    between atoms: C6_8  and  N2_9 
REMARK    3  A    between atoms: C11_16  and  N3_17 
REMARK    4  A    between atoms: C13_19  and  O2_20 
ROOT
HETATM    1  C2  UNL     1       2.869   0.087   0.761  1.00  0.00     0.081 A 
HETATM    2  C3  UNL     1       2.749   1.303   1.282  1.00  0.00     0.067 A 
HETATM    3  C4  UNL     1       1.368   1.776   1.193  1.00  0.00     0.065 A 
HETATM    4  N1  UNL     1       0.511   2.713   1.427  1.00  0.00    -0.283 NA
HETATM    5  C5  UNL     1      -0.802   2.308   0.958  1.00  0.00     0.207 A 
HETATM    6  C6  UNL     1      -0.592   0.943   0.389  1.00  0.00     0.045 A 
HETATM    7  C12 UNL     1       0.691   0.648   0.537  1.00  0.00     0.030 A 
HETATM    8  C13 UNL     1       1.573  -0.447   0.236  1.00  0.00     0.212 A 
ENDROOT
BRANCH   6   9
HETATM    9  N2  UNL     1      -1.725   0.309  -0.145  1.00  0.00    -0.332 N 
HETATM   10  C7  UNL     1      -2.352   0.966  -1.257  1.00  0.00     0.120 A 
HETATM   11  C8  UNL     1      -3.426   0.402  -1.792  1.00  0.00     0.087 A 
HETATM   12 CL1  UNL     1      -4.221   1.170  -3.149  1.00  0.00    -0.080 Cl
HETATM   13  C9  UNL     1      -3.992  -0.851  -1.299  1.00  0.00     0.139 A 
HETATM   14  F1  UNL     1      -5.078  -1.465  -1.804  1.00  0.00    -0.204 F 
HETATM   15  C10 UNL     1      -3.350  -1.387  -0.271  1.00  0.00     0.063 A 
HETATM   16  C11 UNL     1      -2.138  -0.885   0.441  1.00  0.00     0.208 A 
BRANCH  16  17
HETATM   17  N3  UNL     1      -1.268  -1.967   0.619  1.00  0.00    -0.407 N 
HETATM   18  H10 UNL     1      -1.293  -2.465   1.534  1.00  0.00     0.152 HD
HETATM   19  H11 UNL     1      -1.092  -2.574  -0.190  1.00  0.00     0.152 HD
ENDBRANCH  16  17
ENDBRANCH   6   9
BRANCH   8  20
HETATM   20  O2  UNL     1       1.618  -0.992  -0.996  1.00  0.00    -0.384 OA
HETATM   21  H13 UNL     1       1.456  -1.947  -1.100  1.00  0.00     0.211 HD
ENDBRANCH   8  20
BRANCH   1  22
HETATM   22  O1  UNL     1       4.040  -0.670   0.676  1.00  0.00    -0.357 OA
HETATM   23  C1  UNL     1       4.906  -0.451  -0.443  1.00  0.00     0.209 C 
ENDBRANCH   1  22
TORSDOF 4
