REMARK  7 active torsions:
REMARK  status: ('A' for Active; 'I' for Inactive)
REMARK    1  A    between atoms: C2_2  and  C12_16 
REMARK    2  A    between atoms: N1_3  and  C3_4 
REMARK    3  A    between atoms: C4_5  and  N2_6 
REMARK    4  A    between atoms: N2_6  and  C6_8 
REMARK    5  A    between atoms: C12_16  and  N3_17 
REMARK    6  A    between atoms: C12_16  and  C14_20 
REMARK    7  A    between atoms: C14_20  and  O1_21 
ROOT
HETATM    1  C12 UNL     1      -3.069   0.184   0.150  1.00  0.00     0.302 C 
HETATM    2  C13 UNL     1      -2.664   0.448   1.531  1.00  0.00     0.110 C 
HETATM    3  N4  UNL     1      -2.353   0.674   2.638  1.00  0.00    -0.194 NA
ENDROOT
BRANCH   1   4
HETATM    4  C2  UNL     1      -1.899  -0.260  -0.630  1.00  0.00     0.063 C 
HETATM    5  C1  UNL     1      -1.206  -1.499  -0.177  1.00  0.00     0.069 C 
HETATM    6  N1  UNL     1      -1.442   0.352  -1.671  1.00  0.00    -0.265 NA
BRANCH   6   7
HETATM    7  C3  UNL     1      -0.302  -0.213  -2.308  1.00  0.00     0.134 C 
HETATM    8  C4  UNL     1       1.007  -0.167  -2.116  1.00  0.00     0.110 C 
BRANCH   8   9
HETATM    9  N2  UNL     1       1.472   0.608  -1.038  1.00  0.00    -0.360 N 
HETATM   10  C5  UNL     1       0.752   1.810  -0.665  1.00  0.00     0.155 C 
BRANCH   9  11
HETATM   11  C6  UNL     1       2.638   0.199  -0.334  1.00  0.00     0.035 A 
HETATM   12  C7  UNL     1       3.333  -0.960  -0.693  1.00  0.00     0.033 A 
HETATM   13  C8  UNL     1       4.474  -1.385  -0.025  1.00  0.00     0.046 A 
HETATM   14  C9  UNL     1       4.958  -0.639   1.045  1.00  0.00     0.138 A 
HETATM   15  F1  UNL     1       6.073  -1.068   1.685  1.00  0.00    -0.204 F 
HETATM   16  C10 UNL     1       4.278   0.524   1.420  1.00  0.00     0.074 A 
HETATM   17 CL1  UNL     1       4.959   1.385   2.765  1.00  0.00    -0.081 Cl
HETATM   18  C11 UNL     1       3.148   0.912   0.731  1.00  0.00     0.056 A 
ENDBRANCH   9  11
ENDBRANCH   8   9
ENDBRANCH   6   7
ENDBRANCH   1   4
BRANCH   1  19
HETATM   19  N3  UNL     1      -3.612   1.428  -0.400  1.00  0.00     0.110 N 
HETATM   20  H12 UNL     1      -3.045   2.207  -0.001  1.00  0.00     0.315 HD
HETATM   21  H13 UNL     1      -4.602   1.476  -0.140  1.00  0.00     0.315 HD
ENDBRANCH   1  19
BRANCH   1  22
HETATM   22  C14 UNL     1      -4.206  -0.829   0.098  1.00  0.00     0.227 C 
BRANCH  22  23
HETATM   23  O1  UNL     1      -5.252  -0.331   0.870  1.00  0.00    -0.397 OA
HETATM   24  H16 UNL     1      -4.910   0.349   1.532  1.00  0.00     0.209 HD
ENDBRANCH  22  23
ENDBRANCH   1  22
TORSDOF 7
