REMARK  4 active torsions:
REMARK  status: ('A' for Active; 'I' for Inactive)
REMARK    1  A    between atoms: O1_2  and  C2_3 
REMARK    2  A    between atoms: C2_3  and  C3_4 
REMARK    3  A    between atoms: C9_13  and  N3_14 
REMARK    4  A    between atoms: N3_14  and  C10_15 
ROOT
HETATM    1  C3  UNL     1      -1.703   0.190   0.514  1.00  0.00     0.073 C 
HETATM    2  C4  UNL     1      -3.044  -0.083   1.210  1.00  0.00     0.186 C 
HETATM    3  O2  UNL     1      -3.985  -0.682   0.352  1.00  0.00    -0.362 OA
HETATM    4  C5  UNL     1      -4.083  -2.059   0.070  1.00  0.00     0.137 C 
HETATM    5  C6  UNL     1      -2.969  -2.773  -0.167  1.00  0.00     0.056 C 
HETATM    6  C7  UNL     1      -1.558  -2.329  -0.183  1.00  0.00     0.070 A 
HETATM    7  N1  UNL     1      -0.849  -3.433  -0.556  1.00  0.00    -0.241 NA
HETATM    8  C8  UNL     1       0.477  -3.273  -0.660  1.00  0.00     0.235 A 
HETATM    9  N2  UNL     1       1.031  -2.089  -0.406  1.00  0.00    -0.224 NA
HETATM   10  C9  UNL     1       0.325  -1.014  -0.042  1.00  0.00     0.138 A 
HETATM   11  C16 UNL     1      -1.043  -1.058   0.099  1.00  0.00     0.025 A 
ENDROOT
BRANCH  10  12
HETATM   12  N3  UNL     1       1.018   0.199   0.186  1.00  0.00    -0.340 N 
HETATM   13  H12 UNL     1       0.574   1.097   0.473  1.00  0.00     0.167 HD
BRANCH  12  14
HETATM   14  C10 UNL     1       2.409   0.422   0.054  1.00  0.00     0.035 A 
HETATM   15  C11 UNL     1       3.267  -0.355  -0.684  1.00  0.00     0.032 A 
HETATM   16  C12 UNL     1       4.622  -0.139  -0.789  1.00  0.00     0.046 A 
HETATM   17  C13 UNL     1       5.202   0.902  -0.134  1.00  0.00     0.138 A 
HETATM   18  F1  UNL     1       6.527   1.157  -0.203  1.00  0.00    -0.204 F 
HETATM   19  C14 UNL     1       4.421   1.730   0.627  1.00  0.00     0.074 A 
HETATM   20 CL1  UNL     1       5.125   3.074   1.480  1.00  0.00    -0.081 Cl
HETATM   21  C15 UNL     1       3.086   1.468   0.693  1.00  0.00     0.056 A 
ENDBRANCH  12  14
ENDBRANCH  10  12
BRANCH   1  22
HETATM   22  C2  UNL     1      -2.012   1.096  -0.638  1.00  0.00     0.178 C 
BRANCH  22  23
HETATM   23  O1  UNL     1      -2.588   2.305  -0.307  1.00  0.00    -0.395 OA
HETATM   24  C1  UNL     1      -1.833   3.121   0.516  1.00  0.00     0.201 C 
ENDBRANCH  22  23
ENDBRANCH   1  22
TORSDOF 4
