REMARK  1 active torsions:
REMARK  status: ('A' for Active; 'I' for Inactive)
REMARK    1  A    between atoms: O1_2  and  C2_3 
ROOT
HETATM    1  C2  UNL     1       2.742  -0.055   0.052  1.00  0.00     0.069 A 
HETATM    2  C3  UNL     1       2.760   1.235   0.539  1.00  0.00     0.039 A 
HETATM    3  C4  UNL     1       1.627   1.958   0.842  1.00  0.00     0.041 A 
HETATM    4  C5  UNL     1       0.400   1.370   0.653  1.00  0.00     0.090 A 
HETATM    5  C6  UNL     1       0.418   0.058   0.161  1.00  0.00     0.031 A 
HETATM    6  C7  UNL     1       1.547  -0.720  -0.168  1.00  0.00     0.053 A 
HETATM    7  C8  UNL     1      -0.799  -0.772  -0.050  1.00  0.00     0.088 A 
HETATM    8  C9  UNL     1      -0.535  -2.026   0.403  1.00  0.00     0.064 A 
HETATM    9 CL1  UNL     1       0.988  -2.553   1.125  1.00  0.00    -0.082 Cl
HETATM   10  C10 UNL     1      -1.651  -2.997   0.291  1.00  0.00     0.045 A 
HETATM   11  C11 UNL     1      -2.803  -2.614  -0.220  1.00  0.00     0.109 A 
HETATM   12  N1  UNL     1      -3.078  -1.302  -0.688  1.00  0.00    -0.307 N 
HETATM   13  N2  UNL     1      -2.067  -0.370  -0.601  1.00  0.00    -0.257 N 
HETATM   14  C12 UNL     1      -2.305   1.038  -0.996  1.00  0.00     0.307 A 
HETATM   15  N3  UNL     1      -3.687   1.281  -1.193  1.00  0.00    -0.247 NA
HETATM   16  C13 UNL     1      -4.136   2.115  -0.295  1.00  0.00     0.232 A 
HETATM   17  N4  UNL     1      -3.083   2.502   0.586  1.00  0.00    -0.218 NA
HETATM   18  C14 UNL     1      -1.985   1.901   0.225  1.00  0.00     0.193 A 
HETATM   19  O2  UNL     1      -0.774   2.118   0.956  1.00  0.00    -0.291 OA
HETATM   20  H9  UNL     1      -3.944  -0.924  -1.096  1.00  0.00     0.186 HD
ENDROOT
BRANCH   1  21
HETATM   21  O1  UNL     1       3.905  -0.734  -0.235  1.00  0.00    -0.356 OA
HETATM   22  C1  UNL     1       5.153  -0.101  -0.029  1.00  0.00     0.210 C 
ENDBRANCH   1  21
TORSDOF 1
