REMARK  7 active torsions:
REMARK  status: ('A' for Active; 'I' for Inactive)
REMARK    1  A    between atoms: C2_2  and  C4_5 
REMARK    2  A    between atoms: C4_5  and  O2_6 
REMARK    3  A    between atoms: C4_5  and  C6_8 
REMARK    4  A    between atoms: C9_13  and  N3_14 
REMARK    5  A    between atoms: N3_14  and  C10_15 
REMARK    6  A    between atoms: C10_15  and  C11_16 
REMARK    7  A    between atoms: C12_17  and  C13_19 
ROOT
HETATM    1  C6  UNL     1      -0.706  -0.018  -0.780  1.00  0.00     0.038 A 
HETATM    2  C7  UNL     1      -0.828   0.660  -1.969  1.00  0.00     0.132 A 
HETATM    3  N1  UNL     1       0.239   0.720  -2.804  1.00  0.00    -0.253 NA
HETATM    4  C8  UNL     1       1.408   0.110  -2.449  1.00  0.00     0.234 A 
HETATM    5  N2  UNL     1       1.487  -0.543  -1.276  1.00  0.00    -0.224 NA
HETATM    6  C9  UNL     1       0.468  -0.637  -0.411  1.00  0.00     0.135 A 
ENDROOT
BRANCH   6   7
HETATM    7  N3  UNL     1       0.623  -1.346   0.807  1.00  0.00    -0.371 N 
HETATM    8  H12 UNL     1      -0.096  -1.485   1.545  1.00  0.00     0.161 HD
BRANCH   7   9
HETATM    9  C10 UNL     1       1.900  -1.967   1.110  1.00  0.00     0.150 C 
BRANCH   9  10
HETATM   10  C11 UNL     1       3.020  -0.996   1.168  1.00  0.00     0.014 C 
HETATM   11  C12 UNL     1       4.087  -1.049   0.389  1.00  0.00     0.038 C 
HETATM   12 CL1  UNL     1       4.379  -2.259  -0.844  1.00  0.00    -0.087 Cl
BRANCH  11  13
HETATM   13  C13 UNL     1       5.164  -0.030   0.517  1.00  0.00     0.273 C 
HETATM   14  F1  UNL     1       5.264   0.604  -0.693  1.00  0.00    -0.250 F 
ENDBRANCH  11  13
ENDBRANCH   9  10
ENDBRANCH   7   9
ENDBRANCH   6   7
BRANCH   1  15
HETATM   15  C4  UNL     1      -1.892  -0.035   0.064  1.00  0.00     0.188 C 
BRANCH  15  16
HETATM   16  C2  UNL     1      -2.542   1.326   0.148  1.00  0.00    -0.041 A 
HETATM   17  C1  UNL     1      -3.833   1.492  -0.136  1.00  0.00     0.042 A 
HETATM   18  O1  UNL     1      -2.846   2.674   0.313  1.00  0.00     0.000 OA
HETATM   19  C3  UNL     1      -1.880   3.400   1.086  1.00  0.00     0.000 C 
ENDBRANCH  15  16
BRANCH  15  20
HETATM   20  O2  UNL     1      -2.870  -0.941  -0.333  1.00  0.00    -0.381 OA
HETATM   21  C5  UNL     1      -3.211  -1.839   0.654  1.00  0.00     0.202 C 
ENDBRANCH  15  20
ENDBRANCH   1  15
TORSDOF 7
