REMARK  4 active torsions:
REMARK  status: ('A' for Active; 'I' for Inactive)
REMARK    1  A    between atoms: O1_2  and  C2_3 
REMARK    2  A    between atoms: C6_9  and  N3_10 
REMARK    3  A    between atoms: N3_10  and  C7_12 
REMARK    4  A    between atoms: C15_22  and  O2_23 
ROOT
HETATM    1  C2  UNL     1       3.333  -0.601  -0.516  1.00  0.00     0.103 A 
HETATM    2  C3  UNL     1       2.510  -1.557  -1.074  1.00  0.00     0.072 A 
HETATM    3  C4  UNL     1       1.144  -1.491  -0.910  1.00  0.00     0.075 A 
HETATM    4  N1  UNL     1       0.314  -2.382  -1.426  1.00  0.00    -0.241 NA
HETATM    5  C5  UNL     1      -1.014  -2.308  -1.261  1.00  0.00     0.236 A 
HETATM    6  N2  UNL     1      -1.545  -1.311  -0.554  1.00  0.00    -0.223 NA
HETATM    7  C6  UNL     1      -0.811  -0.343   0.022  1.00  0.00     0.154 A 
HETATM    8  C13 UNL     1       0.537  -0.486  -0.192  1.00  0.00     0.043 A 
HETATM    9  C14 UNL     1       1.366   0.460   0.360  1.00  0.00     0.057 A 
HETATM   10  C15 UNL     1       2.732   0.400   0.199  1.00  0.00     0.102 A 
ENDROOT
BRANCH   7  11
HETATM   11  N3  UNL     1      -1.450   0.683   0.761  1.00  0.00    -0.261 N 
HETATM   12 BR1  UNL     1      -1.054   2.187   1.825  1.00  0.00     0.057 Br
BRANCH  11  13
HETATM   13  C7  UNL     1      -2.894   0.682   0.740  1.00  0.00     0.049 A 
HETATM   14  C8  UNL     1      -3.775   0.888   1.762  1.00  0.00     0.034 A 
HETATM   15  C9  UNL     1      -5.135   0.865   1.549  1.00  0.00     0.046 A 
HETATM   16  C10 UNL     1      -5.683   0.638   0.309  1.00  0.00     0.138 A 
HETATM   17  F1  UNL     1      -7.027   0.633   0.193  1.00  0.00    -0.204 F 
HETATM   18  C11 UNL     1      -4.799   0.427  -0.746  1.00  0.00     0.074 A 
HETATM   19 CL1  UNL     1      -5.608   0.147  -2.279  1.00  0.00    -0.081 Cl
HETATM   20  C12 UNL     1      -3.445   0.451  -0.520  1.00  0.00     0.057 A 
ENDBRANCH  11  13
ENDBRANCH   7  11
BRANCH  10  21
HETATM   21  O2  UNL     1       3.581   1.357   0.756  1.00  0.00    -0.353 OA
HETATM   22  C16 UNL     1       3.061   2.425   1.508  1.00  0.00     0.210 C 
ENDBRANCH  10  21
BRANCH   1  23
HETATM   23  O1  UNL     1       4.706  -0.647  -0.668  1.00  0.00    -0.353 OA
HETATM   24  C1  UNL     1       5.358  -1.671  -1.404  1.00  0.00     0.210 C 
ENDBRANCH   1  23
TORSDOF 4
