REMARK  4 active torsions:
REMARK  status: ('A' for Active; 'I' for Inactive)
REMARK    1  A    between atoms: C4_7  and  N3_8 
REMARK    2  A    between atoms: N3_8  and  C5_9 
REMARK    3  A    between atoms: C11_17  and  O1_18 
REMARK    4  A    between atoms: C13_20  and  O2_21 
ROOT
HETATM    1  C1  UNL     1      -3.123   1.604   0.302  1.00  0.00     0.030 A 
HETATM    2  S1  UNL     1      -2.539   2.040  -0.631  1.00  0.00    -0.160 SA
HETATM    3  N1  UNL     1      -1.207   3.126  -2.819  1.00  0.00    -0.236 NA
HETATM    4  C2  UNL     1      -0.557   2.272  -2.536  1.00  0.00     0.239 C 
HETATM    5  N2  UNL     1      -0.082   1.189  -1.866  1.00  0.00    -0.243 NA
HETATM    6  C3  UNL     1      -0.859   0.728  -0.771  1.00  0.00     0.077 C 
HETATM    7  C4  UNL     1       0.227  -0.153  -0.829  1.00  0.00     0.095 C 
HETATM    8  C11 UNL     1      -0.562  -1.095  -0.123  1.00  0.00     0.127 C 
HETATM    9  C13 UNL     1      -1.924  -1.002   0.362  1.00  0.00     0.098 C 
HETATM   10  C15 UNL     1      -2.729   0.091   0.209  1.00  0.00     0.124 A 
HETATM   11  C16 UNL     1      -2.491   2.074  -0.706  1.00  0.00     0.100 A 
HETATM   12  H2  UNL     1      -1.866   2.573  -1.705  1.00  0.00     0.127 HD
ENDROOT
BRANCH   7  13
HETATM   13  N3  UNL     1       1.469  -0.518  -1.174  1.00  0.00    -0.352 N 
HETATM   14  H4  UNL     1       1.216  -1.062  -1.990  1.00  0.00     0.166 HD
BRANCH  13  15
HETATM   15  C5  UNL     1       2.547  -0.037  -0.390  1.00  0.00     0.034 A 
HETATM   16  C6  UNL     1       2.767   0.075   0.930  1.00  0.00     0.032 A 
HETATM   17  C7  UNL     1       3.923   0.571   1.448  1.00  0.00     0.046 A 
HETATM   18  C8  UNL     1       4.967   1.014   0.608  1.00  0.00     0.138 A 
HETATM   19  F1  UNL     1       6.120   1.484   1.168  1.00  0.00    -0.204 F 
HETATM   20  C9  UNL     1       4.756   0.913  -0.797  1.00  0.00     0.074 A 
HETATM   21 CL1  UNL     1       6.131   1.477  -1.694  1.00  0.00    -0.081 Cl
HETATM   22  C10 UNL     1       3.582   0.400  -1.230  1.00  0.00     0.056 A 
ENDBRANCH  13  15
ENDBRANCH   7  13
BRANCH   8  23
HETATM   23  O1  UNL     1      -0.265  -2.372   0.291  1.00  0.00    -0.351 OA
HETATM   24  C12 UNL     1      -0.141  -2.546   1.718  1.00  0.00     0.210 C 
ENDBRANCH   8  23
BRANCH   9  25
HETATM   25  O2  UNL     1      -2.745  -1.831   1.018  1.00  0.00    -0.356 OA
HETATM   26  C14 UNL     1      -3.961  -2.364   1.070  1.00  0.00     0.209 C 
ENDBRANCH   9  25
TORSDOF 4
