REMARK  5 active torsions:
REMARK  status: ('A' for Active; 'I' for Inactive)
REMARK    1  A    between atoms: O1_2  and  C2_3 
REMARK    2  A    between atoms: C2_3  and  O2_4 
REMARK    3  A    between atoms: O2_4  and  C3_5 
REMARK    4  A    between atoms: C9_13  and  N3_14 
REMARK    5  A    between atoms: N3_14  and  C11_16 
ROOT
HETATM    1  C3  UNL     1       1.644  -0.627   0.015  1.00  0.00     0.088 A 
HETATM    2  C4  UNL     1       2.901  -0.909   0.517  1.00  0.00     0.038 A 
HETATM    3  C5  UNL     1       3.366  -2.172   0.818  1.00  0.00     0.005 A 
HETATM    4  C6  UNL     1       2.496  -3.219   0.594  1.00  0.00     0.033 A 
HETATM    5  C7  UNL     1       1.225  -3.026   0.095  1.00  0.00     0.075 A 
HETATM    6  N1  UNL     1       0.365  -4.063  -0.121  1.00  0.00    -0.241 NA
HETATM    7  C8  UNL     1      -0.846  -3.726  -0.607  1.00  0.00     0.236 A 
HETATM    8  N2  UNL     1      -1.264  -2.479  -0.889  1.00  0.00    -0.223 NA
HETATM    9  C9  UNL     1      -0.398  -1.450  -0.670  1.00  0.00     0.146 A 
HETATM   10  C17 UNL     1       0.844  -1.730  -0.178  1.00  0.00     0.072 A 
ENDROOT
BRANCH   9  11
HETATM   11  N3  UNL     1      -1.008  -0.216  -1.050  1.00  0.00    -0.335 N 
HETATM   12  C10 UNL     1      -0.716   0.717  -2.149  1.00  0.00     0.158 C 
BRANCH  11  13
HETATM   13  C11 UNL     1      -2.096   0.166  -0.210  1.00  0.00     0.037 A 
HETATM   14  C12 UNL     1      -2.831   1.314  -0.414  1.00  0.00     0.033 A 
HETATM   15  C13 UNL     1      -3.888   1.735   0.364  1.00  0.00     0.046 A 
HETATM   16  C14 UNL     1      -4.260   0.962   1.440  1.00  0.00     0.138 A 
HETATM   17  F1  UNL     1      -5.278   1.285   2.262  1.00  0.00    -0.204 F 
HETATM   18  C15 UNL     1      -3.576  -0.201   1.713  1.00  0.00     0.074 A 
HETATM   19 CL1  UNL     1      -4.029  -1.208   3.081  1.00  0.00    -0.081 Cl
HETATM   20  C16 UNL     1      -2.533  -0.549   0.887  1.00  0.00     0.056 A 
ENDBRANCH  11  13
ENDBRANCH   9  11
BRANCH   1  21
HETATM   21  O2  UNL     1       1.231   0.664  -0.267  1.00  0.00    -0.325 OA
BRANCH  21  22
HETATM   22  C2  UNL     1       2.159   1.703  -0.020  1.00  0.00     0.344 C 
BRANCH  22  23
HETATM   23  O1  UNL     1       1.642   2.955  -0.337  1.00  0.00    -0.371 OA
HETATM   24  C1  UNL     1       2.624   3.893  -0.060  1.00  0.00     0.204 C 
ENDBRANCH  22  23
ENDBRANCH  21  22
ENDBRANCH   1  21
TORSDOF 5
