REMARK  4 active torsions:
REMARK  status: ('A' for Active; 'I' for Inactive)
REMARK    1  A    between atoms: O1_1  and  C1_2 
REMARK    2  A    between atoms: C4_5  and  C5_6 
REMARK    3  A    between atoms: C7_8  and  N1_9 
REMARK    4  A    between atoms: N1_9  and  C8_10 
ROOT
HETATM    1  C5  UNL     1      -1.692  -1.124  -0.644  1.00  0.00     0.072 C 
HETATM    2  C6  UNL     1      -0.546  -1.452  -1.142  1.00  0.00     0.074 C 
HETATM    3  C7  UNL     1       0.798  -0.980  -1.356  1.00  0.00     0.145 C 
HETATM    4  N2  UNL     1       1.661  -1.696  -1.917  1.00  0.00    -0.223 NA
HETATM    5  C14 UNL     1       1.531  -3.027  -2.395  1.00  0.00     0.235 C 
HETATM    6  N3  UNL     1       0.458  -3.811  -2.305  1.00  0.00    -0.240 NA
HETATM    7  P1  UNL     1      -0.884  -3.338  -1.576  1.00  0.00     0.099 P 
HETATM    8  N4  UNL     1      -2.290  -3.037  -2.193  1.00  0.00    -0.092 NA
HETATM    9  N5  UNL     1      -2.760  -1.955  -1.155  1.00  0.00    -0.297 N 
HETATM   10  H10 UNL     1      -1.072  -3.847  -0.230  1.00  0.00     0.100 HD
HETATM   11  H11 UNL     1      -3.818  -2.007  -0.995  1.00  0.00     0.183 HD
ENDROOT
BRANCH   3  12
HETATM   12  N1  UNL     1       1.021   0.322  -0.864  1.00  0.00    -0.340 N 
HETATM   13  H4  UNL     1       0.304   1.029  -0.962  1.00  0.00     0.167 HD
BRANCH  12  14
HETATM   14  C8  UNL     1       2.266   0.627  -0.238  1.00  0.00     0.035 A 
HETATM   15  C9  UNL     1       2.491   1.921   0.180  1.00  0.00     0.029 A 
HETATM   16  C10 UNL     1       3.632   2.376   0.800  1.00  0.00     0.004 A 
HETATM   17  C11 UNL     1       4.654   1.463   1.033  1.00  0.00     0.024 A 
HETATM   18  C12 UNL     1       4.476   0.156   0.634  1.00  0.00     0.036 A 
HETATM   19 CL1  UNL     1       5.745  -1.034   0.908  1.00  0.00    -0.084 Cl
HETATM   20  C13 UNL     1       3.305  -0.210   0.021  1.00  0.00     0.053 A 
ENDBRANCH  12  14
ENDBRANCH   3  12
BRANCH   1  21
HETATM   21  C4  UNL     1      -2.223   0.020   0.040  1.00  0.00    -0.007 A 
HETATM   22  C3  UNL     1      -2.319   1.360  -0.220  1.00  0.00     0.016 A 
HETATM   23  C2  UNL     1      -2.855   2.295   0.631  1.00  0.00     0.037 A 
HETATM   24  C1  UNL     1      -3.355   1.920   1.858  1.00  0.00     0.065 A 
HETATM   25  C16 UNL     1      -3.301   0.596   2.203  1.00  0.00     0.037 A 
HETATM   26  C15 UNL     1      -2.747  -0.312   1.303  1.00  0.00     0.016 A 
BRANCH  24  27
HETATM   27  O1  UNL     1      -3.896   2.854   2.720  1.00  0.00    -0.361 OA
HETATM   28  H1  UNL     1      -4.067   3.788   2.416  1.00  0.00     0.217 HD
ENDBRANCH  24  27
ENDBRANCH   1  21
TORSDOF 4
