REMARK  3 active torsions:
REMARK  status: ('A' for Active; 'I' for Inactive)
REMARK    1  A    between atoms: O1_2  and  C2_3 
REMARK    2  A    between atoms: C6_7  and  N1_8 
REMARK    3  A    between atoms: C15_20  and  O2_21 
ROOT
HETATM    1  C2  UNL     1       2.655   0.838  -0.428  1.00  0.00     0.111 A 
HETATM    2  C3  UNL     1       1.341   0.828  -0.153  1.00  0.00    -0.009 A 
HETATM    3  C4  UNL     1       0.457   1.948   0.237  1.00  0.00     0.052 C 
HETATM    4  C5  UNL     1       0.863  -0.544  -0.300  1.00  0.00     0.054 A 
HETATM    5  C6  UNL     1      -0.107  -1.448  -0.259  1.00  0.00     0.165 A 
HETATM    6  N2  UNL     1       0.389  -2.750  -0.600  1.00  0.00    -0.130 NA
HETATM    7  N3  UNL     1       1.647  -2.680  -0.853  1.00  0.00    -0.144 NA
HETATM    8  C14 UNL     1       2.046  -1.324  -0.691  1.00  0.00     0.130 A 
HETATM    9  C15 UNL     1       3.084  -0.506  -0.762  1.00  0.00     0.133 A 
ENDROOT
BRANCH   5  10
HETATM   10  N1  UNL     1      -1.445  -1.104   0.086  1.00  0.00    -0.336 N 
HETATM   11  C7  UNL     1      -1.630  -0.224   1.192  1.00  0.00     0.090 C 
HETATM   12  C8  UNL     1      -2.658   0.566   1.462  1.00  0.00     0.000 C 
HETATM   13  C9  UNL     1      -3.904   0.741   0.666  1.00  0.00     0.050 C 
HETATM   14  C10 UNL     1      -3.670   1.319  -0.696  1.00  0.00     0.020 C 
HETATM   15  C11 UNL     1      -4.466  -0.643   0.456  1.00  0.00     0.017 C 
HETATM   16 CL1  UNL     1      -6.079  -0.911   1.069  1.00  0.00    -0.088 Cl
HETATM   17  C12 UNL     1      -3.811  -1.627  -0.151  1.00  0.00     0.013 C 
HETATM   18  C13 UNL     1      -2.476  -1.712  -0.758  1.00  0.00     0.158 C 
ENDBRANCH   5  10
BRANCH   1  19
HETATM   19  O1  UNL     1       3.381   2.032  -0.365  1.00  0.00    -0.352 OA
HETATM   20  C1  UNL     1       3.963   2.411   0.883  1.00  0.00     0.210 C 
ENDBRANCH   1  19
BRANCH   9  21
HETATM   21  O2  UNL     1       4.407  -0.773  -1.090  1.00  0.00    -0.351 OA
HETATM   22  C16 UNL     1       5.072  -1.965  -0.768  1.00  0.00     0.210 C 
ENDBRANCH   9  21
TORSDOF 3
