REMARK  4 active torsions:
REMARK  status: ('A' for Active; 'I' for Inactive)
REMARK    1  A    between atoms: O1_2  and  C2_3 
REMARK    2  A    between atoms: C6_9  and  N3_10 
REMARK    3  A    between atoms: N3_10  and  C8_12 
REMARK    4  A    between atoms: C14_19  and  O2_20 
ROOT
HETATM    1  C2  UNL     1      -2.926   0.046   0.172  1.00  0.00     0.103 A 
HETATM    2  C3  UNL     1      -2.555  -1.149   0.775  1.00  0.00     0.072 A 
HETATM    3  C4  UNL     1      -1.229  -1.578   0.740  1.00  0.00     0.075 A 
HETATM    4  N1  UNL     1      -0.792  -2.712   1.295  1.00  0.00    -0.241 NA
HETATM    5  C5  UNL     1       0.526  -3.050   1.210  1.00  0.00     0.236 A 
HETATM    6  N2  UNL     1       1.403  -2.232   0.557  1.00  0.00    -0.223 NA
HETATM    7  C6  UNL     1       0.980  -1.082  -0.010  1.00  0.00     0.144 A 
HETATM    8  C12 UNL     1      -0.336  -0.756   0.082  1.00  0.00     0.042 A 
HETATM    9  C13 UNL     1      -0.681   0.438  -0.527  1.00  0.00     0.057 A 
HETATM   10  C14 UNL     1      -2.006   0.852  -0.483  1.00  0.00     0.102 A 
ENDROOT
BRANCH   7  11
HETATM   11  N3  UNL     1       2.037  -0.382  -0.635  1.00  0.00    -0.335 N 
HETATM   12  C7  UNL     1       1.914  -0.151  -2.059  1.00  0.00     0.158 C 
BRANCH  11  13
HETATM   13  C8  UNL     1       3.157   0.066   0.104  1.00  0.00     0.042 A 
HETATM   14  C9  UNL     1       3.245  -0.191   1.563  1.00  0.00     0.079 A 
HETATM   15  S1  UNL     1       4.822   0.556   2.046  1.00  0.00    -0.111 SA
HETATM   16  C10 UNL     1       5.270   1.153   0.338  1.00  0.00     0.052 A 
HETATM   17  C11 UNL     1       4.192   0.741  -0.466  1.00  0.00     0.037 A 
ENDBRANCH  11  13
ENDBRANCH   7  11
BRANCH  10  18
HETATM   18  O2  UNL     1      -2.452   2.032  -1.062  1.00  0.00    -0.353 OA
HETATM   19  C15 UNL     1      -1.492   2.859  -1.737  1.00  0.00     0.210 C 
ENDBRANCH  10  18
BRANCH   1  20
HETATM   20  O1  UNL     1      -4.245   0.446   0.222  1.00  0.00    -0.353 OA
HETATM   21  C1  UNL     1      -5.206  -0.358   0.884  1.00  0.00     0.210 C 
ENDBRANCH   1  20
TORSDOF 4
