REMARK  2 active torsions:
REMARK  status: ('A' for Active; 'I' for Inactive)
REMARK    1  A    between atoms: O1_2  and  C2_3 
REMARK    2  A    between atoms: C12_16  and  C13_17 
ROOT
HETATM    1  C2  UNL     1       4.471   0.581  -0.475  1.00  0.00     0.069 A 
HETATM    2  C3  UNL     1       4.876  -0.682  -0.088  1.00  0.00     0.039 A 
HETATM    3  C4  UNL     1       3.962  -1.675   0.136  1.00  0.00     0.040 A 
HETATM    4  C5  UNL     1       2.623  -1.402  -0.030  1.00  0.00     0.086 A 
HETATM    5  C6  UNL     1       2.173  -0.141  -0.421  1.00  0.00    -0.004 A 
HETATM    6  C7  UNL     1       3.136   0.835  -0.636  1.00  0.00     0.048 A 
HETATM    7  C8  UNL     1       0.849   0.473  -0.683  1.00  0.00     0.161 C 
HETATM    8  N1  UNL     1      -0.202  -0.144   0.107  1.00  0.00    -0.380 N 
HETATM    9  C9  UNL     1      -0.551  -1.513   0.284  1.00  0.00     0.112 A 
HETATM   10  C10 UNL     1       0.410  -2.514   0.332  1.00  0.00     0.200 A 
HETATM   11  N2  UNL     1      -0.048  -3.784   0.514  1.00  0.00    -0.215 NA
HETATM   12  C11 UNL     1      -1.361  -4.026   0.639  1.00  0.00     0.236 A 
HETATM   13  N3  UNL     1      -2.200  -3.009   0.580  1.00  0.00    -0.239 NA
HETATM   14  C12 UNL     1      -1.905  -1.718   0.406  1.00  0.00     0.095 A 
HETATM   15  O2  UNL     1       1.791  -2.499   0.229  1.00  0.00    -0.289 OA
HETATM   16  H9  UNL     1      -0.871   0.410   0.685  1.00  0.00     0.160 HD
ENDROOT
BRANCH  14  17
HETATM   17  C13 UNL     1      -2.873  -0.595   0.318  1.00  0.00    -0.023 A 
HETATM   18  C14 UNL     1      -4.124  -1.055   0.430  1.00  0.00     0.010 A 
HETATM   19  C15 UNL     1      -5.165  -0.067   0.353  1.00  0.00     0.003 A 
HETATM   20  C16 UNL     1      -4.524   1.062   0.182  1.00  0.00    -0.080 A 
HETATM   21  C17 UNL     1      -5.007   2.474   0.025  1.00  0.00     0.043 C 
HETATM   22  C18 UNL     1      -3.067   0.833   0.170  1.00  0.00     0.074 A 
ENDBRANCH  14  17
BRANCH   1  23
HETATM   23  O1  UNL     1       5.507   1.480  -0.664  1.00  0.00    -0.356 OA
HETATM   24  C1  UNL     1       5.288   2.813  -1.060  1.00  0.00     0.210 C 
ENDBRANCH   1  23
TORSDOF 2
