REMARK  7 active torsions:
REMARK  status: ('A' for Active; 'I' for Inactive)
REMARK    1  A    between atoms: O1_2  and  C2_3 
REMARK    2  A    between atoms: C4_5  and  N1_6 
REMARK    3  A    between atoms: N1_6  and  C5_7 
REMARK    4  A    between atoms: N2_8  and  C6_9 
REMARK    5  A    between atoms: C6_9  and  N3_10 
REMARK    6  A    between atoms: N3_10  and  C8_12 
REMARK    7  A    between atoms: C16_23  and  O2_24 
ROOT
HETATM    1  C5  UNL     1       0.185  -0.310   0.829  1.00  0.00     0.230 C 
HETATM    2  N2  UNL     1       1.300  -0.875   0.509  1.00  0.00    -0.263 NA
ENDROOT
BRANCH   1   3
HETATM    3  N1  UNL     1      -0.806   0.634   0.515  1.00  0.00    -0.225 NA
BRANCH   3   4
HETATM    4  C4  UNL     1      -2.019   0.261   0.292  1.00  0.00     0.133 A 
HETATM    5  C3  UNL     1      -2.560  -1.003   0.309  1.00  0.00     0.090 A 
HETATM    6  C2  UNL     1      -3.898  -1.196   0.040  1.00  0.00     0.106 A 
HETATM    7  C16 UNL     1      -4.750  -0.155  -0.254  1.00  0.00     0.117 A 
HETATM    8  C15 UNL     1      -4.159   1.103  -0.259  1.00  0.00     0.131 A 
HETATM    9  N4  UNL     1      -2.845   1.302   0.003  1.00  0.00    -0.343 N 
HETATM   10  C14 UNL     1      -2.404   2.683  -0.047  1.00  0.00     0.157 C 
BRANCH   6  11
HETATM   11  O1  UNL     1      -4.405  -2.473   0.065  1.00  0.00    -0.353 OA
HETATM   12  C1  UNL     1      -3.627  -3.613   0.354  1.00  0.00     0.210 C 
ENDBRANCH   6  11
BRANCH   7  13
HETATM   13  O2  UNL     1      -6.092  -0.357  -0.523  1.00  0.00    -0.352 OA
HETATM   14  C17 UNL     1      -6.914   0.748  -0.817  1.00  0.00     0.210 C 
ENDBRANCH   7  13
ENDBRANCH   3   4
ENDBRANCH   1   3
BRANCH   2  15
HETATM   15  C6  UNL     1       1.980  -0.464  -0.708  1.00  0.00     0.274 C 
BRANCH  15  16
HETATM   16  N3  UNL     1       3.110   0.344  -0.316  1.00  0.00    -0.367 N 
HETATM   17  C7  UNL     1       2.853   1.562   0.442  1.00  0.00     0.151 C 
BRANCH  16  18
HETATM   18  C8  UNL     1       4.472   0.059  -0.603  1.00  0.00     0.033 A 
HETATM   19  C9  UNL     1       4.924  -1.036  -1.305  1.00  0.00     0.032 A 
HETATM   20  C10 UNL     1       6.244  -1.313  -1.585  1.00  0.00     0.046 A 
HETATM   21  C11 UNL     1       7.208  -0.459  -1.147  1.00  0.00     0.138 A 
HETATM   22  F1  UNL     1       8.526  -0.659  -1.379  1.00  0.00    -0.204 F 
HETATM   23  C12 UNL     1       6.817   0.656  -0.438  1.00  0.00     0.074 A 
HETATM   24 CL1  UNL     1       8.044   1.761   0.129  1.00  0.00    -0.081 Cl
HETATM   25  C13 UNL     1       5.487   0.891  -0.184  1.00  0.00     0.056 A 
ENDBRANCH  16  18
ENDBRANCH  15  16
ENDBRANCH   2  15
TORSDOF 7
