REMARK  3 active torsions:
REMARK  status: ('A' for Active; 'I' for Inactive)
REMARK    1  A    between atoms: O1_2  and  C2_3 
REMARK    2  A    between atoms: C6_9  and  N3_10 
REMARK    3  A    between atoms: C10_15  and  O2_16 
ROOT
HETATM    1  C2  UNL     1       3.235  -0.364  -0.495  1.00  0.00     0.076 A 
HETATM    2  C3  UNL     1       3.193  -0.366   0.883  1.00  0.00     0.070 A 
HETATM    3  C4  UNL     1       2.024  -0.160   1.567  1.00  0.00     0.074 A 
HETATM    4  N1  UNL     1       1.933  -0.153   2.909  1.00  0.00    -0.241 NA
HETATM    5  C5  UNL     1       0.732   0.060   3.510  1.00  0.00     0.236 A 
HETATM    6  N2  UNL     1      -0.401   0.271   2.803  1.00  0.00    -0.223 NA
HETATM    7  C6  UNL     1      -0.327   0.267   1.444  1.00  0.00     0.143 A 
HETATM    8  C13 UNL     1       0.871   0.055   0.843  1.00  0.00     0.040 A 
HETATM    9  C14 UNL     1       0.868   0.065  -0.527  1.00  0.00     0.027 A 
HETATM   10  C15 UNL     1       2.059  -0.146  -1.207  1.00  0.00    -0.028 A 
HETATM   11  C16 UNL     1       2.036  -0.130  -2.705  1.00  0.00     0.051 C 
ENDROOT
BRANCH   7  12
HETATM   12  N3  UNL     1      -1.589   0.501   0.828  1.00  0.00    -0.335 N 
HETATM   13  C7  UNL     1      -2.513  -0.535   1.224  1.00  0.00     0.131 C 
HETATM   14  C8  UNL     1      -3.817  -0.763   1.014  1.00  0.00     0.115 C 
HETATM   15  F1  UNL     1      -4.425  -1.859   1.534  1.00  0.00    -0.209 F 
HETATM   16  C9  UNL     1      -4.705   0.147   0.207  1.00  0.00     0.135 C 
HETATM   17  C10 UNL     1      -3.993   0.325  -1.089  1.00  0.00     0.047 C 
HETATM   18  C11 UNL     1      -2.837   0.938  -1.190  1.00  0.00     0.026 C 
HETATM   19  C12 UNL     1      -2.064   1.541  -0.073  1.00  0.00     0.160 C 
BRANCH  17  20
HETATM   20  O2  UNL     1      -4.626  -0.202  -2.208  1.00  0.00    -0.365 OA
HETATM   21  H9  UNL     1      -5.273   0.292  -2.795  1.00  0.00     0.217 HD
ENDBRANCH  17  20
ENDBRANCH   7  12
BRANCH   1  22
HETATM   22  O1  UNL     1       4.399  -0.569  -1.225  1.00  0.00    -0.355 OA
HETATM   23  C1  UNL     1       5.592  -0.791  -0.498  1.00  0.00     0.210 C 
ENDBRANCH   1  22
TORSDOF 3
