REMARK  6 active torsions:
REMARK  status: ('A' for Active; 'I' for Inactive)
REMARK    1  A    between atoms: C6_8  and  N1_9 
REMARK    2  A    between atoms: N1_9  and  C8_11 
REMARK    3  A    between atoms: C8_11  and  C9_12 
REMARK    4  A    between atoms: C15_20  and  O1_21 
REMARK    5  A    between atoms: O1_21  and  C16_22 
REMARK    6  A    between atoms: C16_22  and  O2_23 
ROOT
HETATM    1  C9  UNL     1      -0.611  -0.126  -0.379  1.00  0.00     0.086 A 
HETATM    2  N2  UNL     1      -1.456   0.484  -1.222  1.00  0.00    -0.240 NA
HETATM    3  C10 UNL     1      -0.992   1.302  -2.184  1.00  0.00     0.234 A 
HETATM    4  N3  UNL     1       0.340   1.491  -2.279  1.00  0.00    -0.241 NA
HETATM    5  C11 UNL     1       1.173   0.881  -1.438  1.00  0.00     0.074 A 
HETATM    6  C12 UNL     1       0.753   0.025  -0.423  1.00  0.00     0.032 A 
HETATM    7  C13 UNL     1       1.740  -0.459   0.278  1.00  0.00    -0.013 A 
HETATM    8  C14 UNL     1       1.610  -1.382   1.406  1.00  0.00     0.052 C 
HETATM    9  C15 UNL     1       2.954   0.130  -0.324  1.00  0.00     0.080 A 
HETATM   10  C18 UNL     1       2.641   0.933  -1.348  1.00  0.00     0.070 A 
ENDROOT
BRANCH   1  11
HETATM   11  C8  UNL     1      -1.211  -0.895   0.508  1.00  0.00     0.123 C 
BRANCH  11  12
HETATM   12  N1  UNL     1      -2.623  -1.053   0.556  1.00  0.00    -0.356 N 
HETATM   13  C7  UNL     1      -3.470  -2.253   0.480  1.00  0.00     0.156 C 
BRANCH  12  14
HETATM   14  C6  UNL     1      -3.507   0.052   0.700  1.00  0.00     0.084 A 
HETATM   15  C2  UNL     1      -4.502   0.673  -0.168  1.00  0.00    -0.014 A 
HETATM   16  C1  UNL     1      -4.738   0.210  -1.385  1.00  0.00     0.026 C 
HETATM   17  C3  UNL     1      -5.132   1.797   0.494  1.00  0.00     0.040 A 
HETATM   18  C4  UNL     1      -4.524   1.810   1.676  1.00  0.00     0.075 A 
HETATM   19 CL1  UNL     1      -4.956   3.034   2.880  1.00  0.00    -0.081 Cl
HETATM   20  C5  UNL     1      -3.529   0.755   1.825  1.00  0.00     0.165 A 
HETATM   21  F1  UNL     1      -2.786   0.576   2.945  1.00  0.00    -0.202 F 
ENDBRANCH  12  14
ENDBRANCH  11  12
ENDBRANCH   1  11
BRANCH   9  22
HETATM   22  O1  UNL     1       4.235  -0.145   0.150  1.00  0.00    -0.326 OA
BRANCH  22  23
HETATM   23  C16 UNL     1       5.325  -0.512  -0.658  1.00  0.00     0.344 C 
BRANCH  23  24
HETATM   24  O2  UNL     1       6.489  -0.730   0.093  1.00  0.00    -0.371 OA
HETATM   25  C17 UNL     1       6.765   0.477   0.743  1.00  0.00     0.204 C 
ENDBRANCH  23  24
ENDBRANCH  22  23
ENDBRANCH   9  22
TORSDOF 6
