REMARK  5 active torsions:
REMARK  status: ('A' for Active; 'I' for Inactive)
REMARK    1  A    between atoms: O1_2  and  C2_3 
REMARK    2  A    between atoms: C5_6  and  C6_7 
REMARK    3  A    between atoms: C6_7  and  O2_8 
REMARK    4  A    between atoms: O2_8  and  C7_9 
REMARK    5  A    between atoms: C16_21  and  O3_22 
ROOT
HETATM    1  C2  UNL     1      -3.287  -0.487   0.320  1.00  0.00     0.102 A 
HETATM    2  C3  UNL     1      -2.071  -0.058  -0.165  1.00  0.00     0.055 A 
HETATM    3  C4  UNL     1      -1.852   0.052  -1.520  1.00  0.00     0.022 A 
HETATM    4  C5  UNL     1      -0.625   0.487  -2.031  1.00  0.00     0.072 A 
HETATM    5  N1  UNL     1      -0.466   0.576  -3.375  1.00  0.00    -0.243 NA
HETATM    6  C13 UNL     1      -1.466   0.254  -4.216  1.00  0.00     0.234 A 
HETATM    7  N2  UNL     1      -2.670  -0.170  -3.762  1.00  0.00    -0.241 NA
HETATM    8  C14 UNL     1      -2.863  -0.271  -2.434  1.00  0.00     0.073 A 
HETATM    9  C15 UNL     1      -4.074  -0.700  -1.906  1.00  0.00     0.072 A 
HETATM   10  C16 UNL     1      -4.319  -0.819  -0.555  1.00  0.00     0.101 A 
ENDROOT
BRANCH   4  11
HETATM   11  C6  UNL     1       0.484   0.843  -1.101  1.00  0.00     0.236 C 
BRANCH  11  12
HETATM   12  O2  UNL     1       1.054  -0.340  -0.602  1.00  0.00    -0.345 OA
BRANCH  12  13
HETATM   13  C7  UNL     1       2.151  -0.271   0.279  1.00  0.00     0.067 A 
HETATM   14  C8  UNL     1       2.443  -0.788   1.476  1.00  0.00     0.034 A 
HETATM   15  C9  UNL     1       3.802  -0.344   1.921  1.00  0.00     0.136 A 
HETATM   16 CL1  UNL     1       4.847  -1.765   2.143  1.00  0.00    -0.116 Cl
HETATM   17  C10 UNL     1       4.264   0.507   0.811  1.00  0.00    -0.059 A 
HETATM   18  C11 UNL     1       5.584   1.190   0.791  1.00  0.00     0.045 C 
HETATM   19  C12 UNL     1       3.314   0.545  -0.126  1.00  0.00     0.040 A 
ENDBRANCH  12  13
ENDBRANCH  11  12
ENDBRANCH   4  11
BRANCH   1  20
HETATM   20  O1  UNL     1      -3.596  -0.628   1.667  1.00  0.00    -0.353 OA
HETATM   21  C1  UNL     1      -2.647  -0.328   2.700  1.00  0.00     0.210 C 
ENDBRANCH   1  20
BRANCH  10  22
HETATM   22  O3  UNL     1      -5.591  -1.264  -0.214  1.00  0.00    -0.358 OA
HETATM   23  H15 UNL     1      -5.809  -2.150   0.200  1.00  0.00     0.217 HD
ENDBRANCH  10  22
TORSDOF 5
