REMARK  7 active torsions:
REMARK  status: ('A' for Active; 'I' for Inactive)
REMARK    1  A    between atoms: O1_2  and  C2_3 
REMARK    2  A    between atoms: C3_4  and  C4_5 
REMARK    3  A    between atoms: C6_9  and  O2_10 
REMARK    4  A    between atoms: O2_10  and  C7_11 
REMARK    5  A    between atoms: C13_19  and  C14_20 
REMARK    6  A    between atoms: C15_21  and  N3_22 
REMARK    7  A    between atoms: N3_22  and  O3_23 
ROOT
HETATM    1  C4  UNL     1      -1.544  -0.799   0.888  1.00  0.00     0.074 A 
HETATM    2  N1  UNL     1      -1.110  -1.892   1.511  1.00  0.00    -0.241 NA
HETATM    3  C5  UNL     1       0.223  -2.178   1.554  1.00  0.00     0.236 A 
HETATM    4  N2  UNL     1       1.100  -1.350   0.964  1.00  0.00    -0.217 NA
HETATM    5  C6  UNL     1       0.738  -0.231   0.319  1.00  0.00     0.183 A 
HETATM    6  C13 UNL     1      -0.616   0.028   0.294  1.00  0.00     0.047 A 
ENDROOT
BRANCH   5   7
HETATM    7  O2  UNL     1       1.691   0.587  -0.273  1.00  0.00    -0.291 OA
BRANCH   7   8
HETATM    8  C7  UNL     1       3.012   0.171  -0.149  1.00  0.00     0.079 A 
HETATM    9  C8  UNL     1       3.690   0.641   0.972  1.00  0.00     0.040 A 
HETATM   10  C9  UNL     1       5.017   0.298   1.212  1.00  0.00     0.047 A 
HETATM   11  C10 UNL     1       5.648  -0.533   0.290  1.00  0.00     0.138 A 
HETATM   12  F1  UNL     1       6.942  -0.856   0.542  1.00  0.00    -0.204 F 
HETATM   13  C11 UNL     1       4.993  -1.005  -0.821  1.00  0.00     0.075 A 
HETATM   14 CL1  UNL     1       5.814  -2.059  -1.978  1.00  0.00    -0.081 Cl
HETATM   15  C12 UNL     1       3.668  -0.653  -1.045  1.00  0.00     0.064 A 
ENDBRANCH   7   8
ENDBRANCH   5   7
BRANCH   6  16
HETATM   16  C14 UNL     1      -1.108   1.204  -0.373  1.00  0.00     0.037 C 
HETATM   17  C15 UNL     1      -0.483   2.153  -1.012  1.00  0.00     0.115 C 
BRANCH  17  18
HETATM   18  N3  UNL     1      -0.881   3.336  -1.693  1.00  0.00    -0.279 N 
HETATM   19  H12 UNL     1      -0.963   4.340  -1.364  1.00  0.00     0.193 HD
BRANCH  18  20
HETATM   20  O3  UNL     1      -1.286   3.624  -2.952  1.00  0.00    -0.286 OA
HETATM   21  C16 UNL     1      -2.688   3.774  -3.004  1.00  0.00     0.237 C 
ENDBRANCH  18  20
ENDBRANCH  17  18
ENDBRANCH   6  16
BRANCH   1  22
HETATM   22  C3  UNL     1      -2.977  -0.544   0.874  1.00  0.00     0.056 C 
HETATM   23  C2  UNL     1      -3.751  -1.416   1.480  1.00  0.00     0.136 C 
BRANCH  23  24
HETATM   24  O1  UNL     1      -3.213  -2.551   2.118  1.00  0.00    -0.368 OA
HETATM   25  C1  UNL     1      -3.699  -3.805   1.674  1.00  0.00     0.208 C 
ENDBRANCH  23  24
ENDBRANCH   1  22
TORSDOF 7
