REMARK  9 active torsions:
REMARK  status: ('A' for Active; 'I' for Inactive)
REMARK    1  A    between atoms: O1_2  and  C2_3 
REMARK    2  A    between atoms: C6_8  and  O2_9 
REMARK    3  A    between atoms: O2_9  and  C7_10 
REMARK    4  A    between atoms: C7_10  and  C8_11 
REMARK    5  A    between atoms: C9_12  and  C10_14 
REMARK    6  A    between atoms: C10_14  and  C11_15 
REMARK    7  A    between atoms: C11_15  and  P1_16 
REMARK    8  A    between atoms: P1_16  and  N2_17 
REMARK    9  A    between atoms: C14_20  and  O3_21 
ROOT
HETATM    1  C2  UNL     1      -4.540  -0.388   0.524  1.00  0.00     0.104 A 
HETATM    2  C3  UNL     1      -4.012  -1.394   1.159  1.00  0.00     0.071 A 
HETATM    3  C4  UNL     1      -2.579  -1.522   0.864  1.00  0.00     0.067 A 
HETATM    4  N1  UNL     1      -1.592  -2.285   1.183  1.00  0.00    -0.282 NA
HETATM    5  C5  UNL     1      -0.248  -2.142   0.702  1.00  0.00     0.214 A 
HETATM    6  C6  UNL     1      -0.063  -1.019  -0.219  1.00  0.00     0.067 A 
HETATM    7  C12 UNL     1      -1.006  -0.176  -0.613  1.00  0.00     0.050 A 
HETATM    8  C13 UNL     1      -2.354  -0.399  -0.069  1.00  0.00     0.031 A 
HETATM    9  C14 UNL     1      -3.499   0.269  -0.272  1.00  0.00     0.114 A 
ENDROOT
BRANCH   6  10
HETATM   10  O2  UNL     1       1.213  -0.816  -0.727  1.00  0.00    -0.350 OA
BRANCH  10  11
HETATM   11  C7  UNL     1       2.252  -0.248   0.052  1.00  0.00     0.206 C 
BRANCH  11  12
HETATM   12  C8  UNL     1       3.489  -0.152  -0.740  1.00  0.00     0.042 C 
HETATM   13  C9  UNL     1       4.550  -0.826  -0.263  1.00  0.00     0.122 C 
HETATM   14  F1  UNL     1       4.154  -1.436   0.881  1.00  0.00    -0.206 F 
BRANCH  13  15
HETATM   15  C10 UNL     1       5.775  -0.708  -1.084  1.00  0.00     0.099 C 
BRANCH  15  16
HETATM   16  C11 UNL     1       6.339   0.484  -0.945  1.00  0.00    -0.099 C 
BRANCH  16  17
HETATM   17  P1  UNL     1       7.277   1.805  -0.574  1.00  0.00     0.083 P 
BRANCH  17  18
HETATM   18  N2  UNL     1       8.311   1.701   0.909  1.00  0.00    -0.295 NA
HETATM   19  H11 UNL     1       8.890   2.572   0.924  1.00  0.00     0.124 HD
HETATM   20  H12 UNL     1       8.935   0.854   0.769  1.00  0.00     0.124 HD
ENDBRANCH  17  18
ENDBRANCH  16  17
ENDBRANCH  15  16
ENDBRANCH  13  15
ENDBRANCH  11  12
ENDBRANCH  10  11
ENDBRANCH   6  10
BRANCH   9  21
HETATM   21  O3  UNL     1      -3.597   1.377  -1.103  1.00  0.00    -0.352 OA
HETATM   22  C15 UNL     1      -3.355   2.696  -0.703  1.00  0.00     0.210 C 
ENDBRANCH   9  21
BRANCH   1  23
HETATM   23  O1  UNL     1      -5.859   0.043   0.553  1.00  0.00    -0.353 OA
HETATM   24  C1  UNL     1      -6.737   0.034  -0.533  1.00  0.00     0.210 C 
ENDBRANCH   1  23
TORSDOF 9
