REMARK  5 active torsions:
REMARK  status: ('A' for Active; 'I' for Inactive)
REMARK    1  A    between atoms: O1_2  and  C2_3 
REMARK    2  A    between atoms: C6_9  and  O2_10 
REMARK    3  A    between atoms: O2_10  and  C7_11 
REMARK    4  A    between atoms: C8_12  and  C9_13 
REMARK    5  A    between atoms: C13_18  and  O3_19 
ROOT
HETATM    1  C2  UNL     1      -3.059   0.690  -0.237  1.00  0.00     0.103 A 
HETATM    2  C3  UNL     1      -3.065  -0.682  -0.076  1.00  0.00     0.072 A 
HETATM    3  C4  UNL     1      -1.871  -1.347   0.120  1.00  0.00     0.075 A 
HETATM    4  N1  UNL     1      -1.832  -2.701   0.283  1.00  0.00    -0.241 NA
HETATM    5  C5  UNL     1      -0.674  -3.352   0.474  1.00  0.00     0.236 A 
HETATM    6  N2  UNL     1       0.490  -2.698   0.511  1.00  0.00    -0.217 NA
HETATM    7  C6  UNL     1       0.553  -1.368   0.361  1.00  0.00     0.182 A 
HETATM    8  C11 UNL     1      -0.644  -0.704   0.165  1.00  0.00     0.049 A 
HETATM    9  C12 UNL     1      -0.680   0.666   0.000  1.00  0.00     0.057 A 
HETATM   10  C13 UNL     1      -1.844   1.384  -0.199  1.00  0.00     0.102 A 
ENDROOT
BRANCH   7  11
HETATM   11  O2  UNL     1       1.701  -0.581   0.382  1.00  0.00    -0.303 OA
BRANCH  11  12
HETATM   12  C7  UNL     1       2.967  -1.126   0.571  1.00  0.00     0.144 C 
HETATM   13  C8  UNL     1       3.984  -0.405   0.129  1.00  0.00     0.027 C 
BRANCH  13  14
HETATM   14  C9  UNL     1       5.374  -0.826   0.246  1.00  0.00     0.031 C 
HETATM   15  C10 UNL     1       6.458  -0.192  -0.156  1.00  0.00     0.188 C 
HETATM   16  F1  UNL     1       7.716  -0.647  -0.013  1.00  0.00    -0.219 F 
ENDBRANCH  13  14
ENDBRANCH  11  12
ENDBRANCH   7  11
BRANCH  10  17
HETATM   17  O3  UNL     1      -1.853   2.770  -0.363  1.00  0.00    -0.353 OA
HETATM   18  C14 UNL     1      -0.598   3.429  -0.316  1.00  0.00     0.210 C 
ENDBRANCH  10  17
BRANCH   1  19
HETATM   19  O1  UNL     1      -4.219   1.430  -0.438  1.00  0.00    -0.353 OA
HETATM   20  C1  UNL     1      -5.462   0.760  -0.482  1.00  0.00     0.210 C 
ENDBRANCH   1  19
TORSDOF 5
