REMARK  4 active torsions:
REMARK  status: ('A' for Active; 'I' for Inactive)
REMARK    1  A    between atoms: C4_4  and  O1_5 
REMARK    2  A    between atoms: O1_5  and  C5_6 
REMARK    3  A    between atoms: C9_12  and  O2_13 
REMARK    4  A    between atoms: C11_15  and  O3_16 
ROOT
HETATM    1  C5  UNL     1      -0.216  -0.380   0.429  1.00  0.00     0.183 A 
HETATM    2  N1  UNL     1      -0.643  -0.992   1.562  1.00  0.00    -0.217 NA
HETATM    3  C6  UNL     1       0.207  -1.127   2.604  1.00  0.00     0.236 A 
HETATM    4  N2  UNL     1       1.468  -0.663   2.533  1.00  0.00    -0.241 NA
HETATM    5  C7  UNL     1       1.879  -0.055   1.397  1.00  0.00     0.075 A 
HETATM    6  C8  UNL     1       3.188   0.409   1.368  1.00  0.00     0.072 A 
HETATM    7  C9  UNL     1       3.702   1.043   0.254  1.00  0.00     0.103 A 
HETATM    8  C11 UNL     1       2.853   1.193  -0.824  1.00  0.00     0.102 A 
HETATM    9  C13 UNL     1       1.528   0.740  -0.831  1.00  0.00     0.057 A 
HETATM   10  C14 UNL     1       1.065   0.117   0.296  1.00  0.00     0.049 A 
ENDROOT
BRANCH   1  11
HETATM   11  O1  UNL     1      -1.097  -0.236  -0.660  1.00  0.00    -0.291 OA
BRANCH  11  12
HETATM   12  C4  UNL     1      -2.402  -0.744  -0.518  1.00  0.00     0.080 A 
HETATM   13  C3  UNL     1      -3.507  -0.074  -0.035  1.00  0.00     0.047 A 
HETATM   14  C2  UNL     1      -4.713  -0.744   0.030  1.00  0.00    -0.019 A 
HETATM   15  C1  UNL     1      -5.878   0.003   0.552  1.00  0.00     0.051 C 
HETATM   16  C17 UNL     1      -4.842  -2.050  -0.370  1.00  0.00     0.144 A 
HETATM   17  C16 UNL     1      -3.755  -2.764  -0.862  1.00  0.00     0.075 A 
HETATM   18  F1  UNL     1      -6.025  -2.704  -0.304  1.00  0.00    -0.204 F 
HETATM   19  C15 UNL     1      -2.545  -2.072  -0.921  1.00  0.00     0.064 A 
HETATM   20 CL1  UNL     1      -3.874  -4.430  -1.383  1.00  0.00    -0.081 Cl
ENDBRANCH  11  12
ENDBRANCH   1  11
BRANCH   8  21
HETATM   21  O3  UNL     1       3.318   1.817  -1.952  1.00  0.00    -0.353 OA
HETATM   22  C12 UNL     1       2.606   2.052  -3.121  1.00  0.00     0.210 C 
ENDBRANCH   8  21
BRANCH   7  23
HETATM   23  O2  UNL     1       5.000   1.533   0.152  1.00  0.00    -0.353 OA
HETATM   24  C10 UNL     1       5.847   1.365   1.272  1.00  0.00     0.210 C 
ENDBRANCH   7  23
TORSDOF 4
