REMARK  5 active torsions:
REMARK  status: ('A' for Active; 'I' for Inactive)
REMARK    1  A    between atoms: C6_8  and  N1_9 
REMARK    2  A    between atoms: N1_9  and  C7_10 
REMARK    3  A    between atoms: C7_10  and  O1_11 
REMARK    4  A    between atoms: O1_11  and  C8_12 
REMARK    5  A    between atoms: C8_12  and  C9_13 
ROOT
HETATM    1  C7  UNL     1       1.109   0.232   0.439  1.00  0.00     0.290 C 
ENDROOT
BRANCH   1   2
HETATM    2  N1  UNL     1       2.011  -0.231  -0.585  1.00  0.00    -0.366 N 
HETATM    3  H4  UNL     1       1.615  -0.752  -1.418  1.00  0.00     0.162 HD
BRANCH   2   4
HETATM    4  C6  UNL     1       3.404  -0.028  -0.540  1.00  0.00     0.068 A 
HETATM    5  C1  UNL     1       4.250  -0.485  -1.542  1.00  0.00     0.144 A 
HETATM    6  F1  UNL     1       3.686  -1.154  -2.598  1.00  0.00    -0.204 F 
HETATM    7  C2  UNL     1       5.610  -0.264  -1.459  1.00  0.00     0.063 A 
HETATM    8  C3  UNL     1       6.168   0.410  -0.391  1.00  0.00     0.014 A 
HETATM    9 BR1  UNL     1       8.056   0.658  -0.380  1.00  0.00    -0.051 Br
HETATM   10  C4  UNL     1       5.333   0.875   0.621  1.00  0.00     0.021 A 
HETATM   11  C5  UNL     1       3.983   0.641   0.512  1.00  0.00     0.034 A 
ENDBRANCH   2   4
ENDBRANCH   1   2
BRANCH   1  12
HETATM   12  O1  UNL     1      -0.203  -0.099   0.151  1.00  0.00    -0.368 OA
BRANCH  12  13
HETATM   13  C8  UNL     1      -1.076   0.341   1.127  1.00  0.00     0.205 C 
BRANCH  13  14
HETATM   14  C9  UNL     1      -2.492  -0.007   0.831  1.00  0.00    -0.039 C 
HETATM   15  C10 UNL     1      -3.528   0.823   0.668  1.00  0.00    -0.005 C 
HETATM   16  C11 UNL     1      -4.694  -0.021   0.398  1.00  0.00     0.083 A 
HETATM   17  C12 UNL     1      -5.853   0.591  -0.286  1.00  0.00    -0.010 A 
HETATM   18  C14 UNL     1      -4.640  -0.819  -0.828  1.00  0.00     0.040 A 
HETATM   19  C13 UNL     1      -5.814  -0.138  -1.414  1.00  0.00     0.025 A 
HETATM   20  N2  UNL     1      -3.619  -1.586  -0.611  1.00  0.00    -0.289 NA
HETATM   21  C15 UNL     1      -2.887  -1.446   0.660  1.00  0.00     0.185 C 
ENDBRANCH  13  14
ENDBRANCH  12  13
ENDBRANCH   1  12
TORSDOF 5
