REMARK  5 active torsions:
REMARK  status: ('A' for Active; 'I' for Inactive)
REMARK    1  A    between atoms: O1_2  and  C2_3 
REMARK    2  A    between atoms: C6_8  and  N2_9 
REMARK    3  A    between atoms: N2_9  and  C7_10 
REMARK    4  A    between atoms: C14_18  and  O2_19 
REMARK    5  A    between atoms: O2_19  and  N3_20 
ROOT
HETATM    1  C2  UNL     1      -2.991   0.230   0.806  1.00  0.00     0.105 A 
HETATM    2  C3  UNL     1      -2.223   1.288   0.461  1.00  0.00     0.071 A 
HETATM    3  C4  UNL     1      -0.869   1.055  -0.094  1.00  0.00     0.062 A 
HETATM    4  N1  UNL     1      -0.081   2.004  -0.463  1.00  0.00    -0.299 NA
HETATM    5  C5  UNL     1      -0.495  -0.342  -0.213  1.00  0.00     0.010 A 
HETATM    6  C6  UNL     1       0.685  -0.652  -0.677  1.00  0.00     0.102 C 
HETATM    7  C13 UNL     1      -1.362  -1.430   0.171  1.00  0.00     0.057 A 
HETATM    8  C14 UNL     1      -2.549  -1.142   0.654  1.00  0.00     0.126 A 
HETATM    9  H5  UNL     1      -0.297   3.017  -0.417  1.00  0.00     0.187 HD
ENDROOT
BRANCH   6  10
HETATM   10  N2  UNL     1       1.843  -0.034  -1.154  1.00  0.00    -0.363 N 
HETATM   11  H7  UNL     1       1.649   0.403  -2.091  1.00  0.00     0.165 HD
BRANCH  10  12
HETATM   12  C7  UNL     1       3.147   0.091  -0.591  1.00  0.00     0.071 A 
HETATM   13  C8  UNL     1       3.833  -1.100  -0.464  1.00  0.00     0.033 A 
HETATM   14  C9  UNL     1       5.134  -1.116   0.052  1.00  0.00     0.002 A 
HETATM   15  C10 UNL     1       5.719   0.091   0.433  1.00  0.00     0.003 A 
HETATM   16  C11 UNL     1       5.020   1.286   0.301  1.00  0.00     0.044 A 
HETATM   17  C12 UNL     1       3.737   1.297  -0.209  1.00  0.00     0.142 A 
HETATM   18  F1  UNL     1       2.998   2.416  -0.374  1.00  0.00    -0.204 F 
ENDBRANCH  10  12
ENDBRANCH   6  10
BRANCH   8  19
HETATM   19  O2  UNL     1      -3.492  -2.068   1.065  1.00  0.00    -0.264 OA
BRANCH  19  20
HETATM   20  N3  UNL     1      -4.204  -2.780   0.111  1.00  0.00    -0.209 NA
HETATM   21  H13 UNL     1      -5.085  -2.268  -0.117  1.00  0.00     0.150 HD
HETATM   22  H14 UNL     1      -3.609  -2.949  -0.733  1.00  0.00     0.150 HD
ENDBRANCH  19  20
ENDBRANCH   8  19
BRANCH   1  23
HETATM   23  O1  UNL     1      -4.198   0.763   1.297  1.00  0.00    -0.353 OA
HETATM   24  C1  UNL     1      -5.119   1.247   0.321  1.00  0.00     0.210 C 
ENDBRANCH   1  23
TORSDOF 5
