REMARK  6 active torsions:
REMARK  status: ('A' for Active; 'I' for Inactive)
REMARK    1  A    between atoms: C2_2  and  C3_3 
REMARK    2  A    between atoms: C4_4  and  C5_6 
REMARK    3  A    between atoms: C5_6  and  N1_7 
REMARK    4  A    between atoms: N1_7  and  C6_8 
REMARK    5  A    between atoms: C10_14  and  O1_15 
REMARK    6  A    between atoms: C12_17  and  O2_18 
ROOT
HETATM    1  C6  UNL     1       0.360   0.455  -1.383  1.00  0.00     0.137 A 
HETATM    2  N2  UNL     1       0.858   0.653  -2.620  1.00  0.00    -0.224 NA
HETATM    3  C7  UNL     1       0.157   0.380  -3.734  1.00  0.00     0.235 A 
HETATM    4  N3  UNL     1      -1.114  -0.119  -3.673  1.00  0.00    -0.241 NA
HETATM    5  C8  UNL     1      -1.693  -0.349  -2.478  1.00  0.00     0.075 A 
HETATM    6  C9  UNL     1      -2.949  -0.851  -2.352  1.00  0.00     0.072 A 
HETATM    7  C10 UNL     1      -3.544  -1.097  -1.135  1.00  0.00     0.103 A 
HETATM    8  C12 UNL     1      -2.785  -0.803   0.013  1.00  0.00     0.102 A 
HETATM    9  C14 UNL     1      -1.505  -0.292  -0.154  1.00  0.00     0.057 A 
HETATM   10  C15 UNL     1      -0.921  -0.049  -1.379  1.00  0.00     0.041 A 
ENDROOT
BRANCH   1  11
HETATM   11  N1  UNL     1       1.130   0.800  -0.247  1.00  0.00    -0.369 N 
HETATM   12  H9  UNL     1       0.786   0.711   0.730  1.00  0.00     0.161 HD
BRANCH  11  13
HETATM   13  C5  UNL     1       2.493   1.314  -0.442  1.00  0.00     0.167 C 
BRANCH  13  14
HETATM   14  C4  UNL     1       2.971   1.823   0.841  1.00  0.00     0.002 C 
HETATM   15  C3  UNL     1       3.986   1.564   1.698  1.00  0.00    -0.011 C 
HETATM   16 BR1  UNL     1       1.686   3.226   1.231  1.00  0.00    -0.054 Br
BRANCH  15  17
HETATM   17  C2  UNL     1       5.177   0.764   2.025  1.00  0.00     0.024 C 
HETATM   18  C1  UNL     1       5.035   0.033   3.346  1.00  0.00     0.009 C 
ENDBRANCH  15  17
ENDBRANCH  13  14
ENDBRANCH  11  13
ENDBRANCH   1  11
BRANCH   8  19
HETATM   19  O2  UNL     1      -3.403  -1.058   1.223  1.00  0.00    -0.353 OA
HETATM   20  C13 UNL     1      -2.734  -0.793   2.420  1.00  0.00     0.210 C 
ENDBRANCH   8  19
BRANCH   7  21
HETATM   21  O1  UNL     1      -4.800  -1.597  -0.959  1.00  0.00    -0.353 OA
HETATM   22  C11 UNL     1      -5.703  -1.931  -1.971  1.00  0.00     0.210 C 
ENDBRANCH   7  21
TORSDOF 6
