REMARK  6 active torsions:
REMARK  status: ('A' for Active; 'I' for Inactive)
REMARK    1  A    between atoms: O1_1  and  C1_2 
REMARK    2  A    between atoms: C1_2  and  O2_3 
REMARK    3  A    between atoms: O2_3  and  C2_4 
REMARK    4  A    between atoms: C8_10  and  C9_11 
REMARK    5  A    between atoms: C9_11  and  N1_12 
REMARK    6  A    between atoms: N1_12  and  C10_13 
ROOT
HETATM    1  C2  UNL     1      -3.107   0.815   0.395  1.00  0.00     0.072 A 
HETATM    2  C3  UNL     1      -3.834  -0.087   1.143  1.00  0.00     0.039 A 
HETATM    3  C4  UNL     1      -3.317  -1.364   1.248  1.00  0.00     0.035 A 
HETATM    4  C5  UNL     1      -2.137  -1.746   0.645  1.00  0.00     0.065 A 
HETATM    5  C6  UNL     1      -1.449  -0.805  -0.093  1.00  0.00     0.019 A 
HETATM    6  C7  UNL     1      -1.923   0.482  -0.227  1.00  0.00     0.052 A 
HETATM    7  C8  UNL     1      -0.304  -1.034  -0.718  1.00  0.00     0.037 A 
HETATM    8  N2  UNL     1       0.179  -2.383  -0.540  1.00  0.00    -0.373 N 
HETATM    9  C16 UNL     1      -0.492  -3.423   0.185  1.00  0.00     0.271 A 
HETATM   10  N3  UNL     1      -1.727  -2.956   0.794  1.00  0.00    -0.270 NA
HETATM   11  H13 UNL     1       1.098  -2.650  -0.969  1.00  0.00     0.161 HD
ENDROOT
BRANCH   7  12
HETATM   12  C9  UNL     1       0.525  -0.119  -1.535  1.00  0.00     0.177 C 
BRANCH  12  13
HETATM   13  N1  UNL     1       1.779   0.166  -0.991  1.00  0.00    -0.382 N 
HETATM   14  H9  UNL     1       1.198   0.634  -0.219  1.00  0.00     0.160 HD
BRANCH  13  15
HETATM   15  C10 UNL     1       3.029   0.450  -0.449  1.00  0.00     0.067 A 
HETATM   16  C11 UNL     1       3.489   1.067   0.683  1.00  0.00     0.034 A 
HETATM   17  C12 UNL     1       4.843   1.157   0.877  1.00  0.00     0.021 A 
HETATM   18  C13 UNL     1       5.712   0.635  -0.051  1.00  0.00     0.014 A 
HETATM   19 BR1  UNL     1       7.524   0.869   0.414  1.00  0.00    -0.051 Br
HETATM   20  C14 UNL     1       5.309   0.009  -1.197  1.00  0.00     0.063 A 
HETATM   21  C15 UNL     1       3.923  -0.080  -1.391  1.00  0.00     0.143 A 
HETATM   22  F1  UNL     1       3.699  -0.728  -2.572  1.00  0.00    -0.204 F 
ENDBRANCH  13  15
ENDBRANCH  12  13
ENDBRANCH   7  12
BRANCH   1  23
HETATM   23  O2  UNL     1      -3.609   2.117   0.273  1.00  0.00    -0.326 OA
BRANCH  23  24
HETATM   24  C1  UNL     1      -4.806   2.527   0.878  1.00  0.00     0.341 C 
BRANCH  24  25
HETATM   25  O1  UNL     1      -5.026   3.869   0.569  1.00  0.00    -0.377 OA
HETATM   26  H1  UNL     1      -4.136   4.281   0.511  1.00  0.00     0.212 HD
ENDBRANCH  24  25
ENDBRANCH  23  24
ENDBRANCH   1  23
TORSDOF 6
