REMARK  8 active torsions:
REMARK  status: ('A' for Active; 'I' for Inactive)
REMARK    1  A    between atoms: C2_2  and  P1_3 
REMARK    2  A    between atoms: P1_3  and  C3_4 
REMARK    3  A    between atoms: C7_9  and  O1_10 
REMARK    4  A    between atoms: C12_16  and  N2_17 
REMARK    5  A    between atoms: N2_17  and  C13_18 
REMARK    6  A    between atoms: C13_18  and  C14_19 
REMARK    7  A    between atoms: C14_19  and  C15_20 
REMARK    8  A    between atoms: C15_20  and  C16_21 
ROOT
HETATM    1  C3  UNL     1       1.098   0.224  -1.431  1.00  0.00     0.307 C 
HETATM    2  N1  UNL     1      -0.229   0.412  -1.953  1.00  0.00     0.101 NA
HETATM    3  C4  UNL     1      -1.147   1.166  -1.195  1.00  0.00     0.312 C 
HETATM    4  C5  UNL     1      -1.841   0.193  -0.268  1.00  0.00     0.006 A 
HETATM    5  C6  UNL     1      -3.218   0.267  -0.264  1.00  0.00     0.048 A 
HETATM    6  C7  UNL     1      -3.925  -0.595   0.561  1.00  0.00     0.069 A 
HETATM    7  C9  UNL     1      -3.211  -1.493   1.347  1.00  0.00     0.039 A 
HETATM    8  C10 UNL     1      -1.855  -1.563   1.341  1.00  0.00     0.040 A 
HETATM    9  C11 UNL     1      -1.122  -0.714   0.526  1.00  0.00     0.080 A 
HETATM   10  O2  UNL     1       0.282  -0.857   0.586  1.00  0.00    -0.313 OA
HETATM   11  C12 UNL     1       1.185   0.095   0.037  1.00  0.00     0.400 C 
HETATM   12  H6  UNL     1      -0.152   0.747  -2.918  1.00  0.00     0.317 HD
ENDROOT
BRANCH  11  13
HETATM   13  N2  UNL     1       2.484  -0.262   0.511  1.00  0.00     0.116 N 
HETATM   14  H16 UNL     1       3.165   0.494   0.414  1.00  0.00     0.319 HD
BRANCH  13  15
HETATM   15  C13 UNL     1       2.925  -1.517  -0.014  1.00  0.00     0.290 C 
BRANCH  15  16
HETATM   16  C14 UNL     1       4.255  -1.924   0.521  1.00  0.00     0.102 C 
BRANCH  16  17
HETATM   17  C15 UNL     1       4.378  -1.752   1.831  1.00  0.00    -0.136 C 
BRANCH  17  18
HETATM   18  C16 UNL     1       4.487  -1.328   3.082  1.00  0.00     0.135 C 
HETATM   19 CL1  UNL     1       4.982   0.315   3.343  1.00  0.00    -0.088 Cl
ENDBRANCH  17  18
ENDBRANCH  16  17
ENDBRANCH  15  16
ENDBRANCH  13  15
ENDBRANCH  11  13
BRANCH   1  20
HETATM   20  P1  UNL     1       2.310   1.448  -2.057  1.00  0.00    -0.067 P 
HETATM   21  H4  UNL     1       3.380   1.733  -1.156  1.00  0.00     0.064 HD
BRANCH  20  22
HETATM   22  C2  UNL     1       1.544   2.957  -2.731  1.00  0.00    -0.004 C 
HETATM   23  C1  UNL     1       1.425   3.905  -1.779  1.00  0.00     0.012 C 
ENDBRANCH  20  22
ENDBRANCH   1  20
BRANCH   6  24
HETATM   24  O1  UNL     1      -5.297  -0.443   0.492  1.00  0.00    -0.356 OA
HETATM   25  C8  UNL     1      -6.177  -1.235   1.263  1.00  0.00     0.210 C 
ENDBRANCH   6  24
TORSDOF 8
