REMARK  6 active torsions:
REMARK  status: ('A' for Active; 'I' for Inactive)
REMARK    1  A    between atoms: C2_2  and  C3_4 
REMARK    2  A    between atoms: C4_5  and  C5_7 
REMARK    3  A    between atoms: C5_7  and  N1_8 
REMARK    4  A    between atoms: N1_8  and  C6_9 
REMARK    5  A    between atoms: C9_13  and  O1_14 
REMARK    6  A    between atoms: C11_16  and  O2_17 
ROOT
HETATM    1  C6  UNL     1       1.261   0.005  -0.685  1.00  0.00     0.191 C 
HETATM    2  F1  UNL     1       2.154  -1.013  -0.940  1.00  0.00    -0.186 F 
HETATM    3  C7  UNL     1       0.023  -0.440  -0.397  1.00  0.00     0.004 A 
HETATM    4  C8  UNL     1      -1.040   0.532  -0.123  1.00  0.00     0.051 A 
HETATM    5  C9  UNL     1      -2.271   0.223   0.192  1.00  0.00     0.101 A 
HETATM    6  C11 UNL     1      -2.660  -1.185   0.282  1.00  0.00     0.098 A 
HETATM    7  C13 UNL     1      -1.706  -2.059   0.028  1.00  0.00     0.018 A 
HETATM    8  C14 UNL     1      -0.288  -1.880  -0.341  1.00  0.00     0.073 A 
ENDROOT
BRANCH   1   9
HETATM    9  N1  UNL     1       1.521   1.412  -0.718  1.00  0.00    -0.362 N 
HETATM   10  H6  UNL     1       0.981   1.955  -0.022  1.00  0.00     0.162 HD
BRANCH   9  11
HETATM   11  C5  UNL     1       2.423   2.172  -1.547  1.00  0.00     0.169 C 
BRANCH  11  12
HETATM   12  C4  UNL     1       3.837   1.933  -1.159  1.00  0.00     0.014 C 
HETATM   13  C3  UNL     1       3.513   1.111  -0.153  1.00  0.00     0.103 C 
HETATM   14 CL1  UNL     1       4.723   2.938  -2.339  1.00  0.00    -0.091 Cl
BRANCH  13  15
HETATM   15  C2  UNL     1       4.503   0.483   0.747  1.00  0.00     0.014 A 
HETATM   16  C1  UNL     1       3.845  -0.276   1.639  1.00  0.00     0.090 A 
HETATM   17 BR1  UNL     1       5.712  -0.347   1.926  1.00  0.00    -0.161 Br
ENDBRANCH  13  15
ENDBRANCH  11  12
ENDBRANCH   9  11
ENDBRANCH   1   9
BRANCH   5  18
HETATM   18  O1  UNL     1      -3.309   1.118   0.462  1.00  0.00    -0.353 OA
HETATM   19  C10 UNL     1      -3.804   1.933  -0.584  1.00  0.00     0.210 C 
ENDBRANCH   5  18
BRANCH   6  20
HETATM   20  O2  UNL     1      -3.942  -1.584   0.612  1.00  0.00    -0.353 OA
HETATM   21  C12 UNL     1      -4.228  -2.818   1.236  1.00  0.00     0.210 C 
ENDBRANCH   6  20
TORSDOF 6
