REMARK  4 active torsions:
REMARK  status: ('A' for Active; 'I' for Inactive)
REMARK    1  A    between atoms: O1_2  and  C2_3 
REMARK    2  A    between atoms: C8_11  and  N3_12 
REMARK    3  A    between atoms: N3_12  and  C9_13 
REMARK    4  A    between atoms: C10_14  and  O2_15 
ROOT
HETATM    1  C2  UNL     1      -2.488   0.187  -0.164  1.00  0.00     0.088 A 
HETATM    2  C3  UNL     1      -1.319  -0.256   0.266  1.00  0.00     0.047 A 
HETATM    3  C4  UNL     1      -1.986  -1.561   0.330  1.00  0.00     0.054 A 
HETATM    4  C5  UNL     1      -3.147  -1.089  -0.104  1.00  0.00    -0.000 A 
HETATM    5  C6  UNL     1      -4.486  -1.612  -0.392  1.00  0.00     0.054 C 
HETATM    6  N1  UNL     1      -1.291  -2.734   0.767  1.00  0.00    -0.350 N 
HETATM    7  C7  UNL     1       0.069  -2.514   1.121  1.00  0.00     0.204 A 
HETATM    8  N2  UNL     1       0.674  -1.379   1.073  1.00  0.00    -0.254 NA
HETATM    9  C8  UNL     1       0.099  -0.134   0.657  1.00  0.00     0.246 A 
HETATM   10  H7  UNL     1      -1.736  -3.675   0.823  1.00  0.00     0.166 HD
ENDROOT
BRANCH   9  11
HETATM   11  N3  UNL     1       0.877   0.376  -0.451  1.00  0.00    -0.359 N 
HETATM   12  H10 UNL     1       0.553   0.638  -1.408  1.00  0.00     0.162 HD
BRANCH  11  13
HETATM   13  C9  UNL     1       2.258   0.595  -0.370  1.00  0.00     0.102 A 
HETATM   14  C10 UNL     1       2.945   1.729   0.014  1.00  0.00     0.096 A 
HETATM   15  C11 UNL     1       4.323   1.770   0.036  1.00  0.00     0.058 A 
HETATM   16  C12 UNL     1       5.071   0.674  -0.327  1.00  0.00     0.016 A 
HETATM   17 BR1  UNL     1       6.989   0.762  -0.287  1.00  0.00    -0.051 Br
HETATM   18  C13 UNL     1       4.428  -0.471  -0.714  1.00  0.00     0.064 A 
HETATM   19  C14 UNL     1       3.043  -0.504  -0.734  1.00  0.00     0.146 A 
HETATM   20  F1  UNL     1       2.510  -1.683  -1.131  1.00  0.00    -0.204 F 
BRANCH  14  21
HETATM   21  O2  UNL     1       2.122   2.797   0.367  1.00  0.00    -0.358 OA
HETATM   22  H11 UNL     1       1.738   2.964   1.268  1.00  0.00     0.217 HD
ENDBRANCH  14  21
ENDBRANCH  11  13
ENDBRANCH   9  11
BRANCH   1  23
HETATM   23  O1  UNL     1      -2.906   1.437  -0.534  1.00  0.00    -0.355 OA
HETATM   24  C1  UNL     1      -3.494   2.403   0.297  1.00  0.00     0.210 C 
ENDBRANCH   1  23
TORSDOF 4
