REMARK  4 active torsions:
REMARK  status: ('A' for Active; 'I' for Inactive)
REMARK    1  A    between atoms: O1_2  and  C2_3 
REMARK    2  A    between atoms: C6_9  and  N3_10 
REMARK    3  A    between atoms: N3_10  and  B1_11 
REMARK    4  A    between atoms: C16_23  and  O2_24 
ROOT
HETATM    1  C2  UNL     1       3.666  -0.635  -1.908  1.00  0.00     0.103 A 
HETATM    2  C3  UNL     1       3.606   0.732  -1.620  1.00  0.00     0.072 A 
HETATM    3  C4  UNL     1       2.478   1.237  -0.975  1.00  0.00     0.075 A 
HETATM    4  N1  UNL     1       2.410   2.559  -0.692  1.00  0.00    -0.241 NA
HETATM    5  C5  UNL     1       1.330   3.089  -0.065  1.00  0.00     0.235 A 
HETATM    6  N2  UNL     1       0.293   2.281   0.287  1.00  0.00    -0.225 NA
HETATM    7  C6  UNL     1       0.346   0.972   0.013  1.00  0.00     0.124 A 
HETATM    8  C14 UNL     1       1.432   0.410  -0.622  1.00  0.00     0.040 A 
HETATM    9  C15 UNL     1       1.544  -0.909  -0.927  1.00  0.00     0.057 A 
HETATM   10  C16 UNL     1       2.625  -1.484  -1.562  1.00  0.00     0.102 A 
ENDROOT
BRANCH   7  11
HETATM   11  N3  UNL     1      -0.735   0.164   0.386  1.00  0.00    -0.416 N 
HETATM   12  H6  UNL     1      -0.920  -0.843   0.287  1.00  0.00     0.140 HD
BRANCH  11  13
HETATM   13  B1  UNL     1      -1.979   0.677   1.087  1.00  0.00     0.364 B 
HETATM   14  C7  UNL     1      -2.085   0.207   2.572  1.00  0.00     0.012 C 
HETATM   15  C8  UNL     1      -3.332  -0.548   2.860  1.00  0.00    -0.034 C 
HETATM   16  C9  UNL     1      -4.636  -0.512   2.625  1.00  0.00    -0.003 C 
HETATM   17  C10 UNL     1      -5.499   0.401   1.891  1.00  0.00     0.019 C 
HETATM   18  C11 UNL     1      -5.391   1.242   0.848  1.00  0.00     0.012 C 
HETATM   19 BR1  UNL     1      -6.976   2.201   0.353  1.00  0.00    -0.051 Br
HETATM   20  C12 UNL     1      -4.237   1.573  -0.012  1.00  0.00     0.046 C 
HETATM   21  C13 UNL     1      -2.906   1.385   0.023  1.00  0.00     0.079 C 
HETATM   22  F1  UNL     1      -2.254   1.900  -1.055  1.00  0.00    -0.222 F 
ENDBRANCH  11  13
ENDBRANCH   7  11
BRANCH  10  23
HETATM   23  O2  UNL     1       2.721  -2.836  -1.866  1.00  0.00    -0.353 OA
HETATM   24  C17 UNL     1       1.661  -3.708  -1.515  1.00  0.00     0.210 C 
ENDBRANCH  10  23
BRANCH   1  25
HETATM   25  O1  UNL     1       4.755  -1.187  -2.544  1.00  0.00    -0.353 OA
HETATM   26  C1  UNL     1       5.867  -0.385  -2.933  1.00  0.00     0.210 C 
ENDBRANCH   1  25
TORSDOF 4
