REMARK  5 active torsions:
REMARK  status: ('A' for Active; 'I' for Inactive)
REMARK    1  A    between atoms: O1_2  and  C2_3 
REMARK    2  A    between atoms: C3_4  and  O2_5 
REMARK    3  A    between atoms: O2_5  and  C4_6 
REMARK    4  A    between atoms: C4_6  and  N1_7 
REMARK    5  A    between atoms: C7_12  and  C8_13 
ROOT
HETATM    1  C2  UNL     1       1.762  -0.024  -0.766  1.00  0.00     0.130 A 
HETATM    2  C3  UNL     1       2.823   0.438   0.000  1.00  0.00     0.122 A 
HETATM    3  C5  UNL     1       2.243   0.943   1.146  1.00  0.00     0.138 A 
HETATM    4  N2  UNL     1       0.912   0.818   1.123  1.00  0.00    -0.311 N 
HETATM    5  C6  UNL     1       0.019   1.194   2.056  1.00  0.00     0.215 A 
HETATM    6  N3  UNL     1      -1.279   0.962   1.805  1.00  0.00    -0.243 NA
HETATM    7  C7  UNL     1      -1.716   0.377   0.677  1.00  0.00     0.073 A 
HETATM    8  C14 UNL     1      -0.770   0.007  -0.255  1.00  0.00     0.065 A 
HETATM    9  C15 UNL     1       0.592   0.226  -0.042  1.00  0.00     0.078 A 
ENDROOT
BRANCH   7  10
HETATM   10  C8  UNL     1      -3.139   0.152   0.463  1.00  0.00     0.031 A 
HETATM   11  C9  UNL     1      -3.693  -0.433  -0.647  1.00  0.00     0.018 A 
HETATM   12  C10 UNL     1      -5.038  -0.628  -0.811  1.00  0.00     0.020 A 
HETATM   13  C11 UNL     1      -5.925  -0.228   0.170  1.00  0.00     0.013 A 
HETATM   14 BR1  UNL     1      -7.766  -0.529  -0.126  1.00  0.00    -0.051 Br
HETATM   15  C12 UNL     1      -5.416   0.362   1.298  1.00  0.00     0.062 A 
HETATM   16  C13 UNL     1      -4.038   0.546   1.433  1.00  0.00     0.130 A 
HETATM   17  F1  UNL     1      -3.672   1.140   2.595  1.00  0.00    -0.205 F 
ENDBRANCH   7  10
BRANCH   1  18
HETATM   18  O1  UNL     1       1.678  -0.638  -2.017  1.00  0.00    -0.351 OA
HETATM   19  C1  UNL     1       1.731  -2.053  -2.103  1.00  0.00     0.210 C 
ENDBRANCH   1  18
BRANCH   2  20
HETATM   20  O2  UNL     1       4.061   0.278  -0.546  1.00  0.00    -0.318 OA
BRANCH  20  21
HETATM   21  C4  UNL     1       5.294   0.652   0.010  1.00  0.00     0.441 C 
BRANCH  21  22
HETATM   22  N1  UNL     1       5.460  -0.058   1.259  1.00  0.00     0.101 N 
HETATM   23  H6  UNL     1       6.469  -0.310   1.359  1.00  0.00     0.315 HD
HETATM   24  H7  UNL     1       5.153   0.576   2.026  1.00  0.00     0.315 HD
ENDBRANCH  21  22
ENDBRANCH  20  21
ENDBRANCH   2  20
TORSDOF 5
