REMARK  3 active torsions:
REMARK  status: ('A' for Active; 'I' for Inactive)
REMARK    1  A    between atoms: O1_2  and  C2_3 
REMARK    2  A    between atoms: C10_12  and  N2_13 
REMARK    3  A    between atoms: N2_13  and  C11_14 
ROOT
HETATM    1  C2  UNL     1      -3.539  -0.279  -1.797  1.00  0.00     0.069 A 
HETATM    2  C3  UNL     1      -3.160  -1.267  -2.693  1.00  0.00     0.039 A 
HETATM    3  C4  UNL     1      -2.284  -2.231  -2.250  1.00  0.00     0.042 A 
HETATM    4  C5  UNL     1      -1.754  -2.288  -0.978  1.00  0.00     0.106 A 
HETATM    5  C6  UNL     1      -2.149  -1.294  -0.111  1.00  0.00    -0.002 A 
HETATM    6  C7  UNL     1      -3.024  -0.319  -0.533  1.00  0.00     0.048 A 
HETATM    7  C8  UNL     1      -1.727  -1.133   1.301  1.00  0.00     0.160 C 
HETATM    8  N1  UNL     1      -1.097   0.109   1.600  1.00  0.00    -0.391 N 
HETATM    9  C9  UNL     1       0.081   0.546   0.992  1.00  0.00     0.134 C 
HETATM   10  C10 UNL     1       1.075   0.276   0.161  1.00  0.00     0.139 C 
HETATM   11  N3  UNL     1       0.638  -1.032  -0.190  1.00  0.00    -0.224 NA
HETATM   12  C16 UNL     1       1.357  -2.027   0.203  1.00  0.00     0.233 C 
HETATM   13  N4  UNL     1       0.485  -3.007  -0.400  1.00  0.00    -0.254 N 
HETATM   14  O2  UNL     1      -0.868  -3.288  -0.578  1.00  0.00    -0.237 OA
HETATM   15  H9  UNL     1      -1.421   0.825   2.284  1.00  0.00     0.159 HD
HETATM   16  H16 UNL     1       0.477  -3.906  -0.948  1.00  0.00     0.195 HD
ENDROOT
BRANCH  10  17
HETATM   17  N2  UNL     1       2.280   0.644  -0.499  1.00  0.00    -0.375 N 
HETATM   18  H11 UNL     1       2.190   0.758  -1.542  1.00  0.00     0.160 HD
BRANCH  17  19
HETATM   19  C11 UNL     1       3.360   0.778   0.434  1.00  0.00     0.060 C 
HETATM   20  B1  UNL     1       3.011   1.904   1.716  1.00  0.00     0.218 B 
HETATM   21  C12 UNL     1       4.755   2.665   2.241  1.00  0.00    -0.086 C 
HETATM   22  C13 UNL     1       5.263   3.125   1.108  1.00  0.00     0.028 C 
HETATM   23 CL1  UNL     1       5.678   4.798   0.807  1.00  0.00    -0.085 Cl
HETATM   24  C14 UNL     1       5.489   2.159   0.035  1.00  0.00     0.020 C 
HETATM   25  C15 UNL     1       4.631   1.161  -0.214  1.00  0.00    -0.011 C 
ENDBRANCH  17  19
ENDBRANCH  10  17
BRANCH   1  26
HETATM   26  O1  UNL     1      -4.424   0.660  -2.310  1.00  0.00    -0.356 OA
HETATM   27  C1  UNL     1      -4.865   1.707  -1.464  1.00  0.00     0.210 C 
ENDBRANCH   1  26
TORSDOF 3
