REMARK  2 active torsions:
REMARK  status: ('A' for Active; 'I' for Inactive)
REMARK    1  A    between atoms: O1_2  and  C2_3 
REMARK    2  A    between atoms: C6_9  and  N3_10 
ROOT
HETATM    1  C2  UNL     1       3.136  -0.512  -0.275  1.00  0.00     0.076 A 
HETATM    2  C3  UNL     1       2.764   0.132  -1.454  1.00  0.00     0.070 A 
HETATM    3  C4  UNL     1       1.452   0.516  -1.636  1.00  0.00     0.074 A 
HETATM    4  N1  UNL     1       1.021   1.139  -2.744  1.00  0.00    -0.241 NA
HETATM    5  C5  UNL     1      -0.274   1.494  -2.874  1.00  0.00     0.236 A 
HETATM    6  N2  UNL     1      -1.150   1.226  -1.889  1.00  0.00    -0.224 NA
HETATM    7  C6  UNL     1      -0.808   0.611  -0.755  1.00  0.00     0.140 A 
HETATM    8  C13 UNL     1       0.516   0.252  -0.631  1.00  0.00     0.039 A 
HETATM    9  C14 UNL     1       0.902  -0.387   0.530  1.00  0.00     0.027 A 
HETATM   10  C15 UNL     1       2.217  -0.780   0.730  1.00  0.00    -0.028 A 
HETATM   11  C16 UNL     1       2.593  -1.462   1.989  1.00  0.00     0.051 C 
ENDROOT
BRANCH   7  12
HETATM   12  N3  UNL     1      -1.812   0.384   0.203  1.00  0.00    -0.355 N 
HETATM   13  C7  UNL     1      -2.230  -0.905   0.708  1.00  0.00     0.153 C 
HETATM   14  C8  UNL     1      -3.684  -1.126   0.397  1.00  0.00     0.012 C 
HETATM   15  C9  UNL     1      -4.719  -0.419  -0.040  1.00  0.00     0.011 C 
HETATM   16 BR1  UNL     1      -6.416  -1.258  -0.258  1.00  0.00    -0.051 Br
HETATM   17  C10 UNL     1      -4.596   0.997  -0.363  1.00  0.00     0.058 C 
HETATM   18  C11 UNL     1      -3.653   1.895  -0.108  1.00  0.00     0.113 C 
HETATM   19  F1  UNL     1      -3.927   3.132  -0.593  1.00  0.00    -0.209 F 
HETATM   20  C12 UNL     1      -2.390   1.643   0.634  1.00  0.00     0.195 C 
ENDBRANCH   7  12
BRANCH   1  21
HETATM   21  O1  UNL     1       4.433  -0.925  -0.023  1.00  0.00    -0.355 OA
HETATM   22  C1  UNL     1       5.515  -0.763  -0.884  1.00  0.00     0.210 C 
ENDBRANCH   1  21
TORSDOF 2
