REMARK  6 active torsions:
REMARK  status: ('A' for Active; 'I' for Inactive)
REMARK    1  A    between atoms: C3_3  and  C4_5 
REMARK    2  A    between atoms: C5_6  and  C6_8 
REMARK    3  A    between atoms: C6_8  and  N1_9 
REMARK    4  A    between atoms: N1_9  and  C7_10 
REMARK    5  A    between atoms: C11_16  and  O1_17 
REMARK    6  A    between atoms: C13_19  and  O2_20 
ROOT
HETATM    1  C7  UNL     1       0.011   1.109  -0.546  1.00  0.00     0.138 A 
HETATM    2  N2  UNL     1       0.444   2.273  -0.036  1.00  0.00    -0.224 NA
HETATM    3  C8  UNL     1      -0.343   3.120   0.651  1.00  0.00     0.235 A 
HETATM    4  N3  UNL     1      -1.650   2.870   0.890  1.00  0.00    -0.241 NA
HETATM    5  C9  UNL     1      -2.143   1.713   0.400  1.00  0.00     0.075 A 
HETATM    6  C10 UNL     1      -3.476   1.447   0.638  1.00  0.00     0.072 A 
HETATM    7  C11 UNL     1      -4.007   0.271   0.149  1.00  0.00     0.103 A 
HETATM    8  C13 UNL     1      -3.219  -0.623  -0.564  1.00  0.00     0.102 A 
HETATM    9  C15 UNL     1      -1.894  -0.299  -0.767  1.00  0.00     0.057 A 
HETATM   10  C16 UNL     1      -1.322   0.856  -0.302  1.00  0.00     0.041 A 
ENDROOT
BRANCH   1  11
HETATM   11  N1  UNL     1       0.864   0.238  -1.272  1.00  0.00    -0.368 N 
HETATM   12  H8  UNL     1       0.602  -0.652  -1.690  1.00  0.00     0.161 HD
BRANCH  11  13
HETATM   13  C6  UNL     1       2.255   0.575  -1.484  1.00  0.00     0.191 C 
BRANCH  13  14
HETATM   14  C5  UNL     1       2.908   0.632  -0.146  1.00  0.00     0.112 C 
HETATM   15  C4  UNL     1       3.929  -0.215   0.074  1.00  0.00     0.058 C 
HETATM   16  F1  UNL     1       2.691   1.387   0.949  1.00  0.00    -0.209 F 
BRANCH  15  17
HETATM   17  C3  UNL     1       4.653  -0.259   1.338  1.00  0.00     0.009 C 
HETATM   18  C2  UNL     1       5.671  -1.112   1.540  1.00  0.00    -0.012 C 
HETATM   19  C1  UNL     1       6.340  -2.163   0.702  1.00  0.00     0.037 C 
HETATM   20 BR1  UNL     1       4.148   0.934   2.764  1.00  0.00    -0.051 Br
ENDBRANCH  15  17
ENDBRANCH  13  14
ENDBRANCH  11  13
ENDBRANCH   1  11
BRANCH   8  21
HETATM   21  O2  UNL     1      -3.782  -1.783  -1.034  1.00  0.00    -0.353 OA
HETATM   22  C14 UNL     1      -3.024  -2.711  -1.757  1.00  0.00     0.210 C 
ENDBRANCH   8  21
BRANCH   7  23
HETATM   23  O1  UNL     1      -5.355  -0.069   0.351  1.00  0.00    -0.353 OA
HETATM   24  C12 UNL     1      -6.207   0.800   1.069  1.00  0.00     0.210 C 
ENDBRANCH   7  23
TORSDOF 6
