REMARK  5 active torsions:
REMARK  status: ('A' for Active; 'I' for Inactive)
REMARK    1  A    between atoms: O1_2  and  C2_3 
REMARK    2  A    between atoms: C5_6  and  N1_7 
REMARK    3  A    between atoms: N1_7  and  C6_8 
REMARK    4  A    between atoms: C14_20  and  O2_21 
REMARK    5  A    between atoms: C15_22  and  O3_23 
ROOT
HETATM    1  C2  UNL     1      -2.485  -0.403  -0.801  1.00  0.00     0.105 A 
HETATM    2  C3  UNL     1      -1.117  -0.433  -0.678  1.00  0.00     0.057 A 
HETATM    3  C4  UNL     1      -0.551   0.100   0.451  1.00  0.00     0.044 A 
HETATM    4  C5  UNL     1       0.825   0.039   0.516  1.00  0.00     0.142 A 
HETATM    5  N2  UNL     1       1.449   0.538   1.585  1.00  0.00    -0.224 NA
HETATM    6  C12 UNL     1       0.728   1.101   2.599  1.00  0.00     0.236 A 
HETATM    7  N3  UNL     1      -0.633   1.183   2.579  1.00  0.00    -0.238 NA
HETATM    8  C13 UNL     1      -1.248   0.676   1.494  1.00  0.00     0.108 A 
HETATM    9  C14 UNL     1      -2.640   0.697   1.350  1.00  0.00     0.132 A 
HETATM   10  C15 UNL     1      -3.255   0.164   0.215  1.00  0.00     0.137 A 
ENDROOT
BRANCH   4  11
HETATM   11  N1  UNL     1       1.643  -0.528  -0.495  1.00  0.00    -0.338 N 
HETATM   12  H5  UNL     1       1.423  -0.967  -1.391  1.00  0.00     0.167 HD
BRANCH  11  13
HETATM   13  C6  UNL     1       3.084  -0.611  -0.465  1.00  0.00     0.072 A 
HETATM   14  C7  UNL     1       3.837  -1.769  -0.510  1.00  0.00     0.034 A 
HETATM   15  C8  UNL     1       5.196  -1.679  -0.472  1.00  0.00     0.021 A 
HETATM   16  C9  UNL     1       5.827  -0.463  -0.391  1.00  0.00     0.014 A 
HETATM   17 BR1  UNL     1       7.723  -0.461  -0.346  1.00  0.00    -0.051 Br
HETATM   18  C10 UNL     1       5.065   0.683  -0.347  1.00  0.00     0.063 A 
HETATM   19  C11 UNL     1       3.692   0.641  -0.382  1.00  0.00     0.144 A 
HETATM   20  F1  UNL     1       3.036   1.818  -0.334  1.00  0.00    -0.204 F 
ENDBRANCH  11  13
ENDBRANCH   4  11
BRANCH   1  21
HETATM   21  O1  UNL     1      -3.279  -0.874  -1.838  1.00  0.00    -0.353 OA
HETATM   22  C1  UNL     1      -2.629  -1.477  -2.941  1.00  0.00     0.210 C 
ENDBRANCH   1  21
BRANCH   9  23
HETATM   23  O2  UNL     1      -3.349   1.275   2.395  1.00  0.00    -0.356 OA
HETATM   24  H10 UNL     1      -3.250   2.286   2.497  1.00  0.00     0.218 HD
ENDBRANCH   9  23
BRANCH  10  25
HETATM   25  O3  UNL     1      -4.638   0.267   0.233  1.00  0.00    -0.351 OA
HETATM   26  C16 UNL     1      -5.384   1.337  -0.267  1.00  0.00     0.210 C 
ENDBRANCH  10  25
TORSDOF 5
