REMARK  5 active torsions:
REMARK  status: ('A' for Active; 'I' for Inactive)
REMARK    1  A    between atoms: O1_2  and  C2_3 
REMARK    2  A    between atoms: C7_8  and  O2_9 
REMARK    3  A    between atoms: C9_11  and  N1_12 
REMARK    4  A    between atoms: N1_12  and  C10_14 
REMARK    5  A    between atoms: C11_15  and  C12_16 
ROOT
HETATM    1  C2  UNL     1      -2.968   0.459  -0.173  1.00  0.00     0.103 A 
HETATM    2  C3  UNL     1      -2.775  -0.362  -1.285  1.00  0.00     0.072 A 
HETATM    3  C4  UNL     1      -1.628  -1.117  -1.356  1.00  0.00     0.073 A 
HETATM    4  C5  UNL     1      -0.706  -1.047  -0.338  1.00  0.00     0.023 A 
HETATM    5  C6  UNL     1      -0.838  -0.262   0.779  1.00  0.00     0.055 A 
HETATM    6  C7  UNL     1      -2.003   0.480   0.811  1.00  0.00     0.102 A 
HETATM    7  C9  UNL     1       0.393  -1.776  -0.414  1.00  0.00     0.077 A 
HETATM    8  C16 UNL     1       1.134  -2.753  -1.236  1.00  0.00     0.210 A 
HETATM    9  N2  UNL     1       0.446  -3.094  -2.454  1.00  0.00    -0.277 NA
HETATM   10  C17 UNL     1      -0.664  -2.704  -2.927  1.00  0.00     0.227 A 
HETATM   11  N3  UNL     1      -1.685  -1.789  -2.479  1.00  0.00    -0.242 NA
ENDROOT
BRANCH   7  12
HETATM   12  N1  UNL     1       1.247  -1.582   0.733  1.00  0.00    -0.193 N 
HETATM   13  F1  UNL     1       0.883  -2.352   1.808  1.00  0.00    -0.094 F 
BRANCH  12  14
HETATM   14  C10 UNL     1       2.364  -0.704   0.812  1.00  0.00     0.129 C 
HETATM   15  C11 UNL     1       2.436   0.470   0.212  1.00  0.00     0.032 C 
BRANCH  15  16
HETATM   16  C12 UNL     1       3.594   1.351   0.309  1.00  0.00    -0.017 A 
HETATM   17  C13 UNL     1       4.017   2.526  -0.118  1.00  0.00     0.021 A 
HETATM   18 BR1  UNL     1       3.253   3.879  -1.229  1.00  0.00    -0.050 Br
HETATM   19  C14 UNL     1       5.288   2.386   0.589  1.00  0.00     0.021 A 
HETATM   20  C15 UNL     1       4.877   1.204   1.026  1.00  0.00     0.014 A 
ENDBRANCH  15  16
ENDBRANCH  12  14
ENDBRANCH   7  12
BRANCH   6  21
HETATM   21  O2  UNL     1      -2.196   1.308   1.935  1.00  0.00    -0.353 OA
HETATM   22  C8  UNL     1      -1.271   1.389   2.974  1.00  0.00     0.210 C 
ENDBRANCH   6  21
BRANCH   1  23
HETATM   23  O1  UNL     1      -4.083   1.257  -0.003  1.00  0.00    -0.353 OA
HETATM   24  C1  UNL     1      -5.134   1.310  -0.953  1.00  0.00     0.210 C 
ENDBRANCH   1  23
TORSDOF 5
