REMARK  5 active torsions:
REMARK  status: ('A' for Active; 'I' for Inactive)
REMARK    1  A    between atoms: C5_5  and  C6_6 
REMARK    2  A    between atoms: C6_6  and  C7_7 
REMARK    3  A    between atoms: C7_7  and  C8_8 
REMARK    4  A    between atoms: C17_21  and  O1_22 
REMARK    5  A    between atoms: O1_22  and  N3_23 
ROOT
HETATM    1  C1  UNL     1      -3.446   2.337  -0.230  1.00  0.00     0.051 C 
HETATM    2  C2  UNL     1      -2.789   0.986  -0.220  1.00  0.00    -0.026 A 
HETATM    3  C3  UNL     1      -1.593   0.775   0.462  1.00  0.00     0.025 A 
HETATM    4  C4  UNL     1      -0.950  -0.422   0.506  1.00  0.00     0.018 A 
HETATM    5  C5  UNL     1       0.231  -0.533   1.217  1.00  0.00     0.048 A 
HETATM    6  N1  UNL     1       0.783  -1.783   1.201  1.00  0.00    -0.246 NA
HETATM    7  C14 UNL     1       0.225  -2.818   0.547  1.00  0.00     0.234 A 
HETATM    8  N2  UNL     1      -0.932  -2.663  -0.137  1.00  0.00    -0.241 NA
HETATM    9  C15 UNL     1      -1.557  -1.457  -0.178  1.00  0.00     0.073 A 
HETATM   10  C16 UNL     1      -2.741  -1.304  -0.870  1.00  0.00     0.072 A 
HETATM   11  C17 UNL     1      -3.378  -0.076  -0.903  1.00  0.00     0.100 A 
ENDROOT
BRANCH   5  12
HETATM   12  C6  UNL     1       0.878   0.572   1.917  1.00  0.00     0.065 C 
BRANCH  12  13
HETATM   13  C7  UNL     1       1.641   1.465   0.964  1.00  0.00     0.048 C 
BRANCH  13  14
HETATM   14  C8  UNL     1       2.714   0.702   0.254  1.00  0.00    -0.019 A 
HETATM   15  C9  UNL     1       2.668   0.257  -1.071  1.00  0.00     0.011 A 
HETATM   16  C10 UNL     1       3.755  -0.437  -1.570  1.00  0.00     0.020 A 
HETATM   17  C11 UNL     1       4.860  -0.692  -0.798  1.00  0.00     0.013 A 
HETATM   18 BR1  UNL     1       6.327  -1.651  -1.544  1.00  0.00    -0.051 Br
HETATM   19  C12 UNL     1       4.936  -0.261   0.524  1.00  0.00     0.061 A 
HETATM   20  C13 UNL     1       3.843   0.442   1.039  1.00  0.00     0.123 A 
HETATM   21  F1  UNL     1       3.936   0.852   2.331  1.00  0.00    -0.206 F 
ENDBRANCH  13  14
ENDBRANCH  12  13
ENDBRANCH   5  12
BRANCH  11  22
HETATM   22  O1  UNL     1      -4.567   0.186  -1.567  1.00  0.00    -0.266 OA
BRANCH  22  23
HETATM   23  N3  UNL     1      -5.243  -0.773  -2.273  1.00  0.00    -0.209 NA
HETATM   24  H14 UNL     1      -6.170  -0.429  -2.566  1.00  0.00     0.150 HD
HETATM   25  H15 UNL     1      -5.239  -1.654  -1.742  1.00  0.00     0.150 HD
ENDBRANCH  22  23
ENDBRANCH  11  22
TORSDOF 5
