REMARK  4 active torsions:
REMARK  status: ('A' for Active; 'I' for Inactive)
REMARK    1  A    between atoms: C5_6  and  O1_7 
REMARK    2  A    between atoms: O1_7  and  C6_8 
REMARK    3  A    between atoms: C10_14  and  O2_15 
REMARK    4  A    between atoms: O2_15  and  C11_16 
ROOT
HETATM    1  C6  UNL     1      -0.241   0.771   0.090  1.00  0.00     0.186 A 
HETATM    2  N1  UNL     1      -0.651   2.047   0.062  1.00  0.00    -0.217 NA
HETATM    3  C7  UNL     1       0.169   3.095   0.051  1.00  0.00     0.236 A 
HETATM    4  N2  UNL     1       1.494   2.895   0.068  1.00  0.00    -0.241 NA
HETATM    5  C8  UNL     1       1.963   1.645   0.096  1.00  0.00     0.075 A 
HETATM    6  C9  UNL     1       1.128   0.536   0.109  1.00  0.00     0.081 A 
HETATM    7  C10 UNL     1       1.378  -0.901   0.138  1.00  0.00     0.108 C 
HETATM    8  C12 UNL     1       2.414  -1.676   0.440  1.00  0.00     0.172 C 
HETATM    9  O3  UNL     1       3.687  -1.246   0.860  1.00  0.00    -0.357 OA
HETATM   10  C13 UNL     1       4.737  -0.477   0.358  1.00  0.00     0.202 C 
HETATM   11  C14 UNL     1       4.401   0.962   0.214  1.00  0.00     0.002 C 
HETATM   12  C15 UNL     1       3.427   1.852   0.108  1.00  0.00     0.031 C 
ENDROOT
BRANCH   1  13
HETATM   13  O1  UNL     1      -1.055  -0.353   0.103  1.00  0.00    -0.291 OA
BRANCH  13  14
HETATM   14  C5  UNL     1      -2.454  -0.240   0.087  1.00  0.00     0.080 A 
HETATM   15  C4  UNL     1      -3.281  -0.193  -1.000  1.00  0.00     0.037 A 
HETATM   16  C3  UNL     1      -4.643  -0.079  -0.832  1.00  0.00     0.006 A 
HETATM   17  C2  UNL     1      -5.234  -0.009   0.426  1.00  0.00     0.042 A 
HETATM   18  C1  UNL     1      -4.380  -0.058   1.519  1.00  0.00     0.119 A 
HETATM   19  F1  UNL     1      -4.975   0.012   2.732  1.00  0.00    -0.206 F 
HETATM   20  C16 UNL     1      -3.001  -0.173   1.362  1.00  0.00     0.079 A 
ENDBRANCH  13  14
ENDBRANCH   1  13
BRANCH   7  21
HETATM   21  O2  UNL     1       0.207  -1.577  -0.258  1.00  0.00    -0.338 OA
BRANCH  21  22
HETATM   22  C11 UNL     1       0.200  -2.424  -1.395  1.00  0.00     0.260 C 
HETATM   23 BR1  UNL     1      -1.521  -3.258  -1.684  1.00  0.00    -0.067 Br
ENDBRANCH  21  22
ENDBRANCH   7  21
TORSDOF 4
