REMARK  5 active torsions:
REMARK  status: ('A' for Active; 'I' for Inactive)
REMARK    1  A    between atoms: B1_1  and  N1_2 
REMARK    2  A    between atoms: N1_2  and  C1_3 
REMARK    3  A    between atoms: N1_2  and  C11_17 
REMARK    4  A    between atoms: C5_7  and  O1_8 
REMARK    5  A    between atoms: C6_9  and  O2_10 
ROOT
HETATM    1  C1  UNL     1       0.846  -0.443   0.131  1.00  0.00     0.114 C 
HETATM    2  C2  UNL     1      -0.155   0.027  -0.623  1.00  0.00     0.037 C 
HETATM    3  C3  UNL     1      -1.556   0.358  -0.234  1.00  0.00     0.089 C 
HETATM    4  C4  UNL     1      -2.417   0.400  -1.432  1.00  0.00     0.023 C 
HETATM    5  C5  UNL     1      -3.706   0.493  -1.611  1.00  0.00     0.072 C 
HETATM    6  C6  UNL     1      -4.740   0.590  -0.549  1.00  0.00     0.197 C 
HETATM    7  C7  UNL     1      -4.593  -0.638   0.301  1.00  0.00     0.013 C 
HETATM    8  C8  UNL     1      -3.467  -1.086   0.828  1.00  0.00     0.027 C 
HETATM    9  C9  UNL     1      -2.090  -0.594   0.777  1.00  0.00     0.047 C 
HETATM   10  N2  UNL     1      -1.566  -1.185   1.775  1.00  0.00    -0.245 NA
HETATM   11  C10 UNL     1      -0.201  -1.072   2.215  1.00  0.00     0.235 C 
HETATM   12  N3  UNL     1       0.842  -0.755   1.523  1.00  0.00    -0.226 NA
ENDROOT
BRANCH   1  13
HETATM   13  N1  UNL     1       2.010  -0.602  -0.704  1.00  0.00    -0.390 N 
BRANCH  13  14
HETATM   14  B1  UNL     1       1.834  -1.231  -2.093  1.00  0.00     0.260 B 
HETATM   15  H1  UNL     1       2.085  -2.390  -2.246  1.00  0.00    -0.006 HD
HETATM   16  H2  UNL     1       1.909  -0.459  -3.000  1.00  0.00    -0.006 HD
ENDBRANCH  13  14
BRANCH  13  17
HETATM   17  C11 UNL     1       3.266  -0.159  -0.204  1.00  0.00     0.060 A 
HETATM   18  C12 UNL     1       4.254  -0.870   0.435  1.00  0.00     0.033 A 
HETATM   19  C13 UNL     1       5.396  -0.222   0.842  1.00  0.00     0.021 A 
HETATM   20  C14 UNL     1       5.540   1.115   0.609  1.00  0.00     0.014 A 
HETATM   21 BR1  UNL     1       7.159   1.975   1.196  1.00  0.00    -0.051 Br
HETATM   22  C15 UNL     1       4.580   1.876  -0.029  1.00  0.00     0.063 A 
HETATM   23  C16 UNL     1       3.428   1.208  -0.436  1.00  0.00     0.143 A 
HETATM   24  F1  UNL     1       2.525   2.028  -1.057  1.00  0.00    -0.204 F 
ENDBRANCH  13  17
ENDBRANCH   1  13
BRANCH   5  25
HETATM   25  O1  UNL     1      -4.158   0.501  -2.944  1.00  0.00    -0.362 OA
HETATM   26  H6  UNL     1      -4.300  -0.448  -3.323  1.00  0.00     0.217 HD
ENDBRANCH   5  25
BRANCH   6  27
HETATM   27  O2  UNL     1      -4.495   1.741   0.218  1.00  0.00    -0.385 OA
HETATM   28  H8  UNL     1      -4.967   1.653   1.085  1.00  0.00     0.210 HD
ENDBRANCH   6  27
TORSDOF 5
