REMARK  6 active torsions:
REMARK  status: ('A' for Active; 'I' for Inactive)
REMARK    1  A    between atoms: C2_2  and  O1_3 
REMARK    2  A    between atoms: C2_2  and  C4_5 
REMARK    3  A    between atoms: C4_5  and  O3_22 
REMARK    4  A    between atoms: C5_6  and  C6_7 
REMARK    5  A    between atoms: C9_12  and  O2_13 
REMARK    6  A    between atoms: O2_13  and  C10_14 
ROOT
HETATM    1  C6  UNL     1      -0.105  -1.553  -0.911  1.00  0.00     0.037 A 
HETATM    2  C7  UNL     1      -0.547  -2.856  -1.153  1.00  0.00     0.134 A 
HETATM    3  N1  UNL     1       0.358  -3.872  -1.130  1.00  0.00    -0.253 NA
HETATM    4  C8  UNL     1       1.641  -3.582  -0.875  1.00  0.00     0.235 A 
HETATM    5  N2  UNL     1       2.055  -2.326  -0.644  1.00  0.00    -0.217 NA
HETATM    6  C9  UNL     1       1.241  -1.264  -0.645  1.00  0.00     0.182 A 
ENDROOT
BRANCH   6   7
HETATM    7  O2  UNL     1       1.398   0.071  -0.447  1.00  0.00    -0.291 OA
BRANCH   7   8
HETATM    8  C10 UNL     1       2.628   0.631  -0.162  1.00  0.00     0.081 A 
HETATM    9  C11 UNL     1       3.889   0.129  -0.008  1.00  0.00     0.039 A 
HETATM   10  C12 UNL     1       4.942   0.969   0.282  1.00  0.00     0.025 A 
HETATM   11  C13 UNL     1       4.773   2.337   0.429  1.00  0.00     0.049 A 
HETATM   12 BR1  UNL     1       6.277   3.434   0.831  1.00  0.00    -0.048 Br
HETATM   13  C14 UNL     1       3.485   2.865   0.274  1.00  0.00     0.136 A 
HETATM   14  F1  UNL     1       3.411   4.204   0.432  1.00  0.00    -0.205 F 
HETATM   15  C15 UNL     1       2.417   2.011  -0.021  1.00  0.00     0.081 A 
ENDBRANCH   7   8
ENDBRANCH   6   7
BRANCH   1  16
HETATM   16  C5  UNL     1      -1.169  -0.587  -0.960  1.00  0.00     0.057 C 
HETATM   17  C4  UNL     1      -2.397  -0.724  -0.501  1.00  0.00     0.101 C 
BRANCH  17  18
HETATM   18  C2  UNL     1      -3.260   0.429  -0.694  1.00  0.00     0.092 C 
HETATM   19  C1  UNL     1      -4.511   0.411  -0.276  1.00  0.00     0.053 C 
BRANCH  18  20
HETATM   20  O1  UNL     1      -3.520   1.691  -1.131  1.00  0.00    -0.354 OA
HETATM   21  C3  UNL     1      -2.862   2.860  -0.690  1.00  0.00     0.210 C 
ENDBRANCH  18  20
ENDBRANCH  17  18
BRANCH  17  22
HETATM   22  O3  UNL     1      -2.917  -1.816   0.121  1.00  0.00    -0.353 OA
HETATM   23  C16 UNL     1      -2.611  -2.111   1.460  1.00  0.00     0.210 C 
ENDBRANCH  17  22
ENDBRANCH   1  16
TORSDOF 6
