REMARK  4 active torsions:
REMARK  status: ('A' for Active; 'I' for Inactive)
REMARK    1  A    between atoms: O1_2  and  C2_3 
REMARK    2  A    between atoms: C6_9  and  N3_10 
REMARK    3  A    between atoms: N3_10  and  C8_12 
REMARK    4  A    between atoms: C15_22  and  O2_23 
ROOT
HETATM    1  C2  UNL     1       3.124  -0.899   0.708  1.00  0.00     0.103 A 
HETATM    2  C3  UNL     1       2.546  -0.224   1.787  1.00  0.00     0.072 A 
HETATM    3  C4  UNL     1       1.190   0.079   1.781  1.00  0.00     0.075 A 
HETATM    4  N1  UNL     1       0.595   0.724   2.813  1.00  0.00    -0.241 NA
HETATM    5  C5  UNL     1      -0.744   0.987   2.755  1.00  0.00     0.236 A 
HETATM    6  N2  UNL     1      -1.464   0.610   1.689  1.00  0.00    -0.223 NA
HETATM    7  C6  UNL     1      -0.894  -0.022   0.674  1.00  0.00     0.143 A 
HETATM    8  C13 UNL     1       0.453  -0.308   0.688  1.00  0.00     0.042 A 
HETATM    9  C14 UNL     1       0.987  -0.971  -0.387  1.00  0.00     0.057 A 
HETATM   10  C15 UNL     1       2.326  -1.264  -0.371  1.00  0.00     0.102 A 
ENDROOT
BRANCH   7  11
HETATM   11  N3  UNL     1      -1.799  -0.345  -0.371  1.00  0.00    -0.347 N 
HETATM   12  C7  UNL     1      -2.261  -1.502  -1.099  1.00  0.00     0.156 C 
BRANCH  11  13
HETATM   13  C8  UNL     1      -2.515   0.706  -0.912  1.00  0.00     0.003 C 
HETATM   14  B1  UNL     1      -1.704   2.410   0.181  1.00  0.00     0.239 B 
HETATM   15  C9  UNL     1      -3.418   3.059   0.638  1.00  0.00    -0.060 C 
HETATM   16  C10 UNL     1      -4.203   3.203  -0.466  1.00  0.00    -0.001 C 
HETATM   17 BR1  UNL     1      -5.367   4.708  -0.385  1.00  0.00    -0.052 Br
HETATM   18  C11 UNL     1      -4.212   2.376  -1.558  1.00  0.00     0.061 C 
HETATM   19  C12 UNL     1      -3.445   1.264  -1.732  1.00  0.00     0.128 C 
HETATM   20  F1  UNL     1      -3.321   0.349  -2.710  1.00  0.00    -0.205 F 
ENDBRANCH  11  13
ENDBRANCH   7  11
BRANCH  10  21
HETATM   21  O2  UNL     1       3.037  -1.924  -1.357  1.00  0.00    -0.353 OA
HETATM   22  C16 UNL     1       2.331  -2.346  -2.503  1.00  0.00     0.210 C 
ENDBRANCH  10  21
BRANCH   1  23
HETATM   23  O1  UNL     1       4.494  -1.161   0.801  1.00  0.00    -0.353 OA
HETATM   24  C1  UNL     1       5.154  -0.714   1.964  1.00  0.00     0.210 C 
ENDBRANCH   1  23
TORSDOF 4
