REMARK  7 active torsions:
REMARK  status: ('A' for Active; 'I' for Inactive)
REMARK    1  A    between atoms: C2_2  and  O1_3 
REMARK    2  A    between atoms: C2_2  and  C4_5 
REMARK    3  A    between atoms: C4_5  and  O2_6 
REMARK    4  A    between atoms: C4_5  and  C6_9 
REMARK    5  A    between atoms: O2_6  and  C5_7 
REMARK    6  A    between atoms: C8_11  and  O3_12 
REMARK    7  A    between atoms: O3_12  and  C9_13 
ROOT
HETATM    1  C6  UNL     1      -1.223   0.394  -0.460  1.00  0.00     0.072 A 
HETATM    2  C7  UNL     1      -0.018   0.393   0.228  1.00  0.00     0.088 A 
HETATM    3  C8  UNL     1       1.194   0.027  -0.372  1.00  0.00     0.172 A 
HETATM    4  N1  UNL     1       1.182  -0.335  -1.667  1.00  0.00    -0.217 NA
HETATM    5  C15 UNL     1       0.017  -0.333  -2.331  1.00  0.00     0.236 A 
HETATM    6  N2  UNL     1      -1.173   0.017  -1.772  1.00  0.00    -0.243 NA
ENDROOT
BRANCH   1   7
HETATM    7  C4  UNL     1      -2.531   0.773   0.133  1.00  0.00     0.212 C 
BRANCH   7   8
HETATM    8  C2  UNL     1      -3.151  -0.351   0.884  1.00  0.00     0.126 C 
HETATM    9  C1  UNL     1      -3.490  -0.099   2.140  1.00  0.00     0.047 C 
BRANCH   8  10
HETATM   10  O1  UNL     1      -3.225  -1.449   0.036  1.00  0.00    -0.379 OA
HETATM   11  C3  UNL     1      -4.430  -2.030  -0.393  1.00  0.00     0.202 C 
ENDBRANCH   8  10
ENDBRANCH   7   8
BRANCH   7  12
HETATM   12  O2  UNL     1      -2.407   1.933   0.894  1.00  0.00    -0.366 OA
BRANCH  12  13
HETATM   13  C5  UNL     1      -3.199   2.930   0.324  1.00  0.00     0.253 C 
HETATM   14 BR1  UNL     1      -5.060   2.424   0.271  1.00  0.00    -0.068 Br
ENDBRANCH  12  13
ENDBRANCH   7  12
ENDBRANCH   1   7
BRANCH   3  15
HETATM   15  O3  UNL     1       2.202   0.124   0.553  1.00  0.00    -0.292 OA
BRANCH  15  16
HETATM   16  C9  UNL     1       3.513  -0.164   0.284  1.00  0.00     0.078 A 
HETATM   17  C10 UNL     1       4.278   0.031   1.419  1.00  0.00     0.040 A 
HETATM   18  C11 UNL     1       5.659  -0.190   1.428  1.00  0.00     0.045 A 
HETATM   19  C12 UNL     1       6.289  -0.615   0.278  1.00  0.00     0.116 A 
HETATM   20  F1  UNL     1       7.627  -0.861   0.173  1.00  0.00    -0.206 F 
HETATM   21  C13 UNL     1       5.520  -0.806  -0.844  1.00  0.00     0.045 A 
HETATM   22  C14 UNL     1       4.171  -0.589  -0.850  1.00  0.00     0.040 A 
ENDBRANCH  15  16
ENDBRANCH   3  15
TORSDOF 7
