REMARK  4 active torsions:
REMARK  status: ('A' for Active; 'I' for Inactive)
REMARK    1  A    between atoms: O1_2  and  C2_3 
REMARK    2  A    between atoms: C6_9  and  O2_10 
REMARK    3  A    between atoms: O2_10  and  C7_11 
REMARK    4  A    between atoms: C14_20  and  O3_21 
ROOT
HETATM    1  C2  UNL     1       3.142   0.332  -0.479  1.00  0.00     0.081 A 
HETATM    2  C3  UNL     1       3.320  -0.870  -1.002  1.00  0.00     0.067 A 
HETATM    3  C4  UNL     1       1.989  -1.463  -1.049  1.00  0.00     0.074 A 
HETATM    4  N1  UNL     1       1.660  -2.681  -1.503  1.00  0.00    -0.241 NA
HETATM    5  C5  UNL     1       0.382  -3.093  -1.484  1.00  0.00     0.236 A 
HETATM    6  N2  UNL     1      -0.567  -2.272  -1.004  1.00  0.00    -0.217 NA
HETATM    7  C6  UNL     1      -0.306  -1.039  -0.534  1.00  0.00     0.182 A 
HETATM    8  C13 UNL     1       1.018  -0.613  -0.554  1.00  0.00     0.059 A 
HETATM    9  C14 UNL     1       1.727   0.615  -0.152  1.00  0.00     0.217 A 
ENDROOT
BRANCH   7  10
HETATM   10  O2  UNL     1      -1.186  -0.121  -0.024  1.00  0.00    -0.291 OA
BRANCH  10  11
HETATM   11  C7  UNL     1      -2.540  -0.240   0.128  1.00  0.00     0.081 A 
HETATM   12  C8  UNL     1      -3.075   0.927   0.689  1.00  0.00     0.039 A 
HETATM   13  C9  UNL     1      -4.445   1.050   0.943  1.00  0.00     0.025 A 
HETATM   14  C10 UNL     1      -5.303  -0.010   0.633  1.00  0.00     0.049 A 
HETATM   15 BR1  UNL     1      -7.182   0.068   0.943  1.00  0.00    -0.048 Br
HETATM   16  C11 UNL     1      -4.755  -1.148   0.081  1.00  0.00     0.136 A 
HETATM   17  F1  UNL     1      -5.543  -2.217  -0.244  1.00  0.00    -0.205 F 
HETATM   18  C12 UNL     1      -3.406  -1.278  -0.173  1.00  0.00     0.081 A 
ENDBRANCH  10  11
ENDBRANCH   7  10
BRANCH   9  19
HETATM   19  O3  UNL     1       1.615   0.863   1.204  1.00  0.00    -0.379 OA
HETATM   20  C15 UNL     1       1.008   2.119   1.440  1.00  0.00     0.202 C 
ENDBRANCH   9  19
BRANCH   1  21
HETATM   21  O1  UNL     1       4.102   1.304  -0.220  1.00  0.00    -0.357 OA
HETATM   22  C1  UNL     1       4.982   1.211   0.890  1.00  0.00     0.209 C 
ENDBRANCH   1  21
TORSDOF 4
