REMARK  2 active torsions:
REMARK  status: ('A' for Active; 'I' for Inactive)
REMARK    1  A    between atoms: O1_2  and  C2_3 
REMARK    2  A    between atoms: C9_12  and  O2_13 
ROOT
HETATM    1  C2  UNL     1       1.750   0.180   1.031  1.00  0.00     0.104 A 
HETATM    2  C3  UNL     1       1.242   1.355   1.544  1.00  0.00     0.072 A 
HETATM    3  C4  UNL     1      -0.055   1.713   1.242  1.00  0.00     0.075 A 
HETATM    4  N1  UNL     1      -0.422   2.901   1.796  1.00  0.00    -0.241 NA
HETATM    5  C5  UNL     1      -1.655   3.385   1.572  1.00  0.00     0.236 A 
HETATM    6  N2  UNL     1      -2.491   2.691   0.811  1.00  0.00    -0.224 NA
HETATM    7  C6  UNL     1      -2.171   1.500   0.235  1.00  0.00     0.142 A 
HETATM    8  C7  UNL     1      -0.901   0.940   0.434  1.00  0.00     0.052 A 
HETATM    9  C8  UNL     1      -0.340  -0.228  -0.047  1.00  0.00     0.022 A 
HETATM   10  C9  UNL     1       0.953  -0.612   0.230  1.00  0.00     0.113 A 
HETATM   11  C11 UNL     1      -0.811  -1.410  -0.815  1.00  0.00    -0.048 C 
HETATM   12  C12 UNL     1      -0.102  -2.653  -0.480  1.00  0.00     0.049 C 
HETATM   13  C13 UNL     1      -1.824  -1.488  -1.702  1.00  0.00     0.009 C 
HETATM   14  C14 UNL     1      -2.845  -0.628  -2.300  1.00  0.00     0.018 C 
HETATM   15  C15 UNL     1      -3.413   0.439  -1.736  1.00  0.00     0.090 C 
HETATM   16  N3  UNL     1      -3.370   1.189  -0.517  1.00  0.00    -0.350 N 
HETATM   17  H15 UNL     1      -4.262   1.549  -0.150  1.00  0.00     0.166 HD
ENDROOT
BRANCH   1  18
HETATM   18  O1  UNL     1       3.064  -0.170   1.343  1.00  0.00    -0.353 OA
HETATM   19  C1  UNL     1       3.884   0.621   2.152  1.00  0.00     0.210 C 
ENDBRANCH   1  18
BRANCH  10  20
HETATM   20  O2  UNL     1       1.583  -1.766  -0.234  1.00  0.00    -0.352 OA
HETATM   21  C10 UNL     1       2.341  -1.568  -1.463  1.00  0.00     0.210 C 
ENDBRANCH  10  20
TORSDOF 2
