REMARK  7 active torsions:
REMARK  status: ('A' for Active; 'I' for Inactive)
REMARK    1  A    between atoms: O1_2  and  C2_3 
REMARK    2  A    between atoms: C2_3  and  C16_22 
REMARK    3  A    between atoms: C3_4  and  C4_5 
REMARK    4  A    between atoms: C7_10  and  N3_11 
REMARK    5  A    between atoms: N3_11  and  C8_12 
REMARK    6  A    between atoms: C11_15  and  N4_16 
REMARK       I    between atoms: N4_16  and  C12_17 
REMARK    7  A    between atoms: C16_22  and  O3_24 
ROOT
HETATM    1  C4  UNL     1      -1.869   1.549   0.461  1.00  0.00     0.030 A 
HETATM    2  C5  UNL     1      -2.578   2.413   1.262  1.00  0.00     0.133 A 
HETATM    3  N1  UNL     1      -1.963   3.131   2.211  1.00  0.00    -0.253 NA
HETATM    4  C6  UNL     1      -0.637   3.010   2.384  1.00  0.00     0.234 A 
HETATM    5  N2  UNL     1       0.040   2.166   1.598  1.00  0.00    -0.224 NA
HETATM    6  C7  UNL     1      -0.508   1.417   0.631  1.00  0.00     0.141 A 
ENDROOT
BRANCH   6   7
HETATM    7  N3  UNL     1       0.195   0.515  -0.209  1.00  0.00    -0.340 N 
HETATM    8  H7  UNL     1      -0.357  -0.025  -0.911  1.00  0.00     0.167 HD
BRANCH   7   9
HETATM    9  C8  UNL     1       1.573   0.187  -0.269  1.00  0.00     0.033 A 
HETATM   10  C9  UNL     1       2.112  -0.690  -1.187  1.00  0.00     0.032 A 
HETATM   11  C10 UNL     1       3.449  -0.999  -1.224  1.00  0.00     0.032 A 
HETATM   12  C11 UNL     1       4.341  -0.446  -0.335  1.00  0.00     0.034 A 
HETATM   13  C14 UNL     1       3.808   0.428   0.582  1.00  0.00     0.032 A 
HETATM   14  C15 UNL     1       2.471   0.756   0.640  1.00  0.00     0.032 A 
BRANCH  12  15
HETATM   15  N4  UNL     1       5.734  -0.732  -0.323  1.00  0.00    -0.328 N 
HETATM   16  C12 UNL     1       6.469  -1.756   0.377  1.00  0.00     0.218 C 
HETATM   17  C13 UNL     1       7.957  -1.778   0.170  1.00  0.00     0.117 C 
HETATM   18  O2  UNL     1       5.999  -2.638   1.148  1.00  0.00    -0.274 OA
HETATM   19  H10 UNL     1       6.254  -0.072  -0.931  1.00  0.00     0.169 HD
ENDBRANCH  12  15
ENDBRANCH   7   9
ENDBRANCH   6   7
BRANCH   1  20
HETATM   20  C3  UNL     1      -2.644   0.821  -0.510  1.00  0.00     0.051 C 
HETATM   21  C2  UNL     1      -3.784   0.149  -0.598  1.00  0.00     0.075 C 
BRANCH  21  22
HETATM   22  O1  UNL     1      -4.174  -0.432  -1.822  1.00  0.00    -0.358 OA
HETATM   23  C1  UNL     1      -4.543  -1.786  -1.956  1.00  0.00     0.209 C 
ENDBRANCH  21  22
BRANCH  21  24
HETATM   24  C16 UNL     1      -4.876  -0.197   0.341  1.00  0.00     0.170 C 
HETATM   25  C17 UNL     1      -6.209   0.377  -0.090  1.00  0.00     0.046 C 
BRANCH  24  26
HETATM   26  O3  UNL     1      -4.583   0.129   1.671  1.00  0.00    -0.389 OA
HETATM   27  H20 UNL     1      -4.036  -0.518   2.142  1.00  0.00     0.210 HD
ENDBRANCH  24  26
ENDBRANCH  21  24
ENDBRANCH   1  20
TORSDOF 7
