REMARK  6 active torsions:
REMARK  status: ('A' for Active; 'I' for Inactive)
REMARK    1  A    between atoms: O1_2  and  C2_3 
REMARK    2  A    between atoms: C3_4  and  C4_5 
REMARK    3  A    between atoms: C6_9  and  C7_10 
REMARK    4  A    between atoms: C7_10  and  N3_11 
REMARK    5  A    between atoms: C7_10  and  O2_19 
REMARK    6  A    between atoms: N3_11  and  C8_12 
ROOT
HETATM    1  C7  UNL     1      -0.119  -0.231   0.347  1.00  0.00     0.390 C 
ENDROOT
BRANCH   1   2
HETATM    2  C6  UNL     1       0.911  -0.948   1.206  1.00  0.00     0.220 A 
HETATM    3  C4  UNL     1       2.249  -0.387   0.988  1.00  0.00     0.067 A 
HETATM    4  N1  UNL     1       2.629   0.211   2.088  1.00  0.00    -0.244 NA
HETATM    5  C5  UNL     1       1.578   0.071   3.056  1.00  0.00     0.228 A 
HETATM    6  N2  UNL     1       0.597  -0.586   2.564  1.00  0.00    -0.267 NA
BRANCH   3   7
HETATM    7  C3  UNL     1       3.167  -0.375  -0.145  1.00  0.00     0.053 C 
HETATM    8  C2  UNL     1       4.334   0.213  -0.071  1.00  0.00     0.136 C 
BRANCH   8   9
HETATM    9  O1  UNL     1       5.228   0.239  -1.134  1.00  0.00    -0.368 OA
HETATM   10  C1  UNL     1       6.605   0.032  -0.943  1.00  0.00     0.208 C 
ENDBRANCH   8   9
ENDBRANCH   3   7
ENDBRANCH   1   2
BRANCH   1  11
HETATM   11  N3  UNL     1      -1.447  -0.722   0.708  1.00  0.00     0.141 N 
HETATM   12  H9  UNL     1      -1.454  -1.742   0.629  1.00  0.00     0.322 HD
BRANCH  11  13
HETATM   13  C8  UNL     1      -2.404  -0.019  -0.118  1.00  0.00     0.352 A 
HETATM   14  N4  UNL     1      -2.351   1.380   0.260  1.00  0.00    -0.367 N 
HETATM   15  C9  UNL     1      -3.494   2.084   0.769  1.00  0.00     0.085 A 
HETATM   16  H11 UNL     1      -1.569   2.044   0.231  1.00  0.00     0.161 HD
HETATM   17  C10 UNL     1      -4.691   1.522   0.932  1.00  0.00     0.017 A 
HETATM   18  C11 UNL     1      -4.857   0.119   0.578  1.00  0.00     0.008 A 
HETATM   19  C12 UNL     1      -3.793  -0.516   0.112  1.00  0.00    -0.032 A 
HETATM   20  C13 UNL     1      -4.000  -1.969  -0.248  1.00  0.00     0.048 C 
ENDBRANCH  11  13
ENDBRANCH   1  11
BRANCH   1  21
HETATM   21  O2  UNL     1       0.022  -0.454  -0.991  1.00  0.00    -0.360 OA
HETATM   22  C14 UNL     1       0.257   0.623  -1.795  1.00  0.00     0.204 C 
ENDBRANCH   1  21
TORSDOF 6
