REMARK  7 active torsions:
REMARK  status: ('A' for Active; 'I' for Inactive)
REMARK    1  A    between atoms: O1_2  and  C2_3 
REMARK    2  A    between atoms: C2_3  and  C3_5 
REMARK    3  A    between atoms: C3_5  and  O3_24 
REMARK    4  A    between atoms: C4_6  and  C5_7 
REMARK    5  A    between atoms: C8_12  and  N3_13 
REMARK    6  A    between atoms: N3_13  and  C9_14 
REMARK    7  A    between atoms: C12_17  and  N4_18 
REMARK       I    between atoms: N4_18  and  C13_19 
ROOT
HETATM    1  C5  UNL     1      -1.780   0.890  -0.574  1.00  0.00     0.030 A 
HETATM    2  C6  UNL     1      -2.274   1.934  -1.343  1.00  0.00     0.133 A 
HETATM    3  N1  UNL     1      -1.791   3.198  -1.220  1.00  0.00    -0.253 NA
HETATM    4  C7  UNL     1      -0.810   3.475  -0.342  1.00  0.00     0.234 A 
HETATM    5  N2  UNL     1      -0.287   2.484   0.440  1.00  0.00    -0.224 NA
HETATM    6  C8  UNL     1      -0.778   1.213   0.313  1.00  0.00     0.141 A 
ENDROOT
BRANCH   6   7
HETATM    7  N3  UNL     1      -0.068   0.377   1.218  1.00  0.00    -0.340 N 
HETATM    8  H8  UNL     1      -0.511  -0.104   2.033  1.00  0.00     0.167 HD
BRANCH   7   9
HETATM    9  C9  UNL     1       1.341   0.190   0.986  1.00  0.00     0.033 A 
HETATM   10  C10 UNL     1       1.911   0.755  -0.145  1.00  0.00     0.032 A 
HETATM   11  C11 UNL     1       3.289   0.553  -0.294  1.00  0.00     0.032 A 
HETATM   12  C12 UNL     1       4.063  -0.159   0.609  1.00  0.00     0.034 A 
HETATM   13  C15 UNL     1       3.463  -0.708   1.724  1.00  0.00     0.032 A 
HETATM   14  C16 UNL     1       2.100  -0.526   1.900  1.00  0.00     0.032 A 
BRANCH  12  15
HETATM   15  N4  UNL     1       5.437  -0.233   0.262  1.00  0.00    -0.328 N 
HETATM   16  C13 UNL     1       6.278  -1.101  -0.490  1.00  0.00     0.218 C 
HETATM   17  C14 UNL     1       7.709  -0.686  -0.529  1.00  0.00     0.117 C 
HETATM   18  O2  UNL     1       5.700  -2.076  -1.004  1.00  0.00    -0.274 OA
HETATM   19  H11 UNL     1       5.795   0.628   0.751  1.00  0.00     0.169 HD
ENDBRANCH  12  15
ENDBRANCH   7   9
ENDBRANCH   6   7
BRANCH   1  20
HETATM   20  C4  UNL     1      -2.228  -0.486  -0.582  1.00  0.00     0.054 C 
HETATM   21  C3  UNL     1      -3.445  -1.011  -0.534  1.00  0.00     0.106 C 
BRANCH  21  22
HETATM   22  C2  UNL     1      -4.839  -0.511  -0.450  1.00  0.00     0.364 C 
HETATM   23  F1  UNL     1      -5.523  -0.855  -1.600  1.00  0.00    -0.212 F 
BRANCH  22  24
HETATM   24  O1  UNL     1      -4.912   0.869  -0.278  1.00  0.00    -0.356 OA
HETATM   25  C1  UNL     1      -5.621   1.209   0.871  1.00  0.00     0.205 C 
ENDBRANCH  22  24
ENDBRANCH  21  22
BRANCH  21  26
HETATM   26  O3  UNL     1      -3.586  -2.394  -0.567  1.00  0.00    -0.355 OA
HETATM   27  C17 UNL     1      -3.866  -3.161   0.566  1.00  0.00     0.209 C 
ENDBRANCH  21  26
ENDBRANCH   1  20
TORSDOF 7
