REMARK  5 active torsions:
REMARK  status: ('A' for Active; 'I' for Inactive)
REMARK    1  A    between atoms: O1_2  and  C2_3 
REMARK    2  A    between atoms: N1_7  and  C6_8 
REMARK    3  A    between atoms: N2_9  and  C7_10 
REMARK    4  A    between atoms: C10_13  and  N3_14 
REMARK       I    between atoms: N3_14  and  C11_15 
REMARK    5  A    between atoms: C16_21  and  O3_22 
ROOT
HETATM    1  C6  UNL     1      -0.062   0.010   2.002  1.00  0.00     0.233 C 
HETATM    2  N2  UNL     1       1.158   0.428   2.051  1.00  0.00    -0.242 NA
ENDROOT
BRANCH   1   3
HETATM    3  N1  UNL     1      -0.713  -0.774   1.010  1.00  0.00    -0.246 NA
HETATM    4  C5  UNL     1      -1.870  -0.535   0.550  1.00  0.00     0.042 A 
HETATM    5  C4  UNL     1      -2.485  -1.402  -0.489  1.00  0.00     0.089 A 
HETATM    6  C15 UNL     1      -2.580   0.628   1.081  1.00  0.00     0.067 A 
HETATM    7  C3  UNL     1      -3.825  -0.935  -0.869  1.00  0.00     0.019 A 
HETATM    8  C2  UNL     1      -4.484   0.126  -0.391  1.00  0.00     0.098 A 
HETATM    9  C16 UNL     1      -3.800   0.933   0.639  1.00  0.00     0.103 A 
BRANCH   8  10
HETATM   10  O1  UNL     1      -5.749   0.579  -0.740  1.00  0.00    -0.353 OA
HETATM   11  C1  UNL     1      -6.444  -0.043  -1.790  1.00  0.00     0.210 C 
ENDBRANCH   8  10
BRANCH   9  12
HETATM   12  O3  UNL     1      -4.410   2.065   1.200  1.00  0.00    -0.353 OA
HETATM   13  C17 UNL     1      -5.159   1.876   2.363  1.00  0.00     0.210 C 
ENDBRANCH   9  12
ENDBRANCH   1   3
BRANCH   2  14
HETATM   14  C7  UNL     1       2.132   0.170   1.072  1.00  0.00     0.058 A 
HETATM   15  C8  UNL     1       2.348   0.805  -0.133  1.00  0.00     0.034 A 
HETATM   16  C9  UNL     1       3.371   0.397  -0.965  1.00  0.00     0.032 A 
HETATM   17  C10 UNL     1       4.187  -0.651  -0.595  1.00  0.00     0.034 A 
HETATM   18  C13 UNL     1       4.000  -1.319   0.618  1.00  0.00     0.032 A 
HETATM   19  C14 UNL     1       2.956  -0.884   1.439  1.00  0.00     0.034 A 
BRANCH  17  20
HETATM   20  N3  UNL     1       5.250  -1.091  -1.437  1.00  0.00    -0.328 N 
HETATM   21  C11 UNL     1       6.453  -0.366  -1.110  1.00  0.00     0.218 C 
HETATM   22  C12 UNL     1       7.754  -0.571  -1.792  1.00  0.00     0.117 C 
HETATM   23  O2  UNL     1       6.480   0.508  -0.204  1.00  0.00    -0.274 OA
HETATM   24  H10 UNL     1       5.336  -1.793  -2.203  1.00  0.00     0.169 HD
ENDBRANCH  17  20
ENDBRANCH   2  14
TORSDOF 5
