REMARK  11 active torsions:
REMARK  status: ('A' for Active; 'I' for Inactive)
REMARK    1  A    between atoms: C2_2  and  C3_3 
REMARK    2  A    between atoms: C3_3  and  N4_20 
REMARK    3  A    between atoms: C4_4  and  C5_5 
REMARK    4  A    between atoms: C5_5  and  C6_6 
REMARK    5  A    between atoms: C6_6  and  C7_7 
REMARK    6  A    between atoms: C7_7  and  N1_15 
REMARK    7  A    between atoms: C8_8  and  C9_9 
REMARK    8  A    between atoms: C10_10  and  C11_11 
REMARK    9  A    between atoms: C11_11  and  P1_12 
REMARK   10  A    between atoms: N1_15  and  C14_16 
REMARK   11  A    between atoms: C15_18  and  N3_19 
REMARK       I    between atoms: N4_20  and  C16_21 
ROOT
HETATM    1  C7  UNL     1       0.535  -0.239   1.350  1.00  0.00     0.038 C 
HETATM    2  C8  UNL     1       1.484  -0.187   2.218  1.00  0.00     0.027 C 
ENDROOT
BRANCH   1   3
HETATM    3  C6  UNL     1      -0.677  -0.220   0.580  1.00  0.00     0.032 C 
BRANCH   3   4
HETATM    4  C5  UNL     1      -1.683  -0.245  -0.226  1.00  0.00     0.060 C 
BRANCH   4   5
HETATM    5  C4  UNL     1      -1.763  -0.568  -1.636  1.00  0.00     0.008 C 
HETATM    6  C3  UNL     1      -3.091  -0.327  -1.594  1.00  0.00     0.027 C 
BRANCH   6   7
HETATM    7  C2  UNL     1      -3.548   0.066  -0.260  1.00  0.00     0.003 C 
HETATM    8  C1  UNL     1      -4.658   0.425   0.410  1.00  0.00     0.033 C 
ENDBRANCH   6   7
BRANCH   6   9
HETATM    9  N4  UNL     1      -4.203  -0.339  -2.472  1.00  0.00    -0.328 N 
HETATM   10  C16 UNL     1      -5.469  -0.936  -2.696  1.00  0.00     0.218 C 
HETATM   11  C17 UNL     1      -6.120  -0.414  -3.914  1.00  0.00     0.117 C 
HETATM   12  O1  UNL     1      -5.744  -1.766  -1.812  1.00  0.00    -0.274 OA
HETATM   13  H16 UNL     1      -3.728   0.395  -3.068  1.00  0.00     0.169 HD
ENDBRANCH   6   9
ENDBRANCH   4   5
ENDBRANCH   3   4
ENDBRANCH   1   3
BRANCH   1  14
HETATM   14  N1  UNL     1       1.039  -0.619   0.041  1.00  0.00    -0.231 NA
BRANCH  14  15
HETATM   15  C14 UNL     1       1.731   0.281  -0.579  1.00  0.00     0.198 A 
HETATM   16  N2  UNL     1       2.409   1.452  -0.948  1.00  0.00    -0.204 NA
HETATM   17  C15 UNL     1       2.392   0.376  -1.786  1.00  0.00     0.172 A 
BRANCH  17  18
HETATM   18  N3  UNL     1       2.906   0.019  -3.075  1.00  0.00    -0.381 N 
HETATM   19  H14 UNL     1       2.656   0.579  -3.933  1.00  0.00     0.157 HD
HETATM   20  H15 UNL     1       3.506  -0.821  -2.942  1.00  0.00     0.157 HD
ENDBRANCH  17  18
ENDBRANCH  14  15
ENDBRANCH   1  14
BRANCH   2  21
HETATM   21  C9  UNL     1       2.857  -0.513   1.881  1.00  0.00    -0.002 C 
HETATM   22  C10 UNL     1       3.640  -0.396   2.920  1.00  0.00    -0.022 C 
BRANCH  22  23
HETATM   23  C11 UNL     1       5.087  -0.688   2.776  1.00  0.00     0.059 C 
BRANCH  23  24
HETATM   24  P1  UNL     1       6.019   0.789   3.205  1.00  0.00    -0.112 P 
HETATM   25  C12 UNL     1       6.632   1.707   2.114  1.00  0.00     0.030 A 
HETATM   26  C13 UNL     1       5.192   2.322   2.789  1.00  0.00    -0.009 A 
HETATM   27  H12 UNL     1       6.516   0.799   4.532  1.00  0.00     0.058 HD
ENDBRANCH  23  24
ENDBRANCH  22  23
ENDBRANCH   2  21
TORSDOF 11
