REMARK  6 active torsions:
REMARK  status: ('A' for Active; 'I' for Inactive)
REMARK    1  A    between atoms: O1_2  and  C2_3 
REMARK    2  A    between atoms: C6_9  and  N3_10 
REMARK    3  A    between atoms: N3_10  and  C7_11 
REMARK    4  A    between atoms: C10_14  and  N4_15 
REMARK    5  A    between atoms: N4_15  and  C11_16 
REMARK    6  A    between atoms: C17_23  and  O2_24 
ROOT
HETATM    1  C2  UNL     1      -5.038  -0.159   0.220  1.00  0.00     0.103 A 
HETATM    2  C3  UNL     1      -4.568  -1.437   0.435  1.00  0.00     0.072 A 
HETATM    3  C4  UNL     1      -3.216  -1.655   0.418  1.00  0.00     0.075 A 
HETATM    4  N1  UNL     1      -2.778  -2.930   0.635  1.00  0.00    -0.241 NA
HETATM    5  C5  UNL     1      -1.453  -3.201   0.631  1.00  0.00     0.236 A 
HETATM    6  N2  UNL     1      -0.536  -2.254   0.420  1.00  0.00    -0.224 NA
HETATM    7  C6  UNL     1      -0.926  -0.994   0.203  1.00  0.00     0.142 A 
HETATM    8  C15 UNL     1      -2.263  -0.685   0.201  1.00  0.00     0.042 A 
HETATM    9  C16 UNL     1      -2.803   0.558  -0.004  1.00  0.00     0.057 A 
HETATM   10  C17 UNL     1      -4.146   0.866  -0.005  1.00  0.00     0.102 A 
ENDROOT
BRANCH   7  11
HETATM   11  N3  UNL     1       0.003   0.052  -0.026  1.00  0.00    -0.340 N 
HETATM   12  H6  UNL     1      -0.291   1.024  -0.239  1.00  0.00     0.167 HD
BRANCH  11  13
HETATM   13  C7  UNL     1       1.419   0.018  -0.016  1.00  0.00     0.033 A 
HETATM   14  C8  UNL     1       2.251   1.014  -0.511  1.00  0.00     0.031 A 
HETATM   15  C9  UNL     1       3.621   0.955  -0.476  1.00  0.00     0.031 A 
HETATM   16  C10 UNL     1       4.266  -0.126   0.066  1.00  0.00     0.029 A 
HETATM   17  C13 UNL     1       3.487  -1.137   0.569  1.00  0.00     0.031 A 
HETATM   18  C14 UNL     1       2.106  -1.049   0.521  1.00  0.00     0.031 A 
BRANCH  16  19
HETATM   19  N4  UNL     1       5.680  -0.187   0.103  1.00  0.00    -0.373 N 
HETATM   20  H9  UNL     1       6.134  -1.045   0.534  1.00  0.00     0.161 HD
BRANCH  19  21
HETATM   21  C11 UNL     1       6.504   0.880  -0.428  1.00  0.00     0.175 C 
HETATM   22  C12 UNL     1       7.964   0.515  -0.237  1.00  0.00     0.049 C 
HETATM   23 CL1  UNL     1       6.212   2.357   0.508  1.00  0.00    -0.103 Cl
ENDBRANCH  19  21
ENDBRANCH  16  19
ENDBRANCH  11  13
ENDBRANCH   7  11
BRANCH  10  24
HETATM   24  O2  UNL     1      -4.643   2.141  -0.217  1.00  0.00    -0.353 OA
HETATM   25  C18 UNL     1      -3.879   3.284  -0.458  1.00  0.00     0.210 C 
ENDBRANCH  10  24
BRANCH   1  26
HETATM   26  O1  UNL     1      -6.412   0.078   0.234  1.00  0.00    -0.353 OA
HETATM   27  C1  UNL     1      -7.340  -0.959   0.463  1.00  0.00     0.210 C 
ENDBRANCH   1  26
TORSDOF 6
