REMARK  7 active torsions:
REMARK  status: ('A' for Active; 'I' for Inactive)
REMARK    1  A    between atoms: C2_2  and  O1_3 
REMARK    2  A    between atoms: O1_3  and  C3_4 
REMARK    3  A    between atoms: C3_4  and  C4_5 
REMARK    4  A    between atoms: C4_5  and  C5_6 
REMARK    5  A    between atoms: C5_6  and  C6_7 
REMARK    6  A    between atoms: C10_13  and  C11_14 
REMARK    7  A    between atoms: C14_17  and  N3_18 
REMARK       I    between atoms: N3_18  and  C15_19 
ROOT
HETATM    1  C6  UNL     1      -1.224   0.301   1.382  1.00  0.00     0.018 A 
HETATM    2  C7  UNL     1      -2.222   0.832   2.161  1.00  0.00     0.044 A 
HETATM    3  C8  UNL     1      -3.569   0.219   2.251  1.00  0.00     0.071 C 
HETATM    4  N1  UNL     1      -2.090   1.905   2.960  1.00  0.00    -0.246 NA
HETATM    5  C9  UNL     1      -0.945   2.564   3.069  1.00  0.00     0.234 A 
HETATM    6  N2  UNL     1       0.084   2.109   2.342  1.00  0.00    -0.240 NA
HETATM    7  C10 UNL     1      -0.068   1.025   1.539  1.00  0.00     0.080 A 
ENDROOT
BRANCH   7   8
HETATM    8  C11 UNL     1       1.136   0.667   0.796  1.00  0.00    -0.006 A 
HETATM    9  C12 UNL     1       1.335   0.404  -0.552  1.00  0.00     0.016 A 
HETATM   10  C13 UNL     1       2.574   0.065  -1.025  1.00  0.00     0.030 A 
HETATM   11  C14 UNL     1       3.678  -0.039  -0.235  1.00  0.00     0.034 A 
HETATM   12  C17 UNL     1       3.534   0.211   1.104  1.00  0.00     0.030 A 
HETATM   13  C18 UNL     1       2.289   0.553   1.586  1.00  0.00     0.016 A 
BRANCH  11  14
HETATM   14  N3  UNL     1       4.938  -0.397  -0.787  1.00  0.00    -0.328 N 
HETATM   15  C15 UNL     1       5.977   0.417  -1.318  1.00  0.00     0.218 C 
HETATM   16  C16 UNL     1       7.211  -0.225  -1.838  1.00  0.00     0.117 C 
HETATM   17  O2  UNL     1       5.864   1.669  -1.352  1.00  0.00    -0.274 OA
HETATM   18  H16 UNL     1       5.007  -1.452  -0.746  1.00  0.00     0.169 HD
ENDBRANCH  11  14
ENDBRANCH   7   8
BRANCH   1  19
HETATM   19  C5  UNL     1      -1.297  -0.779   0.439  1.00  0.00     0.014 C 
BRANCH  19  20
HETATM   20  C4  UNL     1      -2.340  -1.307  -0.192  1.00  0.00     0.000 C 
BRANCH  20  21
HETATM   21  C3  UNL     1      -3.518  -1.827  -0.841  1.00  0.00     0.195 C 
BRANCH  21  22
HETATM   22  O1  UNL     1      -4.724  -1.170  -0.515  1.00  0.00    -0.388 OA
BRANCH  22  23
HETATM   23  C2  UNL     1      -4.693   0.147  -0.977  1.00  0.00     0.163 C 
HETATM   24  C1  UNL     1      -4.553   0.199  -2.487  1.00  0.00     0.033 C 
ENDBRANCH  22  23
ENDBRANCH  21  22
ENDBRANCH  20  21
ENDBRANCH  19  20
ENDBRANCH   1  19
TORSDOF 7
