REMARK  4 active torsions:
REMARK  status: ('A' for Active; 'I' for Inactive)
REMARK    1  A    between atoms: N1_3  and  C3_4 
REMARK    2  A    between atoms: C6_7  and  C7_8 
REMARK    3  A    between atoms: C10_11  and  O1_12 
REMARK    4  A    between atoms: N4_18  and  O2_19 
ROOT
HETATM    1  C3  UNL     1       3.075  -0.453  -0.003  1.00  0.00     0.165 C 
HETATM    2  C4  UNL     1       2.250  -0.326   1.041  1.00  0.00     0.060 C 
HETATM    3  C5  UNL     1       0.798  -0.047   0.996  1.00  0.00     0.036 C 
HETATM    4  C6  UNL     1      -0.076  -0.092   0.016  1.00  0.00     0.066 C 
HETATM    5  N4  UNL     1       0.300  -0.460  -1.297  1.00  0.00    -0.234 N 
HETATM    6  C15 UNL     1       1.527  -0.739  -2.015  1.00  0.00     0.333 C 
HETATM    7  O3  UNL     1       2.690  -0.338  -1.352  1.00  0.00    -0.312 OA
ENDROOT
BRANCH   4   8
HETATM    8  C7  UNL     1      -1.463   0.240   0.263  1.00  0.00    -0.023 A 
HETATM    9  C8  UNL     1      -1.970   0.604   1.430  1.00  0.00     0.027 A 
HETATM   10  C9  UNL     1      -3.394   0.867   1.337  1.00  0.00     0.042 A 
HETATM   11  C10 UNL     1      -4.439   1.259   2.146  1.00  0.00     0.175 A 
HETATM   12  C12 UNL     1      -3.727   0.636   0.015  1.00  0.00     0.054 A 
HETATM   13  N2  UNL     1      -5.688   1.399   1.657  1.00  0.00    -0.217 NA
HETATM   14  C11 UNL     1      -5.971   1.163   0.359  1.00  0.00     0.236 A 
HETATM   15  N3  UNL     1      -4.979   0.774  -0.488  1.00  0.00    -0.245 NA
HETATM   16  C13 UNL     1      -2.519   0.214  -0.775  1.00  0.00     0.101 A 
BRANCH  11  17
HETATM   17  O1  UNL     1      -4.124   1.497   3.483  1.00  0.00    -0.344 OA
HETATM   18  H8  UNL     1      -4.569   2.320   3.900  1.00  0.00     0.219 HD
ENDBRANCH  11  17
ENDBRANCH   4   8
BRANCH   5  19
HETATM   19  O2  UNL     1      -0.716  -0.615  -2.192  1.00  0.00    -0.281 OA
HETATM   20  C14 UNL     1      -0.595  -1.945  -2.658  1.00  0.00     0.238 C 
ENDBRANCH   5  19
BRANCH   1  21
HETATM   21  N1  UNL     1       4.417  -0.722   0.404  1.00  0.00    -0.242 NA
HETATM   22  C2  UNL     1       5.310   0.203   0.500  1.00  0.00     0.088 C 
HETATM   23  C1  UNL     1       6.755   0.119   0.906  1.00  0.00     0.057 C 
ENDBRANCH   1  21
TORSDOF 4
