REMARK  6 active torsions:
REMARK  status: ('A' for Active; 'I' for Inactive)
REMARK    1  A    between atoms: C2_2  and  C3_4 
REMARK    2  A    between atoms: C10_13  and  C11_14 
REMARK    3  A    between atoms: C11_14  and  C12_15 
REMARK    4  A    between atoms: C12_15  and  C14_17 
REMARK    5  A    between atoms: C14_17  and  O2_18 
REMARK    6  A    between atoms: C16_20  and  N3_21 
ROOT
HETATM    1  C3  UNL     1       1.782   0.738  -0.779  1.00  0.00     0.121 C 
HETATM    2  C4  UNL     1       0.917  -0.347  -1.368  1.00  0.00    -0.013 C 
HETATM    3  C5  UNL     1       0.168  -0.916  -2.384  1.00  0.00    -0.027 C 
HETATM    4  C6  UNL     1      -0.409  -2.218  -1.817  1.00  0.00     0.068 C 
HETATM    5  C7  UNL     1      -0.421  -1.893  -0.300  1.00  0.00     0.119 A 
HETATM    6  N1  UNL     1       0.089  -2.479   0.667  1.00  0.00    -0.264 NA
HETATM    7  C8  UNL     1       0.481  -2.507   1.882  1.00  0.00     0.223 A 
HETATM    8  N2  UNL     1       0.067  -1.183   2.011  1.00  0.00    -0.261 NA
HETATM    9  C9  UNL     1      -0.485  -0.643   0.897  1.00  0.00     0.132 A 
HETATM   10  C10 UNL     1      -0.934  -0.566  -0.375  1.00  0.00    -0.009 A 
HETATM   11  C15 UNL     1       0.081   0.697   1.424  1.00  0.00     0.034 C 
HETATM   12  C16 UNL     1       1.087   1.150   0.541  1.00  0.00    -0.003 C 
ENDROOT
BRANCH  10  13
HETATM   13  C11 UNL     1      -1.445   0.756  -0.431  1.00  0.00     0.013 C 
BRANCH  13  14
HETATM   14  C12 UNL     1      -2.672   0.951   0.005  1.00  0.00    -0.060 C 
HETATM   15  C13 UNL     1      -3.207   2.322  -0.042  1.00  0.00     0.045 C 
BRANCH  14  16
HETATM   16  C14 UNL     1      -3.634  -0.096   0.487  1.00  0.00     0.198 C 
BRANCH  16  17
HETATM   17  O2  UNL     1      -3.074  -1.370   0.419  1.00  0.00    -0.397 OA
HETATM   18  H16 UNL     1      -3.407  -1.774  -0.452  1.00  0.00     0.209 HD
ENDBRANCH  16  17
ENDBRANCH  14  16
ENDBRANCH  13  14
ENDBRANCH  10  13
BRANCH  12  19
HETATM   19  N3  UNL     1       1.699   2.407   0.930  1.00  0.00    -0.305 N 
HETATM   20  H18 UNL     1       2.469   2.177   1.629  1.00  0.00     0.124 HD
HETATM   21  H19 UNL     1       2.445   2.144   1.615  1.00  0.00     0.124 HD
ENDBRANCH  12  19
BRANCH   1  22
HETATM   22  C2  UNL     1       3.156   0.412  -0.523  1.00  0.00     0.136 C 
HETATM   23  C1  UNL     1       4.205  -0.299   0.203  1.00  0.00     0.092 C 
HETATM   24  O1  UNL     1       3.829   1.085  -1.352  1.00  0.00    -0.297 OA
ENDBRANCH   1  22
TORSDOF 6
