REMARK  4 active torsions:
REMARK  status: ('A' for Active; 'I' for Inactive)
REMARK    1  A    between atoms: O1_2  and  C2_3 
REMARK    2  A    between atoms: C6_9  and  O2_10 
REMARK    3  A    between atoms: O2_10  and  C7_11 
REMARK    4  A    between atoms: C11_16  and  N3_17 
REMARK       I    between atoms: N3_17  and  C12_18 
ROOT
HETATM    1  O2  UNL     1       0.239  -0.599   0.722  1.00  0.00    -0.303 OA
ENDROOT
BRANCH   1   2
HETATM    2  C6  UNL     1       1.370  -0.153   1.345  1.00  0.00     0.182 A 
HETATM    3  N2  UNL     1       1.524   0.295   2.596  1.00  0.00    -0.217 NA
HETATM    4  C5  UNL     1       2.730   0.700   3.046  1.00  0.00     0.236 A 
HETATM    5  N1  UNL     1       3.834   0.681   2.282  1.00  0.00    -0.241 NA
HETATM    6  C4  UNL     1       3.724   0.241   1.025  1.00  0.00     0.075 A 
HETATM    7  C3  UNL     1       4.866   0.227   0.252  1.00  0.00     0.070 A 
HETATM    8  C15 UNL     1       2.491  -0.187   0.526  1.00  0.00     0.047 A 
HETATM    9  C2  UNL     1       4.826  -0.215  -1.054  1.00  0.00     0.076 A 
HETATM   10  C17 UNL     1       3.604  -0.646  -1.571  1.00  0.00    -0.028 A 
HETATM   11  C16 UNL     1       2.475  -0.629  -0.798  1.00  0.00     0.027 A 
HETATM   12  C18 UNL     1       3.433  -1.148  -2.977  1.00  0.00     0.051 C 
BRANCH   9  13
HETATM   13  O1  UNL     1       5.862  -0.298  -1.967  1.00  0.00    -0.355 OA
HETATM   14  C1  UNL     1       7.192   0.060  -1.738  1.00  0.00     0.210 C 
ENDBRANCH   9  13
ENDBRANCH   1   2
BRANCH   1  15
HETATM   15  C7  UNL     1      -1.023  -0.691   1.254  1.00  0.00     0.155 C 
HETATM   16  C8  UNL     1      -2.020  -0.074   0.656  1.00  0.00    -0.011 A 
HETATM   17  C9  UNL     1      -1.798   0.697  -0.552  1.00  0.00     0.014 A 
HETATM   18  C14 UNL     1      -3.368  -0.147   1.189  1.00  0.00     0.043 A 
HETATM   19  C10 UNL     1      -2.648   1.379  -1.292  1.00  0.00     0.011 A 
HETATM   20  P1  UNL     1      -4.399   1.400  -0.772  1.00  0.00    -0.053 P 
HETATM   21  C11 UNL     1      -4.488   0.389   0.749  1.00  0.00     0.040 A 
HETATM   22  H9  UNL     1      -5.283   0.941  -1.814  1.00  0.00     0.068 HD
BRANCH  21  23
HETATM   23  N3  UNL     1      -5.726   0.212   1.401  1.00  0.00    -0.327 N 
HETATM   24  C12 UNL     1      -6.755  -0.417   0.615  1.00  0.00     0.218 C 
HETATM   25  C13 UNL     1      -8.079  -0.613   1.297  1.00  0.00     0.117 C 
HETATM   26  O3  UNL     1      -6.607  -0.801  -0.583  1.00  0.00    -0.274 OA
HETATM   27  H10 UNL     1      -5.927   0.501   2.385  1.00  0.00     0.169 HD
ENDBRANCH  21  23
ENDBRANCH   1  15
TORSDOF 4
