REMARK  5 active torsions:
REMARK  status: ('A' for Active; 'I' for Inactive)
REMARK    1  A    between atoms: C2_2  and  C3_3 
REMARK       I    between atoms: C3_3  and  N1_5 
REMARK    2  A    between atoms: N1_5  and  C4_6 
REMARK    3  A    between atoms: C7_9  and  O2_10 
REMARK    4  A    between atoms: O2_10  and  C8_11 
REMARK    5  A    between atoms: C13_19  and  O4_20 
ROOT
HETATM    1  O2  UNL     1      -1.140   1.676   0.477  1.00  0.00    -0.320 OA
ENDROOT
BRANCH   1   2
HETATM    2  C7  UNL     1       0.111   1.103   0.465  1.00  0.00     0.072 A 
HETATM    3  C6  UNL     1       0.877   1.781  -0.478  1.00  0.00     0.039 A 
HETATM    4  C5  UNL     1       2.210   1.446  -0.741  1.00  0.00     0.032 A 
HETATM    5  C4  UNL     1       2.796   0.396  -0.036  1.00  0.00     0.034 A 
HETATM    6  C17 UNL     1       2.026  -0.264   0.892  1.00  0.00     0.032 A 
HETATM    7  C16 UNL     1       0.715   0.074   1.143  1.00  0.00     0.039 A 
BRANCH   5   8
HETATM    8  N1  UNL     1       4.131  -0.060  -0.191  1.00  0.00    -0.327 N 
HETATM    9  C3  UNL     1       4.642  -1.058  -1.069  1.00  0.00     0.221 C 
HETATM   10  O1  UNL     1       3.807  -1.620  -1.815  1.00  0.00    -0.273 OA
HETATM   11  H6  UNL     1       4.601   0.541   0.513  1.00  0.00     0.169 HD
BRANCH   9  12
HETATM   12  C2  UNL     1       6.120  -1.169  -0.849  1.00  0.00     0.098 C 
HETATM   13  C1  UNL     1       6.649  -2.232  -1.788  1.00  0.00     0.014 C 
ENDBRANCH   9  12
ENDBRANCH   5   8
ENDBRANCH   1   2
BRANCH   1  14
HETATM   14  C8  UNL     1      -2.139   1.208   1.329  1.00  0.00     0.290 A 
HETATM   15  N2  UNL     1      -2.495   2.306   2.220  1.00  0.00    -0.246 NA
HETATM   16  C9  UNL     1      -3.656   2.813   2.320  1.00  0.00     0.230 A 
HETATM   17  N3  UNL     1      -4.812   2.410   1.592  1.00  0.00    -0.244 NA
HETATM   18  C10 UNL     1      -4.679   1.456   0.764  1.00  0.00     0.072 A 
HETATM   19  C11 UNL     1      -5.872   1.014  -0.011  1.00  0.00     0.228 C 
HETATM   20  C15 UNL     1      -3.374   0.822   0.593  1.00  0.00     0.050 A 
HETATM   21  O3  UNL     1      -5.689  -0.314  -0.343  1.00  0.00    -0.379 OA
HETATM   22  C12 UNL     1      -4.511  -0.558  -1.020  1.00  0.00     0.233 C 
HETATM   23  C13 UNL     1      -3.292  -0.180  -0.294  1.00  0.00     0.082 C 
BRANCH  23  24
HETATM   24  O4  UNL     1      -2.118  -0.880  -0.567  1.00  0.00    -0.357 OA
HETATM   25  C14 UNL     1      -1.765  -2.113  -0.007  1.00  0.00     0.209 C 
ENDBRANCH  23  24
ENDBRANCH   1  14
TORSDOF 5
