REMARK  6 active torsions:
REMARK  status: ('A' for Active; 'I' for Inactive)
REMARK    1  A    between atoms: O1_2  and  C2_3 
REMARK    2  A    between atoms: C2_3  and  N1_4 
REMARK    3  A    between atoms: N1_4  and  C3_5 
REMARK    4  A    between atoms: C6_8  and  N2_9 
REMARK    5  A    between atoms: C10_13  and  O2_14 
REMARK    6  A    between atoms: C12_16  and  O3_17 
ROOT
HETATM    1  N2  UNL     1       0.094  -0.214   0.163  1.00  0.00    -0.307 N 
HETATM    2  C7  UNL     1      -0.447   0.762   1.028  1.00  0.00     0.149 C 
HETATM    3  C8  UNL     1      -0.996   1.999   0.534  1.00  0.00     0.019 C 
HETATM    4  C9  UNL     1      -2.372   2.005   0.566  1.00  0.00     0.112 C 
HETATM    5  C10 UNL     1      -3.688   1.309   0.855  1.00  0.00     0.082 C 
HETATM    6  C12 UNL     1      -4.428   0.201   1.236  1.00  0.00     0.140 C 
HETATM    7  C14 UNL     1      -3.845  -1.147   1.558  1.00  0.00     0.193 C 
HETATM    8  N3  UNL     1      -2.518  -1.304   1.266  1.00  0.00    -0.286 NA
HETATM    9  C15 UNL     1      -1.398  -1.752   1.624  1.00  0.00     0.190 C 
HETATM   10  N4  UNL     1      -1.025  -1.147   0.336  1.00  0.00    -0.197 NA
HETATM   11  H22 UNL     1      -0.363  -1.071   1.198  1.00  0.00     0.153 HD
ENDROOT
BRANCH   1  12
HETATM   12  C6  UNL     1       1.300  -0.169  -0.556  1.00  0.00     0.046 A 
HETATM   13  C5  UNL     1       1.450   0.185  -1.870  1.00  0.00     0.033 A 
HETATM   14  C4  UNL     1       2.719   0.168  -2.407  1.00  0.00     0.031 A 
HETATM   15  C3  UNL     1       3.815  -0.204  -1.614  1.00  0.00     0.029 A 
HETATM   16  C17 UNL     1       3.660  -0.565  -0.270  1.00  0.00     0.031 A 
HETATM   17  C16 UNL     1       2.374  -0.545   0.263  1.00  0.00     0.033 A 
BRANCH  15  18
HETATM   18  N1  UNL     1       5.129  -0.208  -2.154  1.00  0.00    -0.369 N 
HETATM   19  H6  UNL     1       5.262   0.085  -3.132  1.00  0.00     0.161 HD
BRANCH  18  20
HETATM   20  C2  UNL     1       6.298  -0.607  -1.387  1.00  0.00     0.289 C 
BRANCH  20  21
HETATM   21  O1  UNL     1       6.139  -1.940  -1.063  1.00  0.00    -0.377 OA
HETATM   22  C1  UNL     1       7.201  -2.419  -0.330  1.00  0.00     0.203 C 
ENDBRANCH  20  21
ENDBRANCH  18  20
ENDBRANCH  15  18
ENDBRANCH   1  12
BRANCH   5  23
HETATM   23  O2  UNL     1      -4.418   2.461   0.548  1.00  0.00    -0.387 OA
HETATM   24  C11 UNL     1      -4.670   2.961  -0.722  1.00  0.00     0.202 C 
ENDBRANCH   5  23
BRANCH   6  25
HETATM   25  O3  UNL     1      -5.771   0.494   1.253  1.00  0.00    -0.377 OA
HETATM   26  C13 UNL     1      -6.706   0.093   0.288  1.00  0.00     0.202 C 
ENDBRANCH   6  25
TORSDOF 6
