REMARK  1 active torsions:
REMARK  status: ('A' for Active; 'I' for Inactive)
REMARK    1  A    between atoms: C11_15  and  O2_16 
ROOT
HETATM    1  C1  UNL     1      -0.235   4.057  -0.825  1.00  0.00     0.039 C 
HETATM    2  C2  UNL     1      -1.280   3.015  -0.735  1.00  0.00     0.007 C 
HETATM    3  C3  UNL     1      -0.876   1.890  -0.121  1.00  0.00     0.081 C 
HETATM    4  O1  UNL     1       0.442   2.130   0.221  1.00  0.00    -0.291 OA
HETATM    5  C4  UNL     1       1.406   1.177   0.505  1.00  0.00     0.183 C 
HETATM    6  N1  UNL     1       0.883   1.048   1.732  1.00  0.00    -0.217 NA
HETATM    7  C5  UNL     1       0.162  -0.136   2.218  1.00  0.00     0.238 C 
HETATM    8  N2  UNL     1      -0.246  -1.231   1.564  1.00  0.00    -0.223 NA
HETATM    9  C6  UNL     1       0.352  -1.794   0.347  1.00  0.00     0.144 C 
HETATM   10  C7  UNL     1      -0.405  -1.928  -0.722  1.00  0.00     0.139 C 
HETATM   11  N3  UNL     1      -1.656  -1.421  -0.286  1.00  0.00    -0.353 N 
HETATM   12  C8  UNL     1      -1.905  -0.227  -1.110  1.00  0.00     0.166 C 
HETATM   13  C9  UNL     1      -1.860   0.793   0.013  1.00  0.00    -0.006 C 
HETATM   14  C10 UNL     1      -2.823   0.246   0.779  1.00  0.00     0.038 C 
HETATM   15  C11 UNL     1      -2.928  -1.209   0.422  1.00  0.00     0.247 C 
HETATM   16  N4  UNL     1       1.757  -2.157   0.144  1.00  0.00    -0.339 N 
HETATM   17  C13 UNL     1       2.598  -0.991  -0.143  1.00  0.00     0.048 A 
HETATM   18  C14 UNL     1       3.764  -1.483  -0.679  1.00  0.00     0.032 A 
HETATM   19  C15 UNL     1       4.813  -0.684  -1.075  1.00  0.00     0.026 A 
HETATM   20  C16 UNL     1       4.732   0.682  -0.944  1.00  0.00     0.035 A 
HETATM   21 CL1  UNL     1       6.012   1.765  -1.419  1.00  0.00    -0.084 Cl
HETATM   22  C17 UNL     1       3.595   1.244  -0.416  1.00  0.00     0.042 A 
HETATM   23  C18 UNL     1       2.584   0.427  -0.038  1.00  0.00     0.045 A 
HETATM   24  H14 UNL     1       2.365  -2.977   0.136  1.00  0.00     0.167 HD
ENDROOT
BRANCH  15  25
HETATM   25  O2  UNL     1      -3.020  -1.997   1.540  1.00  0.00    -0.368 OA
HETATM   26  C12 UNL     1      -4.120  -2.826   1.483  1.00  0.00     0.204 C 
ENDBRANCH  15  25
TORSDOF 1
