REMARK  5 active torsions:
REMARK  status: ('A' for Active; 'I' for Inactive)
REMARK    1  A    between atoms: O1_2  and  C2_3 
REMARK    2  A    between atoms: C6_9  and  O2_10 
REMARK    3  A    between atoms: O2_10  and  C7_11 
REMARK    4  A    between atoms: C9_13  and  N3_14 
REMARK       I    between atoms: N3_14  and  C10_15 
REMARK    5  A    between atoms: C15_22  and  O4_23 
ROOT
HETATM    1  C2  UNL     1      -4.202   0.710  -0.337  1.00  0.00     0.103 A 
HETATM    2  C3  UNL     1      -3.422   1.822  -0.028  1.00  0.00     0.072 A 
HETATM    3  C4  UNL     1      -2.040   1.714   0.141  1.00  0.00     0.075 A 
HETATM    4  N1  UNL     1      -1.306   2.815   0.442  1.00  0.00    -0.241 NA
HETATM    5  C5  UNL     1       0.031   2.633   0.591  1.00  0.00     0.236 A 
HETATM    6  N2  UNL     1       0.609   1.432   0.453  1.00  0.00    -0.217 NA
HETATM    7  C6  UNL     1      -0.085   0.318   0.156  1.00  0.00     0.183 A 
HETATM    8  C13 UNL     1      -1.462   0.473  -0.005  1.00  0.00     0.049 A 
HETATM    9  C14 UNL     1      -2.242  -0.629  -0.312  1.00  0.00     0.057 A 
HETATM   10  C15 UNL     1      -3.620  -0.533  -0.483  1.00  0.00     0.102 A 
ENDROOT
BRANCH   7  11
HETATM   11  O2  UNL     1       0.440  -0.955  -0.004  1.00  0.00    -0.296 OA
BRANCH  11  12
HETATM   12  C7  UNL     1       1.823  -1.229   0.136  1.00  0.00     0.047 A 
HETATM   13  C8  UNL     1       2.921  -0.508   0.034  1.00  0.00     0.043 A 
HETATM   14  C9  UNL     1       4.082  -1.338   0.288  1.00  0.00    -0.039 A 
HETATM   15  B1  UNL     1       3.661  -3.017   0.646  1.00  0.00     0.212 B 
HETATM   16  C12 UNL     1       1.377  -2.583   0.419  1.00  0.00     0.014 A 
BRANCH  14  17
HETATM   17  N3  UNL     1       5.390  -0.789   0.237  1.00  0.00    -0.342 N 
HETATM   18  C10 UNL     1       5.801   0.544  -0.043  1.00  0.00     0.217 C 
HETATM   19  C11 UNL     1       7.203   0.964  -0.060  1.00  0.00     0.117 C 
HETATM   20  O3  UNL     1       4.864   1.349  -0.279  1.00  0.00    -0.274 OA
HETATM   21  H7  UNL     1       6.207  -1.442   0.431  1.00  0.00     0.167 HD
ENDBRANCH  14  17
ENDBRANCH  11  12
ENDBRANCH   7  11
BRANCH  10  22
HETATM   22  O4  UNL     1      -4.422  -1.627  -0.791  1.00  0.00    -0.353 OA
HETATM   23  C16 UNL     1      -3.764  -2.882  -0.929  1.00  0.00     0.210 C 
ENDBRANCH  10  22
BRANCH   1  24
HETATM   24  O1  UNL     1      -5.571   0.808  -0.507  1.00  0.00    -0.353 OA
HETATM   25  C1  UNL     1      -6.155   2.102  -0.352  1.00  0.00     0.210 C 
ENDBRANCH   1  24
TORSDOF 5
