REMARK  6 active torsions:
REMARK  status: ('A' for Active; 'I' for Inactive)
REMARK    1  A    between atoms: O1_2  and  C2_3 
REMARK    2  A    between atoms: C2_3  and  N1_4 
REMARK    3  A    between atoms: N1_4  and  C3_5 
REMARK    4  A    between atoms: C6_8  and  N2_9 
REMARK    5  A    between atoms: C11_15  and  O2_16 
REMARK    6  A    between atoms: C11_15  and  O3_18 
ROOT
HETATM    1  N2  UNL     1      -0.343   0.135  -1.568  1.00  0.00    -0.340 N 
HETATM    2  C7  UNL     1      -0.399   0.023  -2.986  1.00  0.00     0.126 C 
HETATM    3  C8  UNL     1      -1.357   0.606  -3.650  1.00  0.00     0.102 C 
HETATM    4  N3  UNL     1      -2.369   1.042  -3.019  1.00  0.00    -0.247 NA
HETATM    5  C9  UNL     1      -2.725   0.551  -1.719  1.00  0.00     0.064 C 
HETATM    6  C10 UNL     1      -3.961   0.339  -1.340  1.00  0.00     0.075 C 
HETATM    7  C11 UNL     1      -4.200  -0.179   0.052  1.00  0.00     0.204 C 
HETATM    8  C14 UNL     1      -3.131  -1.116   0.422  1.00  0.00     0.044 C 
HETATM    9  C15 UNL     1      -1.879  -0.914   0.024  1.00  0.00     0.006 C 
HETATM   10  C16 UNL     1      -1.578   0.291  -0.810  1.00  0.00     0.164 C 
ENDROOT
BRANCH   1  11
HETATM   11  C6  UNL     1       0.886   0.100  -0.849  1.00  0.00     0.035 A 
HETATM   12  C5  UNL     1       0.931   0.209   0.543  1.00  0.00     0.032 A 
HETATM   13  C4  UNL     1       2.122   0.176   1.251  1.00  0.00     0.031 A 
HETATM   14  C3  UNL     1       3.301   0.028   0.529  1.00  0.00     0.029 A 
HETATM   15  C18 UNL     1       3.287  -0.082  -0.840  1.00  0.00     0.031 A 
HETATM   16  C17 UNL     1       2.091  -0.045  -1.505  1.00  0.00     0.032 A 
BRANCH  14  17
HETATM   17  N1  UNL     1       4.562  -0.011   1.226  1.00  0.00    -0.369 N 
HETATM   18  H6  UNL     1       4.570   0.073   2.269  1.00  0.00     0.161 HD
BRANCH  17  19
HETATM   19  C2  UNL     1       5.800  -0.165   0.485  1.00  0.00     0.289 C 
BRANCH  19  20
HETATM   20  O1  UNL     1       6.926  -0.184   1.300  1.00  0.00    -0.377 OA
HETATM   21  C1  UNL     1       8.037  -0.338   0.442  1.00  0.00     0.203 C 
ENDBRANCH  19  20
ENDBRANCH  17  19
ENDBRANCH  14  17
ENDBRANCH   1  11
BRANCH   7  22
HETATM   22  O2  UNL     1      -4.256   0.934   0.885  1.00  0.00    -0.353 OA
HETATM   23  C12 UNL     1      -5.173   1.841   0.378  1.00  0.00     0.206 C 
ENDBRANCH   7  22
BRANCH   7  24
HETATM   24  O3  UNL     1      -5.471  -0.745   0.013  1.00  0.00    -0.353 OA
HETATM   25  C13 UNL     1      -5.933  -1.153   1.262  1.00  0.00     0.206 C 
ENDBRANCH   7  24
TORSDOF 6
