REMARK  5 active torsions:
REMARK  status: ('A' for Active; 'I' for Inactive)
REMARK    1  A    between atoms: O1_2  and  C2_3 
REMARK    2  A    between atoms: C6_9  and  O2_10 
REMARK    3  A    between atoms: O2_10  and  C7_11 
REMARK    4  A    between atoms: C10_14  and  N3_15 
REMARK       I    between atoms: N3_15  and  C11_16 
REMARK    5  A    between atoms: C17_23  and  O4_24 
ROOT
HETATM    1  C2  UNL     1      -4.433  -0.216   0.252  1.00  0.00     0.103 A 
HETATM    2  C3  UNL     1      -3.688  -0.930   1.178  1.00  0.00     0.072 A 
HETATM    3  C4  UNL     1      -2.327  -0.880   1.062  1.00  0.00     0.075 A 
HETATM    4  N1  UNL     1      -1.570  -1.557   1.938  1.00  0.00    -0.241 NA
HETATM    5  C5  UNL     1      -0.224  -1.570   1.908  1.00  0.00     0.236 A 
HETATM    6  N2  UNL     1       0.399  -0.867   0.947  1.00  0.00    -0.217 NA
HETATM    7  C6  UNL     1      -0.284  -0.164   0.032  1.00  0.00     0.183 A 
HETATM    8  C15 UNL     1      -1.679  -0.170   0.091  1.00  0.00     0.049 A 
HETATM    9  C16 UNL     1      -2.457   0.525  -0.809  1.00  0.00     0.057 A 
HETATM   10  C17 UNL     1      -3.839   0.530  -0.766  1.00  0.00     0.102 A 
ENDROOT
BRANCH   7  11
HETATM   11  O2  UNL     1       0.246   0.596  -1.001  1.00  0.00    -0.290 OA
BRANCH  11  12
HETATM   12  C7  UNL     1       1.607   0.668  -1.146  1.00  0.00     0.090 C 
HETATM   13  C8  UNL     1       2.512   1.496  -0.688  1.00  0.00     0.025 C 
HETATM   14  C9  UNL     1       3.631   1.062  -0.214  1.00  0.00     0.018 C 
HETATM   15  C10 UNL     1       4.222   0.078  -0.814  1.00  0.00     0.047 C 
HETATM   16  C13 UNL     1       3.519  -0.705  -1.847  1.00  0.00     0.033 C 
HETATM   17  C14 UNL     1       2.222  -0.383  -1.983  1.00  0.00     0.040 C 
BRANCH  15  18
HETATM   18  N3  UNL     1       5.563  -0.236  -0.460  1.00  0.00    -0.327 N 
HETATM   19  C11 UNL     1       6.175   0.565   0.547  1.00  0.00     0.218 C 
HETATM   20  C12 UNL     1       7.578   0.338   1.008  1.00  0.00     0.117 C 
HETATM   21  O3  UNL     1       5.590   1.510   1.116  1.00  0.00    -0.274 OA
HETATM   22  H6  UNL     1       6.095  -1.014  -0.904  1.00  0.00     0.169 HD
ENDBRANCH  15  18
ENDBRANCH  11  12
ENDBRANCH   7  11
BRANCH  10  23
HETATM   23  O4  UNL     1      -4.602   1.243  -1.691  1.00  0.00    -0.353 OA
HETATM   24  C18 UNL     1      -3.876   1.959  -2.673  1.00  0.00     0.210 C 
ENDBRANCH  10  23
BRANCH   1  25
HETATM   25  O1  UNL     1      -5.837  -0.183   0.257  1.00  0.00    -0.353 OA
HETATM   26  C1  UNL     1      -6.620  -0.869   1.201  1.00  0.00     0.210 C 
ENDBRANCH   1  25
TORSDOF 5
