REMARK  5 active torsions:
REMARK  status: ('A' for Active; 'I' for Inactive)
REMARK    1  A    between atoms: N1_2  and  C2_3 
REMARK    2  A    between atoms: C5_6  and  O1_7 
REMARK    3  A    between atoms: O1_7  and  C6_8 
REMARK    4  A    between atoms: C9_11  and  N2_12 
REMARK       I    between atoms: N2_12  and  C10_13 
REMARK    5  A    between atoms: C17_23  and  O3_24 
ROOT
HETATM    1  C2  UNL     1       3.968  -0.550  -0.122  1.00  0.00     0.062 A 
HETATM    2  C3  UNL     1       2.582  -0.541  -0.087  1.00  0.00     0.050 A 
HETATM    3  C4  UNL     1       1.823   0.539   0.327  1.00  0.00     0.048 A 
HETATM    4  C5  UNL     1       0.462   0.451   0.325  1.00  0.00     0.183 A 
HETATM    5  N3  UNL     1      -0.239   1.530   0.738  1.00  0.00    -0.217 NA
HETATM    6  C14 UNL     1       0.406   2.643   1.133  1.00  0.00     0.236 A 
HETATM    7  N4  UNL     1       1.757   2.734   1.136  1.00  0.00    -0.241 NA
HETATM    8  C15 UNL     1       2.499   1.688   0.735  1.00  0.00     0.075 A 
HETATM    9  C16 UNL     1       3.876   1.716   0.714  1.00  0.00     0.071 A 
HETATM   10  C17 UNL     1       4.600   0.617   0.293  1.00  0.00     0.096 A 
ENDROOT
BRANCH   4  11
HETATM   11  O1  UNL     1      -0.175  -0.721  -0.092  1.00  0.00    -0.291 OA
BRANCH  11  12
HETATM   12  C6  UNL     1      -1.577  -0.740  -0.068  1.00  0.00     0.078 A 
HETATM   13  C7  UNL     1      -2.314  -1.145   1.020  1.00  0.00     0.039 A 
HETATM   14  C8  UNL     1      -3.696  -1.133   0.958  1.00  0.00     0.032 A 
HETATM   15  C9  UNL     1      -4.345  -0.719  -0.179  1.00  0.00     0.034 A 
HETATM   16  C12 UNL     1      -3.629  -0.306  -1.285  1.00  0.00     0.032 A 
HETATM   17  C13 UNL     1      -2.252  -0.322  -1.216  1.00  0.00     0.039 A 
BRANCH  15  18
HETATM   18  N2  UNL     1      -5.774  -0.786  -0.025  1.00  0.00    -0.328 N 
HETATM   19  C10 UNL     1      -6.541   0.297   0.469  1.00  0.00     0.218 C 
HETATM   20  C11 UNL     1      -8.008   0.184   0.612  1.00  0.00     0.117 C 
HETATM   21  O2  UNL     1      -5.912   1.334   0.771  1.00  0.00    -0.274 OA
HETATM   22  H8  UNL     1      -6.206  -1.704  -0.308  1.00  0.00     0.169 HD
ENDBRANCH  15  18
ENDBRANCH  11  12
ENDBRANCH   4  11
BRANCH   1  23
HETATM   23  N1  UNL     1       4.688  -1.702  -0.562  1.00  0.00    -0.392 N 
HETATM   24  C1  UNL     1       3.939  -2.871  -0.975  1.00  0.00     0.146 C 
HETATM   25  H4  UNL     1       5.729  -1.625  -0.557  1.00  0.00     0.159 HD
ENDBRANCH   1  23
BRANCH  10  26
HETATM   26  O3  UNL     1       5.980   0.593   0.254  1.00  0.00    -0.354 OA
HETATM   27  C18 UNL     1       6.758   1.700   0.644  1.00  0.00     0.210 C 
ENDBRANCH  10  26
TORSDOF 5
