REMARK  5 active torsions:
REMARK  status: ('A' for Active; 'I' for Inactive)
REMARK    1  A    between atoms: O1_2  and  C2_3 
REMARK    2  A    between atoms: C10_12  and  N2_13 
REMARK    3  A    between atoms: N2_13  and  C11_14 
REMARK    4  A    between atoms: C11_14  and  C12_15 
REMARK    5  A    between atoms: C13_16  and  C14_17 
ROOT
HETATM    1  C2  UNL     1      -4.997   0.682   1.543  1.00  0.00     0.069 A 
HETATM    2  C3  UNL     1      -5.153   1.476   0.412  1.00  0.00     0.039 A 
HETATM    3  C4  UNL     1      -4.080   1.611  -0.444  1.00  0.00     0.040 A 
HETATM    4  C5  UNL     1      -2.884   0.987  -0.202  1.00  0.00     0.086 A 
HETATM    5  C6  UNL     1      -2.673   0.187   0.905  1.00  0.00    -0.004 A 
HETATM    6  C7  UNL     1      -3.778   0.068   1.755  1.00  0.00     0.048 A 
HETATM    7  C8  UNL     1      -1.560  -0.596   1.442  1.00  0.00     0.161 C 
HETATM    8  N1  UNL     1      -0.634  -1.084   0.427  1.00  0.00    -0.379 N 
HETATM    9  C9  UNL     1      -0.053  -0.313  -0.644  1.00  0.00     0.128 A 
HETATM   10  C10 UNL     1       1.236  -0.751  -0.904  1.00  0.00     0.156 A 
HETATM   11  N3  UNL     1       1.862  -0.098  -1.899  1.00  0.00    -0.222 NA
HETATM   12  C16 UNL     1       1.295   0.902  -2.594  1.00  0.00     0.238 A 
HETATM   13  N4  UNL     1       0.045   1.337  -2.350  1.00  0.00    -0.215 NA
HETATM   14  C17 UNL     1      -0.665   0.729  -1.355  1.00  0.00     0.202 A 
HETATM   15  O2  UNL     1      -1.950   1.264  -1.192  1.00  0.00    -0.289 OA
HETATM   16  H9  UNL     1      -0.270  -2.082   0.348  1.00  0.00     0.160 HD
ENDROOT
BRANCH  10  17
HETATM   17  N2  UNL     1       1.892  -1.782  -0.205  1.00  0.00    -0.369 N 
HETATM   18  H10 UNL     1       1.614  -2.385   0.584  1.00  0.00     0.161 HD
BRANCH  17  19
HETATM   19  C11 UNL     1       3.237  -2.111  -0.619  1.00  0.00     0.148 C 
BRANCH  19  20
HETATM   20  C12 UNL     1       4.085  -0.898  -0.451  1.00  0.00    -0.010 C 
HETATM   21  C13 UNL     1       4.787  -0.203  -1.342  1.00  0.00    -0.010 C 
BRANCH  21  22
HETATM   22  C14 UNL     1       5.587   1.001  -0.982  1.00  0.00     0.100 C 
HETATM   23  C15 UNL     1       6.581   0.600   0.075  1.00  0.00     0.031 C 
HETATM   24 CL1  UNL     1       6.468   1.510  -2.447  1.00  0.00    -0.121 Cl
ENDBRANCH  21  22
ENDBRANCH  19  20
ENDBRANCH  17  19
ENDBRANCH  10  17
BRANCH   1  25
HETATM   25  O1  UNL     1      -6.022   0.487   2.460  1.00  0.00    -0.356 OA
HETATM   26  C1  UNL     1      -7.279   1.137   2.215  1.00  0.00     0.210 C 
ENDBRANCH   1  25
TORSDOF 5
