REMARK  4 active torsions:
REMARK  status: ('A' for Active; 'I' for Inactive)
REMARK    1  A    between atoms: O1_2  and  C2_3 
REMARK    2  A    between atoms: C2_3  and  N1_4 
REMARK    3  A    between atoms: C9_12  and  O2_13 
REMARK    4  A    between atoms: C11_15  and  O3_16 
ROOT
HETATM    1  N1  UNL     1       2.543  -0.403  -1.138  1.00  0.00    -0.327 N 
HETATM    2  C3  UNL     1       3.218   0.842  -1.058  1.00  0.00     0.096 A 
HETATM    3  C4  UNL     1       2.861   1.701  -0.079  1.00  0.00     0.044 A 
HETATM    4  C5  UNL     1       1.818   1.498   0.968  1.00  0.00     0.031 A 
HETATM    5  C6  UNL     1       1.115   0.317   1.002  1.00  0.00     0.176 A 
HETATM    6  C7  UNL     1       1.592  -0.547  -0.148  1.00  0.00     0.088 A 
HETATM    7  N2  UNL     1       0.464  -0.675   0.392  1.00  0.00    -0.248 NA
HETATM    8  C8  UNL     1      -0.773  -0.706  -0.270  1.00  0.00     0.165 C 
HETATM    9  C9  UNL     1      -1.922  -1.428   0.163  1.00  0.00     0.092 C 
HETATM   10  C11 UNL     1      -2.703  -0.533   0.826  1.00  0.00     0.098 C 
HETATM   11  C13 UNL     1      -2.548   0.897   1.190  1.00  0.00     0.035 C 
HETATM   12  C14 UNL     1      -1.836   2.054   1.206  1.00  0.00    -0.022 C 
HETATM   13  C15 UNL     1      -0.526   2.576   0.735  1.00  0.00     0.047 C 
HETATM   14  C16 UNL     1       0.325   2.796   1.958  1.00  0.00     0.123 C 
HETATM   15  N3  UNL     1       1.745   2.834   1.579  1.00  0.00    -0.391 N 
HETATM   16  H23 UNL     1       2.493   3.525   1.683  1.00  0.00     0.159 HD
ENDROOT
BRANCH   1  17
HETATM   17  C2  UNL     1       2.532  -1.583  -1.893  1.00  0.00     0.298 C 
BRANCH  17  18
HETATM   18  O1  UNL     1       3.629  -2.379  -1.640  1.00  0.00    -0.377 OA
HETATM   19  C1  UNL     1       4.825  -1.779  -1.889  1.00  0.00     0.203 C 
ENDBRANCH  17  18
ENDBRANCH   1  17
BRANCH   9  20
HETATM   20  O2  UNL     1      -2.249  -2.739  -0.006  1.00  0.00    -0.356 OA
HETATM   21  C10 UNL     1      -2.631  -3.228  -1.267  1.00  0.00     0.209 C 
ENDBRANCH   9  20
BRANCH  10  22
HETATM   22  O3  UNL     1      -3.838  -1.189   1.230  1.00  0.00    -0.353 OA
HETATM   23  C12 UNL     1      -5.139  -0.688   1.258  1.00  0.00     0.210 C 
ENDBRANCH  10  22
TORSDOF 4
