REMARK  6 active torsions:
REMARK  status: ('A' for Active; 'I' for Inactive)
REMARK    1  A    between atoms: O1_2  and  C2_3 
REMARK    2  A    between atoms: C2_3  and  C3_5 
REMARK    3  A    between atoms: C6_8  and  N1_9 
REMARK    4  A    between atoms: N1_9  and  C7_10 
REMARK    5  A    between atoms: C11_15  and  O3_16 
REMARK    6  A    between atoms: C13_18  and  O4_19 
ROOT
HETATM    1  C7  UNL     1      -1.027  -0.931   2.367  1.00  0.00     0.158 A 
HETATM    2  C8  UNL     1      -0.892   0.251   3.253  1.00  0.00     0.120 A 
HETATM    3  N2  UNL     1      -1.582   1.244   2.788  1.00  0.00    -0.262 NA
HETATM    4  C9  UNL     1      -2.245   0.862   1.564  1.00  0.00     0.067 A 
HETATM    5  C10 UNL     1      -3.076   1.567   0.716  1.00  0.00     0.071 A 
HETATM    6  C11 UNL     1      -3.596   0.972  -0.423  1.00  0.00     0.103 A 
HETATM    7  C13 UNL     1      -3.268  -0.359  -0.704  1.00  0.00     0.102 A 
HETATM    8  C15 UNL     1      -2.433  -1.064   0.151  1.00  0.00     0.051 A 
HETATM    9  C16 UNL     1      -1.915  -0.469   1.284  1.00  0.00     0.001 A 
ENDROOT
BRANCH   1  10
HETATM   10  N1  UNL     1       0.195  -1.532   1.963  1.00  0.00    -0.377 N 
HETATM   11  H6  UNL     1       0.359  -2.561   2.202  1.00  0.00     0.160 HD
BRANCH  10  12
HETATM   12  C6  UNL     1       1.320  -1.021   1.260  1.00  0.00     0.028 A 
HETATM   13  C5  UNL     1       2.460  -1.762   0.931  1.00  0.00     0.030 A 
HETATM   14  C4  UNL     1       3.511  -1.196   0.251  1.00  0.00     0.020 A 
HETATM   15  C3  UNL     1       3.506   0.123  -0.143  1.00  0.00     0.039 A 
HETATM   16  C18 UNL     1       2.401   0.888   0.162  1.00  0.00     0.020 A 
HETATM   17  C17 UNL     1       1.364   0.293   0.843  1.00  0.00     0.030 A 
BRANCH  15  18
HETATM   18  C2  UNL     1       4.647   0.676  -0.863  1.00  0.00     0.292 C 
HETATM   19  O2  UNL     1       4.704   1.876  -1.252  1.00  0.00    -0.259 OA
BRANCH  18  20
HETATM   20  O1  UNL     1       5.733  -0.115  -1.151  1.00  0.00    -0.323 OA
HETATM   21  C1  UNL     1       6.880   0.325  -1.839  1.00  0.00     0.213 C 
ENDBRANCH  18  20
ENDBRANCH  15  18
ENDBRANCH  10  12
ENDBRANCH   1  10
BRANCH   7  22
HETATM   22  O4  UNL     1      -3.777  -0.977  -1.839  1.00  0.00    -0.353 OA
HETATM   23  C14 UNL     1      -3.420  -2.312  -2.079  1.00  0.00     0.210 C 
ENDBRANCH   7  22
BRANCH   6  24
HETATM   24  O3  UNL     1      -4.438   1.601  -1.332  1.00  0.00    -0.353 OA
HETATM   25  C12 UNL     1      -4.802   2.948  -1.095  1.00  0.00     0.210 C 
ENDBRANCH   6  24
TORSDOF 6
