REMARK  12 active torsions:
REMARK  status: ('A' for Active; 'I' for Inactive)
REMARK    1  A    between atoms: O1_2  and  C2_3 
REMARK    2  A    between atoms: C2_3  and  C3_4 
REMARK    3  A    between atoms: C3_4  and  C4_5 
REMARK    4  A    between atoms: C3_4  and  C18_25 
REMARK    5  A    between atoms: C4_5  and  C5_6 
REMARK    6  A    between atoms: C8_11  and  N3_12 
REMARK    7  A    between atoms: N3_12  and  C9_13 
REMARK    8  A    between atoms: C14_18  and  N4_19 
REMARK    9  A    between atoms: N4_19  and  C15_20 
REMARK   10  A    between atoms: C15_20  and  C16_21 
REMARK   11  A    between atoms: C16_21  and  O3_23 
REMARK   12  A    between atoms: C18_25  and  O4_27 
ROOT
HETATM    1  N3  UNL     1       0.108   0.040   0.674  1.00  0.00    -0.349 N 
HETATM    2  H10 UNL     1      -0.225   0.969   0.342  1.00  0.00     0.166 HD
ENDROOT
BRANCH   1   3
HETATM    3  C8  UNL     1      -0.783  -1.065   0.672  1.00  0.00     0.136 A 
HETATM    4  C5  UNL     1      -2.219  -0.997   0.492  1.00  0.00     0.008 A 
HETATM    5  C6  UNL     1      -3.007  -2.252   0.483  1.00  0.00     0.192 A 
HETATM    6  N1  UNL     1      -2.174  -3.386   0.691  1.00  0.00    -0.278 NA
HETATM    7  C7  UNL     1      -0.905  -3.393   0.854  1.00  0.00     0.229 A 
HETATM    8  N2  UNL     1      -0.173  -2.180   0.842  1.00  0.00    -0.224 NA
BRANCH   4   9
HETATM    9  C4  UNL     1      -2.737   0.203   0.357  1.00  0.00     0.024 C 
BRANCH   9  10
HETATM   10  C3  UNL     1      -4.010   0.873   0.170  1.00  0.00    -0.005 C 
BRANCH  10  11
HETATM   11  C2  UNL     1      -4.344   1.722  -1.038  1.00  0.00     0.208 C 
BRANCH  11  12
HETATM   12  O1  UNL     1      -4.244   0.880  -2.142  1.00  0.00    -0.391 OA
HETATM   13  C1  UNL     1      -5.201  -0.152  -2.019  1.00  0.00     0.201 C 
ENDBRANCH  11  12
ENDBRANCH  10  11
BRANCH  10  14
HETATM   14  C18 UNL     1      -4.966   0.754   1.108  1.00  0.00     0.048 C 
HETATM   15  C19 UNL     1      -5.112   0.064   2.410  1.00  0.00     0.076 C 
BRANCH  14  16
HETATM   16  O4  UNL     1      -6.192   1.393   0.947  1.00  0.00    -0.365 OA
HETATM   17  H24 UNL     1      -6.416   2.297   1.385  1.00  0.00     0.217 HD
ENDBRANCH  14  16
ENDBRANCH  10  14
ENDBRANCH   9  10
ENDBRANCH   4   9
ENDBRANCH   1   3
BRANCH   1  18
HETATM   18  C9  UNL     1       1.448   0.157   1.056  1.00  0.00     0.101 C 
HETATM   19  C10 UNL     1       2.342   0.512   0.172  1.00  0.00    -0.019 A 
HETATM   20  C11 UNL     1       1.838   0.765  -1.194  1.00  0.00     0.009 A 
HETATM   21  C17 UNL     1       3.767   0.679   0.430  1.00  0.00     0.037 A 
HETATM   22  C12 UNL     1       2.758   1.134  -2.095  1.00  0.00    -0.020 A 
HETATM   23  C13 UNL     1       4.212   1.321  -1.896  1.00  0.00     0.083 A 
HETATM   24  C14 UNL     1       4.624   1.049  -0.514  1.00  0.00     0.009 A 
BRANCH  24  25
HETATM   25  N4  UNL     1       5.964   1.162  -0.069  1.00  0.00    -0.383 N 
HETATM   26  H16 UNL     1       6.246   2.138  -0.330  1.00  0.00     0.160 HD
BRANCH  25  27
HETATM   27  C15 UNL     1       6.873   0.273   0.593  1.00  0.00     0.229 C 
BRANCH  27  28
HETATM   28  C16 UNL     1       7.212  -0.826  -0.375  1.00  0.00     0.158 C 
HETATM   29  O2  UNL     1       6.815  -1.040  -1.574  1.00  0.00    -0.649 OA
BRANCH  28  30
HETATM   30  O3  UNL     1       8.123  -1.727   0.211  1.00  0.00    -0.775 OA
HETATM   31  H19 UNL     1       8.364  -2.538  -0.379  1.00  0.00     0.167 HD
ENDBRANCH  28  30
ENDBRANCH  27  28
ENDBRANCH  25  27
ENDBRANCH  24  25
ENDBRANCH   1  18
TORSDOF 12
