REMARK  10 active torsions:
REMARK  status: ('A' for Active; 'I' for Inactive)
REMARK    1  A    between atoms: O1_2  and  C2_3 
REMARK    2  A    between atoms: C2_3  and  C3_4 
REMARK    3  A    between atoms: C3_4  and  C4_5 
REMARK    4  A    between atoms: C3_4  and  C16_24 
REMARK    5  A    between atoms: C4_5  and  C5_6 
REMARK    6  A    between atoms: C8_11  and  N3_12 
REMARK    7  A    between atoms: N3_12  and  C9_13 
REMARK    8  A    between atoms: C11_15  and  N4_16 
REMARK       I    between atoms: N4_16  and  C12_17 
REMARK    9  A    between atoms: C12_17  and  O3_19 
REMARK   10  A    between atoms: C16_24  and  O4_26 
ROOT
HETATM    1  C5  UNL     1      -1.812   1.461  -0.134  1.00  0.00     0.008 A 
HETATM    2  C6  UNL     1      -2.326   2.839   0.029  1.00  0.00     0.192 A 
HETATM    3  N1  UNL     1      -1.250   3.794  -0.021  1.00  0.00    -0.278 NA
HETATM    4  C7  UNL     1      -0.012   3.546  -0.177  1.00  0.00     0.229 A 
HETATM    5  N2  UNL     1       0.416   2.230  -0.324  1.00  0.00    -0.224 NA
HETATM    6  C8  UNL     1      -0.368   1.213  -0.312  1.00  0.00     0.137 A 
ENDROOT
BRANCH   6   7
HETATM    7  N3  UNL     1       0.218  -0.102  -0.456  1.00  0.00    -0.339 N 
HETATM    8  H10 UNL     1      -0.386  -0.765  -1.023  1.00  0.00     0.167 HD
BRANCH   7   9
HETATM    9  C9  UNL     1       1.488  -0.295   0.162  1.00  0.00     0.048 A 
HETATM   10  C10 UNL     1       2.686  -0.403  -0.500  1.00  0.00     0.060 A 
HETATM   11  C11 UNL     1       3.909  -0.572   0.077  1.00  0.00     0.039 A 
HETATM   12  C14 UNL     1       4.137  -0.660   1.426  1.00  0.00     0.031 A 
HETATM   13  C15 UNL     1       3.216  -0.600   2.447  1.00  0.00     0.020 A 
HETATM   14  P1  UNL     1       1.550  -0.384   1.922  1.00  0.00    -0.003 P 
BRANCH  11  15
HETATM   15  N4  UNL     1       4.952  -0.663  -0.876  1.00  0.00    -0.303 N 
HETATM   16  C12 UNL     1       6.310  -0.790  -0.623  1.00  0.00     0.364 C 
HETATM   17  O2  UNL     1       6.788  -0.839   0.507  1.00  0.00    -0.238 OA
HETATM   18  H12 UNL     1       4.817  -0.647  -1.911  1.00  0.00     0.171 HD
BRANCH  16  19
HETATM   19  O3  UNL     1       7.431  -0.894  -1.406  1.00  0.00    -0.309 OA
HETATM   20  C13 UNL     1       8.736  -1.019  -0.805  1.00  0.00     0.215 C 
ENDBRANCH  16  19
ENDBRANCH  11  15
ENDBRANCH   7   9
ENDBRANCH   6   7
BRANCH   1  21
HETATM   21  C4  UNL     1      -2.591   0.379  -0.115  1.00  0.00     0.024 C 
BRANCH  21  22
HETATM   22  C3  UNL     1      -4.003   0.083   0.039  1.00  0.00    -0.005 C 
BRANCH  22  23
HETATM   23  C2  UNL     1      -4.390  -0.764   1.217  1.00  0.00     0.208 C 
BRANCH  23  24
HETATM   24  O1  UNL     1      -3.754  -2.023   1.163  1.00  0.00    -0.391 OA
HETATM   25  C1  UNL     1      -4.148  -2.673   0.004  1.00  0.00     0.201 C 
ENDBRANCH  23  24
ENDBRANCH  22  23
BRANCH  22  26
HETATM   26  C16 UNL     1      -4.912   0.524  -0.807  1.00  0.00     0.048 C 
HETATM   27  C17 UNL     1      -6.363   0.174  -0.598  1.00  0.00     0.076 C 
BRANCH  26  28
HETATM   28  O4  UNL     1      -4.651   1.308  -1.913  1.00  0.00    -0.365 OA
HETATM   29  H21 UNL     1      -4.000   0.967  -2.606  1.00  0.00     0.217 HD
ENDBRANCH  26  28
ENDBRANCH  22  26
ENDBRANCH  21  22
ENDBRANCH   1  21
TORSDOF 10
