REMARK  5 active torsions:
REMARK  status: ('A' for Active; 'I' for Inactive)
REMARK    1  A    between atoms: O1_2  and  C2_3 
REMARK       I    between atoms: C2_3  and  N1_5 
REMARK    2  A    between atoms: C4_7  and  N2_8 
REMARK    3  A    between atoms: N2_8  and  C5_9 
REMARK    4  A    between atoms: C9_15  and  O3_16 
REMARK    5  A    between atoms: C11_18  and  O4_19 
ROOT
HETATM    1  C5  UNL     1      -0.569  -0.893   0.073  1.00  0.00     0.142 A 
HETATM    2  N3  UNL     1      -0.226  -2.140   0.355  1.00  0.00    -0.224 NA
HETATM    3  C6  UNL     1      -1.143  -3.050   0.796  1.00  0.00     0.236 A 
HETATM    4  N4  UNL     1      -2.445  -2.668   0.950  1.00  0.00    -0.241 NA
HETATM    5  C7  UNL     1      -2.815  -1.386   0.664  1.00  0.00     0.075 A 
HETATM    6  C8  UNL     1      -4.136  -1.019   0.826  1.00  0.00     0.072 A 
HETATM    7  C9  UNL     1      -4.464   0.302   0.521  1.00  0.00     0.103 A 
HETATM    8  C11 UNL     1      -3.550   1.237   0.074  1.00  0.00     0.102 A 
HETATM    9  C13 UNL     1      -2.236   0.820  -0.074  1.00  0.00     0.057 A 
HETATM   10  C14 UNL     1      -1.876  -0.478   0.219  1.00  0.00     0.042 A 
ENDROOT
BRANCH   1  11
HETATM   11  N2  UNL     1       0.458  -0.034  -0.375  1.00  0.00    -0.339 N 
HETATM   12  H5  UNL     1       0.445   0.970  -0.656  1.00  0.00     0.167 HD
BRANCH  11  13
HETATM   13  C4  UNL     1       1.783  -0.539  -0.500  1.00  0.00     0.049 A 
HETATM   14  C3  UNL     1       2.846   0.125  -0.052  1.00  0.00     0.126 A 
HETATM   15  N1  UNL     1       4.158  -0.402  -0.189  1.00  0.00    -0.298 N 
HETATM   16  C2  UNL     1       5.269   0.340   0.303  1.00  0.00     0.366 C 
HETATM   17  C17 UNL     1       4.416  -1.662  -0.807  1.00  0.00     0.161 A 
HETATM   18  O2  UNL     1       6.456  -0.070   0.214  1.00  0.00    -0.238 OA
HETATM   19  C16 UNL     1       3.225  -2.361  -1.286  1.00  0.00    -0.004 A 
HETATM   20  C15 UNL     1       2.020  -1.841  -1.142  1.00  0.00     0.028 A 
BRANCH  16  21
HETATM   21  O1  UNL     1       5.138   1.578   0.924  1.00  0.00    -0.309 OA
HETATM   22  C1  UNL     1       6.255   2.306   1.409  1.00  0.00     0.215 C 
ENDBRANCH  16  21
ENDBRANCH  11  13
ENDBRANCH   1  11
BRANCH   8  23
HETATM   23  O4  UNL     1      -3.976   2.530  -0.205  1.00  0.00    -0.353 OA
HETATM   24  C12 UNL     1      -2.994   3.470  -0.667  1.00  0.00     0.210 C 
ENDBRANCH   8  23
BRANCH   7  25
HETATM   25  O3  UNL     1      -5.774   0.698   0.673  1.00  0.00    -0.353 OA
HETATM   26  C10 UNL     1      -6.774  -0.211   1.130  1.00  0.00     0.210 C 
ENDBRANCH   7  25
TORSDOF 5
