REMARK  8 active torsions:
REMARK  status: ('A' for Active; 'I' for Inactive)
REMARK    1  A    between atoms: O1_2  and  C2_3 
REMARK    2  A    between atoms: C3_4  and  C5_6 
REMARK    3  A    between atoms: C6_7  and  C7_8 
REMARK    4  A    between atoms: C7_8  and  O2_9 
REMARK    5  A    between atoms: C9_13  and  N3_14 
REMARK    6  A    between atoms: N3_14  and  C10_15 
REMARK    7  A    between atoms: C13_18  and  N4_19 
REMARK       I    between atoms: N4_19  and  C14_20 
REMARK    8  A    between atoms: C14_20  and  O4_22 
ROOT
HETATM    1  C5  UNL     1      -2.890   0.953  -0.856  1.00  0.00     0.139 A 
HETATM    2  C6  UNL     1      -3.434   2.334  -0.595  1.00  0.00     0.073 A 
HETATM    3  N1  UNL     1      -2.643   3.539  -0.447  1.00  0.00    -0.243 NA
HETATM    4  C8  UNL     1      -1.363   3.455  -0.553  1.00  0.00     0.235 A 
HETATM    5  N2  UNL     1      -0.742   2.204  -0.808  1.00  0.00    -0.228 NA
HETATM    6  C9  UNL     1      -1.435   1.097  -0.941  1.00  0.00     0.120 A 
ENDROOT
BRANCH   6   7
HETATM    7  N3  UNL     1      -0.612  -0.029  -1.205  1.00  0.00    -0.344 N 
HETATM    8  H12 UNL     1      -1.094  -0.769  -1.801  1.00  0.00     0.167 HD
BRANCH   7   9
HETATM    9  C10 UNL     1       0.716  -0.288  -0.788  1.00  0.00     0.033 A 
HETATM   10  C11 UNL     1       1.494   0.506   0.018  1.00  0.00     0.032 A 
HETATM   11  C12 UNL     1       2.787   0.219   0.396  1.00  0.00     0.032 A 
HETATM   12  C13 UNL     1       3.378  -0.940  -0.045  1.00  0.00     0.036 A 
HETATM   13  C16 UNL     1       2.628  -1.756  -0.853  1.00  0.00     0.032 A 
HETATM   14  C17 UNL     1       1.338  -1.441  -1.213  1.00  0.00     0.032 A 
BRANCH  12  15
HETATM   15  N4  UNL     1       4.708  -1.257   0.331  1.00  0.00    -0.303 N 
HETATM   16  C14 UNL     1       5.815  -0.838  -0.454  1.00  0.00     0.364 C 
HETATM   17  O3  UNL     1       5.665  -0.178  -1.498  1.00  0.00    -0.238 OA
HETATM   18  H15 UNL     1       4.696  -1.811   1.222  1.00  0.00     0.171 HD
BRANCH  16  19
HETATM   19  O4  UNL     1       7.036  -1.251   0.088  1.00  0.00    -0.309 OA
HETATM   20  C15 UNL     1       8.272  -0.943  -0.531  1.00  0.00     0.215 C 
ENDBRANCH  16  19
ENDBRANCH  12  15
ENDBRANCH   7   9
ENDBRANCH   6   7
BRANCH   1  21
HETATM   21  C3  UNL     1      -3.355  -0.010   0.140  1.00  0.00    -0.045 C 
HETATM   22  C2  UNL     1      -2.457  -0.643   0.869  1.00  0.00     0.137 C 
HETATM   23  C4  UNL     1      -4.782  -0.326   0.384  1.00  0.00     0.046 C 
BRANCH  22  24
HETATM   24  O1  UNL     1      -2.052  -1.538   1.843  1.00  0.00    -0.368 OA
HETATM   25  C1  UNL     1      -2.898  -1.920   2.931  1.00  0.00     0.208 C 
ENDBRANCH  22  24
ENDBRANCH   1  21
BRANCH   2  26
HETATM   26  C7  UNL     1      -4.741   2.490  -0.494  1.00  0.00     0.159 C 
BRANCH  26  27
HETATM   27  O2  UNL     1      -6.101   2.431  -0.426  1.00  0.00    -0.371 OA
HETATM   28  H10 UNL     1      -6.610   1.673  -0.910  1.00  0.00     0.216 HD
ENDBRANCH  26  27
ENDBRANCH   2  26
TORSDOF 8
