REMARK  2 active torsions:
REMARK  status: ('A' for Active; 'I' for Inactive)
REMARK    1  A    between atoms: C3_4  and  O2_5 
REMARK    2  A    between atoms: N1_8  and  C6_9 
ROOT
HETATM    1  C1  UNL     1      -2.281  -2.668   3.260  1.00  0.00     0.000 C 
HETATM    2  O1  UNL     1      -1.455  -1.876   2.418  1.00  0.00     0.000 OA
HETATM    3  C2  UNL     1      -1.405  -0.474   2.583  1.00  0.00    -0.028 A 
HETATM    4  C3  UNL     1      -0.447  -1.029   1.752  1.00  0.00     0.138 A 
HETATM    5  C5  UNL     1       0.603  -0.265   1.145  1.00  0.00     0.176 C 
HETATM    6  N1  UNL     1       0.725   0.129  -0.198  1.00  0.00    -0.338 N 
HETATM    7  C13 UNL     1       0.080   1.352   0.266  1.00  0.00     0.211 C 
HETATM    8  N2  UNL     1       0.810   2.121   0.939  1.00  0.00    -0.237 NA
HETATM    9  C14 UNL     1       0.357   3.336   1.478  1.00  0.00     0.228 C 
HETATM   10  N3  UNL     1      -0.587   2.895   2.275  1.00  0.00    -0.275 NA
HETATM   11  C15 UNL     1      -0.852   1.498   2.350  1.00  0.00     0.144 C 
HETATM   12  C16 UNL     1      -1.759   0.902   3.042  1.00  0.00     0.055 C 
ENDROOT
BRANCH   6  13
HETATM   13  C6  UNL     1       0.852   0.501  -1.535  1.00  0.00     0.035 C 
HETATM   14  C7  UNL     1       1.083  -0.661  -2.150  1.00  0.00     0.031 C 
HETATM   15  C8  UNL     1       1.332  -1.207  -3.527  1.00  0.00     0.027 C 
HETATM   16  C9  UNL     1       1.990  -0.475  -4.455  1.00  0.00     0.146 C 
HETATM   17  O3  UNL     1       2.627   0.758  -4.699  1.00  0.00    -0.288 OA
HETATM   18  C10 UNL     1       2.545   1.994  -3.953  1.00  0.00     0.287 C 
HETATM   19  O4  UNL     1       3.507   2.775  -4.106  1.00  0.00    -0.260 OA
HETATM   20  C11 UNL     1       1.487   2.437  -3.056  1.00  0.00     0.085 C 
HETATM   21  C12 UNL     1       0.789   1.850  -2.073  1.00  0.00     0.036 C 
ENDBRANCH   6  13
BRANCH   4  22
HETATM   22  O2  UNL     1      -0.684  -2.448   1.671  1.00  0.00    -0.375 OA
HETATM   23  C4  UNL     1      -1.322  -2.852   0.426  1.00  0.00     0.203 C 
ENDBRANCH   4  22
TORSDOF 2
