REMARK  5 active torsions:
REMARK  status: ('A' for Active; 'I' for Inactive)
REMARK    1  A    between atoms: O1_2  and  C2_3 
REMARK    2  A    between atoms: C2_3  and  C3_4 
REMARK    3  A    between atoms: C5_6  and  N1_7 
REMARK    4  A    between atoms: N1_7  and  C6_8 
REMARK    5  A    between atoms: C13_18  and  O2_19 
ROOT
HETATM    1  C3  UNL     1      -1.255   0.798   0.193  1.00  0.00     0.014 C 
HETATM    2  C4  UNL     1      -0.913  -0.436  -0.091  1.00  0.00     0.036 A 
HETATM    3  C5  UNL     1       0.514  -0.766   0.127  1.00  0.00     0.140 A 
HETATM    4  N2  UNL     1       0.979  -1.936  -0.135  1.00  0.00    -0.224 NA
HETATM    5  C12 UNL     1       0.188  -2.987  -0.638  1.00  0.00     0.232 A 
HETATM    6  N3  UNL     1      -1.042  -2.763  -0.839  1.00  0.00    -0.246 NA
HETATM    7  C13 UNL     1      -1.763  -1.520  -0.607  1.00  0.00     0.282 A 
ENDROOT
BRANCH   3   8
HETATM    8  N1  UNL     1       1.498   0.157   0.643  1.00  0.00    -0.339 N 
HETATM    9  H7  UNL     1       1.105   0.826   1.372  1.00  0.00     0.167 HD
BRANCH   8  10
HETATM   10  C6  UNL     1       2.857   0.167   0.219  1.00  0.00     0.052 C 
HETATM   11  C7  UNL     1       3.803  -0.296   1.024  1.00  0.00     0.042 C 
HETATM   12 CL1  UNL     1       3.319  -0.907   2.594  1.00  0.00    -0.086 Cl
HETATM   13  C8  UNL     1       5.220  -0.267   0.537  1.00  0.00     0.081 C 
HETATM   14  C9  UNL     1       5.167  -0.458  -0.938  1.00  0.00    -0.009 C 
HETATM   15  C10 UNL     1       4.466   0.458  -1.552  1.00  0.00    -0.027 C 
HETATM   16  C11 UNL     1       3.245   0.686  -1.110  1.00  0.00     0.043 C 
ENDBRANCH   8  10
ENDBRANCH   3   8
BRANCH   1  17
HETATM   17  C2  UNL     1      -2.410   1.688   0.198  1.00  0.00     0.195 C 
BRANCH  17  18
HETATM   18  O1  UNL     1      -2.217   2.808  -0.643  1.00  0.00    -0.392 OA
HETATM   19  C1  UNL     1      -3.389   3.576  -0.548  1.00  0.00     0.201 C 
ENDBRANCH  17  18
ENDBRANCH   1  17
BRANCH   7  20
HETATM   20  O2  UNL     1      -2.790  -1.795   0.325  1.00  0.00    -0.365 OA
HETATM   21  C14 UNL     1      -3.990  -1.806  -0.359  1.00  0.00     0.204 C 
ENDBRANCH   7  20
TORSDOF 5
