REMARK  3 active torsions:
REMARK  status: ('A' for Active; 'I' for Inactive)
REMARK    1  A    between atoms: O1_2  and  C2_3 
REMARK    2  A    between atoms: N2_9  and  C7_10 
REMARK    3  A    between atoms: C9_12  and  O2_13 
ROOT
HETATM    1  C2  UNL     1       2.054   0.388  -0.547  1.00  0.00     0.096 A 
HETATM    2  C3  UNL     1       1.686  -0.628  -1.376  1.00  0.00     0.033 A 
HETATM    3  C4  UNL     1       0.522  -0.851  -1.654  1.00  0.00     0.120 A 
HETATM    4  C5  UNL     1      -0.963  -1.162  -1.591  1.00  0.00     0.288 A 
HETATM    5  N1  UNL     1      -1.833  -1.127  -2.610  1.00  0.00     0.086 N 
HETATM    6  C6  UNL     1      -1.697  -0.847  -3.885  1.00  0.00     0.369 A 
HETATM    7  N2  UNL     1      -1.797  -1.142  -2.496  1.00  0.00    -0.056 NA
HETATM    8  C7  UNL     1      -0.671  -1.035  -1.905  1.00  0.00     0.281 A 
HETATM    9  C8  UNL     1       0.078  -0.001  -1.024  1.00  0.00     0.146 A 
HETATM   10  C9  UNL     1       0.789   0.854  -0.288  1.00  0.00     0.100 A 
HETATM   11  C11 UNL     1      -0.954   0.616   0.051  1.00  0.00    -0.029 C 
HETATM   12  C12 UNL     1      -0.571   0.906   1.290  1.00  0.00     0.134 C 
HETATM   13  N3  UNL     1      -0.030   0.231   2.476  1.00  0.00    -0.408 N 
HETATM   14  C13 UNL     1      -1.073  -0.172   3.521  1.00  0.00     0.142 C 
HETATM   15  C14 UNL     1      -1.952  -1.158   2.783  1.00  0.00    -0.005 C 
HETATM   16  C15 UNL     1      -2.460  -1.543   1.584  1.00  0.00     0.034 C 
HETATM   17  C16 UNL     1      -2.431  -0.561   0.449  1.00  0.00     0.072 C 
HETATM   18  C17 UNL     1      -2.579   0.789   0.005  1.00  0.00     0.043 C 
HETATM   19  O3  UNL     1      -2.071  -1.607  -0.551  1.00  0.00    -0.309 OA
HETATM   20  H10 UNL     1       0.964  -0.001   2.690  1.00  0.00     0.154 HD
ENDROOT
BRANCH   1  21
HETATM   21  O1  UNL     1       3.386   0.429  -0.402  1.00  0.00    -0.354 OA
HETATM   22  C1  UNL     1       4.231  -0.477  -1.048  1.00  0.00     0.210 C 
ENDBRANCH   1  21
BRANCH  10  23
HETATM   23  O2  UNL     1       0.976   1.857   0.515  1.00  0.00    -0.356 OA
HETATM   24  C10 UNL     1       1.160   3.218   0.214  1.00  0.00     0.209 C 
ENDBRANCH  10  23
TORSDOF 3
