REMARK  8 active torsions:
REMARK  status: ('A' for Active; 'I' for Inactive)
REMARK    1  A    between atoms: O1_2  and  C2_3 
REMARK       I    between atoms: C2_3  and  N1_5 
REMARK    2  A    between atoms: N1_5  and  C3_6 
REMARK    3  A    between atoms: C6_9  and  O3_10 
REMARK    4  A    between atoms: O3_10  and  C7_11 
REMARK    5  A    between atoms: C7_11  and  C8_12 
REMARK    6  A    between atoms: C12_16  and  O4_17 
REMARK    7  A    between atoms: C15_20  and  C16_21 
REMARK    8  A    between atoms: C16_21  and  N2_22 
ROOT
HETATM    1  C8  UNL     1      -1.904  -0.556  -0.123  1.00  0.00    -0.025 A 
HETATM    2  C9  UNL     1      -2.653  -1.129   0.912  1.00  0.00     0.019 A 
HETATM    3  C10 UNL     1      -3.955  -0.844   1.234  1.00  0.00    -0.028 A 
HETATM    4  C11 UNL     1      -4.589  -1.565   2.381  1.00  0.00     0.051 C 
HETATM    5  C12 UNL     1      -4.596   0.089   0.477  1.00  0.00     0.074 A 
HETATM    6  C14 UNL     1      -3.921   0.697  -0.562  1.00  0.00     0.046 A 
HETATM    7  C15 UNL     1      -2.606   0.379  -0.852  1.00  0.00    -0.019 A 
ENDROOT
BRANCH   1   8
HETATM    8  C7  UNL     1      -0.503  -0.985  -0.320  1.00  0.00     0.214 C 
BRANCH   8   9
HETATM    9  O3  UNL     1       0.435  -0.031   0.171  1.00  0.00    -0.351 OA
BRANCH   9  10
HETATM   10  C6  UNL     1       1.800  -0.354   0.308  1.00  0.00     0.052 A 
HETATM   11  C5  UNL     1       1.961  -0.927   1.511  1.00  0.00     0.034 A 
HETATM   12  C4  UNL     1       3.394  -1.268   1.659  1.00  0.00     0.028 A 
HETATM   13  C3  UNL     1       4.034  -0.894   0.556  1.00  0.00     0.020 A 
HETATM   14  C17 UNL     1       3.080  -0.282  -0.400  1.00  0.00     0.121 A 
BRANCH  13  15
HETATM   15  N1  UNL     1       5.445  -1.043   0.287  1.00  0.00    -0.306 N 
HETATM   16  C2  UNL     1       6.162   0.169   0.057  1.00  0.00     0.364 C 
HETATM   17  O2  UNL     1       5.654   1.305   0.075  1.00  0.00    -0.238 OA
HETATM   18  H4  UNL     1       5.964  -1.970   0.252  1.00  0.00     0.171 HD
BRANCH  16  19
HETATM   19  O1  UNL     1       7.502   0.084  -0.202  1.00  0.00    -0.309 OA
HETATM   20  C1  UNL     1       8.348   1.171  -0.445  1.00  0.00     0.215 C 
ENDBRANCH  16  19
ENDBRANCH  13  15
ENDBRANCH   9  10
ENDBRANCH   8   9
ENDBRANCH   1   8
BRANCH   7  21
HETATM   21  C16 UNL     1      -1.851   1.024  -1.978  1.00  0.00     0.306 C 
BRANCH  21  22
HETATM   22  N2  UNL     1      -2.639   1.973  -2.708  1.00  0.00     0.082 N 
HETATM   23  H19 UNL     1      -3.264   1.550  -3.428  1.00  0.00     0.313 HD
HETATM   24  H20 UNL     1      -2.079   2.788  -3.038  1.00  0.00     0.313 HD
ENDBRANCH  21  22
ENDBRANCH   7  21
BRANCH   5  25
HETATM   25  O4  UNL     1      -5.919   0.389   0.792  1.00  0.00    -0.355 OA
HETATM   26  C13 UNL     1      -6.674   1.343   0.070  1.00  0.00     0.210 C 
ENDBRANCH   5  25
TORSDOF 8
