REMARK  4 active torsions:
REMARK  status: ('A' for Active; 'I' for Inactive)
REMARK    1  A    between atoms: O1_2  and  C2_3 
REMARK    2  A    between atoms: C6_9  and  O2_10 
REMARK    3  A    between atoms: O2_10  and  C7_11 
REMARK    4  A    between atoms: C13_20  and  O5_21 
ROOT
HETATM    1  C2  UNL     1      -3.231   0.245  -0.215  1.00  0.00     0.103 A 
HETATM    2  C3  UNL     1      -2.621   1.458  -0.500  1.00  0.00     0.072 A 
HETATM    3  C4  UNL     1      -1.245   1.569  -0.470  1.00  0.00     0.075 A 
HETATM    4  N1  UNL     1      -0.628   2.734  -0.743  1.00  0.00    -0.241 NA
HETATM    5  C5  UNL     1       0.708   2.870  -0.722  1.00  0.00     0.236 A 
HETATM    6  N2  UNL     1       1.475   1.806  -0.416  1.00  0.00    -0.217 NA
HETATM    7  C6  UNL     1       0.945   0.590  -0.127  1.00  0.00     0.183 A 
HETATM    8  C11 UNL     1      -0.443   0.488  -0.159  1.00  0.00     0.049 A 
HETATM    9  C12 UNL     1      -1.062  -0.713   0.123  1.00  0.00     0.057 A 
HETATM   10  C13 UNL     1      -2.434  -0.853   0.101  1.00  0.00     0.102 A 
ENDROOT
BRANCH   7  11
HETATM   11  O2  UNL     1       1.650  -0.545   0.194  1.00  0.00    -0.292 OA
BRANCH  11  12
HETATM   12  C7  UNL     1       3.057  -0.515   0.245  1.00  0.00     0.095 A 
HETATM   13  C8  UNL     1       3.690  -1.074  -0.771  1.00  0.00     0.128 A 
HETATM   14  N3  UNL     1       5.104  -1.005  -0.648  1.00  0.00    -0.310 N 
HETATM   15  C9  UNL     1       5.663  -0.374   0.495  1.00  0.00     0.364 A 
HETATM   16  H7  UNL     1       5.691  -1.422  -1.407  1.00  0.00     0.170 HD
HETATM   17  O3  UNL     1       6.938  -0.357   0.523  1.00  0.00    -0.238 OA
HETATM   18  O4  UNL     1       4.944   0.197   1.531  1.00  0.00    -0.297 OA
HETATM   19  C10 UNL     1       3.535   0.162   1.472  1.00  0.00     0.247 A 
ENDBRANCH  11  12
ENDBRANCH   7  11
BRANCH  10  20
HETATM   20  O5  UNL     1      -3.135  -2.014   0.369  1.00  0.00    -0.353 OA
HETATM   21  C14 UNL     1      -2.463  -3.192   0.699  1.00  0.00     0.210 C 
ENDBRANCH  10  20
BRANCH   1  22
HETATM   22  O1  UNL     1      -4.616   0.166  -0.253  1.00  0.00    -0.353 OA
HETATM   23  C1  UNL     1      -5.321   1.340  -0.584  1.00  0.00     0.210 C 
ENDBRANCH   1  22
TORSDOF 4
