REMARK  6 active torsions:
REMARK  status: ('A' for Active; 'I' for Inactive)
REMARK    1  A    between atoms: C2_2  and  O1_3 
REMARK    2  A    between atoms: O1_3  and  C3_4 
REMARK       I    between atoms: C3_4  and  N1_6 
REMARK    3  A    between atoms: N1_6  and  C4_7 
REMARK    4  A    between atoms: C7_10  and  N2_11 
REMARK    5  A    between atoms: N2_11  and  C8_12 
REMARK    6  A    between atoms: C11_17  and  O3_18 
ROOT
HETATM    1  C4  UNL     1       3.167   1.178   0.221  1.00  0.00     0.036 A 
HETATM    2  C5  UNL     1       2.844   1.171  -1.117  1.00  0.00     0.032 A 
HETATM    3  C6  UNL     1       1.590   0.815  -1.501  1.00  0.00     0.031 A 
HETATM    4  C7  UNL     1       0.566   0.442  -0.623  1.00  0.00     0.028 A 
HETATM    5  C16 UNL     1       0.960   0.472   0.698  1.00  0.00     0.031 A 
HETATM    6  C17 UNL     1       2.213   0.823   1.152  1.00  0.00     0.032 A 
ENDROOT
BRANCH   4   7
HETATM    7  N2  UNL     1      -0.741   0.071  -1.033  1.00  0.00    -0.377 N 
HETATM    8  H9  UNL     1      -0.892   0.095  -2.081  1.00  0.00     0.160 HD
BRANCH   7   9
HETATM    9  C8  UNL     1      -1.773  -0.305  -0.120  1.00  0.00     0.146 C 
HETATM   10  C9  UNL     1      -2.007   0.857   0.782  1.00  0.00     0.127 C 
HETATM   11  N3  UNL     1      -2.827   1.104   1.742  1.00  0.00    -0.237 NA
HETATM   12  S1  UNL     1      -4.344   0.307   2.135  1.00  0.00    -0.076 SA
HETATM   13  C10 UNL     1      -5.460   0.975   1.112  1.00  0.00     0.067 C 
HETATM   14  C15 UNL     1      -4.324  -1.301   1.224  1.00  0.00     0.128 C 
HETATM   15  C11 UNL     1      -5.513   0.059  -0.111  1.00  0.00     0.180 C 
HETATM   16  C13 UNL     1      -4.125  -0.565  -0.107  1.00  0.00    -0.038 C 
HETATM   17  C14 UNL     1      -3.049  -0.491  -0.923  1.00  0.00     0.010 C 
BRANCH  15  18
HETATM   18  O3  UNL     1      -6.496  -0.886   0.059  1.00  0.00    -0.382 OA
HETATM   19  C12 UNL     1      -7.465  -0.864  -0.940  1.00  0.00     0.202 C 
ENDBRANCH  15  18
ENDBRANCH   7   9
ENDBRANCH   4   7
BRANCH   1  20
HETATM   20  N1  UNL     1       4.500   1.563   0.535  1.00  0.00    -0.303 N 
HETATM   21  C3  UNL     1       5.412   0.465   0.574  1.00  0.00     0.365 C 
HETATM   22  O2  UNL     1       4.928  -0.667   0.332  1.00  0.00    -0.238 OA
HETATM   23  H6  UNL     1       4.900   2.511   0.737  1.00  0.00     0.171 HD
BRANCH  21  24
HETATM   24  O1  UNL     1       6.767   0.568   0.856  1.00  0.00    -0.304 OA
BRANCH  24  25
HETATM   25  C2  UNL     1       7.589  -0.606   0.868  1.00  0.00     0.176 C 
HETATM   26  C1  UNL     1       7.604  -1.316  -0.448  1.00  0.00     0.034 C 
ENDBRANCH  24  25
ENDBRANCH  21  24
ENDBRANCH   1  20
TORSDOF 6
