REMARK  7 active torsions:
REMARK  status: ('A' for Active; 'I' for Inactive)
REMARK    1  A    between atoms: C2_2  and  O1_3 
REMARK    2  A    between atoms: O1_3  and  C3_4 
REMARK       I    between atoms: C3_4  and  N1_6 
REMARK    3  A    between atoms: N1_6  and  C4_7 
REMARK    4  A    between atoms: C7_10  and  N2_11 
REMARK    5  A    between atoms: N2_11  and  C8_12 
REMARK    6  A    between atoms: C11_15  and  O3_16 
REMARK    7  A    between atoms: C13_18  and  O4_19 
ROOT
HETATM    1  N2  UNL     1      -0.630  -1.284   0.506  1.00  0.00    -0.341 N 
HETATM    2  H9  UNL     1      -0.904  -1.959   1.250  1.00  0.00     0.167 HD
ENDROOT
BRANCH   1   3
HETATM    3  C7  UNL     1       0.699  -0.784   0.419  1.00  0.00     0.033 A 
HETATM    4  C6  UNL     1       1.033   0.104  -0.580  1.00  0.00     0.032 A 
HETATM    5  C5  UNL     1       2.319   0.613  -0.695  1.00  0.00     0.032 A 
HETATM    6  C4  UNL     1       3.255   0.202   0.224  1.00  0.00     0.036 A 
HETATM    7  C19 UNL     1       2.929  -0.696   1.240  1.00  0.00     0.032 A 
HETATM    8  C18 UNL     1       1.632  -1.200   1.343  1.00  0.00     0.032 A 
BRANCH   6   9
HETATM    9  N1  UNL     1       4.631   0.579   0.315  1.00  0.00    -0.303 N 
HETATM   10  C3  UNL     1       5.775   0.006  -0.261  1.00  0.00     0.365 C 
HETATM   11  O2  UNL     1       5.868  -1.000  -1.012  1.00  0.00    -0.238 OA
HETATM   12  H6  UNL     1       4.709   1.424   0.924  1.00  0.00     0.171 HD
BRANCH  10  13
HETATM   13  O1  UNL     1       7.007   0.581  -0.006  1.00  0.00    -0.304 OA
BRANCH  13  14
HETATM   14  C2  UNL     1       8.162   0.031  -0.566  1.00  0.00     0.176 C 
HETATM   15  C1  UNL     1       9.359   0.849  -0.127  1.00  0.00     0.034 C 
ENDBRANCH  13  14
ENDBRANCH  10  13
ENDBRANCH   6   9
ENDBRANCH   1   3
BRANCH   1  16
HETATM   16  C8  UNL     1      -1.634  -0.883  -0.421  1.00  0.00     0.129 C 
HETATM   17  C9  UNL     1      -2.129   0.213   0.257  1.00  0.00     0.053 C 
HETATM   18  C10 UNL     1      -3.349   0.079   0.842  1.00  0.00     0.043 C 
HETATM   19  C11 UNL     1      -4.653  -0.173   0.465  1.00  0.00     0.101 C 
HETATM   20  C13 UNL     1      -5.311   0.740  -0.369  1.00  0.00     0.102 C 
HETATM   21  C15 UNL     1      -5.398   0.703  -1.746  1.00  0.00     0.059 C 
HETATM   22  C16 UNL     1      -4.476  -0.167  -2.290  1.00  0.00     0.121 C 
HETATM   23  N3  UNL     1      -3.169   0.192  -2.349  1.00  0.00    -0.254 NA
HETATM   24  C17 UNL     1      -2.279  -0.762  -2.688  1.00  0.00     0.234 C 
HETATM   25  N4  UNL     1      -1.952  -1.465  -1.608  1.00  0.00    -0.225 NA
BRANCH  19  26
HETATM   26  O3  UNL     1      -5.415  -1.276   0.834  1.00  0.00    -0.353 OA
HETATM   27  C12 UNL     1      -4.804  -2.235   1.677  1.00  0.00     0.210 C 
ENDBRANCH  19  26
BRANCH  20  28
HETATM   28  O4  UNL     1      -5.715   1.502   0.720  1.00  0.00    -0.353 OA
HETATM   29  C14 UNL     1      -6.481   2.656   0.459  1.00  0.00     0.210 C 
ENDBRANCH  20  28
ENDBRANCH   1  16
TORSDOF 7
