REMARK  7 active torsions:
REMARK  status: ('A' for Active; 'I' for Inactive)
REMARK    1  A    between atoms: C4_7  and  C5_8 
REMARK    2  A    between atoms: C5_8  and  O3_9 
REMARK    3  A    between atoms: O3_9  and  C6_10 
REMARK    4  A    between atoms: C14_19  and  N2_20 
REMARK    5  A    between atoms: C14_19  and  C16_23 
REMARK    6  A    between atoms: N2_20  and  C15_21 
REMARK    7  A    between atoms: C15_21  and  N3_22 
ROOT
HETATM    1  C1  UNL     1      -6.027   0.911   1.060  1.00  0.00     0.000 C 
HETATM    2  O1  UNL     1      -6.263  -0.516   1.079  1.00  0.00     0.000 OA
HETATM    3  S1  UNL     1      -3.648   0.391   0.110  1.00  0.00    -0.147 SA
HETATM    4  O2  UNL     1      -5.108  -0.159   0.575  1.00  0.00     0.000 OA
HETATM    5  C2  UNL     1      -2.525   0.803  -0.279  1.00  0.00     0.045 A 
HETATM    6  C3  UNL     1      -1.394   1.193  -0.662  1.00  0.00     0.028 A 
HETATM    7  C4  UNL     1      -1.445  -0.164  -0.397  1.00  0.00     0.029 A 
HETATM    8  C14 UNL     1      -2.697  -0.928   0.097  1.00  0.00     0.062 A 
HETATM    9  C16 UNL     1      -3.816   0.325   0.169  1.00  0.00     0.163 A 
HETATM   10  H4  UNL     1      -5.494  -0.638  -0.378  1.00  0.00     0.000 HD
ENDROOT
BRANCH   7  11
HETATM   11  C5  UNL     1       0.014  -0.309  -0.771  1.00  0.00     0.182 C 
BRANCH  11  12
HETATM   12  O3  UNL     1       0.454   0.881  -1.116  1.00  0.00    -0.377 OA
BRANCH  12  13
HETATM   13  C6  UNL     1       1.606   1.285  -1.486  1.00  0.00     0.166 C 
HETATM   14  C7  UNL     1       2.357  -0.290  -1.547  1.00  0.00     0.005 C 
HETATM   15  C8  UNL     1       3.311  -1.207  -1.251  1.00  0.00    -0.017 C 
HETATM   16  C9  UNL     1       4.294  -0.575  -0.419  1.00  0.00     0.058 C 
HETATM   17  C10 UNL     1       5.403  -0.525   0.308  1.00  0.00     0.065 C 
HETATM   18  N1  UNL     1       5.585   0.812   0.840  1.00  0.00    -0.398 N 
HETATM   19  C11 UNL     1       4.809   1.918   0.219  1.00  0.00     0.146 C 
HETATM   20  H13 UNL     1       6.194   1.118   1.620  1.00  0.00     0.158 HD
HETATM   21  C12 UNL     1       3.388   1.707   0.572  1.00  0.00    -0.009 C 
HETATM   22  C13 UNL     1       2.170   1.479   0.149  1.00  0.00     0.006 C 
ENDBRANCH  12  13
ENDBRANCH  11  12
ENDBRANCH   7  11
BRANCH   8  23
HETATM   23  N2  UNL     1      -1.846  -2.323   0.125  1.00  0.00    -0.261 NA
BRANCH  23  24
HETATM   24  C15 UNL     1      -2.622  -3.316   0.169  1.00  0.00     0.185 C 
BRANCH  24  25
HETATM   25  N3  UNL     1      -3.186  -4.403  -0.229  1.00  0.00    -0.279 NA
HETATM   26  H18 UNL     1      -3.406  -4.573  -1.243  1.00  0.00     0.189 HD
ENDBRANCH  24  25
ENDBRANCH  23  24
ENDBRANCH   8  23
TORSDOF 7
