REMARK  8 active torsions:
REMARK  status: ('A' for Active; 'I' for Inactive)
REMARK    1  A    between atoms: C2_2  and  O1_3 
REMARK    2  A    between atoms: O1_3  and  C3_4 
REMARK    3  A    between atoms: C3_4  and  N1_5 
REMARK    4  A    between atoms: C6_8  and  N2_9 
REMARK    5  A    between atoms: N2_9  and  C7_10 
REMARK    6  A    between atoms: C11_16  and  O2_17 
REMARK    7  A    between atoms: C13_19  and  O3_20 
REMARK    8  A    between atoms: C18_25  and  O4_26 
ROOT
HETATM    1  C7  UNL     1      -1.345  -0.206  -0.244  1.00  0.00     0.142 A 
HETATM    2  N3  UNL     1      -0.677  -0.734  -1.287  1.00  0.00    -0.224 NA
HETATM    3  C8  UNL     1      -1.357  -1.335  -2.301  1.00  0.00     0.236 A 
HETATM    4  N4  UNL     1      -2.701  -1.384  -2.230  1.00  0.00    -0.241 NA
HETATM    5  C9  UNL     1      -3.394  -0.853  -1.179  1.00  0.00     0.075 A 
HETATM    6  C10 UNL     1      -4.771  -0.902  -1.104  1.00  0.00     0.072 A 
HETATM    7  C11 UNL     1      -5.475  -0.367  -0.043  1.00  0.00     0.103 A 
HETATM    8  C13 UNL     1      -4.747   0.233   0.964  1.00  0.00     0.102 A 
HETATM    9  C15 UNL     1      -3.369   0.312   0.942  1.00  0.00     0.057 A 
HETATM   10  C16 UNL     1      -2.721  -0.240  -0.142  1.00  0.00     0.042 A 
ENDROOT
BRANCH   1  11
HETATM   11  N2  UNL     1      -0.536   0.398   0.760  1.00  0.00    -0.340 N 
HETATM   12  H10 UNL     1      -0.773   0.865   1.639  1.00  0.00     0.167 HD
BRANCH  11  13
HETATM   13  C6  UNL     1       0.862   0.417   0.628  1.00  0.00     0.035 A 
HETATM   14  C5  UNL     1       1.643   1.649   0.732  1.00  0.00     0.046 A 
HETATM   15  C4  UNL     1       2.956   1.752   0.620  1.00  0.00     0.093 A 
HETATM   16  N1  UNL     1       3.678   0.552   0.377  1.00  0.00    -0.340 N 
HETATM   17  C18 UNL     1       3.054  -0.768   0.245  1.00  0.00     0.247 A 
HETATM   18  C17 UNL     1       1.589  -0.674   0.400  1.00  0.00     0.055 A 
BRANCH  16  19
HETATM   19  C3  UNL     1       5.119   0.648   0.252  1.00  0.00     0.295 C 
BRANCH  19  20
HETATM   20  O1  UNL     1       5.677  -0.597   0.017  1.00  0.00    -0.372 OA
BRANCH  20  21
HETATM   21  C2  UNL     1       7.067  -0.541  -0.108  1.00  0.00     0.165 C 
HETATM   22  C1  UNL     1       7.479   0.352  -1.257  1.00  0.00     0.033 C 
ENDBRANCH  20  21
ENDBRANCH  19  20
ENDBRANCH  16  19
BRANCH  17  23
HETATM   23  O4  UNL     1       3.444  -1.256  -0.992  1.00  0.00    -0.373 OA
HETATM   24  H22 UNL     1       2.663  -1.618  -1.452  1.00  0.00     0.212 HD
ENDBRANCH  17  23
ENDBRANCH  11  13
ENDBRANCH   1  11
BRANCH   8  25
HETATM   25  O3  UNL     1      -5.439   0.777   2.038  1.00  0.00    -0.353 OA
HETATM   26  C14 UNL     1      -4.712   1.409   3.102  1.00  0.00     0.210 C 
ENDBRANCH   8  25
BRANCH   7  27
HETATM   27  O2  UNL     1      -6.849  -0.404   0.053  1.00  0.00    -0.353 OA
HETATM   28  C12 UNL     1      -7.701  -0.978  -0.890  1.00  0.00     0.210 C 
ENDBRANCH   7  27
TORSDOF 8
