REMARK  6 active torsions:
REMARK  status: ('A' for Active; 'I' for Inactive)
REMARK    1  A    between atoms: C2_2  and  O1_3 
REMARK    2  A    between atoms: O1_3  and  C3_4 
REMARK    3  A    between atoms: C4_5  and  O2_6 
REMARK    4  A    between atoms: N2_13  and  C10_14 
REMARK    5  A    between atoms: C14_18  and  N3_19 
REMARK    6  A    between atoms: C14_18  and  O3_20 
ROOT
HETATM    1  C3  UNL     1      -1.125  -0.148   0.002  1.00  0.00     0.184 C 
HETATM    2  C4  UNL     1      -2.400  -0.537   0.190  1.00  0.00     0.119 C 
HETATM    3  C6  UNL     1      -2.985  -1.873   0.128  1.00  0.00     0.039 C 
HETATM    4  C7  UNL     1      -2.633  -3.019  -0.435  1.00  0.00    -0.002 C 
HETATM    5  C8  UNL     1      -1.541  -3.594  -1.264  1.00  0.00     0.177 C 
HETATM    6  N1  UNL     1      -0.219  -3.263  -0.776  1.00  0.00    -0.281 NA
HETATM    7  C9  UNL     1       0.431  -2.209  -0.410  1.00  0.00     0.211 C 
HETATM    8  N2  UNL     1       0.124  -0.806  -0.315  1.00  0.00    -0.283 N 
ENDROOT
BRANCH   8   9
HETATM    9  C10 UNL     1       1.212   0.036  -0.571  1.00  0.00     0.089 A 
HETATM   10  C11 UNL     1       0.937   1.049  -1.402  1.00  0.00     0.031 A 
HETATM   11  C12 UNL     1       2.138   1.855  -1.594  1.00  0.00     0.003 A 
HETATM   12  C13 UNL     1       3.110   1.313  -0.876  1.00  0.00     0.050 A 
HETATM   13  C14 UNL     1       2.635   0.096  -0.145  1.00  0.00     0.319 A 
BRANCH  13  14
HETATM   14  N3  UNL     1       2.662   0.450   1.260  1.00  0.00     0.124 N 
HETATM   15  H17 UNL     1       3.679   0.652   1.502  1.00  0.00     0.317 HD
HETATM   16  H18 UNL     1       2.230   1.423   1.296  1.00  0.00     0.317 HD
ENDBRANCH  13  14
BRANCH  13  17
HETATM   17  O3  UNL     1       3.346  -1.024  -0.458  1.00  0.00    -0.350 OA
HETATM   18  C15 UNL     1       4.683  -0.962  -0.054  1.00  0.00     0.205 C 
ENDBRANCH  13  17
ENDBRANCH   8   9
BRANCH   1  19
HETATM   19  O1  UNL     1      -0.960   1.184   0.141  1.00  0.00    -0.334 OA
BRANCH  19  20
HETATM   20  C2  UNL     1      -0.935   2.069   1.173  1.00  0.00     0.173 C 
HETATM   21  C1  UNL     1      -0.704   3.520   0.733  1.00  0.00     0.034 C 
ENDBRANCH  19  20
ENDBRANCH   1  19
BRANCH   2  22
HETATM   22  O2  UNL     1      -3.236   0.532   0.482  1.00  0.00    -0.352 OA
HETATM   23  C5  UNL     1      -4.568   0.239   0.858  1.00  0.00     0.210 C 
ENDBRANCH   2  22
TORSDOF 6
