REMARK  4 active torsions:
REMARK  status: ('A' for Active; 'I' for Inactive)
REMARK    1  A    between atoms: O1_2  and  C2_3 
REMARK    2  A    between atoms: C3_4  and  C4_5 
REMARK    3  A    between atoms: C8_10  and  O2_11 
REMARK    4  A    between atoms: C15_19  and  O3_20 
ROOT
HETATM    1  C4  UNL     1       2.377  -0.132  -0.886  1.00  0.00     0.036 C 
HETATM    2  C5  UNL     1       1.144   0.293  -0.684  1.00  0.00     0.071 C 
HETATM    3  C6  UNL     1      -0.128  -0.028  -1.430  1.00  0.00     0.212 C 
HETATM    4  N1  UNL     1      -1.107  -0.549  -0.570  1.00  0.00    -0.296 NA
HETATM    5  C7  UNL     1      -1.052  -1.697  -0.039  1.00  0.00     0.120 C 
HETATM    6  C8  UNL     1      -2.349  -1.640   0.737  1.00  0.00     0.190 C 
HETATM    7  C10 UNL     1      -2.298  -0.475   1.696  1.00  0.00    -0.041 C 
HETATM    8  C11 UNL     1      -1.998  -0.307   2.998  1.00  0.00     0.008 C 
HETATM    9  C12 UNL     1      -1.475   1.076   3.131  1.00  0.00     0.025 C 
HETATM   10  C13 UNL     1      -1.489   1.657   1.917  1.00  0.00     0.013 C 
HETATM   11  C14 UNL     1      -2.626   0.919   1.253  1.00  0.00     0.094 C 
HETATM   12  N2  UNL     1      -0.588   2.709   1.490  1.00  0.00    -0.345 N 
HETATM   13  C15 UNL     1       0.070   2.362   0.232  1.00  0.00     0.375 C 
HETATM   14  O4  UNL     1       0.734   1.155   0.301  1.00  0.00    -0.305 OA
HETATM   15  H18 UNL     1      -0.555   3.529   2.136  1.00  0.00     0.164 HD
ENDROOT
BRANCH   1  16
HETATM   16  C3  UNL     1       2.678  -1.053  -1.963  1.00  0.00     0.026 C 
HETATM   17  C2  UNL     1       3.902  -1.488  -2.181  1.00  0.00     0.134 C 
BRANCH  17  18
HETATM   18  O1  UNL     1       5.194  -1.380  -1.699  1.00  0.00    -0.368 OA
HETATM   19  C1  UNL     1       5.485  -2.199  -0.556  1.00  0.00     0.208 C 
ENDBRANCH  17  18
ENDBRANCH   1  16
BRANCH  13  20
HETATM   20  O3  UNL     1       0.897   3.437  -0.096  1.00  0.00    -0.349 OA
HETATM   21  C16 UNL     1       0.504   4.119  -1.237  1.00  0.00     0.206 C 
ENDBRANCH  13  20
BRANCH   6  22
HETATM   22  O2  UNL     1      -3.435  -1.493  -0.080  1.00  0.00    -0.381 OA
HETATM   23  C9  UNL     1      -4.261  -2.619   0.036  1.00  0.00     0.202 C 
ENDBRANCH   6  22
TORSDOF 4
