REMARK  7 active torsions:
REMARK  status: ('A' for Active; 'I' for Inactive)
REMARK    1  A    between atoms: O1_2  and  C2_3 
REMARK    2  A    between atoms: C2_3  and  C3_4 
REMARK    3  A    between atoms: C6_7  and  N1_8 
REMARK    4  A    between atoms: N1_8  and  C7_9 
REMARK    5  A    between atoms: C11_15  and  O2_16 
REMARK    6  A    between atoms: C13_18  and  O3_19 
REMARK    7  A    between atoms: C18_24  and  O4_25 
ROOT
HETATM    1  C7  UNL     1       0.892  -0.329   1.134  1.00  0.00     0.142 A 
HETATM    2  N2  UNL     1       0.606  -0.900   2.307  1.00  0.00    -0.224 NA
HETATM    3  C8  UNL     1       1.487  -1.366   3.198  1.00  0.00     0.236 A 
HETATM    4  N3  UNL     1       2.818  -1.266   2.916  1.00  0.00    -0.241 NA
HETATM    5  C9  UNL     1       3.195  -0.694   1.734  1.00  0.00     0.075 A 
HETATM    6  C10 UNL     1       4.550  -0.623   1.506  1.00  0.00     0.072 A 
HETATM    7  C11 UNL     1       5.013  -0.062   0.335  1.00  0.00     0.103 A 
HETATM    8  C13 UNL     1       4.093   0.415  -0.576  1.00  0.00     0.102 A 
HETATM    9  C15 UNL     1       2.753   0.304  -0.266  1.00  0.00     0.057 A 
HETATM   10  C16 UNL     1       2.221  -0.238   0.869  1.00  0.00     0.042 A 
ENDROOT
BRANCH   1  11
HETATM   11  N1  UNL     1      -0.051   0.157   0.203  1.00  0.00    -0.340 N 
HETATM   12  H8  UNL     1       0.233   0.623  -0.679  1.00  0.00     0.167 HD
BRANCH  11  13
HETATM   13  C6  UNL     1      -1.458   0.108   0.283  1.00  0.00     0.036 A 
HETATM   14  C5  UNL     1      -2.124  -0.640   1.225  1.00  0.00     0.030 A 
HETATM   15  C4  UNL     1      -3.494  -0.716   1.350  1.00  0.00     0.014 A 
HETATM   16  C3  UNL     1      -4.298  -0.003   0.485  1.00  0.00    -0.001 A 
HETATM   17  C18 UNL     1      -3.679   0.761  -0.476  1.00  0.00     0.078 A 
HETATM   18  C17 UNL     1      -2.321   0.790  -0.544  1.00  0.00     0.066 A 
BRANCH  16  19
HETATM   19  C2  UNL     1      -5.780  -0.042   0.568  1.00  0.00     0.208 C 
BRANCH  19  20
HETATM   20  O1  UNL     1      -6.216  -0.864  -0.481  1.00  0.00    -0.391 OA
HETATM   21  C1  UNL     1      -5.697  -2.144  -0.361  1.00  0.00     0.201 C 
ENDBRANCH  19  20
ENDBRANCH  16  19
BRANCH  17  22
HETATM   22  O4  UNL     1      -4.448   1.493  -1.366  1.00  0.00    -0.355 OA
HETATM   23  C19 UNL     1      -3.930   2.309  -2.389  1.00  0.00     0.210 C 
ENDBRANCH  17  22
ENDBRANCH  11  13
ENDBRANCH   1  11
BRANCH   8  24
HETATM   24  O3  UNL     1       4.560   0.979  -1.752  1.00  0.00    -0.353 OA
HETATM   25  C14 UNL     1       3.681   1.489  -2.735  1.00  0.00     0.210 C 
ENDBRANCH   8  24
BRANCH   7  26
HETATM   26  O2  UNL     1       6.366   0.038   0.047  1.00  0.00    -0.353 OA
HETATM   27  C12 UNL     1       7.342  -0.439   0.954  1.00  0.00     0.210 C 
ENDBRANCH   7  26
TORSDOF 7
