REMARK  5 active torsions:
REMARK  status: ('A' for Active; 'I' for Inactive)
REMARK    1  A    between atoms: O1_2  and  C2_3 
REMARK    2  A    between atoms: C2_3  and  N1_4 
REMARK    3  A    between atoms: N1_4  and  C3_5 
REMARK    4  A    between atoms: C4_6  and  O2_7 
REMARK    5  A    between atoms: C10_14  and  O4_15 
ROOT
HETATM    1  C3  UNL     1      -1.474   0.120  -0.324  1.00  0.00     0.063 C 
HETATM    2  C4  UNL     1      -1.356  -1.089  -0.817  1.00  0.00     0.096 C 
HETATM    3  C6  UNL     1      -0.483  -2.164  -1.191  1.00  0.00     0.063 C 
HETATM    4  C7  UNL     1       0.683  -2.711  -1.328  1.00  0.00     0.145 C 
HETATM    5  O3  UNL     1       2.103  -2.927  -1.311  1.00  0.00    -0.324 OA
HETATM    6  C8  UNL     1       2.799  -1.948  -0.535  1.00  0.00     0.089 A 
HETATM    7  C9  UNL     1       3.827  -1.877   0.361  1.00  0.00     0.068 A 
HETATM    8  C10 UNL     1       4.090  -0.620   0.854  1.00  0.00     0.058 A 
HETATM    9  C12 UNL     1       3.229   0.399   0.335  1.00  0.00     0.121 A 
HETATM   10  C13 UNL     1       2.102   0.658  -0.577  1.00  0.00     0.139 A 
HETATM   11  C14 UNL     1       1.866   2.012  -0.485  1.00  0.00     0.094 A 
HETATM   12  N2  UNL     1       1.486   1.314  -1.454  1.00  0.00    -0.313 N 
HETATM   13  C15 UNL     1       1.153   0.557  -2.357  1.00  0.00     0.207 A 
HETATM   14  N3  UNL     1       1.674  -0.503  -1.805  1.00  0.00    -0.263 NA
HETATM   15  C16 UNL     1       2.337  -0.685  -0.664  1.00  0.00     0.149 A 
HETATM   16  N4  UNL     1       2.365   2.716   0.682  1.00  0.00    -0.277 NA
HETATM   17  C17 UNL     1       1.342   1.999   1.396  1.00  0.00     0.120 C 
HETATM   18  C18 UNL     1      -0.045   2.144   0.978  1.00  0.00    -0.010 C 
HETATM   19  C19 UNL     1      -0.932   1.332   0.354  1.00  0.00     0.029 C 
HETATM   20  H18 UNL     1       2.993   3.094  -0.091  1.00  0.00     0.129 HD
ENDROOT
BRANCH   1  21
HETATM   21  N1  UNL     1      -2.917   0.159  -0.466  1.00  0.00    -0.366 N 
HETATM   22  H6  UNL     1      -3.055   0.102   0.604  1.00  0.00     0.162 HD
BRANCH  21  23
HETATM   23  C2  UNL     1      -4.380   0.198  -0.609  1.00  0.00     0.289 C 
BRANCH  23  24
HETATM   24  O1  UNL     1      -4.827   1.471  -0.219  1.00  0.00    -0.377 OA
HETATM   25  C1  UNL     1      -6.199   1.500  -0.306  1.00  0.00     0.203 C 
ENDBRANCH  23  24
ENDBRANCH  21  23
ENDBRANCH   1  21
BRANCH   2  26
HETATM   26  O2  UNL     1      -2.671  -1.435  -1.090  1.00  0.00    -0.354 OA
HETATM   27  C5  UNL     1      -3.265  -2.671  -0.776  1.00  0.00     0.210 C 
ENDBRANCH   2  26
BRANCH   8  28
HETATM   28  O4  UNL     1       5.169  -0.685   1.766  1.00  0.00    -0.360 OA
HETATM   29  C11 UNL     1       5.548   0.556   2.344  1.00  0.00     0.209 C 
ENDBRANCH   8  28
TORSDOF 5
