REMARK  5 active torsions:
REMARK  status: ('A' for Active; 'I' for Inactive)
REMARK    1  A    between atoms: C2_2  and  O1_3 
REMARK    2  A    between atoms: O1_3  and  C3_4 
REMARK       I    between atoms: C3_4  and  N1_6 
REMARK    3  A    between atoms: C7_10  and  N2_11 
REMARK    4  A    between atoms: N2_11  and  C8_12 
REMARK    5  A    between atoms: C14_21  and  O3_22 
ROOT
HETATM    1  C8  UNL     1      -2.385  -0.219  -1.557  1.00  0.00     0.142 A 
HETATM    2  N3  UNL     1      -2.236   0.044  -2.867  1.00  0.00    -0.223 NA
HETATM    3  C9  UNL     1      -3.184   0.663  -3.590  1.00  0.00     0.236 A 
HETATM    4  N4  UNL     1      -4.335   1.046  -3.013  1.00  0.00    -0.234 NA
HETATM    5  C10 UNL     1      -4.538   0.807  -1.706  1.00  0.00     0.113 A 
HETATM    6  C11 UNL     1      -3.559   0.162  -0.937  1.00  0.00     0.049 A 
HETATM    7  C12 UNL     1      -3.523  -0.177   0.312  1.00  0.00     0.063 C 
HETATM    8  C13 UNL     1      -4.456  -0.023   1.382  1.00  0.00     0.150 C 
HETATM    9  F1  UNL     1      -4.036  -0.432   2.615  1.00  0.00    -0.203 F 
HETATM   10  C14 UNL     1      -5.688   0.438   1.492  1.00  0.00     0.110 C 
HETATM   11  C15 UNL     1      -6.550   0.990   0.416  1.00  0.00     0.091 C 
HETATM   12  S1  UNL     1      -6.000   1.327  -1.115  1.00  0.00    -0.078 SA
ENDROOT
BRANCH   1  13
HETATM   13  N2  UNL     1      -1.287  -0.884  -0.951  1.00  0.00    -0.344 N 
HETATM   14  H9  UNL     1      -1.665  -1.866  -1.044  1.00  0.00     0.167 HD
BRANCH  13  15
HETATM   15  C7  UNL     1      -0.028  -0.597  -0.358  1.00  0.00     0.012 C 
HETATM   16  C6  UNL     1       0.162  -1.435   0.662  1.00  0.00     0.026 C 
HETATM   17  C5  UNL     1       1.378  -1.377   1.463  1.00  0.00     0.019 C 
HETATM   18  C4  UNL     1       2.468  -0.606   1.373  1.00  0.00     0.096 C 
HETATM   19  N1  UNL     1       2.652   0.397   0.376  1.00  0.00    -0.303 N 
HETATM   20  C3  UNL     1       4.025   0.585  -0.020  1.00  0.00     0.366 C 
HETATM   21  C17 UNL     1       1.679   1.228  -0.273  1.00  0.00     0.139 C 
HETATM   22  O2  UNL     1       4.290   1.438  -0.885  1.00  0.00    -0.238 OA
HETATM   23  C16 UNL     1       0.637   0.507  -1.056  1.00  0.00     0.077 C 
BRANCH  20  24
HETATM   24  O1  UNL     1       5.037  -0.169   0.549  1.00  0.00    -0.304 OA
BRANCH  24  25
HETATM   25  C2  UNL     1       6.393  -0.073   0.243  1.00  0.00     0.176 C 
HETATM   26  C1  UNL     1       7.172  -1.071   1.085  1.00  0.00     0.034 C 
ENDBRANCH  24  25
ENDBRANCH  20  24
ENDBRANCH  13  15
ENDBRANCH   1  13
BRANCH  10  27
HETATM   27  O3  UNL     1      -6.313   0.435   2.746  1.00  0.00    -0.357 OA
HETATM   28  H12 UNL     1      -6.726  -0.467   3.034  1.00  0.00     0.217 HD
ENDBRANCH  10  27
TORSDOF 5
