REMARK  7 active torsions:
REMARK  status: ('A' for Active; 'I' for Inactive)
REMARK    1  A    between atoms: C2_2  and  O1_3 
REMARK    2  A    between atoms: O1_3  and  C3_4 
REMARK       I    between atoms: C3_4  and  N1_6 
REMARK    3  A    between atoms: N1_6  and  C4_7 
REMARK    4  A    between atoms: C7_10  and  N2_11 
REMARK    5  A    between atoms: N2_11  and  C8_12 
REMARK    6  A    between atoms: C12_18  and  O3_19 
REMARK    7  A    between atoms: C14_21  and  O4_22 
ROOT
HETATM    1  N2  UNL     1      -0.430  -0.476   1.360  1.00  0.00    -0.340 N 
HETATM    2  H9  UNL     1      -0.733  -0.315   2.340  1.00  0.00     0.167 HD
ENDROOT
BRANCH   1   3
HETATM    3  C7  UNL     1       0.722   0.080   0.749  1.00  0.00     0.033 A 
HETATM    4  C6  UNL     1       1.064  -0.258  -0.542  1.00  0.00     0.032 A 
HETATM    5  C5  UNL     1       2.209   0.301  -1.075  1.00  0.00     0.032 A 
HETATM    6  C4  UNL     1       3.010   1.187  -0.342  1.00  0.00     0.036 A 
HETATM    7  C19 UNL     1       2.630   1.499   0.948  1.00  0.00     0.032 A 
HETATM    8  C18 UNL     1       1.490   0.946   1.487  1.00  0.00     0.032 A 
BRANCH   6   9
HETATM    9  N1  UNL     1       4.119   1.601  -1.136  1.00  0.00    -0.303 N 
HETATM   10  C3  UNL     1       5.221   0.683  -0.977  1.00  0.00     0.365 C 
HETATM   11  O2  UNL     1       5.162  -0.320  -0.235  1.00  0.00    -0.238 OA
HETATM   12  H6  UNL     1       4.182   2.448  -1.770  1.00  0.00     0.171 HD
BRANCH  10  13
HETATM   13  O1  UNL     1       6.413   0.878  -1.654  1.00  0.00    -0.304 OA
BRANCH  13  14
HETATM   14  C2  UNL     1       7.538   0.054  -1.586  1.00  0.00     0.176 C 
HETATM   15  C1  UNL     1       8.132  -0.101  -0.221  1.00  0.00     0.034 C 
ENDBRANCH  13  14
ENDBRANCH  10  13
ENDBRANCH   6   9
ENDBRANCH   1   3
BRANCH   1  16
HETATM   16  C8  UNL     1      -1.383  -1.337   0.774  1.00  0.00     0.142 A 
HETATM   17  N3  UNL     1      -1.092  -2.631   0.462  1.00  0.00    -0.224 NA
HETATM   18  C9  UNL     1      -2.052  -3.427  -0.095  1.00  0.00     0.236 A 
HETATM   19  N4  UNL     1      -3.307  -3.023  -0.369  1.00  0.00    -0.241 NA
HETATM   20  C10 UNL     1      -3.676  -1.735  -0.082  1.00  0.00     0.075 A 
HETATM   21  C11 UNL     1      -4.930  -1.220  -0.311  1.00  0.00     0.072 A 
HETATM   22  C17 UNL     1      -2.677  -0.973   0.476  1.00  0.00     0.042 A 
HETATM   23  C12 UNL     1      -5.268   0.071  -0.004  1.00  0.00     0.103 A 
HETATM   24  C14 UNL     1      -4.293   0.905   0.568  1.00  0.00     0.102 A 
HETATM   25  C16 UNL     1      -3.046   0.336   0.778  1.00  0.00     0.057 A 
BRANCH  23  26
HETATM   26  O3  UNL     1      -6.528   0.573  -0.237  1.00  0.00    -0.353 OA
HETATM   27  C13 UNL     1      -7.619  -0.071  -0.784  1.00  0.00     0.210 C 
ENDBRANCH  23  26
BRANCH  24  28
HETATM   28  O4  UNL     1      -4.692   2.194   0.855  1.00  0.00    -0.353 OA
HETATM   29  C15 UNL     1      -3.826   3.129   1.438  1.00  0.00     0.210 C 
ENDBRANCH  24  28
ENDBRANCH   1  16
TORSDOF 7
