REMARK  7 active torsions:
REMARK  status: ('A' for Active; 'I' for Inactive)
REMARK    1  A    between atoms: C2_2  and  O1_3 
REMARK    2  A    between atoms: O1_3  and  C3_4 
REMARK       I    between atoms: C3_4  and  N1_6 
REMARK    3  A    between atoms: N1_6  and  C4_7 
REMARK    4  A    between atoms: C7_10  and  N2_11 
REMARK    5  A    between atoms: N2_11  and  C8_12 
REMARK    6  A    between atoms: C12_18  and  O3_19 
REMARK    7  A    between atoms: C14_21  and  O4_22 
ROOT
HETATM    1  C8  UNL     1      -1.593  -1.137  -0.230  1.00  0.00     0.137 A 
HETATM    2  N3  UNL     1      -1.227  -2.222  -0.865  1.00  0.00    -0.252 NA
HETATM    3  C9  UNL     1      -2.154  -2.993  -1.657  1.00  0.00     0.273 A 
HETATM    4  N4  UNL     1      -3.498  -2.449  -1.667  1.00  0.00    -0.371 N 
HETATM    5  C10 UNL     1      -3.889  -1.273  -0.976  1.00  0.00     0.046 A 
HETATM    6  C11 UNL     1      -5.183  -0.829  -1.041  1.00  0.00     0.069 A 
HETATM    7  C12 UNL     1      -5.492   0.326  -0.341  1.00  0.00     0.103 A 
HETATM    8  C14 UNL     1      -4.554   1.017   0.398  1.00  0.00     0.102 A 
HETATM    9  C16 UNL     1      -3.235   0.568   0.465  1.00  0.00     0.057 A 
HETATM   10  C17 UNL     1      -2.945  -0.590  -0.242  1.00  0.00     0.039 A 
HETATM   11  H12 UNL     1      -4.159  -3.018  -2.240  1.00  0.00     0.161 HD
ENDROOT
BRANCH   1  12
HETATM   12  N2  UNL     1      -0.554  -0.501   0.501  1.00  0.00    -0.341 N 
HETATM   13  H9  UNL     1      -0.864  -0.052   1.400  1.00  0.00     0.167 HD
BRANCH  12  14
HETATM   14  C7  UNL     1       0.814  -0.419   0.134  1.00  0.00     0.033 A 
HETATM   15  C6  UNL     1       1.703   0.205   1.001  1.00  0.00     0.032 A 
HETATM   16  C5  UNL     1       3.041   0.320   0.696  1.00  0.00     0.032 A 
HETATM   17  C4  UNL     1       3.603  -0.152  -0.451  1.00  0.00     0.036 A 
HETATM   18  C19 UNL     1       2.714  -0.768  -1.304  1.00  0.00     0.032 A 
HETATM   19  C18 UNL     1       1.389  -0.892  -1.020  1.00  0.00     0.032 A 
BRANCH  17  20
HETATM   20  N1  UNL     1       4.933  -0.073  -0.824  1.00  0.00    -0.303 N 
HETATM   21  C3  UNL     1       6.031   0.502  -0.135  1.00  0.00     0.365 C 
HETATM   22  O2  UNL     1       5.866   1.032   0.966  1.00  0.00    -0.238 OA
HETATM   23  H6  UNL     1       5.261  -0.477  -1.745  1.00  0.00     0.171 HD
BRANCH  21  24
HETATM   24  O1  UNL     1       7.340   0.536  -0.588  1.00  0.00    -0.304 OA
BRANCH  24  25
HETATM   25  C2  UNL     1       8.313   1.147   0.222  1.00  0.00     0.176 C 
HETATM   26  C1  UNL     1       8.483   0.532   1.572  1.00  0.00     0.034 C 
ENDBRANCH  24  25
ENDBRANCH  21  24
ENDBRANCH  17  20
ENDBRANCH  12  14
ENDBRANCH   1  12
BRANCH   8  27
HETATM   27  O4  UNL     1      -4.966   2.158   1.059  1.00  0.00    -0.353 OA
HETATM   28  C15 UNL     1      -4.113   2.962   1.850  1.00  0.00     0.210 C 
ENDBRANCH   8  27
BRANCH   7  29
HETATM   29  O3  UNL     1      -6.799   0.797  -0.391  1.00  0.00    -0.353 OA
HETATM   30  C13 UNL     1      -7.824   0.177  -1.105  1.00  0.00     0.210 C 
ENDBRANCH   7  29
TORSDOF 7
