REMARK  2 active torsions:
REMARK  status: ('A' for Active; 'I' for Inactive)
REMARK    1  A    between atoms: O1_2  and  C2_3 
REMARK    2  A    between atoms: C3_4  and  O2_5 
ROOT
HETATM    1  C2  UNL     1      -2.522  -1.278  -0.441  1.00  0.00     0.099 C 
HETATM    2  C3  UNL     1      -2.011  -0.062  -0.156  1.00  0.00     0.090 C 
HETATM    3  C5  UNL     1      -0.621   0.317   0.018  1.00  0.00     0.118 C 
HETATM    4  C6  UNL     1       0.009  -0.294   1.248  1.00  0.00     0.048 C 
HETATM    5  C7  UNL     1       0.786   0.688   2.107  1.00  0.00     0.202 C 
HETATM    6  O3  UNL     1       1.704   1.386   1.437  1.00  0.00    -0.284 OA
HETATM    7  N1  UNL     1       3.000   1.254   1.870  1.00  0.00    -0.287 N 
HETATM    8  C8  UNL     1       3.408   1.058   0.451  1.00  0.00     0.092 A 
HETATM    9  C9  UNL     1       3.314  -0.294   0.632  1.00  0.00     0.083 A 
HETATM   10  C10 UNL     1       2.983  -0.953  -0.530  1.00  0.00    -0.001 A 
HETATM   11  C11 UNL     1       3.061   0.367  -0.760  1.00  0.00     0.117 A 
HETATM   12  C12 UNL     1       3.146   1.687  -0.966  1.00  0.00     0.083 A 
HETATM   13  C13 UNL     1       3.477   2.393   0.159  1.00  0.00    -0.008 A 
HETATM   14  O4  UNL     1       2.611   0.035  -2.090  1.00  0.00    -0.263 OA
HETATM   15  N2  UNL     1       1.196   0.308  -2.210  1.00  0.00    -0.251 N 
HETATM   16  C14 UNL     1       0.230  -0.113  -1.167  1.00  0.00     0.134 C 
HETATM   17  N3  UNL     1       0.283  -1.314  -1.654  1.00  0.00    -0.245 NA
HETATM   18  C15 UNL     1      -0.444  -2.453  -1.174  1.00  0.00     0.121 C 
HETATM   19  C16 UNL     1      -1.682  -2.484  -0.633  1.00  0.00     0.058 C 
HETATM   20  H12 UNL     1       3.465   1.282   2.785  1.00  0.00     0.189 HD
HETATM   21  H17 UNL     1       0.552   0.770  -2.892  1.00  0.00     0.196 HD
ENDROOT
BRANCH   1  22
HETATM   22  O1  UNL     1      -3.900  -1.465  -0.572  1.00  0.00    -0.353 OA
HETATM   23  C1  UNL     1      -4.501  -1.588  -1.845  1.00  0.00     0.210 C 
ENDBRANCH   1  22
BRANCH   2  24
HETATM   24  O2  UNL     1      -2.998   0.931  -0.020  1.00  0.00    -0.357 OA
HETATM   25  C4  UNL     1      -2.986   1.774   1.117  1.00  0.00     0.209 C 
ENDBRANCH   2  24
TORSDOF 2
