REMARK  3 active torsions:
REMARK  status: ('A' for Active; 'I' for Inactive)
REMARK    1  A    between atoms: O1_1  and  C1_2 
REMARK    2  A    between atoms: C7_10  and  N2_11 
REMARK    3  A    between atoms: N2_11  and  C8_12 
ROOT
HETATM    1  C1  UNL     1       4.377  -0.040  -1.031  1.00  0.00     0.138 C 
HETATM    2  C2  UNL     1       3.243  -0.198  -0.358  1.00  0.00    -0.007 C 
HETATM    3  C3  UNL     1       3.436  -1.147   0.757  1.00  0.00     0.208 C 
HETATM    4  O2  UNL     1       2.271  -1.756   1.264  1.00  0.00    -0.351 OA
HETATM    5  C4  UNL     1       1.322  -1.086   0.687  1.00  0.00     0.390 C 
HETATM    6  C5  UNL     1       1.515   0.328   1.220  1.00  0.00     0.341 C 
HETATM    7  N1  UNL     1       1.052   0.922  -0.005  1.00  0.00     0.149 N 
HETATM    8  C6  UNL     1       2.119   0.619  -0.921  1.00  0.00     0.316 C 
HETATM    9  C7  UNL     1      -0.181   0.134  -0.203  1.00  0.00     0.561 C 
HETATM   10  N3  UNL     1      -0.047  -1.032   0.719  1.00  0.00     0.167 N 
HETATM   11  H15 UNL     1      -0.564  -1.836   0.353  1.00  0.00     0.324 HD
ENDROOT
BRANCH   9  12
HETATM   12  N2  UNL     1      -1.266   0.907   0.354  1.00  0.00    -0.336 N 
HETATM   13  H11 UNL     1      -1.078   1.828   0.848  1.00  0.00     0.163 HD
BRANCH  12  14
HETATM   14  C8  UNL     1      -2.633   0.533   0.299  1.00  0.00     0.032 A 
HETATM   15  C9  UNL     1      -3.112  -0.565  -0.384  1.00  0.00     0.032 A 
HETATM   16  C10 UNL     1      -4.434  -0.937  -0.435  1.00  0.00     0.046 A 
HETATM   17  C11 UNL     1      -5.376  -0.189   0.226  1.00  0.00     0.138 A 
HETATM   18  F1  UNL     1      -6.691  -0.477   0.232  1.00  0.00    -0.204 F 
HETATM   19  C12 UNL     1      -4.956   0.910   0.920  1.00  0.00     0.074 A 
HETATM   20 CL1  UNL     1      -6.107   1.915   1.792  1.00  0.00    -0.081 Cl
HETATM   21  C13 UNL     1      -3.622   1.246   0.945  1.00  0.00     0.056 A 
ENDBRANCH  12  14
ENDBRANCH   9  12
BRANCH   1  22
HETATM   22  O1  UNL     1       4.482   0.799  -2.132  1.00  0.00    -0.372 OA
HETATM   23  H1  UNL     1       4.529   1.800  -2.097  1.00  0.00     0.216 HD
ENDBRANCH   1  22
TORSDOF 3
