REMARK  7 active torsions:
REMARK  status: ('A' for Active; 'I' for Inactive)
REMARK    1  A    between atoms: B1_2  and  O1_3 
REMARK    2  A    between atoms: O1_3  and  C2_4 
REMARK    3  A    between atoms: C3_5  and  O2_6 
REMARK    4  A    between atoms: N3_15  and  C10_16 
REMARK    5  A    between atoms: C13_19  and  N4_20 
REMARK       I    between atoms: N4_20  and  C14_21 
REMARK    6  A    between atoms: C14_21  and  O4_23 
REMARK    7  A    between atoms: O4_23  and  C15_24 
ROOT
HETATM    1  C2  UNL     1       4.194  -0.793  -0.177  1.00  0.00     0.081 A 
HETATM    2  C3  UNL     1       3.126  -1.288   0.389  1.00  0.00     0.080 A 
HETATM    3  C5  UNL     1       1.838  -0.655   0.793  1.00  0.00     0.101 A 
HETATM    4  C6  UNL     1       1.774   0.813   0.581  1.00  0.00     0.166 A 
HETATM    5  C7  UNL     1       3.005   1.305  -0.084  1.00  0.00     0.063 A 
HETATM    6  C8  UNL     1       4.114   0.637  -0.440  1.00  0.00     0.067 A 
HETATM    7  N1  UNL     1       3.048   2.689  -0.451  1.00  0.00    -0.245 NA
HETATM    8  C9  UNL     1       1.919   3.334  -0.595  1.00  0.00     0.223 C 
HETATM    9  N2  UNL     1       0.701   2.609  -0.371  1.00  0.00    -0.291 N 
HETATM   10  N3  UNL     1       0.557   1.262  -0.003  1.00  0.00    -0.281 N 
HETATM   11  H13 UNL     1      -0.142   3.247  -0.527  1.00  0.00     0.188 HD
ENDROOT
BRANCH  10  12
HETATM   12  C10 UNL     1      -0.712   0.732  -0.299  1.00  0.00     0.051 A 
HETATM   13  C11 UNL     1      -1.444   1.120  -1.396  1.00  0.00     0.033 A 
HETATM   14  C12 UNL     1      -2.691   0.588  -1.634  1.00  0.00     0.032 A 
HETATM   15  C13 UNL     1      -3.270  -0.338  -0.815  1.00  0.00     0.036 A 
HETATM   16  C17 UNL     1      -2.558  -0.744   0.291  1.00  0.00     0.032 A 
HETATM   17  C18 UNL     1      -1.312  -0.196   0.507  1.00  0.00     0.033 A 
BRANCH  15  18
HETATM   18  N4  UNL     1      -4.562  -0.848  -1.118  1.00  0.00    -0.303 N 
HETATM   19  C14 UNL     1      -5.653  -0.115  -0.553  1.00  0.00     0.365 C 
HETATM   20  O3  UNL     1      -5.420   0.905   0.158  1.00  0.00    -0.238 OA
HETATM   21  H16 UNL     1      -4.784  -1.669  -1.688  1.00  0.00     0.171 HD
BRANCH  19  22
HETATM   22  O4  UNL     1      -6.950  -0.540  -0.796  1.00  0.00    -0.304 OA
BRANCH  22  23
HETATM   23  C15 UNL     1      -8.019   0.204  -0.223  1.00  0.00     0.176 C 
HETATM   24  C16 UNL     1      -7.893   0.211   1.303  1.00  0.00     0.034 C 
ENDBRANCH  22  23
ENDBRANCH  19  22
ENDBRANCH  15  18
ENDBRANCH  10  12
BRANCH   2  25
HETATM   25  O2  UNL     1       3.108  -2.659   0.698  1.00  0.00    -0.357 OA
HETATM   26  C4  UNL     1       3.842  -3.070   1.827  1.00  0.00     0.209 C 
ENDBRANCH   2  25
BRANCH   1  27
HETATM   27  O1  UNL     1       5.275  -1.605  -0.469  1.00  0.00    -0.420 OA
BRANCH  27  28
HETATM   28  B1  UNL     1       6.681  -1.217  -0.183  1.00  0.00     0.314 B 
HETATM   29  C1  UNL     1       7.426  -0.098  -1.025  1.00  0.00    -0.024 C 
HETATM   30  H4  UNL     1       7.358  -2.031   0.344  1.00  0.00     0.008 HD
ENDBRANCH  27  28
ENDBRANCH   1  27
TORSDOF 7
