REMARK  7 active torsions:
REMARK  status: ('A' for Active; 'I' for Inactive)
REMARK    1  A    between atoms: C2_2  and  O1_3 
REMARK    2  A    between atoms: O1_3  and  N1_4 
REMARK    3  A    between atoms: C6_9  and  C7_10 
REMARK    4  A    between atoms: C8_11  and  O3_12 
REMARK    5  A    between atoms: O3_12  and  C9_13 
REMARK    6  A    between atoms: C13_19  and  O4_20 
REMARK    7  A    between atoms: C15_22  and  O5_23 
ROOT
HETATM    1  C9  UNL     1      -0.711  -0.114  -1.584  1.00  0.00     0.182 A 
HETATM    2  N2  UNL     1      -0.587  -1.395  -1.976  1.00  0.00    -0.217 NA
HETATM    3  C10 UNL     1      -1.679  -2.206  -1.967  1.00  0.00     0.236 A 
HETATM    4  N3  UNL     1      -2.890  -1.800  -1.585  1.00  0.00    -0.241 NA
HETATM    5  C11 UNL     1      -3.101  -0.515  -1.173  1.00  0.00     0.075 A 
HETATM    6  C12 UNL     1      -4.336  -0.055  -0.770  1.00  0.00     0.072 A 
HETATM    7  C13 UNL     1      -4.399   1.266  -0.380  1.00  0.00     0.103 A 
HETATM    8  C15 UNL     1      -3.329   2.135  -0.367  1.00  0.00     0.102 A 
HETATM    9  C17 UNL     1      -2.118   1.611  -0.783  1.00  0.00     0.057 A 
HETATM   10  C18 UNL     1      -1.965   0.303  -1.190  1.00  0.00     0.049 A 
ENDROOT
BRANCH   1  11
HETATM   11  O3  UNL     1       0.339   0.764  -1.565  1.00  0.00    -0.303 OA
BRANCH  11  12
HETATM   12  C8  UNL     1       1.618   0.371  -1.958  1.00  0.00     0.144 C 
HETATM   13  C7  UNL     1       2.247  -0.085  -0.908  1.00  0.00     0.027 C 
BRANCH  13  14
HETATM   14  C6  UNL     1       1.602  -0.116   0.381  1.00  0.00     0.032 C 
HETATM   15  C5  UNL     1       2.299  -0.588   1.375  1.00  0.00     0.068 C 
HETATM   16  N1  UNL     1       3.622  -1.089   1.402  1.00  0.00    -0.129 N 
HETATM   17  C4  UNL     1       1.770  -0.687   2.779  1.00  0.00     0.090 C 
HETATM   18  O2  UNL     1       3.843  -1.744   2.555  1.00  0.00    -0.253 OA
HETATM   19  C3  UNL     1       2.958  -1.264   3.492  1.00  0.00     0.210 C 
BRANCH  16  20
HETATM   20  O1  UNL     1       4.550  -0.943   0.417  1.00  0.00    -0.254 OA
BRANCH  20  21
HETATM   21  C2  UNL     1       5.225  -2.127   0.166  1.00  0.00     0.200 C 
HETATM   22  C1  UNL     1       6.294  -2.019  -0.881  1.00  0.00     0.036 C 
ENDBRANCH  20  21
ENDBRANCH  16  20
ENDBRANCH  13  14
ENDBRANCH  11  12
ENDBRANCH   1  11
BRANCH   8  23
HETATM   23  O5  UNL     1      -3.575   3.428   0.055  1.00  0.00    -0.353 OA
HETATM   24  C16 UNL     1      -2.526   4.371   0.093  1.00  0.00     0.210 C 
ENDBRANCH   8  23
BRANCH   7  25
HETATM   25  O4  UNL     1      -5.661   1.722   0.028  1.00  0.00    -0.353 OA
HETATM   26  C14 UNL     1      -6.784   0.847   0.025  1.00  0.00     0.210 C 
ENDBRANCH   7  25
TORSDOF 7
