REMARK  3 active torsions:
REMARK  status: ('A' for Active; 'I' for Inactive)
REMARK    1  A    between atoms: O1_2  and  C2_3 
REMARK    2  A    between atoms: C2_3  and  O2_4 
REMARK    3  A    between atoms: O2_4  and  C3_5 
ROOT
HETATM    1  C3  UNL     1       1.900   0.326   0.242  1.00  0.00     0.171 C 
HETATM    2  C4  UNL     1       1.545   1.751  -0.094  1.00  0.00     0.005 C 
HETATM    3  C5  UNL     1       1.364   2.998   0.419  1.00  0.00    -0.026 C 
HETATM    4  C6  UNL     1       0.973   4.188  -0.440  1.00  0.00     0.054 C 
HETATM    5  C7  UNL     1      -0.423   4.640   0.132  1.00  0.00     0.184 C 
HETATM    6  O3  UNL     1      -1.102   3.446   0.113  1.00  0.00    -0.304 OA
HETATM    7  C8  UNL     1      -2.293   3.001   0.398  1.00  0.00     0.365 C 
HETATM    8  O4  UNL     1      -3.211   3.670   0.789  1.00  0.00    -0.238 OA
HETATM    9  N1  UNL     1      -2.678   1.662   0.295  1.00  0.00    -0.303 N 
HETATM   10  C9  UNL     1      -3.077   0.278   0.189  1.00  0.00     0.037 A 
HETATM   11  C10 UNL     1      -3.326  -0.206  -1.071  1.00  0.00     0.032 A 
HETATM   12  C11 UNL     1      -3.459  -1.501  -0.696  1.00  0.00     0.039 A 
HETATM   13  C12 UNL     1      -3.364  -2.051   0.539  1.00  0.00     0.070 A 
HETATM   14  C13 UNL     1      -3.123  -1.547   1.781  1.00  0.00     0.039 A 
HETATM   15  C14 UNL     1      -2.976  -0.232   1.463  1.00  0.00     0.032 A 
HETATM   16  O5  UNL     1      -3.551  -3.445   0.430  1.00  0.00    -0.333 OA
HETATM   17  C15 UNL     1      -2.374  -4.222   0.112  1.00  0.00     0.240 A 
HETATM   18  C16 UNL     1      -2.428  -4.660  -1.295  1.00  0.00     0.132 A 
HETATM   19  N2  UNL     1      -1.516  -3.841  -1.709  1.00  0.00    -0.244 NA
HETATM   20  C17 UNL     1      -1.314  -3.276  -0.402  1.00  0.00     0.159 A 
HETATM   21  N3  UNL     1      -0.874  -2.561   0.558  1.00  0.00    -0.243 NA
HETATM   22  C18 UNL     1       0.112  -1.568   0.477  1.00  0.00     0.117 C 
HETATM   23  C19 UNL     1       0.705  -0.496  -0.030  1.00  0.00     0.028 C 
HETATM   24  H13 UNL     1      -1.776   1.158  -0.044  1.00  0.00     0.171 HD
ENDROOT
BRANCH   1  25
HETATM   25  O2  UNL     1       2.971  -0.023  -0.571  1.00  0.00    -0.354 OA
BRANCH  25  26
HETATM   26  C2  UNL     1       4.111  -0.370   0.135  1.00  0.00     0.338 C 
BRANCH  26  27
HETATM   27  O1  UNL     1       5.094  -0.695  -0.810  1.00  0.00    -0.372 OA
HETATM   28  C1  UNL     1       6.247  -1.045  -0.131  1.00  0.00     0.204 C 
ENDBRANCH  26  27
ENDBRANCH  25  26
ENDBRANCH   1  25
TORSDOF 3
