REMARK  11 active torsions:
REMARK  status: ('A' for Active; 'I' for Inactive)
REMARK    1  A    between atoms: C2_2  and  C3_3 
REMARK    2  A    between atoms: C3_3  and  O1_4 
REMARK    3  A    between atoms: C8_11  and  O2_12 
REMARK    4  A    between atoms: O2_12  and  C9_13 
REMARK    5  A    between atoms: C9_13  and  C10_14 
REMARK    6  A    between atoms: C10_14  and  C11_15 
REMARK    7  A    between atoms: C11_15  and  C12_16 
REMARK    8  A    between atoms: C12_16  and  C13_17 
REMARK    9  A    between atoms: C13_17  and  N3_18 
REMARK       I    between atoms: N3_18  and  C14_19 
REMARK   10  A    between atoms: C14_19  and  O4_21 
REMARK   11  A    between atoms: O4_21  and  C15_22 
ROOT
HETATM    1  O2  UNL     1      -1.248  -0.461  -0.808  1.00  0.00    -0.333 OA
ENDROOT
BRANCH   1   2
HETATM    2  C8  UNL     1      -2.390   0.066  -1.338  1.00  0.00     0.155 C 
HETATM    3  N2  UNL     1      -2.272   0.206  -2.614  1.00  0.00    -0.221 NA
HETATM    4  C7  UNL     1      -3.343   0.684  -3.419  1.00  0.00     0.235 C 
HETATM    5  N1  UNL     1      -4.470   0.913  -2.856  1.00  0.00    -0.246 NA
HETATM    6  C6  UNL     1      -4.812   0.706  -1.503  1.00  0.00     0.050 C 
HETATM    7  C5  UNL     1      -5.505   0.691  -0.379  1.00  0.00     0.040 C 
HETATM    8  C17 UNL     1      -3.597   0.502  -0.731  1.00  0.00     0.153 C 
HETATM    9  C3  UNL     1      -4.388   0.039   0.351  1.00  0.00     0.100 C 
BRANCH   9  10
HETATM   10  C2  UNL     1      -4.196   0.680   1.711  1.00  0.00     0.033 C 
HETATM   11  C1  UNL     1      -4.922   1.118   2.732  1.00  0.00     0.009 C 
ENDBRANCH   9  10
BRANCH   9  12
HETATM   12  O1  UNL     1      -4.670  -1.330   0.460  1.00  0.00    -0.379 OA
HETATM   13  C4  UNL     1      -5.845  -1.525   1.199  1.00  0.00     0.203 C 
ENDBRANCH   9  12
ENDBRANCH   1   2
BRANCH   1  14
HETATM   14  C9  UNL     1       0.045  -0.195  -1.332  1.00  0.00     0.204 C 
BRANCH  14  15
HETATM   15  C10 UNL     1       1.079  -1.040  -0.706  1.00  0.00    -0.004 C 
BRANCH  15  16
HETATM   16  C11 UNL     1       2.221  -0.976   0.020  1.00  0.00    -0.027 C 
BRANCH  16  17
HETATM   17  C12 UNL     1       2.845  -2.237   0.373  1.00  0.00     0.046 C 
BRANCH  17  18
HETATM   18  C13 UNL     1       4.231  -2.433  -0.150  1.00  0.00     0.128 C 
BRANCH  18  19
HETATM   19  N3  UNL     1       5.233  -1.530   0.261  1.00  0.00    -0.337 N 
HETATM   20  C14 UNL     1       5.516  -0.160   0.153  1.00  0.00     0.360 C 
HETATM   21  O3  UNL     1       4.705   0.530  -0.478  1.00  0.00    -0.239 OA
HETATM   22  H17 UNL     1       6.012  -1.998   0.817  1.00  0.00     0.164 HD
BRANCH  20  23
HETATM   23  O4  UNL     1       6.612   0.498   0.681  1.00  0.00    -0.304 OA
BRANCH  23  24
HETATM   24  C15 UNL     1       6.807   1.875   0.518  1.00  0.00     0.176 C 
HETATM   25  C16 UNL     1       5.670   2.691   1.110  1.00  0.00     0.034 C 
ENDBRANCH  23  24
ENDBRANCH  20  23
ENDBRANCH  18  19
ENDBRANCH  17  18
ENDBRANCH  16  17
ENDBRANCH  15  16
ENDBRANCH  14  15
ENDBRANCH   1  14
TORSDOF 11
