REMARK  8 active torsions:
REMARK  status: ('A' for Active; 'I' for Inactive)
REMARK    1  A    between atoms: C2_2  and  O1_3 
REMARK    2  A    between atoms: O1_3  and  C3_4 
REMARK       I    between atoms: C3_4  and  N1_6 
REMARK    3  A    between atoms: N1_6  and  C4_7 
REMARK    4  A    between atoms: C7_10  and  C8_11 
REMARK    5  A    between atoms: C10_15  and  O3_16 
REMARK    6  A    between atoms: O3_16  and  C11_17 
REMARK    7  A    between atoms: C11_17  and  O4_18 
REMARK    8  A    between atoms: C12_19  and  O5_20 
ROOT
HETATM    1  C8  UNL     1      -0.973  -0.105   0.297  1.00  0.00     0.068 C 
HETATM    2  N2  UNL     1      -1.283  -0.842   1.331  1.00  0.00    -0.242 NA
HETATM    3  C9  UNL     1      -2.501  -1.438   1.830  1.00  0.00     0.230 C 
HETATM    4  N3  UNL     1      -3.737  -1.314   1.476  1.00  0.00    -0.248 NA
HETATM    5  C10 UNL     1      -4.601  -0.669   0.568  1.00  0.00     0.280 C 
HETATM    6  C12 UNL     1      -4.243   0.695   0.094  1.00  0.00     0.194 C 
HETATM    7  C14 UNL     1      -3.098   0.723  -0.854  1.00  0.00     0.011 C 
HETATM    8  C15 UNL     1      -1.790   0.410  -0.796  1.00  0.00     0.031 C 
ENDROOT
BRANCH   1   9
HETATM    9  C7  UNL     1       0.426   0.224   0.275  1.00  0.00    -0.007 A 
HETATM   10  C6  UNL     1       1.190  -0.293   1.325  1.00  0.00     0.016 A 
HETATM   11  C5  UNL     1       2.560  -0.044   1.423  1.00  0.00     0.030 A 
HETATM   12  C4  UNL     1       3.205   0.726   0.477  1.00  0.00     0.036 A 
HETATM   13  C17 UNL     1       2.467   1.243  -0.566  1.00  0.00     0.030 A 
HETATM   14  C16 UNL     1       1.118   0.969  -0.618  1.00  0.00     0.016 A 
BRANCH  12  15
HETATM   15  N1  UNL     1       4.604   0.945   0.629  1.00  0.00    -0.303 N 
HETATM   16  C3  UNL     1       5.523   0.030   0.031  1.00  0.00     0.365 C 
HETATM   17  O2  UNL     1       5.150  -0.983  -0.639  1.00  0.00    -0.238 OA
HETATM   18  H6  UNL     1       5.015   1.732   1.149  1.00  0.00     0.171 HD
BRANCH  16  19
HETATM   19  O1  UNL     1       6.920   0.118   0.095  1.00  0.00    -0.304 OA
BRANCH  19  20
HETATM   20  C2  UNL     1       7.679  -0.890  -0.565  1.00  0.00     0.176 C 
HETATM   21  C1  UNL     1       9.144  -0.579  -0.353  1.00  0.00     0.034 C 
ENDBRANCH  19  20
ENDBRANCH  16  19
ENDBRANCH  12  15
ENDBRANCH   1   9
BRANCH   6  22
HETATM   22  O5  UNL     1      -5.346   1.245  -0.558  1.00  0.00    -0.382 OA
HETATM   23  C13 UNL     1      -5.791   2.373   0.148  1.00  0.00     0.202 C 
ENDBRANCH   6  22
BRANCH   5  24
HETATM   24  O3  UNL     1      -4.795  -1.511  -0.545  1.00  0.00    -0.338 OA
BRANCH  24  25
HETATM   25  C11 UNL     1      -6.099  -1.948  -0.664  1.00  0.00     0.337 C 
BRANCH  25  26
HETATM   26  O4  UNL     1      -6.928  -0.846  -0.807  1.00  0.00    -0.377 OA
HETATM   27  H13 UNL     1      -7.735  -0.878  -0.222  1.00  0.00     0.212 HD
ENDBRANCH  25  26
ENDBRANCH  24  25
ENDBRANCH   5  24
TORSDOF 8
