REMARK  8 active torsions:
REMARK  status: ('A' for Active; 'I' for Inactive)
REMARK    1  A    between atoms: C2_2  and  C3_3 
REMARK    2  A    between atoms: C3_3  and  C4_4 
REMARK    3  A    between atoms: C5_5  and  C6_6 
REMARK    4  A    between atoms: C6_6  and  O1_7 
REMARK    5  A    between atoms: C9_10  and  C10_11 
REMARK    6  A    between atoms: C13_14  and  N1_15 
REMARK       I    between atoms: N1_15  and  C14_16 
REMARK    7  A    between atoms: C14_16  and  O3_18 
REMARK    8  A    between atoms: O3_18  and  C15_19 
ROOT
HETATM    1  C4  UNL     1      -4.482  -0.196   0.297  1.00  0.00     0.044 C 
HETATM    2  C5  UNL     1      -4.169   0.224  -0.914  1.00  0.00    -0.010 C 
HETATM    3  C7  UNL     1      -2.879   0.787  -1.383  1.00  0.00     0.013 C 
HETATM    4  C8  UNL     1      -1.584   0.759  -1.010  1.00  0.00     0.033 C 
HETATM    5  C9  UNL     1      -0.867   0.120   0.082  1.00  0.00     0.068 C 
HETATM    6  N2  UNL     1      -1.291  -0.298   1.240  1.00  0.00    -0.241 NA
HETATM    7  C19 UNL     1      -2.547  -0.326   1.931  1.00  0.00     0.234 C 
HETATM    8  N3  UNL     1      -3.802  -0.285   1.548  1.00  0.00    -0.246 NA
ENDROOT
BRANCH   5   9
HETATM    9  C10 UNL     1       0.554  -0.132  -0.057  1.00  0.00    -0.007 A 
HETATM   10  C11 UNL     1       1.208  -0.723   0.983  1.00  0.00     0.016 A 
HETATM   11  C12 UNL     1       2.556  -1.010   0.947  1.00  0.00     0.030 A 
HETATM   12  C13 UNL     1       3.328  -0.712  -0.152  1.00  0.00     0.036 A 
HETATM   13  C17 UNL     1       2.696  -0.118  -1.211  1.00  0.00     0.030 A 
HETATM   14  C18 UNL     1       1.348   0.153  -1.141  1.00  0.00     0.016 A 
BRANCH  12  15
HETATM   15  N1  UNL     1       4.715  -1.014  -0.170  1.00  0.00    -0.303 N 
HETATM   16  C14 UNL     1       5.746  -0.131   0.273  1.00  0.00     0.365 C 
HETATM   17  O2  UNL     1       5.416   1.012   0.718  1.00  0.00    -0.238 OA
HETATM   18  H13 UNL     1       4.984  -1.952  -0.535  1.00  0.00     0.171 HD
BRANCH  16  19
HETATM   19  O3  UNL     1       7.066  -0.526   0.212  1.00  0.00    -0.304 OA
BRANCH  19  20
HETATM   20  C15 UNL     1       8.091   0.333   0.644  1.00  0.00     0.176 C 
HETATM   21  C16 UNL     1       9.459  -0.298   0.490  1.00  0.00     0.034 C 
ENDBRANCH  19  20
ENDBRANCH  16  19
ENDBRANCH  12  15
ENDBRANCH   5   9
BRANCH   2  22
HETATM   22  C6  UNL     1      -5.041   0.233  -2.083  1.00  0.00     0.205 C 
BRANCH  22  23
HETATM   23  O1  UNL     1      -5.121   1.600  -2.478  1.00  0.00    -0.396 OA
HETATM   24  H8  UNL     1      -5.656   2.017  -1.730  1.00  0.00     0.209 HD
ENDBRANCH  22  23
ENDBRANCH   2  22
BRANCH   1  25
HETATM   25  C3  UNL     1      -5.841  -0.713   0.513  1.00  0.00     0.065 C 
BRANCH  25  26
HETATM   26  C2  UNL     1      -6.585   0.094   1.537  1.00  0.00    -0.004 C 
HETATM   27  C1  UNL     1      -7.718   0.669   1.076  1.00  0.00     0.006 C 
ENDBRANCH  25  26
ENDBRANCH   1  25
TORSDOF 8
