REMARK  6 active torsions:
REMARK  status: ('A' for Active; 'I' for Inactive)
REMARK    1  A    between atoms: C2_2  and  O1_3 
REMARK    2  A    between atoms: O1_3  and  C3_4 
REMARK       I    between atoms: C3_4  and  N1_6 
REMARK    3  A    between atoms: N1_6  and  C4_7 
REMARK    4  A    between atoms: C10_13  and  O3_14 
REMARK    5  A    between atoms: C13_17  and  N2_18 
REMARK    6  A    between atoms: C14_19  and  N3_20 
ROOT
HETATM    1  C4  UNL     1       0.010   1.654  -0.140  1.00  0.00     0.045 A 
HETATM    2  C5  UNL     1      -0.911   2.440   0.469  1.00  0.00     0.033 A 
HETATM    3  C6  UNL     1      -2.195   2.077   0.813  1.00  0.00     0.039 A 
HETATM    4  C7  UNL     1      -2.745   0.852   0.587  1.00  0.00     0.069 A 
HETATM    5  C8  UNL     1      -1.742   0.172  -0.027  1.00  0.00     0.048 A 
HETATM    6  C9  UNL     1      -0.442   0.390  -0.418  1.00  0.00     0.001 A 
HETATM    7  C10 UNL     1      -0.017  -0.968  -0.895  1.00  0.00     0.163 C 
HETATM    8  C12 UNL     1      -0.219  -1.911   0.320  1.00  0.00     0.122 C 
HETATM    9  C13 UNL     1      -1.444  -2.189   0.982  1.00  0.00     0.048 C 
HETATM   10  C15 UNL     1      -2.909  -2.195   1.366  1.00  0.00     0.055 C 
HETATM   11  C16 UNL     1      -3.849  -1.363   0.553  1.00  0.00     0.178 C 
HETATM   12  O4  UNL     1      -3.813   0.026   0.710  1.00  0.00    -0.351 OA
ENDROOT
BRANCH   1  13
HETATM   13  N1  UNL     1       1.316   1.784  -0.558  1.00  0.00    -0.302 N 
HETATM   14  C3  UNL     1       2.073   2.960  -0.460  1.00  0.00     0.365 C 
HETATM   15  O2  UNL     1       1.586   4.004   0.022  1.00  0.00    -0.238 OA
HETATM   16  H6  UNL     1       1.911   1.044  -0.985  1.00  0.00     0.171 HD
BRANCH  14  17
HETATM   17  O1  UNL     1       3.372   3.120  -0.855  1.00  0.00    -0.304 OA
BRANCH  17  18
HETATM   18  C2  UNL     1       4.024   4.365  -0.706  1.00  0.00     0.176 C 
HETATM   19  C1  UNL     1       5.476   4.285  -1.158  1.00  0.00     0.034 C 
ENDBRANCH  17  18
ENDBRANCH  14  17
ENDBRANCH   1  13
BRANCH   7  20
HETATM   20  O3  UNL     1      -0.869  -1.406  -1.930  1.00  0.00    -0.385 OA
HETATM   21  C11 UNL     1      -0.227  -1.738  -3.088  1.00  0.00     0.202 C 
ENDBRANCH   7  20
BRANCH   9  22
HETATM   22  N2  UNL     1      -0.802  -3.093   1.930  1.00  0.00    -0.279 NA
HETATM   23  C14 UNL     1      -0.842  -4.355   1.888  1.00  0.00     0.194 C 
BRANCH  23  24
HETATM   24  N3  UNL     1      -0.074  -4.794   3.011  1.00  0.00    -0.394 N 
HETATM   25  H16 UNL     1      -0.269  -5.347   3.892  1.00  0.00     0.156 HD
HETATM   26  H17 UNL     1       0.775  -4.929   3.640  1.00  0.00     0.156 HD
ENDBRANCH  23  24
ENDBRANCH   9  22
TORSDOF 6
