REMARK  4 active torsions:
REMARK  status: ('A' for Active; 'I' for Inactive)
REMARK    1  A    between atoms: C2_2  and  O1_3 
REMARK    2  A    between atoms: O1_3  and  C3_4 
REMARK       I    between atoms: C3_4  and  N1_6 
REMARK    3  A    between atoms: N1_6  and  C4_7 
REMARK    4  A    between atoms: C12_19  and  O4_20 
ROOT
HETATM    1  C4  UNL     1       1.893  -1.381  -0.896  1.00  0.00     0.066 A 
HETATM    2  C5  UNL     1       0.565  -1.295  -0.830  1.00  0.00     0.047 A 
HETATM    3  C6  UNL     1      -0.451  -1.348   0.238  1.00  0.00    -0.013 A 
HETATM    4  C7  UNL     1       0.046  -1.534   1.587  1.00  0.00     0.090 A 
HETATM    5  C8  UNL     1       1.423  -1.672   1.893  1.00  0.00     0.075 A 
HETATM    6  S1  UNL     1       2.586  -1.625   0.753  1.00  0.00    -0.154 SA
HETATM    7  O3  UNL     1      -0.791  -1.603   2.898  1.00  0.00    -0.289 OA
HETATM    8  C9  UNL     1      -1.580  -0.313   3.061  1.00  0.00     0.200 A 
HETATM    9  N2  UNL     1      -2.038   0.735   3.723  1.00  0.00    -0.148 NA
HETATM   10  N3  UNL     1      -2.867   1.756   3.145  1.00  0.00    -0.286 N 
HETATM   11  C10 UNL     1      -3.433   1.989   1.789  1.00  0.00     0.124 A 
HETATM   12  C11 UNL     1      -3.123   1.010   0.881  1.00  0.00     0.028 A 
HETATM   13  C12 UNL     1      -3.381   0.769  -0.589  1.00  0.00     0.077 C 
HETATM   14  C14 UNL     1      -2.378  -0.114  -1.101  1.00  0.00     0.020 C 
HETATM   15  C15 UNL     1      -1.677  -1.284  -0.568  1.00  0.00     0.050 C 
HETATM   16  C16 UNL     1      -2.740  -2.141   0.218  1.00  0.00     0.041 C 
HETATM   17  C17 UNL     1      -3.053  -1.365   1.404  1.00  0.00    -0.009 C 
HETATM   18  C18 UNL     1      -2.263   0.072   1.763  1.00  0.00     0.029 A 
HETATM   19  H9  UNL     1       3.915  -1.241   1.057  1.00  0.00     0.102 HD
HETATM   20  H10 UNL     1      -3.177   2.527   3.733  1.00  0.00     0.188 HD
ENDROOT
BRANCH   1  21
HETATM   21  N1  UNL     1       2.787  -1.312  -2.031  1.00  0.00    -0.297 N 
HETATM   22  C3  UNL     1       3.721  -0.242  -1.932  1.00  0.00     0.365 C 
HETATM   23  O2  UNL     1       3.620   0.455  -0.897  1.00  0.00    -0.238 OA
HETATM   24  H6  UNL     1       2.840  -1.922  -2.889  1.00  0.00     0.171 HD
BRANCH  22  25
HETATM   25  O1  UNL     1       4.673   0.042  -2.870  1.00  0.00    -0.304 OA
BRANCH  25  26
HETATM   26  C2  UNL     1       5.592   1.137  -2.721  1.00  0.00     0.176 C 
HETATM   27  C1  UNL     1       6.375   0.863  -1.434  1.00  0.00     0.034 C 
ENDBRANCH  25  26
ENDBRANCH  22  25
ENDBRANCH   1  21
BRANCH  13  28
HETATM   28  O4  UNL     1      -4.459   1.531  -0.705  1.00  0.00    -0.355 OA
HETATM   29  C13 UNL     1      -4.437   2.629  -1.639  1.00  0.00     0.210 C 
ENDBRANCH  13  28
TORSDOF 4
