REMARK  6 active torsions:
REMARK  status: ('A' for Active; 'I' for Inactive)
REMARK    1  A    between atoms: O1_2  and  C2_3 
REMARK    2  A    between atoms: C2_3  and  C3_4 
REMARK    3  A    between atoms: C9_14  and  C10_15 
REMARK    4  A    between atoms: C10_15  and  C11_16 
REMARK    5  A    between atoms: C13_19  and  N3_20 
REMARK    6  A    between atoms: C14_21  and  O4_22 
ROOT
HETATM    1  C11 UNL     1       3.883   0.602  -0.353  1.00  0.00     0.036 C 
HETATM    2  C12 UNL     1       4.889   0.331  -1.456  1.00  0.00     0.391 C 
HETATM    3  O3  UNL     1       5.756   0.065  -2.272  1.00  0.00    -0.430 OA
ENDROOT
BRANCH   1   4
HETATM    4  C10 UNL     1       2.894  -0.488  -0.427  1.00  0.00    -0.001 C 
BRANCH   4   5
HETATM    5  C9  UNL     1       1.770  -0.465   0.592  1.00  0.00    -0.022 C 
HETATM    6  B1  UNL     1       2.326  -0.547   2.055  1.00  0.00     0.165 B 
HETATM    7  C8  UNL     1       2.205  -1.878   2.931  1.00  0.00    -0.027 C 
HETATM    8  H12 UNL     1       2.940   0.352   2.547  1.00  0.00    -0.026 HD
HETATM    9  C7  UNL     1       1.058  -2.717   2.347  1.00  0.00     0.167 C 
HETATM   10  O2  UNL     1      -0.061  -1.832   2.429  1.00  0.00    -0.338 OA
HETATM   11  C6  UNL     1      -0.886  -1.745   1.319  1.00  0.00     0.153 A 
HETATM   12  N2  UNL     1      -1.128  -2.836   0.650  1.00  0.00    -0.221 NA
HETATM   13  C16 UNL     1      -1.406  -0.380   1.029  1.00  0.00     0.145 A 
HETATM   14  C5  UNL     1      -1.969  -2.727  -0.485  1.00  0.00     0.235 A 
HETATM   15  N1  UNL     1      -2.497  -1.591  -0.876  1.00  0.00    -0.246 NA
HETATM   16  C4  UNL     1      -2.252  -0.380  -0.172  1.00  0.00     0.048 A 
HETATM   17  C3  UNL     1      -2.879   0.632  -0.748  1.00  0.00     0.027 C 
HETATM   18  C14 UNL     1      -0.418   0.722   1.155  1.00  0.00     0.171 C 
HETATM   19  C13 UNL     1       0.817   0.675   0.349  1.00  0.00     0.242 C 
BRANCH  17  20
HETATM   20  C2  UNL     1      -3.710   0.470  -1.962  1.00  0.00     0.196 C 
BRANCH  20  21
HETATM   21  O1  UNL     1      -3.258   1.227  -3.042  1.00  0.00    -0.392 OA
HETATM   22  C1  UNL     1      -4.121   1.003  -4.137  1.00  0.00     0.201 C 
ENDBRANCH  20  21
ENDBRANCH  17  20
BRANCH  18  23
HETATM   23  O4  UNL     1      -1.113   1.871   0.689  1.00  0.00    -0.387 OA
HETATM   24  C15 UNL     1      -1.369   2.792   1.662  1.00  0.00     0.202 C 
ENDBRANCH  18  23
BRANCH  19  25
HETATM   25  N3  UNL     1       1.508   1.959   0.615  1.00  0.00     0.085 N 
HETATM   26  H20 UNL     1       1.018   2.767   0.212  1.00  0.00     0.313 HD
HETATM   27  H21 UNL     1       1.587   2.093   1.641  1.00  0.00     0.313 HD
ENDBRANCH  19  25
ENDBRANCH   4   5
ENDBRANCH   1   4
TORSDOF 6
