REMARK  5 active torsions:
REMARK  status: ('A' for Active; 'I' for Inactive)
REMARK    1  A    between atoms: C2_2  and  O1_3 
REMARK    2  A    between atoms: O1_3  and  C3_4 
REMARK       I    between atoms: C3_4  and  N1_6 
REMARK    3  A    between atoms: N1_6  and  C4_7 
REMARK    4  A    between atoms: C7_10  and  O3_11 
REMARK    5  A    between atoms: O3_11  and  C8_12 
ROOT
HETATM    1  C4  UNL     1       1.271   0.073  -0.385  1.00  0.00     0.037 A 
HETATM    2  C5  UNL     1       0.602  -0.464  -1.465  1.00  0.00     0.032 A 
HETATM    3  C6  UNL     1      -0.538  -1.214  -1.268  1.00  0.00     0.039 A 
HETATM    4  C7  UNL     1      -0.982  -1.406   0.046  1.00  0.00     0.078 A 
HETATM    5  C15 UNL     1      -0.331  -0.877   1.167  1.00  0.00     0.039 A 
HETATM    6  C16 UNL     1       0.806  -0.134   0.908  1.00  0.00     0.032 A 
ENDROOT
BRANCH   4   7
HETATM    7  O3  UNL     1      -2.107  -2.144   0.266  1.00  0.00    -0.291 OA
BRANCH   7   8
HETATM    8  C8  UNL     1      -3.405  -1.748   0.337  1.00  0.00     0.183 A 
HETATM    9  N2  UNL     1      -4.232  -2.807   0.574  1.00  0.00    -0.217 NA
HETATM   10  C9  UNL     1      -5.565  -2.618   0.679  1.00  0.00     0.236 A 
HETATM   11  N3  UNL     1      -6.116  -1.399   0.554  1.00  0.00    -0.241 NA
HETATM   12  C10 UNL     1      -5.355  -0.319   0.320  1.00  0.00     0.069 A 
HETATM   13  C11 UNL     1      -3.996  -0.508   0.213  1.00  0.00     0.042 A 
HETATM   14  C14 UNL     1      -5.597   0.951   0.157  1.00  0.00     0.010 A 
HETATM   15  C12 UNL     1      -3.335   0.614  -0.018  1.00  0.00    -0.005 A 
HETATM   16  C13 UNL     1      -4.328   1.718  -0.081  1.00  0.00     0.057 A 
ENDBRANCH   7   8
ENDBRANCH   4   7
BRANCH   1  17
HETATM   17  N1  UNL     1       2.453   0.861  -0.459  1.00  0.00    -0.303 N 
HETATM   18  C3  UNL     1       3.777   0.314  -0.420  1.00  0.00     0.365 C 
HETATM   19  O2  UNL     1       4.282  -0.814  -0.327  1.00  0.00    -0.238 OA
HETATM   20  H6  UNL     1       2.414   1.900  -0.547  1.00  0.00     0.171 HD
BRANCH  18  21
HETATM   21  O1  UNL     1       4.896   1.143  -0.497  1.00  0.00    -0.304 OA
BRANCH  21  22
HETATM   22  C2  UNL     1       6.211   0.609  -0.459  1.00  0.00     0.176 C 
HETATM   23  C1  UNL     1       7.228   1.706  -0.559  1.00  0.00     0.034 C 
ENDBRANCH  21  22
ENDBRANCH  18  21
ENDBRANCH   1  17
TORSDOF 5
