REMARK  3 active torsions:
REMARK  status: ('A' for Active; 'I' for Inactive)
REMARK    1  A    between atoms: O1_2  and  C2_3 
REMARK    2  A    between atoms: N3_20  and  C15_21 
REMARK    3  A    between atoms: C15_21  and  S1_22 
ROOT
HETATM    1  C2  UNL     1      -0.313   0.486   0.300  1.00  0.00     0.114 C 
HETATM    2  C3  UNL     1       0.636   1.289   0.899  1.00  0.00     0.177 C 
HETATM    3  O2  UNL     1      -0.344   1.751   1.742  1.00  0.00    -0.330 OA
HETATM    4  C4  UNL     1      -1.465   1.342   2.460  1.00  0.00     0.207 C 
HETATM    5  C5  UNL     1      -2.465   0.457   1.776  1.00  0.00     0.028 C 
HETATM    6  C6  UNL     1      -2.397  -0.565   0.936  1.00  0.00     0.052 A 
HETATM    7  N1  UNL     1      -3.359  -1.366   0.296  1.00  0.00    -0.245 NA
HETATM    8  C7  UNL     1      -2.947  -2.296  -0.560  1.00  0.00     0.235 A 
HETATM    9  N2  UNL     1      -1.588  -2.626  -0.948  1.00  0.00    -0.221 NA
HETATM   10  C8  UNL     1      -0.676  -1.927  -0.378  1.00  0.00     0.159 A 
HETATM   11  O3  UNL     1       0.419  -2.637  -1.088  1.00  0.00    -0.321 OA
HETATM   12  C9  UNL     1       0.996  -1.852  -2.173  1.00  0.00     0.113 A 
HETATM   13  C10 UNL     1       1.475  -0.992  -1.133  1.00  0.00     0.084 A 
HETATM   14  C11 UNL     1       1.710  -0.547   0.196  1.00  0.00     0.011 A 
HETATM   15  C12 UNL     1       2.216   0.305  -0.715  1.00  0.00     0.052 A 
HETATM   16  C13 UNL     1       2.334   0.434  -2.031  1.00  0.00     0.029 A 
HETATM   17  C14 UNL     1       1.693  -0.692  -2.551  1.00  0.00     0.041 A 
HETATM   18  N3  UNL     1       2.038   1.257   0.409  1.00  0.00    -0.317 N 
HETATM   19  C16 UNL     1      -1.056  -0.868   0.608  1.00  0.00     0.175 A 
ENDROOT
BRANCH  18  20
HETATM   20  C15 UNL     1       3.048   2.067   0.967  1.00  0.00     0.172 C 
BRANCH  20  21
HETATM   21  S1  UNL     1       4.313   1.347   1.696  1.00  0.00     0.075 SA
HETATM   22  O4  UNL     1       3.837   0.535   2.960  1.00  0.00    -0.144 OA
ENDBRANCH  20  21
ENDBRANCH  18  20
BRANCH   1  23
HETATM   23  O1  UNL     1      -0.553   1.238  -0.873  1.00  0.00    -0.355 OA
HETATM   24  C1  UNL     1      -1.619   0.872  -1.706  1.00  0.00     0.209 C 
ENDBRANCH   1  23
TORSDOF 3
