REMARK  0 active torsions:
REMARK  status: ('A' for Active; 'I' for Inactive)
ROOT
HETATM    1  C1  UNL     1      -1.540  -1.187   0.882  1.00  0.00     0.026 C 
HETATM    2  C2  UNL     1      -2.698  -0.602   1.383  1.00  0.00     0.135 C 
HETATM    3  O1  UNL     1      -3.887   0.098   0.790  1.00  0.00    -0.357 OA
HETATM    4  C3  UNL     1      -3.397   1.563   0.764  1.00  0.00     0.238 C 
HETATM    5  C4  UNL     1      -1.996   1.241   0.334  1.00  0.00     0.069 C 
HETATM    6  C5  UNL     1      -0.957   1.561   1.191  1.00  0.00     0.047 C 
HETATM    7  C6  UNL     1       0.498   1.271   0.903  1.00  0.00     0.301 A 
HETATM    8  C7  UNL     1       1.788   1.347   1.329  1.00  0.00     0.260 A 
HETATM    9  C8  UNL     1       2.688   1.771   2.349  1.00  0.00     0.199 A 
HETATM   10  N1  UNL     1       3.849   0.930   1.826  1.00  0.00    -0.273 NA
HETATM   11  C9  UNL     1       3.261   0.360   0.729  1.00  0.00     0.351 A 
HETATM   12  N2  UNL     1       1.835   0.540   0.222  1.00  0.00     0.112 N 
HETATM   13  O2  UNL     1       1.987  -0.242  -0.788  1.00  0.00    -0.176 OA
HETATM   14  C10 UNL     1       2.083  -1.506  -0.990  1.00  0.00     0.331 C 
HETATM   15  N3  UNL     1       1.015  -2.447  -0.614  1.00  0.00    -0.367 N 
HETATM   16  C11 UNL     1      -0.210  -1.773  -1.087  1.00  0.00     0.029 C 
HETATM   17  C12 UNL     1      -0.299  -1.806   0.236  1.00  0.00     0.031 C 
HETATM   18  C13 UNL     1      -0.295  -1.466  -2.498  1.00  0.00     0.027 C 
HETATM   19  C14 UNL     1      -0.916  -0.320  -2.923  1.00  0.00     0.002 C 
HETATM   20  C15 UNL     1      -1.253   0.275  -1.689  1.00  0.00     0.203 C 
HETATM   21  O3  UNL     1      -2.338   0.652  -0.995  1.00  0.00    -0.350 OA
HETATM   22  H12 UNL     1       1.344  -3.348  -0.136  1.00  0.00     0.161 HD
ENDROOT
TORSDOF 0
