REMARK  6 active torsions:
REMARK  status: ('A' for Active; 'I' for Inactive)
REMARK    1  A    between atoms: C2_2  and  C3_4 
REMARK    2  A    between atoms: C4_6  and  C5_7 
REMARK    3  A    between atoms: C6_8  and  N1_9 
REMARK    4  A    between atoms: N1_9  and  C7_10 
REMARK    5  A    between atoms: C14_20  and  C15_21 
REMARK    6  A    between atoms: C15_21  and  O2_23 
ROOT
HETATM    1  C7  UNL     1       0.855   0.212   1.747  1.00  0.00     0.159 A 
HETATM    2  N2  UNL     1       1.043   1.228   2.608  1.00  0.00    -0.222 NA
HETATM    3  C8  UNL     1       0.081   2.194   2.706  1.00  0.00     0.238 A 
HETATM    4  N3  UNL     1      -1.031   2.132   1.957  1.00  0.00    -0.216 NA
HETATM    5  C9  UNL     1      -1.249   1.118   1.078  1.00  0.00     0.197 A 
HETATM    6  C10 UNL     1      -0.276   0.120   0.965  1.00  0.00     0.128 A 
HETATM    7  N4  UNL     1      -0.252  -1.042   0.141  1.00  0.00    -0.379 N 
HETATM    8  C11 UNL     1      -1.460  -1.724  -0.271  1.00  0.00     0.157 C 
HETATM    9  C12 UNL     1      -2.518  -0.853  -0.790  1.00  0.00    -0.032 A 
HETATM   10  C13 UNL     1      -3.465  -1.754  -1.115  1.00  0.00     0.025 A 
HETATM   11  C14 UNL     1      -4.736  -1.329  -1.688  1.00  0.00     0.034 A 
HETATM   12  C16 UNL     1      -4.825  -0.020  -1.839  1.00  0.00    -0.006 A 
HETATM   13  C17 UNL     1      -3.900   1.062  -1.543  1.00  0.00     0.065 A 
HETATM   14  C18 UNL     1      -2.617   0.620  -0.947  1.00  0.00     0.164 A 
HETATM   15  O3  UNL     1      -2.435   1.173   0.368  1.00  0.00    -0.322 OA
HETATM   16  H8  UNL     1       0.738  -1.290  -0.087  1.00  0.00     0.160 HD
ENDROOT
BRANCH   1  17
HETATM   17  N1  UNL     1       1.899  -0.743   1.709  1.00  0.00    -0.349 N 
HETATM   18  H6  UNL     1       2.207  -1.622   1.260  1.00  0.00     0.167 HD
BRANCH  17  19
HETATM   19  C6  UNL     1       3.031  -0.582   2.550  1.00  0.00     0.090 C 
HETATM   20  C5  UNL     1       4.190  -0.074   2.186  1.00  0.00     0.020 C 
BRANCH  20  21
HETATM   21  C4  UNL     1       4.513   0.413   0.853  1.00  0.00     0.045 C 
HETATM   22  C3  UNL     1       5.715   0.925   0.532  1.00  0.00     0.134 C 
HETATM   23  F1  UNL     1       6.620   0.968   1.540  1.00  0.00    -0.205 F 
BRANCH  22  24
HETATM   24  C2  UNL     1       5.999   1.399  -0.806  1.00  0.00     0.050 C 
HETATM   25  C1  UNL     1       7.192   1.894  -1.078  1.00  0.00     0.060 C 
HETATM   26 CL1  UNL     1       4.756   1.306  -2.025  1.00  0.00    -0.086 Cl
ENDBRANCH  22  24
ENDBRANCH  20  21
ENDBRANCH  17  19
ENDBRANCH   1  17
BRANCH  11  27
HETATM   27  C15 UNL     1      -5.821  -2.219  -2.069  1.00  0.00     0.175 C 
HETATM   28  O1  UNL     1      -5.689  -3.457  -1.906  1.00  0.00    -0.646 OA
BRANCH  27  29
HETATM   29  O2  UNL     1      -6.968  -1.667  -2.601  1.00  0.00    -0.773 OA
HETATM   30  H12 UNL     1      -7.671  -2.257  -3.039  1.00  0.00     0.167 HD
ENDBRANCH  27  29
ENDBRANCH  11  27
TORSDOF 6
