REMARK  0 active torsions:
REMARK  status: ('A' for Active; 'I' for Inactive)
ROOT
HETATM    1  O1  UNL     1       1.673   1.238   1.546  1.00  0.00    -0.265 OA
HETATM    2  C1  UNL     1       2.216   1.548   0.468  1.00  0.00     0.262 C 
HETATM    3  C2  UNL     1       3.415   1.096  -0.325  1.00  0.00     0.138 C 
HETATM    4  C3  UNL     1       3.480  -0.321  -0.614  1.00  0.00    -0.017 C 
HETATM    5  C4  UNL     1       3.234  -1.598  -0.684  1.00  0.00    -0.004 C 
HETATM    6  C5  UNL     1       2.114  -2.366  -0.106  1.00  0.00    -0.002 C 
HETATM    7  C6  UNL     1       1.301  -3.387   0.214  1.00  0.00    -0.000 C 
HETATM    8  C7  UNL     1       0.090  -3.178   1.084  1.00  0.00     0.204 C 
HETATM    9  O2  UNL     1      -0.989  -3.546   0.188  1.00  0.00    -0.334 OA
HETATM   10  C8  UNL     1      -1.815  -2.403  -0.156  1.00  0.00     0.141 C 
HETATM   11  N1  UNL     1      -2.287  -2.376   1.075  1.00  0.00    -0.222 NA
HETATM   12  C9  UNL     1      -2.897  -1.275   1.804  1.00  0.00     0.235 C 
HETATM   13  N2  UNL     1      -2.896   0.040   1.700  1.00  0.00    -0.254 NA
HETATM   14  C10 UNL     1      -2.414   0.845   0.586  1.00  0.00     0.120 C 
HETATM   15  C11 UNL     1      -1.692   0.838  -0.561  1.00  0.00    -0.062 C 
HETATM   16  C12 UNL     1      -1.749   2.299  -0.689  1.00  0.00     0.038 C 
HETATM   17  C13 UNL     1      -0.940   3.129   0.200  1.00  0.00     0.031 C 
HETATM   18  C14 UNL     1       0.483   3.386   0.021  1.00  0.00     0.179 C 
HETATM   19  O3  UNL     1       1.503   2.529  -0.047  1.00  0.00    -0.321 OA
HETATM   20  C15 UNL     1      -1.154  -0.328  -1.297  1.00  0.00     0.043 C 
HETATM   21  C16 UNL     1      -2.123  -1.504  -1.356  1.00  0.00     0.090 C 
ENDROOT
TORSDOF 0
