REMARK  6 active torsions:
REMARK  status: ('A' for Active; 'I' for Inactive)
REMARK    1  A    between atoms: C6_6  and  O1_7 
REMARK    2  A    between atoms: C10_14  and  O3_15 
REMARK    3  A    between atoms: O3_15  and  C11_16 
REMARK    4  A    between atoms: C14_19  and  N3_20 
REMARK       I    between atoms: N3_20  and  C15_21 
REMARK    5  A    between atoms: C15_21  and  O5_23 
REMARK    6  A    between atoms: O5_23  and  C16_24 
ROOT
HETATM    1  C1  UNL     1      -2.930  -2.481   1.058  1.00  0.00     0.027 C 
HETATM    2  C2  UNL     1      -3.616  -1.397   0.921  1.00  0.00     0.005 A 
HETATM    3  C3  UNL     1      -3.280  -0.148   0.309  1.00  0.00     0.032 A 
HETATM    4  C4  UNL     1      -4.015   0.897   0.170  1.00  0.00     0.056 A 
HETATM    5  C5  UNL     1      -5.100   0.208   0.906  1.00  0.00     0.107 A 
HETATM    6  C6  UNL     1      -4.970  -1.022   1.315  1.00  0.00     0.112 A 
HETATM    7  O2  UNL     1      -5.717   1.471   0.718  1.00  0.00    -0.318 OA
HETATM    8  C8  UNL     1      -5.104   2.486   1.647  1.00  0.00     0.396 C 
HETATM    9  N1  UNL     1      -3.753   2.302   1.713  1.00  0.00    -0.416 NA
HETATM   10  C9  UNL     1      -2.614   1.991   1.492  1.00  0.00     0.297 C 
HETATM   11  N2  UNL     1      -1.583   1.365   0.681  1.00  0.00    -0.205 NA
HETATM   12  C10 UNL     1      -1.874   0.227   0.030  1.00  0.00     0.183 C 
ENDROOT
BRANCH  12  13
HETATM   13  O3  UNL     1      -0.994  -0.451  -0.746  1.00  0.00    -0.291 OA
BRANCH  13  14
HETATM   14  C11 UNL     1       0.391  -0.287  -0.490  1.00  0.00     0.078 A 
HETATM   15  C12 UNL     1       0.995  -1.077  -1.439  1.00  0.00     0.039 A 
HETATM   16  C13 UNL     1       2.387  -1.110  -1.427  1.00  0.00     0.032 A 
HETATM   17  C14 UNL     1       3.166  -0.411  -0.536  1.00  0.00     0.037 A 
HETATM   18  C18 UNL     1       2.533   0.373   0.405  1.00  0.00     0.032 A 
HETATM   19  C19 UNL     1       1.164   0.411   0.400  1.00  0.00     0.039 A 
BRANCH  17  20
HETATM   20  N3  UNL     1       4.582  -0.417  -0.488  1.00  0.00    -0.303 N 
HETATM   21  C15 UNL     1       5.527   0.408  -1.127  1.00  0.00     0.365 C 
HETATM   22  O4  UNL     1       5.237   1.340  -1.890  1.00  0.00    -0.238 OA
HETATM   23  H12 UNL     1       4.794  -1.214   0.165  1.00  0.00     0.171 HD
BRANCH  21  24
HETATM   24  O5  UNL     1       6.831   0.086  -0.825  1.00  0.00    -0.304 OA
BRANCH  24  25
HETATM   25  C16 UNL     1       7.938   0.770  -1.344  1.00  0.00     0.176 C 
HETATM   26  C17 UNL     1       7.974   0.701  -2.853  1.00  0.00     0.034 C 
ENDBRANCH  24  25
ENDBRANCH  21  24
ENDBRANCH  17  20
ENDBRANCH  13  14
ENDBRANCH  12  13
BRANCH   6  27
HETATM   27  O1  UNL     1      -5.992  -1.653   1.953  1.00  0.00    -0.352 OA
HETATM   28  C7  UNL     1      -6.796  -2.640   1.326  1.00  0.00     0.210 C 
ENDBRANCH   6  27
TORSDOF 6
