REMARK  5 active torsions:
REMARK  status: ('A' for Active; 'I' for Inactive)
REMARK    1  A    between atoms: C2_2  and  C3_3 
REMARK       I    between atoms: C3_3  and  N1_5 
REMARK    2  A    between atoms: C7_9  and  C8_10 
REMARK    3  A    between atoms: C8_10  and  C9_11 
REMARK    4  A    between atoms: C14_19  and  O3_20 
REMARK    5  A    between atoms: C19_25  and  O4_26 
ROOT
HETATM    1  C9  UNL     1      -0.214   0.555  -1.720  1.00  0.00     0.058 A 
HETATM    2  N2  UNL     1      -1.234   1.272  -2.032  1.00  0.00    -0.299 N 
HETATM    3  C10 UNL     1      -1.145   2.157  -3.124  1.00  0.00     0.212 C 
HETATM    4  N3  UNL     1      -2.216   2.769  -2.792  1.00  0.00    -0.258 NA
HETATM    5  C11 UNL     1      -3.051   2.473  -1.651  1.00  0.00     0.325 C 
HETATM    6  O2  UNL     1      -3.575   1.173  -1.635  1.00  0.00    -0.332 OA
HETATM    7  C12 UNL     1      -4.418   0.746  -0.633  1.00  0.00     0.074 C 
HETATM    8  C13 UNL     1      -5.786   1.228  -0.941  1.00  0.00     0.079 C 
HETATM    9  C14 UNL     1      -4.333   0.033   0.510  1.00  0.00     0.085 C 
HETATM   10  C16 UNL     1      -2.971  -0.506   0.913  1.00  0.00     0.154 C 
HETATM   11  C17 UNL     1      -1.969  -0.138  -0.012  1.00  0.00    -0.117 C 
HETATM   12  C18 UNL     1      -1.170   0.171  -0.775  1.00  0.00     0.106 A 
ENDROOT
BRANCH   1  13
HETATM   13  C8  UNL     1       1.106  -0.117  -1.619  1.00  0.00     0.099 C 
BRANCH  13  14
HETATM   14  C7  UNL     1       1.802   0.103  -0.348  1.00  0.00    -0.026 A 
HETATM   15  C6  UNL     1       1.477   0.788   0.727  1.00  0.00     0.009 A 
HETATM   16  C5  UNL     1       2.347   0.864   1.893  1.00  0.00     0.018 A 
HETATM   17  C4  UNL     1       3.515   0.244   1.929  1.00  0.00     0.097 A 
HETATM   18  N1  UNL     1       3.814  -0.469   0.764  1.00  0.00    -0.297 N 
HETATM   19  C3  UNL     1       5.030  -1.190   0.630  1.00  0.00     0.225 C 
HETATM   20  C19 UNL     1       3.081  -0.644  -0.450  1.00  0.00     0.258 A 
HETATM   21  O1  UNL     1       5.560  -1.898  -0.261  1.00  0.00    -0.273 OA
BRANCH  19  22
HETATM   22  C2  UNL     1       6.000  -1.190   1.742  1.00  0.00     0.099 C 
HETATM   23  C1  UNL     1       7.229  -1.998   1.429  1.00  0.00     0.014 C 
ENDBRANCH  19  22
BRANCH  20  24
HETATM   24  O4  UNL     1       2.728  -1.994  -0.562  1.00  0.00    -0.372 OA
HETATM   25  H23 UNL     1       3.345  -2.484  -1.164  1.00  0.00     0.212 HD
ENDBRANCH  20  24
ENDBRANCH  13  14
ENDBRANCH   1  13
BRANCH   9  26
HETATM   26  O3  UNL     1      -5.411  -0.237   1.337  1.00  0.00    -0.357 OA
HETATM   27  C15 UNL     1      -6.266  -1.363   1.177  1.00  0.00     0.209 C 
ENDBRANCH   9  26
TORSDOF 5
