REMARK  5 active torsions:
REMARK  status: ('A' for Active; 'I' for Inactive)
REMARK    1  A    between atoms: N1_1  and  C1_2 
REMARK    2  A    between atoms: C1_2  and  C2_3 
REMARK    3  A    between atoms: C4_5  and  O1_6 
REMARK    4  A    between atoms: C11_15  and  C12_16 
REMARK       I    between atoms: C12_16  and  N4_18 
REMARK    5  A    between atoms: N4_18  and  C13_19 
ROOT
HETATM    1  C2  UNL     1      -2.356   0.932   1.658  1.00  0.00     0.024 C 
HETATM    2  C3  UNL     1      -3.003   0.320   0.461  1.00  0.00     0.070 C 
HETATM    3  C4  UNL     1      -4.458   0.602   0.497  1.00  0.00     0.042 C 
HETATM    4  C5  UNL     1      -5.012   1.395  -0.441  1.00  0.00     0.034 C 
HETATM    5  C6  UNL     1      -4.181   1.983  -1.500  1.00  0.00     0.329 C 
HETATM    6  N2  UNL     1      -3.672   2.593  -2.498  1.00  0.00    -0.400 NA
HETATM    7  C7  UNL     1      -2.281   2.493  -2.745  1.00  0.00     0.186 C 
HETATM    8  N3  UNL     1      -1.117   2.583  -2.262  1.00  0.00    -0.281 NA
HETATM    9  C8  UNL     1      -0.934   2.929  -0.865  1.00  0.00     0.189 C 
HETATM   10  C9  UNL     1       0.034   2.031  -0.195  1.00  0.00    -0.035 A 
HETATM   11  C10 UNL     1       1.249   2.077  -0.725  1.00  0.00     0.000 A 
HETATM   12  C11 UNL     1       2.169   1.161  -0.013  1.00  0.00     0.124 A 
HETATM   13  C19 UNL     1       1.252   0.601   0.996  1.00  0.00    -0.001 A 
HETATM   14  C20 UNL     1       0.028   1.103   0.890  1.00  0.00    -0.053 A 
HETATM   15  C21 UNL     1      -0.914   0.591   1.870  1.00  0.00     0.045 C 
ENDROOT
BRANCH  12  16
HETATM   16  C12 UNL     1       2.760   0.145  -0.906  1.00  0.00     0.233 C 
HETATM   17  O2  UNL     1       2.602  -0.052  -2.140  1.00  0.00    -0.272 OA
HETATM   18  N4  UNL     1       3.635  -0.709  -0.180  1.00  0.00    -0.326 N 
HETATM   19  H16 UNL     1       3.897  -0.714   0.829  1.00  0.00     0.169 HD
BRANCH  18  20
HETATM   20  C13 UNL     1       4.378  -1.794  -0.703  1.00  0.00     0.034 A 
HETATM   21  C14 UNL     1       3.927  -3.074  -0.769  1.00  0.00     0.029 A 
HETATM   22  C15 UNL     1       4.749  -4.070  -1.307  1.00  0.00     0.002 A 
HETATM   23  C16 UNL     1       6.021  -3.788  -1.779  1.00  0.00     0.000 A 
HETATM   24  C17 UNL     1       6.490  -2.495  -1.719  1.00  0.00     0.002 A 
HETATM   25  C18 UNL     1       5.653  -1.545  -1.184  1.00  0.00     0.029 A 
ENDBRANCH  18  20
ENDBRANCH  12  16
BRANCH   1  26
HETATM   26  C1  UNL     1      -3.025   0.283   2.892  1.00  0.00     0.272 C 
BRANCH  26  27
HETATM   27  N1  UNL     1      -2.865  -1.137   2.909  1.00  0.00     0.078 N 
HETATM   28  H1  UNL     1      -2.300  -1.531   3.668  1.00  0.00     0.312 HD
HETATM   29  H2  UNL     1      -3.805  -1.580   2.839  1.00  0.00     0.312 HD
ENDBRANCH  26  27
ENDBRANCH   1  26
BRANCH   3  30
HETATM   30  O1  UNL     1      -5.463   0.197   1.351  1.00  0.00    -0.365 OA
HETATM   31  H8  UNL     1      -6.037   0.896   1.797  1.00  0.00     0.217 HD
ENDBRANCH   3  30
TORSDOF 5
