REMARK  7 active torsions:
REMARK  status: ('A' for Active; 'I' for Inactive)
REMARK    1  A    between atoms: O1_2  and  C2_3 
REMARK    2  A    between atoms: C2_3  and  C3_4 
REMARK    3  A    between atoms: C3_4  and  O2_19 
REMARK    4  A    between atoms: C4_5  and  C5_6 
REMARK    5  A    between atoms: C8_11  and  N3_12 
REMARK    6  A    between atoms: N3_12  and  C9_13 
REMARK    7  A    between atoms: C10_14  and  C11_15 
ROOT
HETATM    1  C5  UNL     1       1.210   1.562  -0.056  1.00  0.00     0.030 A 
HETATM    2  C6  UNL     1       1.521   2.907   0.159  1.00  0.00     0.133 A 
HETATM    3  N1  UNL     1       0.533   3.735   0.601  1.00  0.00    -0.253 NA
HETATM    4  C7  UNL     1      -0.699   3.242   0.815  1.00  0.00     0.234 A 
HETATM    5  N2  UNL     1      -0.979   1.950   0.604  1.00  0.00    -0.224 NA
HETATM    6  C8  UNL     1      -0.062   1.067   0.169  1.00  0.00     0.140 A 
ENDROOT
BRANCH   6   7
HETATM    7  N3  UNL     1      -0.413  -0.295  -0.035  1.00  0.00    -0.350 N 
HETATM    8  H9  UNL     1       0.278  -0.991  -0.379  1.00  0.00     0.166 HD
BRANCH   7   9
HETATM    9  C9  UNL     1      -1.733  -0.747   0.226  1.00  0.00     0.090 C 
HETATM   10  C10 UNL     1      -2.890  -0.805  -0.406  1.00  0.00     0.017 C 
BRANCH  10  11
HETATM   11  C11 UNL     1      -4.004  -1.377   0.300  1.00  0.00     0.003 C 
HETATM   12  C12 UNL     1      -5.164  -1.442  -0.323  1.00  0.00    -0.088 C 
HETATM   13  C13 UNL     1      -6.361  -2.027   0.365  1.00  0.00     0.043 C 
HETATM   14  C14 UNL     1      -5.348  -0.947  -1.715  1.00  0.00     0.043 C 
ENDBRANCH  10  11
ENDBRANCH   7   9
ENDBRANCH   6   7
BRANCH   1  15
HETATM   15  C4  UNL     1       2.232   0.605  -0.530  1.00  0.00     0.051 C 
HETATM   16  C3  UNL     1       3.527   0.546  -0.170  1.00  0.00     0.070 C 
BRANCH  16  17
HETATM   17  C2  UNL     1       4.448  -0.494  -0.745  1.00  0.00     0.231 C 
BRANCH  17  18
HETATM   18  O1  UNL     1       4.965  -1.290   0.289  1.00  0.00    -0.390 OA
HETATM   19  C1  UNL     1       3.942  -1.933   0.982  1.00  0.00     0.201 C 
ENDBRANCH  17  18
ENDBRANCH  16  17
BRANCH  16  20
HETATM   20  O2  UNL     1       3.974   1.469   0.742  1.00  0.00    -0.358 OA
HETATM   21  C15 UNL     1       5.292   1.818   1.020  1.00  0.00     0.209 C 
ENDBRANCH  16  20
ENDBRANCH   1  15
TORSDOF 7
