REMARK  6 active torsions:
REMARK  status: ('A' for Active; 'I' for Inactive)
REMARK    1  A    between atoms: O1_2  and  C2_3 
REMARK    2  A    between atoms: C6_9  and  N3_10 
REMARK    3  A    between atoms: N3_10  and  C7_11 
REMARK    4  A    between atoms: C10_14  and  N4_15 
REMARK       I    between atoms: N4_15  and  C11_16 
REMARK       I    between atoms: C11_16  and  N5_18 
REMARK    5  A    between atoms: N5_18  and  C12_19 
REMARK    6  A    between atoms: C21_28  and  O3_29 
ROOT
HETATM    1  C7  UNL     1      -0.077   1.279   0.138  1.00  0.00     0.033 A 
HETATM    2  C8  UNL     1       1.153   1.947   0.115  1.00  0.00     0.032 A 
HETATM    3  C9  UNL     1       2.324   1.246  -0.008  1.00  0.00     0.032 A 
HETATM    4  C10 UNL     1       2.398  -0.102  -0.115  1.00  0.00     0.036 A 
HETATM    5  C17 UNL     1       1.182  -0.749  -0.093  1.00  0.00     0.032 A 
HETATM    6  C18 UNL     1       0.003  -0.086   0.028  1.00  0.00     0.032 A 
ENDROOT
BRANCH   1   7
HETATM    7  N3  UNL     1      -1.266   2.047   0.270  1.00  0.00    -0.340 N 
HETATM    8  H6  UNL     1      -1.477   2.994  -0.121  1.00  0.00     0.167 HD
BRANCH   7   9
HETATM    9  C6  UNL     1      -2.278   1.402   1.033  1.00  0.00     0.142 A 
HETATM   10  N2  UNL     1      -1.929   1.554   2.350  1.00  0.00    -0.224 NA
HETATM   11  C5  UNL     1      -2.733   1.021   3.317  1.00  0.00     0.236 A 
HETATM   12  N1  UNL     1      -3.852   0.357   2.963  1.00  0.00    -0.241 NA
HETATM   13  C4  UNL     1      -4.204   0.202   1.664  1.00  0.00     0.075 A 
HETATM   14  C3  UNL     1      -5.354  -0.467   1.233  1.00  0.00     0.072 A 
HETATM   15  C19 UNL     1      -3.415   0.727   0.663  1.00  0.00     0.042 A 
HETATM   16  C2  UNL     1      -5.618  -0.557  -0.132  1.00  0.00     0.103 A 
HETATM   17  C21 UNL     1      -4.775  -0.004  -1.049  1.00  0.00     0.102 A 
HETATM   18  C20 UNL     1      -3.611   0.676  -0.682  1.00  0.00     0.057 A 
BRANCH  16  19
HETATM   19  O1  UNL     1      -6.795  -1.248  -0.439  1.00  0.00    -0.353 OA
HETATM   20  C1  UNL     1      -7.586  -1.782   0.598  1.00  0.00     0.210 C 
ENDBRANCH  16  19
BRANCH  17  21
HETATM   21  O3  UNL     1      -5.120  -0.143  -2.383  1.00  0.00    -0.353 OA
HETATM   22  C22 UNL     1      -4.256   0.433  -3.348  1.00  0.00     0.210 C 
ENDBRANCH  17  21
ENDBRANCH   7   9
ENDBRANCH   1   7
BRANCH   4  23
HETATM   23  N4  UNL     1       3.556  -0.881  -0.210  1.00  0.00    -0.309 N 
HETATM   24  C11 UNL     1       4.916  -0.485  -0.157  1.00  0.00     0.325 C 
HETATM   25  O2  UNL     1       5.198   0.725  -0.006  1.00  0.00    -0.247 OA
HETATM   26  N5  UNL     1       6.026  -1.348  -0.258  1.00  0.00    -0.308 N 
HETATM   27  H10 UNL     1       5.865  -2.368  -0.391  1.00  0.00     0.170 HD
HETATM   28  H9  UNL     1       3.490  -1.923  -0.346  1.00  0.00     0.170 HD
BRANCH  26  29
HETATM   29  C12 UNL     1       7.324  -0.781  -0.173  1.00  0.00     0.047 C 
HETATM   30  C13 UNL     1       7.697   0.451  -0.012  1.00  0.00     0.003 C 
HETATM   31  C14 UNL     1       8.866   0.604   0.580  1.00  0.00     0.014 C 
HETATM   32  C15 UNL     1       9.511  -0.663   0.213  1.00  0.00     0.003 C 
HETATM   33  C16 UNL     1       8.595  -1.524  -0.251  1.00  0.00     0.030 C 
ENDBRANCH  26  29
ENDBRANCH   4  23
TORSDOF 6
