REMARK  3 active torsions:
REMARK  status: ('A' for Active; 'I' for Inactive)
REMARK    1  A    between atoms: C1_2  and  C2_3 
REMARK    2  A    between atoms: C2_3  and  N1_4 
REMARK    3  A    between atoms: N1_4  and  C3_5 
ROOT
HETATM    1  C3  UNL     1       1.466   0.371  -0.979  1.00  0.00     0.081 C 
HETATM    2  C4  UNL     1       0.965  -0.801  -0.933  1.00  0.00     0.032 C 
HETATM    3  C5  UNL     1       0.298  -1.579  -2.023  1.00  0.00     0.046 C 
HETATM    4  C6  UNL     1      -1.146  -1.806  -1.540  1.00  0.00    -0.056 A 
HETATM    5  C7  UNL     1      -2.260  -2.586  -1.714  1.00  0.00     0.007 A 
HETATM    6  C8  UNL     1      -3.326  -2.324  -0.906  1.00  0.00     0.003 A 
HETATM    7  C9  UNL     1      -3.548  -1.422   0.081  1.00  0.00     0.029 A 
HETATM    8  C10 UNL     1      -2.583  -0.607   0.364  1.00  0.00     0.036 A 
HETATM    9  C11 UNL     1      -1.499  -0.916  -0.501  1.00  0.00     0.036 A 
HETATM   10  N2  UNL     1      -1.914   0.404   0.993  1.00  0.00    -0.309 N 
HETATM   11  C12 UNL     1      -1.263   1.395   1.619  1.00  0.00     0.320 C 
HETATM   12  O2  UNL     1      -1.729   1.642   2.668  1.00  0.00    -0.247 OA
HETATM   13  N3  UNL     1      -0.202   2.259   1.465  1.00  0.00    -0.339 N 
HETATM   14  C13 UNL     1       0.869   3.141   1.322  1.00  0.00     0.151 C 
HETATM   15  C14 UNL     1       1.648   2.755   0.118  1.00  0.00    -0.009 C 
HETATM   16  C15 UNL     1       1.888   1.744  -0.767  1.00  0.00     0.005 C 
HETATM   17  H10 UNL     1      -2.656   0.125   1.737  1.00  0.00     0.170 HD
HETATM   18  H11 UNL     1      -0.118   1.996   0.478  1.00  0.00     0.164 HD
ENDROOT
BRANCH   1  19
HETATM   19  N1  UNL     1       1.815   0.261   0.456  1.00  0.00    -0.380 N 
HETATM   20  H2  UNL     1       1.750   0.329   1.520  1.00  0.00     0.160 HD
BRANCH  19  21
HETATM   21  C2  UNL     1       3.099  -0.329   0.717  1.00  0.00     0.143 C 
BRANCH  21  22
HETATM   22  C1  UNL     1       3.429  -1.571   1.032  1.00  0.00     0.237 C 
HETATM   23  O1  UNL     1       3.222  -2.804   0.882  1.00  0.00    -0.283 OA
ENDBRANCH  21  22
ENDBRANCH  19  21
ENDBRANCH   1  19
TORSDOF 3
