REMARK  7 active torsions:
REMARK  status: ('A' for Active; 'I' for Inactive)
REMARK    1  A    between atoms: O1_2  and  C2_3 
REMARK    2  A    between atoms: C2_3  and  C3_4 
REMARK    3  A    between atoms: C8_11  and  N3_13 
REMARK    4  A    between atoms: C13_17  and  N4_18 
REMARK    5  A    between atoms: N4_18  and  C14_19 
REMARK    6  A    between atoms: C14_19  and  N5_20 
REMARK    7  A    between atoms: C14_19  and  C15_21 
ROOT
HETATM    1  N3  UNL     1       0.718  -0.350   0.117  1.00  0.00    -0.337 N 
HETATM    2  C10 UNL     1       0.327  -1.637   0.569  1.00  0.00     0.095 C 
HETATM    3  C11 UNL     1      -0.850  -2.252   0.363  1.00  0.00    -0.032 C 
HETATM    4  C12 UNL     1      -1.032  -3.613   0.940  1.00  0.00     0.047 C 
HETATM    5  C13 UNL     1      -2.084  -1.849  -0.354  1.00  0.00     0.276 C 
HETATM    6  C22 UNL     1      -1.976  -0.589  -1.069  1.00  0.00     0.010 C 
HETATM    7  C23 UNL     1      -1.235   0.509  -1.056  1.00  0.00    -0.009 C 
HETATM    8  C24 UNL     1      -0.107   0.808  -0.144  1.00  0.00     0.154 C 
ENDROOT
BRANCH   1   9
HETATM    9  C8  UNL     1       2.138  -0.233  -0.095  1.00  0.00     0.235 C 
HETATM   10  N2  UNL     1       2.903  -0.413   1.099  1.00  0.00    -0.225 NA
HETATM   11  C7  UNL     1       3.632  -1.367   1.416  1.00  0.00     0.231 C 
HETATM   12  N1  UNL     1       4.004  -0.773   2.679  1.00  0.00    -0.254 NA
HETATM   13  C6  UNL     1       4.325   0.504   2.766  1.00  0.00     0.117 C 
HETATM   14  C5  UNL     1       4.438   1.670   1.874  1.00  0.00     0.018 C 
HETATM   15  C4  UNL     1       4.281   2.015   0.594  1.00  0.00     0.008 C 
HETATM   16  C3  UNL     1       3.856   1.165  -0.588  1.00  0.00     0.173 C 
HETATM   17  O2  UNL     1       2.420   1.123  -0.522  1.00  0.00    -0.331 OA
HETATM   18  C9  UNL     1       2.558  -1.236  -1.124  1.00  0.00     0.100 C 
BRANCH  16  19
HETATM   19  C2  UNL     1       4.268   1.794  -1.842  1.00  0.00     0.203 C 
BRANCH  19  20
HETATM   20  O1  UNL     1       5.595   1.807  -2.155  1.00  0.00    -0.393 OA
HETATM   21  C1  UNL     1       6.426   2.433  -1.292  1.00  0.00     0.201 C 
ENDBRANCH  19  20
ENDBRANCH  16  19
ENDBRANCH   1   9
BRANCH   5  22
HETATM   22  N4  UNL     1      -3.156  -1.831   0.577  1.00  0.00     0.133 N 
HETATM   23  H19 UNL     1      -3.211  -2.768   1.027  1.00  0.00     0.320 HD
BRANCH  22  24
HETATM   24  C14 UNL     1      -4.446  -1.476   0.116  1.00  0.00     0.483 C 
BRANCH  24  25
HETATM   25  N5  UNL     1      -4.957  -2.276  -0.981  1.00  0.00     0.116 N 
HETATM   26  H21 UNL     1      -4.309  -2.311  -1.774  1.00  0.00     0.316 HD
HETATM   27  H22 UNL     1      -5.304  -3.207  -0.659  1.00  0.00     0.316 HD
ENDBRANCH  24  25
BRANCH  24  28
HETATM   28  C15 UNL     1      -4.685  -0.061  -0.179  1.00  0.00     0.010 A 
HETATM   29  C16 UNL     1      -5.329   0.501  -1.289  1.00  0.00     0.012 A 
HETATM   30  C17 UNL     1      -5.476   1.866  -1.414  1.00  0.00     0.001 A 
HETATM   31  C18 UNL     1      -5.000   2.741  -0.460  1.00  0.00     0.001 A 
HETATM   32  C19 UNL     1      -4.369   2.173   0.626  1.00  0.00     0.007 A 
HETATM   33  C20 UNL     1      -4.189   0.797   0.811  1.00  0.00    -0.052 A 
HETATM   34  C21 UNL     1      -3.492   0.349   2.042  1.00  0.00     0.049 C 
ENDBRANCH  24  28
ENDBRANCH  22  24
ENDBRANCH   5  22
TORSDOF 7
