REMARK  6 active torsions:
REMARK  status: ('A' for Active; 'I' for Inactive)
REMARK    1  A    between atoms: O1_2  and  C2_3 
REMARK    2  A    between atoms: N3_10  and  C7_11 
REMARK    3  A    between atoms: C10_14  and  C11_15 
REMARK       I    between atoms: C11_15  and  N4_17 
REMARK    4  A    between atoms: N4_17  and  C12_18 
REMARK    5  A    between atoms: C21_27  and  C22_28 
REMARK    6  A    between atoms: C22_28  and  N5_29 
ROOT
HETATM    1  C2  UNL     1      -4.291   0.240  -1.069  1.00  0.00     0.051 C 
HETATM    2  C3  UNL     1      -5.379  -0.095  -0.504  1.00  0.00     0.029 C 
HETATM    3  C4  UNL     1      -6.314  -0.096   0.588  1.00  0.00     0.261 C 
HETATM    4  N1  UNL     1      -5.824   0.661   1.544  1.00  0.00    -0.295 NA
HETATM    5  C5  UNL     1      -4.561   1.261   1.272  1.00  0.00     0.164 C 
HETATM    6  N2  UNL     1      -3.950   0.247   1.710  1.00  0.00    -0.272 NA
HETATM    7  C6  UNL     1      -2.562   0.007   1.805  1.00  0.00     0.274 C 
HETATM    8  N3  UNL     1      -1.758   0.638   0.796  1.00  0.00    -0.362 N 
HETATM    9  C20 UNL     1      -2.224   1.473  -0.258  1.00  0.00     0.138 C 
HETATM   10  C21 UNL     1      -3.016   0.814  -1.340  1.00  0.00     0.088 C 
ENDROOT
BRANCH   8  11
HETATM   11  C7  UNL     1      -0.385   0.287   0.999  1.00  0.00     0.031 A 
HETATM   12  C8  UNL     1       0.050  -0.511   2.030  1.00  0.00     0.030 A 
HETATM   13  C9  UNL     1       1.388  -0.874   2.240  1.00  0.00     0.019 A 
HETATM   14  C10 UNL     1       2.353  -0.422   1.380  1.00  0.00     0.032 A 
HETATM   15  C18 UNL     1       1.978   0.382   0.328  1.00  0.00     0.019 A 
HETATM   16  C19 UNL     1       0.645   0.696   0.185  1.00  0.00     0.030 A 
BRANCH  14  17
HETATM   17  C11 UNL     1       3.722  -0.834   1.644  1.00  0.00     0.256 C 
HETATM   18  O2  UNL     1       3.996  -1.548   2.614  1.00  0.00    -0.267 OA
HETATM   19  N4  UNL     1       4.788  -0.430   0.797  1.00  0.00    -0.323 N 
HETATM   20  H11 UNL     1       4.664   0.171  -0.044  1.00  0.00     0.169 HD
BRANCH  19  21
HETATM   21  C12 UNL     1       6.183  -0.693   0.834  1.00  0.00     0.035 A 
HETATM   22  C13 UNL     1       6.589  -1.836   0.134  1.00  0.00     0.029 A 
HETATM   23  C14 UNL     1       7.936  -2.107   0.156  1.00  0.00     0.002 A 
HETATM   24  C15 UNL     1       8.899  -1.359   0.798  1.00  0.00     0.000 A 
HETATM   25  C16 UNL     1       8.419  -0.252   1.463  1.00  0.00     0.002 A 
HETATM   26  C17 UNL     1       7.098   0.119   1.512  1.00  0.00     0.029 A 
ENDBRANCH  19  21
ENDBRANCH  14  17
ENDBRANCH   8  11
BRANCH  10  27
HETATM   27  C22 UNL     1      -3.032   1.772  -2.545  1.00  0.00     0.279 C 
BRANCH  27  28
HETATM   28  N5  UNL     1      -3.952   2.859  -2.305  1.00  0.00     0.079 N 
HETATM   29  H24 UNL     1      -4.876   2.745  -2.790  1.00  0.00     0.312 HD
HETATM   30  H25 UNL     1      -4.049   3.102  -1.299  1.00  0.00     0.312 HD
ENDBRANCH  27  28
ENDBRANCH  10  27
BRANCH   1  31
HETATM   31  O1  UNL     1      -4.525  -0.459  -2.288  1.00  0.00    -0.360 OA
HETATM   32  C1  UNL     1      -4.484  -1.857  -2.375  1.00  0.00     0.209 C 
ENDBRANCH   1  31
TORSDOF 6
