REMARK  4 active torsions:
REMARK  status: ('A' for Active; 'I' for Inactive)
REMARK    1  A    between atoms: C7_9  and  N3_10 
REMARK    2  A    between atoms: N3_10  and  O1_11 
REMARK    3  A    between atoms: N3_10  and  N4_12 
REMARK    4  A    between atoms: N4_12  and  C8_13 
ROOT
HETATM    1  C1  UNL     1      -2.094  -3.613   3.400  1.00  0.00     0.017 C 
HETATM    2  C2  UNL     1      -1.924  -2.663   2.631  1.00  0.00    -0.082 C 
HETATM    3  C3  UNL     1      -1.719  -1.519   1.730  1.00  0.00    -0.001 C 
HETATM    4  C4  UNL     1      -2.593  -1.243   0.786  1.00  0.00     0.030 C 
HETATM    5  C5  UNL     1      -3.156  -0.509  -0.333  1.00  0.00     0.086 C 
HETATM    6  N1  UNL     1      -2.204   0.321  -0.312  1.00  0.00    -0.189 NA
HETATM    7  N2  UNL     1      -2.205   1.388  -1.249  1.00  0.00    -0.331 N 
HETATM    8  C6  UNL     1      -1.862   1.769   0.096  1.00  0.00     0.276 A 
HETATM    9  C7  UNL     1      -0.528   1.240   0.459  1.00  0.00     0.086 C 
HETATM   10  C14 UNL     1      -0.067   0.257   1.211  1.00  0.00     0.011 C 
HETATM   11  C15 UNL     1      -0.404  -0.881   2.098  1.00  0.00     0.077 C 
HETATM   12  H4  UNL     1      -2.443   1.178  -2.223  1.00  0.00     0.176 HD
ENDROOT
BRANCH   9  13
HETATM   13  N3  UNL     1       0.534   1.982  -0.201  1.00  0.00    -0.165 N 
BRANCH  13  14
HETATM   14  O1  UNL     1       1.103   2.856   0.664  1.00  0.00    -0.268 OA
HETATM   15  H7  UNL     1       0.872   3.767   0.323  1.00  0.00     0.247 HD
ENDBRANCH  13  14
BRANCH  13  16
HETATM   16  N4  UNL     1       1.223   2.158  -1.416  1.00  0.00    -0.275 N 
HETATM   17  H8  UNL     1       1.054   3.042  -1.942  1.00  0.00     0.189 HD
BRANCH  16  18
HETATM   18  C8  UNL     1       1.955   0.927  -1.447  1.00  0.00     0.050 A 
HETATM   19  C9  UNL     1       3.197   0.767  -0.880  1.00  0.00     0.031 A 
HETATM   20  C10 UNL     1       3.838  -0.463  -0.955  1.00  0.00     0.002 A 
HETATM   21  C11 UNL     1       3.182  -1.485  -1.609  1.00  0.00     0.000 A 
HETATM   22  C12 UNL     1       1.935  -1.324  -2.178  1.00  0.00     0.002 A 
HETATM   23  C13 UNL     1       1.268  -0.093  -2.115  1.00  0.00     0.031 A 
ENDBRANCH  16  18
ENDBRANCH  13  16
ENDBRANCH   9  13
TORSDOF 4
