REMARK  5 active torsions:
REMARK  status: ('A' for Active; 'I' for Inactive)
REMARK    1  A    between atoms: O1_2  and  C2_3 
REMARK    2  A    between atoms: C6_9  and  N3_10 
REMARK    3  A    between atoms: C10_14  and  N4_15 
REMARK       I    between atoms: N4_15  and  C11_16 
REMARK       I    between atoms: C11_16  and  N5_18 
REMARK    4  A    between atoms: N5_18  and  C12_19 
REMARK    5  A    between atoms: C23_30  and  O3_31 
ROOT
HETATM    1  N3  UNL     1      -1.396   0.621   0.202  1.00  0.00    -0.338 N 
HETATM    2  C7  UNL     1      -0.922   1.573   1.162  1.00  0.00     0.093 C 
HETATM    3  C8  UNL     1       0.171   1.735   1.928  1.00  0.00     0.019 C 
HETATM    4  C9  UNL     1       1.412   0.952   2.106  1.00  0.00     0.031 C 
HETATM    5  C10 UNL     1       1.910  -0.094   1.424  1.00  0.00     0.036 C 
HETATM    6  C18 UNL     1       1.479  -0.882   0.275  1.00  0.00     0.027 C 
HETATM    7  C19 UNL     1       0.259  -1.131  -0.210  1.00  0.00    -0.005 C 
HETATM    8  C20 UNL     1      -1.183  -0.804   0.084  1.00  0.00     0.157 C 
ENDROOT
BRANCH   1   9
HETATM    9  C6  UNL     1      -2.210   1.342  -0.748  1.00  0.00     0.143 A 
HETATM   10  N2  UNL     1      -1.558   2.292  -1.448  1.00  0.00    -0.223 NA
HETATM   11  C5  UNL     1      -2.218   3.021  -2.364  1.00  0.00     0.236 A 
HETATM   12  N1  UNL     1      -3.546   2.839  -2.623  1.00  0.00    -0.241 NA
HETATM   13  C4  UNL     1      -4.208   1.895  -1.932  1.00  0.00     0.075 A 
HETATM   14  C3  UNL     1      -5.558   1.620  -2.106  1.00  0.00     0.072 A 
HETATM   15  C21 UNL     1      -3.547   1.137  -0.987  1.00  0.00     0.042 A 
HETATM   16  C2  UNL     1      -6.208   0.632  -1.366  1.00  0.00     0.103 A 
HETATM   17  C23 UNL     1      -5.505  -0.102  -0.430  1.00  0.00     0.102 A 
HETATM   18  C22 UNL     1      -4.170   0.170  -0.258  1.00  0.00     0.057 A 
BRANCH  16  19
HETATM   19  O1  UNL     1      -7.556   0.445  -1.624  1.00  0.00    -0.353 OA
HETATM   20  C1  UNL     1      -8.183   1.236  -2.592  1.00  0.00     0.210 C 
ENDBRANCH  16  19
BRANCH  17  21
HETATM   21  O3  UNL     1      -6.266  -1.044   0.229  1.00  0.00    -0.353 OA
HETATM   22  C24 UNL     1      -5.669  -1.864   1.214  1.00  0.00     0.210 C 
ENDBRANCH  17  21
ENDBRANCH   1   9
BRANCH   5  23
HETATM   23  N4  UNL     1       3.157  -0.547   1.946  1.00  0.00    -0.309 N 
HETATM   24  C11 UNL     1       4.307  -0.508   1.075  1.00  0.00     0.325 C 
HETATM   25  O2  UNL     1       4.243  -0.085  -0.130  1.00  0.00    -0.247 OA
HETATM   26  N5  UNL     1       5.546  -0.962   1.602  1.00  0.00    -0.309 N 
HETATM   27  H10 UNL     1       5.705  -1.323   2.561  1.00  0.00     0.170 HD
HETATM   28  H9  UNL     1       3.284  -0.901   2.911  1.00  0.00     0.170 HD
BRANCH  26  29
HETATM   29  C12 UNL     1       6.811  -1.037   0.992  1.00  0.00     0.036 A 
HETATM   30  C13 UNL     1       7.589   0.114   1.144  1.00  0.00     0.029 A 
HETATM   31  C14 UNL     1       8.869   0.183   0.591  1.00  0.00     0.002 A 
HETATM   32  C15 UNL     1       9.402  -0.877  -0.120  1.00  0.00     0.000 A 
HETATM   33  C16 UNL     1       8.621  -2.015  -0.266  1.00  0.00     0.002 A 
HETATM   34  C17 UNL     1       7.355  -2.102   0.273  1.00  0.00     0.029 A 
ENDBRANCH  26  29
ENDBRANCH   5  23
TORSDOF 5
