REMARK  7 active torsions:
REMARK  status: ('A' for Active; 'I' for Inactive)
REMARK    1  A    between atoms: O1_2  and  C2_3 
REMARK    2  A    between atoms: C3_4  and  O2_5 
REMARK    3  A    between atoms: C3_4  and  C5_7 
REMARK    4  A    between atoms: C8_12  and  N3_13 
REMARK    5  A    between atoms: N3_13  and  C9_14 
REMARK    6  A    between atoms: C12_17  and  N4_18 
REMARK       I    between atoms: N4_18  and  C13_19 
REMARK       I    between atoms: C13_19  and  N5_21 
REMARK    7  A    between atoms: N5_21  and  C14_22 
ROOT
HETATM    1  C9  UNL     1      -0.612  -0.889   0.610  1.00  0.00     0.033 A 
HETATM    2  C10 UNL     1       0.176  -0.209   1.510  1.00  0.00     0.032 A 
HETATM    3  C11 UNL     1       1.549  -0.107   1.488  1.00  0.00     0.032 A 
HETATM    4  C12 UNL     1       2.214  -0.747   0.464  1.00  0.00     0.036 A 
HETATM    5  C20 UNL     1       1.484  -1.447  -0.473  1.00  0.00     0.032 A 
HETATM    6  C21 UNL     1       0.115  -1.504  -0.385  1.00  0.00     0.032 A 
ENDROOT
BRANCH   1   7
HETATM    7  N3  UNL     1      -2.023  -0.985   0.650  1.00  0.00    -0.340 N 
HETATM    8  H10 UNL     1      -2.437  -1.586  -0.122  1.00  0.00     0.167 HD
BRANCH   7   9
HETATM    9  C8  UNL     1      -2.917  -0.388   1.575  1.00  0.00     0.139 A 
HETATM   10  N2  UNL     1      -2.578   0.409   2.578  1.00  0.00    -0.224 NA
HETATM   11  C7  UNL     1      -3.397   0.982   3.469  1.00  0.00     0.235 A 
HETATM   12  N1  UNL     1      -4.740   0.743   3.365  1.00  0.00    -0.245 NA
HETATM   13  C6  UNL     1      -5.147  -0.044   2.385  1.00  0.00     0.062 A 
HETATM   14  C5  UNL     1      -5.775  -0.885   1.370  1.00  0.00     0.136 A 
HETATM   15  C22 UNL     1      -4.279  -0.678   1.406  1.00  0.00     0.030 A 
BRANCH  14  16
HETATM   16  C3  UNL     1      -6.425  -0.295   0.167  1.00  0.00     0.082 C 
HETATM   17  C2  UNL     1      -6.103  -0.527  -1.101  1.00  0.00     0.167 C 
BRANCH  17  18
HETATM   18  O1  UNL     1      -5.260  -1.215  -1.981  1.00  0.00    -0.365 OA
HETATM   19  C1  UNL     1      -5.837  -2.373  -2.593  1.00  0.00     0.209 C 
ENDBRANCH  17  18
BRANCH  16  20
HETATM   20  O2  UNL     1      -7.439   0.552   0.610  1.00  0.00    -0.357 OA
HETATM   21  C4  UNL     1      -7.225   1.946   0.493  1.00  0.00     0.209 C 
ENDBRANCH  16  20
ENDBRANCH  14  16
ENDBRANCH   7   9
ENDBRANCH   1   7
BRANCH   4  22
HETATM   22  N4  UNL     1       3.631  -0.681   0.389  1.00  0.00    -0.309 N 
HETATM   23  C13 UNL     1       4.525   0.216  -0.234  1.00  0.00     0.325 C 
HETATM   24  O3  UNL     1       4.165   1.219  -0.899  1.00  0.00    -0.247 OA
HETATM   25  N5  UNL     1       5.887  -0.141  -0.024  1.00  0.00    -0.309 N 
HETATM   26  H14 UNL     1       6.228  -0.957   0.516  1.00  0.00     0.170 HD
HETATM   27  H13 UNL     1       3.889  -1.521   0.947  1.00  0.00     0.170 HD
BRANCH  25  28
HETATM   28  C14 UNL     1       6.945   0.617  -0.557  1.00  0.00     0.036 A 
HETATM   29  C15 UNL     1       7.392   0.265  -1.835  1.00  0.00     0.029 A 
HETATM   30  C16 UNL     1       8.412   0.946  -2.423  1.00  0.00     0.002 A 
HETATM   31  C17 UNL     1       9.075   2.009  -1.839  1.00  0.00     0.000 A 
HETATM   32  C18 UNL     1       8.631   2.363  -0.566  1.00  0.00     0.002 A 
HETATM   33  C19 UNL     1       7.602   1.669   0.020  1.00  0.00     0.029 A 
ENDBRANCH  25  28
ENDBRANCH   4  22
TORSDOF 7
