REMARK  8 active torsions:
REMARK  status: ('A' for Active; 'I' for Inactive)
REMARK    1  A    between atoms: C2_2  and  C3_3 
REMARK    2  A    between atoms: C2_2  and  N4_19 
REMARK    3  A    between atoms: C4_4  and  N1_5 
REMARK    4  A    between atoms: N1_5  and  C6_7 
REMARK    5  A    between atoms: C10_13  and  O1_14 
REMARK    6  A    between atoms: O1_14  and  C11_15 
REMARK    7  A    between atoms: C11_15  and  O2_16 
REMARK       I    between atoms: N4_19  and  C14_20 
REMARK       I    between atoms: C14_20  and  N5_22 
REMARK    8  A    between atoms: N5_22  and  C15_23 
ROOT
HETATM    1  C3  UNL     1      -0.316   0.765  -0.631  1.00  0.00     0.016 C 
HETATM    2  C4  UNL     1      -0.254  -0.201  -1.517  1.00  0.00     0.090 C 
ENDROOT
BRANCH   1   3
HETATM    3  C2  UNL     1       0.710   1.423   0.168  1.00  0.00     0.036 C 
HETATM    4  C1  UNL     1       0.502   2.417   1.051  1.00  0.00     0.104 C 
BRANCH   3   5
HETATM    5  N4  UNL     1       2.059   1.028   0.062  1.00  0.00    -0.335 N 
HETATM    6  C14 UNL     1       3.220   1.469   0.700  1.00  0.00     0.321 C 
HETATM    7  O3  UNL     1       3.007   2.413   1.543  1.00  0.00    -0.247 OA
HETATM    8  N5  UNL     1       4.553   1.042   0.559  1.00  0.00    -0.309 N 
HETATM    9  H16 UNL     1       4.667   0.262  -0.158  1.00  0.00     0.170 HD
HETATM   10  H15 UNL     1       2.288   0.244  -0.621  1.00  0.00     0.165 HD
BRANCH   8  11
HETATM   11  C15 UNL     1       5.629   1.600   1.296  1.00  0.00     0.036 A 
HETATM   12  C16 UNL     1       6.288   2.694   0.735  1.00  0.00     0.029 A 
HETATM   13  C17 UNL     1       7.332   3.201   1.490  1.00  0.00     0.002 A 
HETATM   14  C18 UNL     1       7.720   2.678   2.727  1.00  0.00     0.000 A 
HETATM   15  C19 UNL     1       7.010   1.603   3.194  1.00  0.00     0.002 A 
HETATM   16  C20 UNL     1       5.970   1.045   2.511  1.00  0.00     0.029 A 
ENDBRANCH   8  11
ENDBRANCH   3   5
ENDBRANCH   1   3
BRANCH   2  17
HETATM   17  N1  UNL     1      -1.359  -0.747  -2.222  1.00  0.00    -0.345 N 
HETATM   18  C5  UNL     1      -1.316  -2.193  -2.289  1.00  0.00     0.157 C 
BRANCH  17  19
HETATM   19  C6  UNL     1      -2.498  -0.188  -2.871  1.00  0.00     0.146 A 
HETATM   20  N2  UNL     1      -2.497   0.682  -3.906  1.00  0.00    -0.223 NA
HETATM   21  C7  UNL     1      -3.636   1.146  -4.446  1.00  0.00     0.236 A 
HETATM   22  N3  UNL     1      -4.834   0.786  -4.003  1.00  0.00    -0.241 NA
HETATM   23  C8  UNL     1      -4.973  -0.071  -2.981  1.00  0.00     0.077 A 
HETATM   24  C9  UNL     1      -3.776  -0.519  -2.462  1.00  0.00     0.072 A 
HETATM   25  C13 UNL     1      -5.655  -0.913  -1.971  1.00  0.00     0.070 A 
HETATM   26  C10 UNL     1      -4.503  -1.331  -1.487  1.00  0.00     0.090 A 
BRANCH  26  27
HETATM   27  O1  UNL     1      -4.443  -2.210  -0.442  1.00  0.00    -0.325 OA
BRANCH  27  28
HETATM   28  C11 UNL     1      -4.902  -3.531  -0.444  1.00  0.00     0.344 C 
BRANCH  28  29
HETATM   29  O2  UNL     1      -4.569  -4.170   0.744  1.00  0.00    -0.371 OA
HETATM   30  C12 UNL     1      -5.131  -3.525   1.831  1.00  0.00     0.204 C 
ENDBRANCH  28  29
ENDBRANCH  27  28
ENDBRANCH  26  27
ENDBRANCH  17  19
ENDBRANCH   2  17
TORSDOF 8
