REMARK  10 active torsions:
REMARK  status: ('A' for Active; 'I' for Inactive)
REMARK    1  A    between atoms: C2_2  and  C3_3 
REMARK    2  A    between atoms: C5_5  and  C6_6 
REMARK    3  A    between atoms: C6_6  and  O1_7 
REMARK    4  A    between atoms: O1_7  and  C7_8 
REMARK    5  A    between atoms: C8_9  and  C9_10 
REMARK    6  A    between atoms: C9_10  and  C10_11 
REMARK    7  A    between atoms: C17_18  and  N1_19 
REMARK    8  A    between atoms: N1_19  and  C18_20 
REMARK    9  A    between atoms: C18_20  and  O2_21 
REMARK   10  A    between atoms: C20_23  and  O3_24 
ROOT
HETATM    1  C3  UNL     1      -3.372   1.852  -0.212  1.00  0.00    -0.005 A 
HETATM    2  C4  UNL     1      -2.263   1.695  -0.912  1.00  0.00     0.029 A 
HETATM    3  C5  UNL     1      -1.530   0.435  -0.833  1.00  0.00     0.016 A 
HETATM    4  C17 UNL     1      -2.112  -0.560   0.040  1.00  0.00     0.068 A 
HETATM    5  C19 UNL     1      -3.344  -0.292   0.775  1.00  0.00     0.069 A 
HETATM    6  C20 UNL     1      -3.984   0.872   0.676  1.00  0.00     0.080 A 
ENDROOT
BRANCH   3   7
HETATM    7  C6  UNL     1      -0.424   0.248  -1.520  1.00  0.00     0.155 C 
BRANCH   7   8
HETATM    8  O1  UNL     1       0.297  -0.951  -1.461  1.00  0.00    -0.334 OA
BRANCH   8   9
HETATM    9  C7  UNL     1       1.533  -0.877  -0.809  1.00  0.00     0.137 C 
HETATM   10  C8  UNL     1       1.831  -0.490   0.424  1.00  0.00    -0.002 C 
BRANCH  10  11
HETATM   11  C9  UNL     1       3.146  -0.417   1.099  1.00  0.00     0.035 C 
BRANCH  11  12
HETATM   12  C10 UNL     1       4.258  -0.862   0.190  1.00  0.00     0.004 C 
HETATM   13  C11 UNL     1       5.579  -0.717   1.080  1.00  0.00     0.033 C 
HETATM   14  C12 UNL     1       6.554  -0.572  -0.084  1.00  0.00    -0.019 C 
HETATM   15  C13 UNL     1       5.988  -0.263  -1.295  1.00  0.00    -0.054 A 
HETATM   16  C14 UNL     1       5.526   0.063  -2.643  1.00  0.00     0.004 A 
HETATM   17  C16 UNL     1       4.609   0.200  -0.759  1.00  0.00     0.045 A 
HETATM   18  C15 UNL     1       4.375   0.420  -2.125  1.00  0.00    -0.016 A 
ENDBRANCH  11  12
ENDBRANCH  10  11
ENDBRANCH   8   9
ENDBRANCH   7   8
ENDBRANCH   3   7
BRANCH   4  19
HETATM   19  N1  UNL     1      -1.523  -1.700   0.165  1.00  0.00    -0.263 NA
BRANCH  19  20
HETATM   20  C18 UNL     1      -2.092  -2.715   1.039  1.00  0.00     0.314 C 
BRANCH  20  21
HETATM   21  O2  UNL     1      -1.459  -3.943   0.800  1.00  0.00    -0.380 OA
HETATM   22  H19 UNL     1      -1.185  -4.388   1.621  1.00  0.00     0.211 HD
ENDBRANCH  20  21
ENDBRANCH  19  20
ENDBRANCH   4  19
BRANCH   1  23
HETATM   23  C2  UNL     1      -4.042   3.143  -0.350  1.00  0.00    -0.012 C 
HETATM   24  C1  UNL     1      -5.153   3.548   0.235  1.00  0.00     0.032 C 
ENDBRANCH   1  23
BRANCH   6  25
HETATM   25  O3  UNL     1      -5.154   1.151   1.362  1.00  0.00    -0.355 OA
HETATM   26  C21 UNL     1      -6.343   0.388   1.124  1.00  0.00     0.210 C 
ENDBRANCH   6  25
TORSDOF 10
