REMARK  5 active torsions:
REMARK  status: ('A' for Active; 'I' for Inactive)
REMARK    1  A    between atoms: O1_2  and  C2_3 
REMARK    2  A    between atoms: C7_10  and  N3_11 
REMARK    3  A    between atoms: N3_11  and  C9_13 
REMARK    4  A    between atoms: C12_16  and  N4_17 
REMARK       I    between atoms: N4_17  and  C13_18 
REMARK       I    between atoms: C13_18  and  N5_20 
REMARK    5  A    between atoms: N5_20  and  C14_21 
ROOT
HETATM    1  C9  UNL     1      -0.852   0.747   0.486  1.00  0.00     0.035 A 
HETATM    2  C10 UNL     1      -0.508  -0.068   1.543  1.00  0.00     0.032 A 
HETATM    3  C11 UNL     1       0.765  -0.547   1.704  1.00  0.00     0.032 A 
HETATM    4  C12 UNL     1       1.773  -0.243   0.819  1.00  0.00     0.036 A 
HETATM    5  C20 UNL     1       1.404   0.570  -0.225  1.00  0.00     0.032 A 
HETATM    6  C21 UNL     1       0.140   1.062  -0.407  1.00  0.00     0.032 A 
ENDROOT
BRANCH   1   7
HETATM    7  N3  UNL     1      -2.185   1.254   0.312  1.00  0.00    -0.335 N 
HETATM    8  C8  UNL     1      -2.448   2.115  -0.851  1.00  0.00     0.158 C 
BRANCH   7   9
HETATM    9  C7  UNL     1      -3.150   0.877   1.287  1.00  0.00     0.144 A 
HETATM   10  C4  UNL     1      -4.287   0.145   1.050  1.00  0.00     0.043 A 
HETATM   11  C3  UNL     1      -4.357  -0.209  -0.352  1.00  0.00     0.081 C 
HETATM   12  C5  UNL     1      -5.204  -0.193   2.022  1.00  0.00     0.074 A 
HETATM   13  C2  UNL     1      -5.440  -0.623  -1.033  1.00  0.00     0.185 C 
HETATM   14  O3  UNL     1      -6.723  -0.794  -0.515  1.00  0.00    -0.300 OA
HETATM   15  C23 UNL     1      -7.109  -1.225   0.770  1.00  0.00     0.147 C 
HETATM   16  C22 UNL     1      -6.440  -0.960   1.887  1.00  0.00     0.057 C 
HETATM   17  N1  UNL     1      -4.945   0.235   3.279  1.00  0.00    -0.241 NA
HETATM   18  C6  UNL     1      -3.838   0.954   3.537  1.00  0.00     0.236 A 
HETATM   19  N2  UNL     1      -2.960   1.269   2.568  1.00  0.00    -0.223 NA
BRANCH  13  20
HETATM   20  O1  UNL     1      -5.215  -0.895  -2.378  1.00  0.00    -0.335 OA
HETATM   21  C1  UNL     1      -5.722   0.049  -3.328  1.00  0.00     0.212 C 
ENDBRANCH  13  20
ENDBRANCH   7   9
ENDBRANCH   1   7
BRANCH   4  22
HETATM   22  N4  UNL     1       3.061  -0.779   1.056  1.00  0.00    -0.309 N 
HETATM   23  C13 UNL     1       4.257  -0.624   0.312  1.00  0.00     0.325 C 
HETATM   24  O2  UNL     1       4.238   0.082  -0.724  1.00  0.00    -0.247 OA
HETATM   25  N5  UNL     1       5.499  -1.217   0.654  1.00  0.00    -0.309 N 
HETATM   26  H12 UNL     1       5.542  -1.811   1.514  1.00  0.00     0.170 HD
HETATM   27  H11 UNL     1       3.220  -1.387   1.888  1.00  0.00     0.170 HD
BRANCH  25  28
HETATM   28  C14 UNL     1       6.598  -0.940  -0.230  1.00  0.00     0.036 A 
HETATM   29  C15 UNL     1       6.984  -1.659  -1.342  1.00  0.00     0.029 A 
HETATM   30  C16 UNL     1       8.075  -1.232  -2.071  1.00  0.00     0.002 A 
HETATM   31  C17 UNL     1       8.792  -0.102  -1.714  1.00  0.00     0.000 A 
HETATM   32  C18 UNL     1       8.413   0.629  -0.597  1.00  0.00     0.002 A 
HETATM   33  C19 UNL     1       7.317   0.184   0.118  1.00  0.00     0.029 A 
ENDBRANCH  25  28
ENDBRANCH   4  22
TORSDOF 5
