REMARK  6 active torsions:
REMARK  status: ('A' for Active; 'I' for Inactive)
REMARK    1  A    between atoms: C3_3  and  C4_4 
REMARK       I    between atoms: C4_4  and  N1_6 
REMARK    2  A    between atoms: N1_6  and  C5_7 
REMARK    3  A    between atoms: C5_7  and  N2_8 
REMARK    4  A    between atoms: N2_8  and  C6_9 
REMARK    5  A    between atoms: C17_23  and  O3_24 
REMARK    6  A    between atoms: C19_26  and  O4_27 
ROOT
HETATM    1  C6  UNL     1       0.985   0.879   0.558  1.00  0.00     0.028 C 
HETATM    2  C7  UNL     1       0.535   1.724  -0.299  1.00  0.00     0.028 C 
HETATM    3  C8  UNL     1      -0.790   2.261  -0.705  1.00  0.00     0.010 C 
HETATM    4  C9  UNL     1      -2.147   2.388  -0.659  1.00  0.00     0.185 C 
HETATM    5  O2  UNL     1      -3.549   2.280  -0.351  1.00  0.00    -0.336 OA
HETATM    6  C10 UNL     1      -4.044   0.937  -0.367  1.00  0.00     0.104 A 
HETATM    7  C11 UNL     1      -3.379   0.305   0.673  1.00  0.00     0.055 A 
HETATM    8  C12 UNL     1      -3.447  -0.989   1.103  1.00  0.00     0.023 A 
HETATM    9  C13 UNL     1      -2.748  -1.620   2.097  1.00  0.00     0.081 A 
HETATM   10  N3  UNL     1      -3.018  -2.929   2.245  1.00  0.00    -0.243 NA
HETATM   11  C14 UNL     1      -3.887  -3.634   1.514  1.00  0.00     0.234 A 
HETATM   12  N4  UNL     1      -4.581  -3.033   0.530  1.00  0.00    -0.241 NA
HETATM   13  C15 UNL     1      -4.341  -1.705   0.342  1.00  0.00     0.073 A 
HETATM   14  C16 UNL     1      -5.047  -1.150  -0.704  1.00  0.00     0.072 A 
HETATM   15  C17 UNL     1      -4.917   0.168  -1.080  1.00  0.00     0.103 A 
HETATM   16  C19 UNL     1      -1.708  -1.060   2.988  1.00  0.00     0.194 C 
HETATM   17  C20 UNL     1      -0.482  -0.561   2.298  1.00  0.00     0.013 C 
HETATM   18  C21 UNL     1       0.518  -0.010   1.578  1.00  0.00     0.028 C 
ENDROOT
BRANCH   1  19
HETATM   19  N2  UNL     1       2.392   0.747   0.514  1.00  0.00    -0.374 N 
HETATM   20  H9  UNL     1       2.894   1.241   1.284  1.00  0.00     0.161 HD
BRANCH  19  21
HETATM   21  C5  UNL     1       2.919  -0.056  -0.598  1.00  0.00     0.246 C 
BRANCH  21  22
HETATM   22  N1  UNL     1       4.361  -0.115  -0.528  1.00  0.00    -0.342 N 
HETATM   23  C4  UNL     1       5.110   1.116  -0.592  1.00  0.00     0.242 C 
HETATM   24  O1  UNL     1       4.345   2.108  -0.705  1.00  0.00    -0.269 OA
HETATM   25  H6  UNL     1       4.875  -1.029  -0.432  1.00  0.00     0.164 HD
BRANCH  23  26
HETATM   26  C3  UNL     1       6.567   1.150  -0.528  1.00  0.00     0.070 C 
HETATM   27  C2  UNL     1       7.353   0.108  -0.410  1.00  0.00    -0.026 C 
HETATM   28  C1  UNL     1       8.830   0.335  -0.361  1.00  0.00     0.036 C 
ENDBRANCH  23  26
ENDBRANCH  21  22
ENDBRANCH  19  21
ENDBRANCH   1  19
BRANCH  16  29
HETATM   29  O4  UNL     1      -1.348  -1.953   3.995  1.00  0.00    -0.386 OA
HETATM   30  H20 UNL     1      -0.861  -2.740   3.681  1.00  0.00     0.210 HD
ENDBRANCH  16  29
BRANCH  15  31
HETATM   31  O3  UNL     1      -5.475   0.960  -2.051  1.00  0.00    -0.353 OA
HETATM   32  C18 UNL     1      -6.415   0.445  -2.945  1.00  0.00     0.210 C 
ENDBRANCH  15  31
TORSDOF 6
