REMARK  7 active torsions:
REMARK  status: ('A' for Active; 'I' for Inactive)
REMARK    1  A    between atoms: O1_2  and  C2_3 
REMARK    2  A    between atoms: C4_6  and  N1_8 
REMARK    3  A    between atoms: N1_8  and  C6_9 
REMARK    4  A    between atoms: C9_12  and  N2_13 
REMARK       I    between atoms: N2_13  and  C10_14 
REMARK       I    between atoms: C10_14  and  N3_16 
REMARK    5  A    between atoms: C14_20  and  C15_21 
REMARK    6  A    between atoms: C15_21  and  N4_22 
REMARK    7  A    between atoms: C16_23  and  O4_24 
ROOT
HETATM    1  C6  UNL     1      -1.557   0.647  -0.844  1.00  0.00     0.030 A 
HETATM    2  C7  UNL     1      -0.439   0.973  -1.620  1.00  0.00     0.031 A 
HETATM    3  C8  UNL     1       0.794   0.703  -1.080  1.00  0.00     0.032 A 
HETATM    4  C9  UNL     1       1.048   0.151   0.134  1.00  0.00     0.036 A 
HETATM    5  C17 UNL     1      -0.072  -0.157   0.869  1.00  0.00     0.032 A 
HETATM    6  C18 UNL     1      -1.338   0.080   0.402  1.00  0.00     0.031 A 
ENDROOT
BRANCH   4   7
HETATM    7  N2  UNL     1       2.329  -0.119   0.671  1.00  0.00    -0.308 N 
HETATM    8  C10 UNL     1       3.613   0.085   0.161  1.00  0.00     0.329 C 
HETATM    9  O3  UNL     1       3.680   0.602  -0.988  1.00  0.00    -0.246 OA
HETATM   10  N3  UNL     1       4.835  -0.233   0.809  1.00  0.00    -0.279 N 
HETATM   11  C11 UNL     1       4.854  -0.817   2.102  1.00  0.00     0.099 A 
HETATM   12  C16 UNL     1       6.081   0.048   0.129  1.00  0.00     0.261 A 
HETATM   13  C12 UNL     1       5.947  -1.141   2.769  1.00  0.00     0.018 A 
HETATM   14  C13 UNL     1       7.263  -0.908   2.192  1.00  0.00     0.010 A 
HETATM   15  C14 UNL     1       7.207  -0.364   0.990  1.00  0.00    -0.004 A 
HETATM   16  H11 UNL     1       2.372  -0.550   1.626  1.00  0.00     0.170 HD
BRANCH  15  17
HETATM   17  C15 UNL     1       8.489  -0.061   0.259  1.00  0.00     0.305 C 
BRANCH  17  18
HETATM   18  N4  UNL     1       8.426  -0.838  -0.968  1.00  0.00     0.082 N 
HETATM   19  H17 UNL     1       9.143  -0.576  -1.664  1.00  0.00     0.313 HD
HETATM   20  H18 UNL     1       8.486  -1.852  -0.718  1.00  0.00     0.313 HD
ENDBRANCH  17  18
ENDBRANCH  15  17
BRANCH  12  21
HETATM   21  O4  UNL     1       6.088   1.447  -0.078  1.00  0.00    -0.372 OA
HETATM   22  H20 UNL     1       5.882   1.832   0.831  1.00  0.00     0.212 HD
ENDBRANCH  12  21
ENDBRANCH   4   7
BRANCH   1  23
HETATM   23  N1  UNL     1      -2.901   0.894  -1.300  1.00  0.00    -0.358 N 
HETATM   24  H8  UNL     1      -2.912   1.364  -2.259  1.00  0.00     0.162 HD
BRANCH  23  25
HETATM   25  C4  UNL     1      -4.181   0.586  -0.627  1.00  0.00     0.139 C 
HETATM   26  O2  UNL     1      -5.162   1.151  -1.429  1.00  0.00    -0.329 OA
HETATM   27  C3  UNL     1      -6.543   1.053  -1.451  1.00  0.00     0.174 C 
HETATM   28  C2  UNL     1      -7.148  -0.150  -1.447  1.00  0.00     0.089 C 
HETATM   29  C21 UNL     1      -6.563  -1.513  -1.422  1.00  0.00     0.035 C 
HETATM   30  C20 UNL     1      -5.318  -1.664  -0.930  1.00  0.00    -0.019 C 
HETATM   31  C19 UNL     1      -4.250  -0.855  -0.357  1.00  0.00     0.088 C 
HETATM   32  C5  UNL     1      -4.127   1.370   0.673  1.00  0.00     0.071 C 
BRANCH  28  33
HETATM   33  O1  UNL     1      -8.557  -0.175  -1.471  1.00  0.00    -0.354 OA
HETATM   34  C1  UNL     1      -9.163   0.484  -0.357  1.00  0.00     0.210 C 
ENDBRANCH  28  33
ENDBRANCH  23  25
ENDBRANCH   1  23
TORSDOF 7
