REMARK  4 active torsions:
REMARK  status: ('A' for Active; 'I' for Inactive)
REMARK    1  A    between atoms: O1_2  and  C2_3 
REMARK    2  A    between atoms: C2_3  and  C3_4 
REMARK    3  A    between atoms: C9_10  and  N1_11 
REMARK       I    between atoms: N1_11  and  C10_12 
REMARK       I    between atoms: C10_12  and  N2_14 
REMARK    4  A    between atoms: C17_21  and  O3_22 
ROOT
HETATM    1  C3  UNL     1       3.494  -0.029  -1.199  1.00  0.00     0.095 A 
HETATM    2  C4  UNL     1       3.510   1.453  -0.998  1.00  0.00     0.055 A 
HETATM    3  C5  UNL     1       2.792   1.047  -1.982  1.00  0.00     0.071 A 
HETATM    4  C6  UNL     1       1.484   1.693  -2.352  1.00  0.00     0.126 A 
HETATM    5  C7  UNL     1       0.236   1.950  -1.943  1.00  0.00     0.018 C 
HETATM    6  C8  UNL     1      -1.055   2.035  -1.137  1.00  0.00     0.001 C 
HETATM    7  C9  UNL     1      -0.741   1.384  -0.015  1.00  0.00     0.014 C 
HETATM    8  C16 UNL     1       0.257   0.775   0.833  1.00  0.00     0.117 C 
HETATM    9  C17 UNL     1       0.605  -0.663   0.708  1.00  0.00     0.267 C 
HETATM   10  O4  UNL     1       1.103  -1.045  -0.518  1.00  0.00    -0.331 OA
HETATM   11  C18 UNL     1       1.813  -2.198  -0.729  1.00  0.00     0.155 C 
HETATM   12  C19 UNL     1       2.816  -2.208  -1.679  1.00  0.00     0.116 C 
HETATM   13  N3  UNL     1       2.801  -0.836  -2.220  1.00  0.00    -0.340 N 
HETATM   14  C20 UNL     1       1.937  -0.714  -3.373  1.00  0.00     0.155 A 
HETATM   15  N4  UNL     1       2.064   0.469  -3.011  1.00  0.00    -0.258 NA
ENDROOT
BRANCH   7  16
HETATM   16  N1  UNL     1      -2.119   1.617   0.511  1.00  0.00    -0.312 N 
HETATM   17  C10 UNL     1      -2.860   0.357   0.530  1.00  0.00     0.326 C 
HETATM   18  O2  UNL     1      -2.472  -0.765   0.167  1.00  0.00    -0.246 OA
HETATM   19  N2  UNL     1      -4.176   0.488   1.035  1.00  0.00    -0.306 N 
HETATM   20  C11 UNL     1      -4.799   1.688   1.483  1.00  0.00     0.096 A 
HETATM   21  C15 UNL     1      -4.994  -0.686   1.112  1.00  0.00     0.160 A 
HETATM   22  C12 UNL     1      -6.021   1.789   1.947  1.00  0.00     0.017 A 
HETATM   23  C13 UNL     1      -6.933   0.661   2.074  1.00  0.00    -0.001 A 
HETATM   24  C14 UNL     1      -6.321  -0.435   1.645  1.00  0.00    -0.007 A 
HETATM   25  H9  UNL     1      -2.426   2.556   0.822  1.00  0.00     0.170 HD
ENDBRANCH   7  16
BRANCH   9  26
HETATM   26  O3  UNL     1       1.679  -0.896   1.638  1.00  0.00    -0.371 OA
HETATM   27  H19 UNL     1       2.245  -0.072   1.660  1.00  0.00     0.212 HD
ENDBRANCH   9  26
BRANCH   1  28
HETATM   28  C2  UNL     1       4.236  -0.795  -0.363  1.00  0.00     0.183 C 
BRANCH  28  29
HETATM   29  O1  UNL     1       4.912  -1.772   0.366  1.00  0.00    -0.385 OA
HETATM   30  C1  UNL     1       6.004  -2.482  -0.149  1.00  0.00     0.202 C 
ENDBRANCH  28  29
ENDBRANCH   1  28
TORSDOF 4
