REMARK  7 active torsions:
REMARK  status: ('A' for Active; 'I' for Inactive)
REMARK    1  A    between atoms: O1_2  and  C2_3 
REMARK    2  A    between atoms: C3_4  and  N1_5 
REMARK       I    between atoms: N1_5  and  C4_6 
REMARK       I    between atoms: C4_6  and  N2_8 
REMARK    3  A    between atoms: N2_8  and  C5_9 
REMARK    4  A    between atoms: C8_12  and  O3_13 
REMARK    5  A    between atoms: O3_13  and  C9_14 
REMARK    6  A    between atoms: C13_20  and  O4_21 
REMARK    7  A    between atoms: C15_23  and  O5_24 
ROOT
HETATM    1  C5  UNL     1      -1.633   1.297  -0.425  1.00  0.00     0.036 A 
HETATM    2  C6  UNL     1      -0.937   1.074  -1.594  1.00  0.00     0.032 A 
HETATM    3  C7  UNL     1       0.335   0.548  -1.577  1.00  0.00     0.039 A 
HETATM    4  C8  UNL     1       0.937   0.235  -0.375  1.00  0.00     0.078 A 
HETATM    5  C19 UNL     1       0.211   0.472   0.765  1.00  0.00     0.039 A 
HETATM    6  C20 UNL     1      -1.062   0.994   0.817  1.00  0.00     0.032 A 
ENDROOT
BRANCH   4   7
HETATM    7  O3  UNL     1       2.193  -0.293  -0.186  1.00  0.00    -0.291 OA
BRANCH   7   8
HETATM    8  C9  UNL     1       3.277   0.552  -0.027  1.00  0.00     0.183 A 
HETATM    9  N3  UNL     1       3.121   1.897  -0.055  1.00  0.00    -0.217 NA
HETATM   10  C10 UNL     1       4.199   2.706   0.103  1.00  0.00     0.236 A 
HETATM   11  N4  UNL     1       5.447   2.230   0.291  1.00  0.00    -0.241 NA
HETATM   12  C11 UNL     1       5.667   0.886   0.328  1.00  0.00     0.075 A 
HETATM   13  C12 UNL     1       6.945   0.410   0.520  1.00  0.00     0.072 A 
HETATM   14  C18 UNL     1       4.558   0.091   0.165  1.00  0.00     0.049 A 
HETATM   15  C13 UNL     1       7.149  -0.974   0.554  1.00  0.00     0.103 A 
HETATM   16  C15 UNL     1       6.064  -1.811   0.395  1.00  0.00     0.102 A 
HETATM   17  C17 UNL     1       4.805  -1.265   0.206  1.00  0.00     0.057 A 
BRANCH  15  18
HETATM   18  O4  UNL     1       8.445  -1.432   0.748  1.00  0.00    -0.353 OA
HETATM   19  C14 UNL     1       9.472  -0.480   0.899  1.00  0.00     0.210 C 
ENDBRANCH  15  18
BRANCH  16  20
HETATM   20  O5  UNL     1       6.373  -3.147   0.445  1.00  0.00    -0.353 OA
HETATM   21  C16 UNL     1       5.427  -4.165   0.306  1.00  0.00     0.210 C 
ENDBRANCH  16  20
ENDBRANCH   7   8
ENDBRANCH   4   7
BRANCH   1  22
HETATM   22  N2  UNL     1      -2.967   1.846  -0.416  1.00  0.00    -0.309 N 
HETATM   23  C4  UNL     1      -3.914   0.790  -0.478  1.00  0.00     0.325 C 
HETATM   24  N1  UNL     1      -5.319   0.955  -0.488  1.00  0.00    -0.306 N 
HETATM   25  O2  UNL     1      -3.435  -0.368  -0.527  1.00  0.00    -0.247 OA
HETATM   26  H4  UNL     1      -5.583   1.960  -0.444  1.00  0.00     0.171 HD
HETATM   27  H5  UNL     1      -3.339   2.824  -0.374  1.00  0.00     0.170 HD
BRANCH  24  28
HETATM   28  C3  UNL     1      -6.308  -0.048  -0.547  1.00  0.00     0.069 A 
HETATM   29  C2  UNL     1      -7.571   0.330  -0.546  1.00  0.00     0.096 A 
HETATM   30  C23 UNL     1      -8.780  -0.498  -0.600  1.00  0.00     0.241 A 
HETATM   31  O6  UNL     1      -8.464  -1.866  -0.660  1.00  0.00    -0.356 OA
HETATM   32  C22 UNL     1      -7.169  -2.287  -0.663  1.00  0.00     0.137 A 
HETATM   33  C21 UNL     1      -6.127  -1.477  -0.612  1.00  0.00     0.056 A 
BRANCH  29  34
HETATM   34  O1  UNL     1      -7.919   1.681  -0.487  1.00  0.00    -0.356 OA
HETATM   35  C1  UNL     1      -8.043   2.319   0.771  1.00  0.00     0.209 C 
ENDBRANCH  29  34
ENDBRANCH  24  28
ENDBRANCH   1  22
TORSDOF 7
