REMARK  7 active torsions:
REMARK  status: ('A' for Active; 'I' for Inactive)
REMARK    1  A    between atoms: O1_2  and  C2_3 
REMARK    2  A    between atoms: C3_4  and  O2_5 
REMARK    3  A    between atoms: C9_13  and  O3_14 
REMARK    4  A    between atoms: O3_14  and  C10_15 
REMARK    5  A    between atoms: C13_18  and  N3_19 
REMARK       I    between atoms: N3_19  and  C14_20 
REMARK       I    between atoms: C14_20  and  N4_22 
REMARK    6  A    between atoms: N4_22  and  C15_23 
REMARK    7  A    between atoms: C18_26  and  O5_27 
ROOT
HETATM    1  C10 UNL     1      -1.490   0.261  -0.691  1.00  0.00     0.077 A 
HETATM    2  C11 UNL     1      -0.887  -0.207   0.454  1.00  0.00     0.039 A 
HETATM    3  C12 UNL     1       0.266   0.377   0.935  1.00  0.00     0.032 A 
HETATM    4  C13 UNL     1       0.845   1.446   0.282  1.00  0.00     0.036 A 
HETATM    5  C22 UNL     1       0.252   1.928  -0.868  1.00  0.00     0.032 A 
HETATM    6  C23 UNL     1      -0.898   1.341  -1.344  1.00  0.00     0.039 A 
ENDROOT
BRANCH   1   7
HETATM    7  O3  UNL     1      -2.630  -0.171  -1.335  1.00  0.00    -0.295 OA
BRANCH   7   8
HETATM    8  C9  UNL     1      -3.421  -1.215  -0.924  1.00  0.00     0.163 C 
HETATM    9  C5  UNL     1      -4.858  -1.277  -0.749  1.00  0.00     0.174 A 
HETATM   10  C3  UNL     1      -5.705  -0.146  -0.523  1.00  0.00     0.097 A 
HETATM   11  C6  UNL     1      -5.310  -2.446  -0.032  1.00  0.00     0.057 A 
HETATM   12  C2  UNL     1      -6.673  -0.654   0.260  1.00  0.00     0.100 A 
HETATM   13  C7  UNL     1      -6.434  -2.079   0.572  1.00  0.00     0.067 A 
HETATM   14  N1  UNL     1      -4.529  -3.655   0.126  1.00  0.00    -0.245 NA
HETATM   15  C8  UNL     1      -3.246  -3.476  -0.188  1.00  0.00     0.235 C 
HETATM   16  N2  UNL     1      -2.707  -2.257  -0.676  1.00  0.00    -0.221 NA
BRANCH  10  17
HETATM   17  O2  UNL     1      -5.506   1.120  -1.036  1.00  0.00    -0.356 OA
HETATM   18  C4  UNL     1      -6.563   1.924  -1.538  1.00  0.00     0.209 C 
ENDBRANCH  10  17
BRANCH  12  19
HETATM   19  O1  UNL     1      -7.783   0.032   0.759  1.00  0.00    -0.353 OA
HETATM   20  C1  UNL     1      -8.969  -0.660   1.099  1.00  0.00     0.210 C 
ENDBRANCH  12  19
ENDBRANCH   7   8
ENDBRANCH   1   7
BRANCH   4  21
HETATM   21  N3  UNL     1       2.029   1.917   0.925  1.00  0.00    -0.309 N 
HETATM   22  C14 UNL     1       3.241   1.333   0.525  1.00  0.00     0.325 C 
HETATM   23  O4  UNL     1       3.134   0.465  -0.353  1.00  0.00    -0.247 OA
HETATM   24  N4  UNL     1       4.506   1.651   1.028  1.00  0.00    -0.309 N 
HETATM   25  H13 UNL     1       4.444   2.404   1.767  1.00  0.00     0.170 HD
HETATM   26  H12 UNL     1       2.048   2.670   1.676  1.00  0.00     0.170 HD
BRANCH  24  27
HETATM   27  C15 UNL     1       5.774   1.121   0.690  1.00  0.00     0.036 A 
HETATM   28  C16 UNL     1       6.034   0.157  -0.227  1.00  0.00     0.032 A 
HETATM   29  C17 UNL     1       7.298  -0.317  -0.511  1.00  0.00     0.039 A 
HETATM   30  C18 UNL     1       8.392   0.189   0.152  1.00  0.00     0.068 A 
HETATM   31  C20 UNL     1       8.151   1.167   1.086  1.00  0.00     0.039 A 
HETATM   32  C21 UNL     1       6.885   1.611   1.340  1.00  0.00     0.032 A 
BRANCH  30  33
HETATM   33  O5  UNL     1       9.700  -0.213  -0.054  1.00  0.00    -0.356 OA
HETATM   34  C19 UNL     1      10.064  -1.199  -0.977  1.00  0.00     0.210 C 
ENDBRANCH  30  33
ENDBRANCH  24  27
ENDBRANCH   4  21
TORSDOF 7
