REMARK  5 active torsions:
REMARK  status: ('A' for Active; 'I' for Inactive)
REMARK    1  A    between atoms: C4_4  and  C5_5 
REMARK    2  A    between atoms: C5_5  and  O2_7 
REMARK    3  A    between atoms: C8_10  and  O3_11 
REMARK    4  A    between atoms: O3_11  and  C9_12 
REMARK    5  A    between atoms: C11_14  and  N1_15 
ROOT
HETATM    1  C9  UNL     1       0.014  -0.195   0.161  1.00  0.00     0.174 A 
HETATM    2  C10 UNL     1       1.372  -0.227   0.448  1.00  0.00     0.109 A 
HETATM    3  C11 UNL     1       2.367  -0.170  -0.493  1.00  0.00     0.135 A 
HETATM    4  N2  UNL     1       1.910  -0.079  -1.756  1.00  0.00    -0.224 NA
HETATM    5  C17 UNL     1       0.603  -0.046  -2.057  1.00  0.00     0.238 A 
HETATM    6  N3  UNL     1      -0.363  -0.102  -1.126  1.00  0.00    -0.217 NA
ENDROOT
BRANCH   1   7
HETATM    7  O3  UNL     1      -0.889  -0.259   1.204  1.00  0.00    -0.291 OA
BRANCH   7   8
HETATM    8  C8  UNL     1      -2.243  -0.218   0.927  1.00  0.00     0.084 A 
HETATM    9  C2  UNL     1      -2.922   0.811   0.313  1.00  0.00    -0.027 A 
HETATM   10  C1  UNL     1      -2.166   2.005  -0.095  1.00  0.00     0.051 C 
HETATM   11  C3  UNL     1      -4.280   0.772   0.073  1.00  0.00     0.027 A 
HETATM   12  C4  UNL     1      -5.029  -0.330   0.451  1.00  0.00     0.038 A 
HETATM   13  C6  UNL     1      -4.370  -1.365   1.064  1.00  0.00     0.021 A 
HETATM   14  C7  UNL     1      -2.996  -1.333   1.310  1.00  0.00     0.039 A 
BRANCH  12  15
HETATM   15  C5  UNL     1      -6.465  -0.385   0.204  1.00  0.00     0.176 C 
HETATM   16  O1  UNL     1      -7.137  -1.392   0.551  1.00  0.00    -0.646 OA
BRANCH  15  17
HETATM   17  O2  UNL     1      -7.093   0.684  -0.420  1.00  0.00    -0.773 OA
HETATM   18  H5  UNL     1      -8.116   0.754  -0.457  1.00  0.00     0.167 HD
ENDBRANCH  15  17
ENDBRANCH  12  15
ENDBRANCH   7   8
ENDBRANCH   1   7
BRANCH   3  19
HETATM   19  N1  UNL     1       3.768  -0.203  -0.208  1.00  0.00    -0.336 N 
HETATM   20  C12 UNL     1       4.243  -0.296   1.106  1.00  0.00     0.120 A 
HETATM   21  C13 UNL     1       5.533  -0.331   1.446  1.00  0.00     0.087 A 
HETATM   22 CL1  UNL     1       6.089  -0.447   3.087  1.00  0.00    -0.080 Cl
HETATM   23  C14 UNL     1       6.542  -0.269   0.396  1.00  0.00     0.137 A 
HETATM   24  F1  UNL     1       7.884  -0.293   0.576  1.00  0.00    -0.205 F 
HETATM   25  C15 UNL     1       6.055  -0.181  -0.828  1.00  0.00     0.037 A 
HETATM   26  C16 UNL     1       4.669  -0.134  -1.337  1.00  0.00     0.160 A 
ENDBRANCH   3  19
TORSDOF 5
