REMARK  4 active torsions:
REMARK  status: ('A' for Active; 'I' for Inactive)
REMARK    1  A    between atoms: O1_2  and  C2_3 
REMARK    2  A    between atoms: C6_9  and  O2_10 
REMARK    3  A    between atoms: O2_10  and  C7_11 
REMARK    4  A    between atoms: C24_30  and  O4_31 
ROOT
HETATM    1  C7  UNL     1       0.112  -0.887  -0.450  1.00  0.00     0.078 A 
HETATM    2  C8  UNL     1       1.004   0.203  -0.355  1.00  0.00     0.045 A 
HETATM    3  C9  UNL     1       2.061  -0.210   0.389  1.00  0.00    -0.040 A 
HETATM    4  C10 UNL     1       2.496  -1.320   1.040  1.00  0.00     0.036 A 
HETATM    5  C11 UNL     1       1.450  -2.177   0.766  1.00  0.00    -0.055 A 
HETATM    6  C12 UNL     1       0.264  -2.146   0.091  1.00  0.00     0.042 A 
HETATM    7  C13 UNL     1       2.620  -2.597   1.573  1.00  0.00     0.052 A 
HETATM    8  C14 UNL     1       3.614  -3.517   0.905  1.00  0.00     0.129 C 
HETATM    9  N3  UNL     1       4.848  -2.814   0.607  1.00  0.00    -0.398 N 
HETATM   10  C15 UNL     1       5.890  -2.251   1.362  1.00  0.00     0.083 C 
HETATM   11  C16 UNL     1       6.353  -1.175   1.794  1.00  0.00     0.018 C 
HETATM   12  C17 UNL     1       6.560   0.237   2.097  1.00  0.00     0.014 C 
HETATM   13  C18 UNL     1       5.665   1.042   1.631  1.00  0.00    -0.012 C 
HETATM   14  C19 UNL     1       5.276   2.391   1.541  1.00  0.00     0.389 C 
HETATM   15  O3  UNL     1       4.804   3.538   1.373  1.00  0.00    -0.405 OA
HETATM   16  C20 UNL     1       4.331   0.810   1.132  1.00  0.00     0.014 C 
HETATM   17  C21 UNL     1       3.118   0.756   0.653  1.00  0.00     0.009 C 
HETATM   18  H11 UNL     1       5.031  -2.670  -0.424  1.00  0.00     0.158 HD
ENDROOT
BRANCH   1  19
HETATM   19  O2  UNL     1      -1.032  -0.495  -1.208  1.00  0.00    -0.291 OA
BRANCH  19  20
HETATM   20  C6  UNL     1      -2.062  -0.054  -0.315  1.00  0.00     0.183 A 
HETATM   21  N2  UNL     1      -1.840  -0.126   0.990  1.00  0.00    -0.217 NA
HETATM   22  C5  UNL     1      -2.731   0.263   1.948  1.00  0.00     0.236 A 
HETATM   23  N1  UNL     1      -3.915   0.755   1.530  1.00  0.00    -0.241 NA
HETATM   24  C4  UNL     1      -4.167   0.840   0.216  1.00  0.00     0.075 A 
HETATM   25  C3  UNL     1      -5.356   1.379  -0.316  1.00  0.00     0.072 A 
HETATM   26  C22 UNL     1      -3.288   0.450  -0.810  1.00  0.00     0.049 A 
HETATM   27  C2  UNL     1      -5.604   1.502  -1.693  1.00  0.00     0.103 A 
HETATM   28  C24 UNL     1      -4.662   1.083  -2.596  1.00  0.00     0.102 A 
HETATM   29  C23 UNL     1      -3.479   0.543  -2.155  1.00  0.00     0.057 A 
BRANCH  27  30
HETATM   30  O1  UNL     1      -6.834   2.059  -1.960  1.00  0.00    -0.353 OA
HETATM   31  C1  UNL     1      -7.707   2.455  -0.950  1.00  0.00     0.210 C 
ENDBRANCH  27  30
BRANCH  28  32
HETATM   32  O4  UNL     1      -5.026   1.262  -3.919  1.00  0.00    -0.353 OA
HETATM   33  C25 UNL     1      -4.104   0.844  -4.922  1.00  0.00     0.210 C 
ENDBRANCH  28  32
ENDBRANCH  19  20
ENDBRANCH   1  19
TORSDOF 4
