REMARK  7 active torsions:
REMARK  status: ('A' for Active; 'I' for Inactive)
REMARK    1  A    between atoms: C2_2  and  O1_3 
REMARK    2  A    between atoms: O1_3  and  C3_4 
REMARK    3  A    between atoms: C8_9  and  O2_10 
REMARK    4  A    between atoms: N1_12  and  C10_13 
REMARK       I    between atoms: N2_17  and  C14_18 
REMARK       I    between atoms: C14_18  and  N3_20 
REMARK    5  A    between atoms: N3_20  and  C15_21 
REMARK    6  A    between atoms: C17_23  and  C18_24 
REMARK    7  A    between atoms: C19_25  and  O4_26 
ROOT
HETATM    1  C10 UNL     1      -0.906   2.191  -0.206  1.00  0.00     0.035 A 
HETATM    2  C11 UNL     1      -1.090   2.851  -1.336  1.00  0.00     0.029 A 
HETATM    3  C12 UNL     1       0.009   2.933  -2.291  1.00  0.00     0.019 A 
HETATM    4  C13 UNL     1       1.194   2.376  -2.100  1.00  0.00     0.096 A 
HETATM    5  N2  UNL     1       1.315   1.674  -0.872  1.00  0.00    -0.300 N 
HETATM    6  C14 UNL     1       2.575   0.989  -0.679  1.00  0.00     0.327 C 
HETATM    7  O3  UNL     1       3.499   1.046  -1.561  1.00  0.00    -0.246 OA
HETATM    8  N3  UNL     1       2.932   0.210   0.446  1.00  0.00    -0.313 N 
HETATM    9  C21 UNL     1       0.368   1.536   0.210  1.00  0.00     0.140 A 
HETATM   10  C22 UNL     1       0.945   2.285   1.402  1.00  0.00     0.039 C 
HETATM   11  H14 UNL     1       2.228   0.111   1.209  1.00  0.00     0.170 HD
ENDROOT
BRANCH   1  12
HETATM   12  N1  UNL     1      -2.086   2.218   0.586  1.00  0.00    -0.342 N 
HETATM   13  C6  UNL     1      -2.896   1.041   0.379  1.00  0.00     0.067 A 
HETATM   14  C5  UNL     1      -4.097   0.871   1.004  1.00  0.00     0.086 A 
HETATM   15  C7  UNL     1      -2.544  -0.005  -0.465  1.00  0.00     0.071 A 
HETATM   16  C4  UNL     1      -4.947  -0.201   0.873  1.00  0.00     0.073 A 
HETATM   17  N4  UNL     1      -4.541   1.900   1.906  1.00  0.00    -0.261 NA
HETATM   18  C3  UNL     1      -4.548  -1.210   0.023  1.00  0.00     0.104 A 
HETATM   19  C8  UNL     1      -3.348  -1.104  -0.640  1.00  0.00     0.103 A 
HETATM   20  C24 UNL     1      -3.806   2.953   2.107  1.00  0.00     0.110 A 
HETATM   21  C23 UNL     1      -2.489   3.259   1.498  1.00  0.00     0.176 A 
BRANCH  18  22
HETATM   22  O1  UNL     1      -5.317  -2.343  -0.195  1.00  0.00    -0.349 OA
BRANCH  22  23
HETATM   23  C2  UNL     1      -6.560  -2.602   0.401  1.00  0.00     0.171 C 
HETATM   24  C1  UNL     1      -7.600  -1.558   0.074  1.00  0.00     0.034 C 
ENDBRANCH  22  23
ENDBRANCH  18  22
BRANCH  19  25
HETATM   25  O2  UNL     1      -2.957  -2.127  -1.494  1.00  0.00    -0.353 OA
HETATM   26  C9  UNL     1      -1.769  -2.151  -2.227  1.00  0.00     0.210 C 
ENDBRANCH  19  25
ENDBRANCH   1  12
BRANCH   8  27
HETATM   27  C15 UNL     1       4.243  -0.291   0.266  1.00  0.00     0.010 C 
HETATM   28  C16 UNL     1       5.428   0.588   0.091  1.00  0.00     0.068 C 
HETATM   29  C17 UNL     1       4.411  -1.605   0.254  1.00  0.00     0.026 C 
BRANCH  29  30
HETATM   30  C18 UNL     1       5.711  -2.196   0.076  1.00  0.00     0.026 C 
HETATM   31  C19 UNL     1       6.029  -3.480   0.043  1.00  0.00     0.134 C 
BRANCH  31  32
HETATM   32  O4  UNL     1       7.296  -4.019  -0.131  1.00  0.00    -0.368 OA
HETATM   33  C20 UNL     1       8.391  -3.244   0.343  1.00  0.00     0.208 C 
ENDBRANCH  31  32
ENDBRANCH  29  30
ENDBRANCH   8  27
TORSDOF 7
