REMARK  7 active torsions:
REMARK  status: ('A' for Active; 'I' for Inactive)
REMARK    1  A    between atoms: O1_2  and  C2_3 
REMARK    2  A    between atoms: C5_6  and  N1_7 
REMARK       I    between atoms: N1_7  and  C6_8 
REMARK       I    between atoms: C6_8  and  N2_10 
REMARK    3  A    between atoms: N2_10  and  C7_11 
REMARK    4  A    between atoms: C10_14  and  N3_15 
REMARK    5  A    between atoms: N3_15  and  C11_16 
REMARK    6  A    between atoms: C11_16  and  C12_17 
REMARK    7  A    between atoms: C18_25  and  O3_26 
ROOT
HETATM    1  C7  UNL     1      -1.379  -2.102   1.132  1.00  0.00     0.036 A 
HETATM    2  C8  UNL     1      -0.718  -2.256  -0.091  1.00  0.00     0.032 A 
HETATM    3  C9  UNL     1       0.632  -2.028  -0.158  1.00  0.00     0.031 A 
HETATM    4  C10 UNL     1       1.384  -1.647   0.934  1.00  0.00     0.028 A 
HETATM    5  C20 UNL     1       0.699  -1.504   2.124  1.00  0.00     0.031 A 
HETATM    6  C21 UNL     1      -0.657  -1.726   2.226  1.00  0.00     0.032 A 
ENDROOT
BRANCH   1   7
HETATM    7  N2  UNL     1      -2.788  -2.370   1.071  1.00  0.00    -0.309 N 
HETATM    8  C6  UNL     1      -3.624  -1.284   0.776  1.00  0.00     0.325 C 
HETATM    9  N1  UNL     1      -5.026  -1.344   0.672  1.00  0.00    -0.309 N 
HETATM   10  O2  UNL     1      -3.041  -0.209   0.600  1.00  0.00    -0.247 OA
HETATM   11  H6  UNL     1      -5.380  -2.313   0.845  1.00  0.00     0.170 HD
HETATM   12  H7  UNL     1      -3.224  -3.327   1.235  1.00  0.00     0.170 HD
BRANCH   9  13
HETATM   13  C5  UNL     1      -5.952  -0.313   0.380  1.00  0.00     0.036 A 
HETATM   14  C4  UNL     1      -5.665   1.007   0.130  1.00  0.00     0.032 A 
HETATM   15  C3  UNL     1      -6.612   1.969  -0.149  1.00  0.00     0.039 A 
HETATM   16  C2  UNL     1      -7.945   1.623  -0.188  1.00  0.00     0.068 A 
HETATM   17  C23 UNL     1      -8.253   0.306   0.061  1.00  0.00     0.039 A 
HETATM   18  C22 UNL     1      -7.290  -0.629   0.335  1.00  0.00     0.032 A 
BRANCH  16  19
HETATM   19  O1  UNL     1      -8.977   2.506  -0.457  1.00  0.00    -0.356 OA
HETATM   20  C1  UNL     1      -8.620   3.858  -0.709  1.00  0.00     0.210 C 
ENDBRANCH  16  19
ENDBRANCH   9  13
ENDBRANCH   1   7
BRANCH   4  21
HETATM   21  N3  UNL     1       2.786  -1.416   0.832  1.00  0.00    -0.386 N 
HETATM   22  H10 UNL     1       3.300  -1.134   1.674  1.00  0.00     0.160 HD
BRANCH  21  23
HETATM   23  C11 UNL     1       3.369  -1.603  -0.466  1.00  0.00     0.158 C 
BRANCH  23  24
HETATM   24  C12 UNL     1       4.813  -1.351  -0.514  1.00  0.00    -0.015 C 
HETATM   25  C13 UNL     1       5.808  -2.157  -0.845  1.00  0.00     0.126 C 
HETATM   26  N4  UNL     1       7.174  -1.792  -0.838  1.00  0.00    -0.244 NA
HETATM   27  C14 UNL     1       7.628  -0.643  -0.494  1.00  0.00     0.138 A 
HETATM   28  N5  UNL     1       8.371   0.517  -0.176  1.00  0.00    -0.241 NA
HETATM   29  C17 UNL     1       6.610   0.006   0.393  1.00  0.00     0.138 A 
HETATM   30  C15 UNL     1       7.496   1.142   0.512  1.00  0.00     0.025 A 
HETATM   31  C16 UNL     1       7.262   2.397   1.271  1.00  0.00     0.066 C 
HETATM   32  C18 UNL     1       5.305   0.063  -0.267  1.00  0.00     0.169 C 
BRANCH  32  33
HETATM   33  O3  UNL     1       5.257   0.781  -1.436  1.00  0.00    -0.385 OA
HETATM   34  C19 UNL     1       4.338   1.815  -1.429  1.00  0.00     0.202 C 
ENDBRANCH  32  33
ENDBRANCH  23  24
ENDBRANCH  21  23
ENDBRANCH   4  21
TORSDOF 7
