REMARK  5 active torsions:
REMARK  status: ('A' for Active; 'I' for Inactive)
REMARK    1  A    between atoms: O1_2  and  C2_3 
REMARK    2  A    between atoms: C5_6  and  N1_7 
REMARK       I    between atoms: N1_7  and  C6_8 
REMARK       I    between atoms: C6_8  and  N2_10 
REMARK    3  A    between atoms: N2_10  and  C7_11 
REMARK    4  A    between atoms: C10_14  and  O3_15 
REMARK    5  A    between atoms: O3_15  and  C11_16 
ROOT
HETATM    1  C7  UNL     1       0.954  -1.804  -0.060  1.00  0.00     0.036 A 
HETATM    2  C8  UNL     1       0.565  -0.607   0.477  1.00  0.00     0.032 A 
HETATM    3  C9  UNL     1      -0.732  -0.150   0.545  1.00  0.00     0.039 A 
HETATM    4  C10 UNL     1      -1.744  -0.939   0.040  1.00  0.00     0.078 A 
HETATM    5  C21 UNL     1      -1.382  -2.151  -0.508  1.00  0.00     0.039 A 
HETATM    6  C22 UNL     1      -0.080  -2.564  -0.554  1.00  0.00     0.032 A 
ENDROOT
BRANCH   1   7
HETATM    7  N2  UNL     1       2.272  -2.312  -0.150  1.00  0.00    -0.309 N 
HETATM    8  C6  UNL     1       3.485  -1.746   0.273  1.00  0.00     0.325 C 
HETATM    9  N1  UNL     1       4.750  -2.334   0.137  1.00  0.00    -0.309 N 
HETATM   10  O2  UNL     1       3.479  -0.634   0.817  1.00  0.00    -0.247 OA
HETATM   11  H6  UNL     1       4.827  -3.285  -0.320  1.00  0.00     0.170 HD
HETATM   12  H7  UNL     1       2.421  -3.254  -0.593  1.00  0.00     0.170 HD
BRANCH   9  13
HETATM   13  C5  UNL     1       5.795  -1.508   0.667  1.00  0.00     0.036 A 
HETATM   14  C4  UNL     1       6.361  -0.613  -0.239  1.00  0.00     0.032 A 
HETATM   15  C3  UNL     1       7.386   0.229   0.199  1.00  0.00     0.039 A 
HETATM   16  C2  UNL     1       7.817   0.155   1.529  1.00  0.00     0.068 A 
HETATM   17  C24 UNL     1       7.213  -0.753   2.375  1.00  0.00     0.039 A 
HETATM   18  C23 UNL     1       6.196  -1.607   1.988  1.00  0.00     0.032 A 
BRANCH  16  19
HETATM   19  O1  UNL     1       8.827   0.950   2.056  1.00  0.00    -0.356 OA
HETATM   20  C1  UNL     1       9.527   1.918   1.305  1.00  0.00     0.210 C 
ENDBRANCH  16  19
ENDBRANCH   9  13
ENDBRANCH   1   7
BRANCH   4  21
HETATM   21  O3  UNL     1      -3.052  -0.480   0.108  1.00  0.00    -0.291 OA
BRANCH  21  22
HETATM   22  C11 UNL     1      -3.490   0.273  -0.997  1.00  0.00     0.183 A 
HETATM   23  N3  UNL     1      -2.666   0.512  -2.036  1.00  0.00    -0.217 NA
HETATM   24  C12 UNL     1      -3.026   1.214  -3.101  1.00  0.00     0.236 A 
HETATM   25  N4  UNL     1      -4.260   1.715  -3.161  1.00  0.00    -0.241 NA
HETATM   26  C13 UNL     1      -5.151   1.525  -2.165  1.00  0.00     0.071 A 
HETATM   27  C14 UNL     1      -4.778   0.795  -1.057  1.00  0.00     0.046 A 
HETATM   28  C20 UNL     1      -6.280   2.120  -2.476  1.00  0.00     0.032 C 
HETATM   29  C15 UNL     1      -5.337   0.405   0.076  1.00  0.00     0.027 C 
HETATM   30  C16 UNL     1      -6.655   0.581   0.687  1.00  0.00    -0.039 C 
HETATM   31  C17 UNL     1      -6.641   0.195   2.122  1.00  0.00     0.050 C 
HETATM   32  C18 UNL     1      -7.813   1.014   0.179  1.00  0.00     0.141 C 
HETATM   33  O4  UNL     1      -8.148   1.441  -1.096  1.00  0.00    -0.359 OA
HETATM   34  C19 UNL     1      -7.651   2.385  -1.992  1.00  0.00     0.204 C 
ENDBRANCH  21  22
ENDBRANCH   4  21
TORSDOF 5
