REMARK  7 active torsions:
REMARK  status: ('A' for Active; 'I' for Inactive)
REMARK    1  A    between atoms: O1_2  and  C2_3 
REMARK    2  A    between atoms: C2_3  and  C22_29 
REMARK    3  A    between atoms: C3_4  and  C4_5 
REMARK    4  A    between atoms: C6_9  and  N3_10 
REMARK    5  A    between atoms: N3_10  and  C8_12 
REMARK    6  A    between atoms: C12_16  and  N4_17 
REMARK       I    between atoms: N4_17  and  C13_18 
REMARK       I    between atoms: C13_18  and  N5_20 
REMARK    7  A    between atoms: N5_20  and  C14_21 
ROOT
HETATM    1  C8  UNL     1       0.543   1.046  -0.159  1.00  0.00     0.033 A 
HETATM    2  C9  UNL     1       0.787   2.124  -0.976  1.00  0.00     0.029 A 
HETATM    3  C10 UNL     1       2.048   2.427  -1.451  1.00  0.00     0.004 A 
HETATM    4  C11 UNL     1       3.072   1.588  -1.064  1.00  0.00     0.029 A 
HETATM    5  C12 UNL     1       2.901   0.499  -0.254  1.00  0.00     0.038 A 
HETATM    6  C20 UNL     1       1.618   0.267   0.176  1.00  0.00     0.059 A 
ENDROOT
BRANCH   1   7
HETATM    7  N3  UNL     1      -0.712   0.688   0.351  1.00  0.00    -0.362 N 
HETATM    8  C7  UNL     1      -0.863  -0.444   1.211  1.00  0.00     0.152 C 
BRANCH   7   9
HETATM    9  C6  UNL     1      -2.002   1.385   0.102  1.00  0.00     0.214 A 
HETATM   10  N2  UNL     1      -2.452   2.033   1.268  1.00  0.00    -0.257 NA
HETATM   11  C5  UNL     1      -3.540   1.932   1.851  1.00  0.00     0.229 A 
HETATM   12  N1  UNL     1      -4.534   1.038   1.308  1.00  0.00    -0.247 NA
HETATM   13  C4  UNL     1      -4.240   0.387   0.242  1.00  0.00     0.042 A 
HETATM   14  C21 UNL     1      -2.982   0.449  -0.504  1.00  0.00     0.108 A 
BRANCH  13  15
HETATM   15  C3  UNL     1      -5.237  -0.510  -0.303  1.00  0.00     0.067 C 
HETATM   16  C2  UNL     1      -6.392  -0.603   0.333  1.00  0.00     0.103 C 
BRANCH  16  17
HETATM   17  O1  UNL     1      -6.555   0.162   1.466  1.00  0.00    -0.353 OA
HETATM   18  C1  UNL     1      -7.471   1.246   1.411  1.00  0.00     0.210 C 
ENDBRANCH  16  17
BRANCH  16  19
HETATM   19  C22 UNL     1      -7.508  -1.451  -0.066  1.00  0.00     0.100 A 
HETATM   20  C23 UNL     1      -8.726  -1.743   0.345  1.00  0.00     0.039 A 
HETATM   21  C24 UNL     1      -8.922  -2.674  -0.773  1.00  0.00     0.206 A 
HETATM   22  O3  UNL     1      -7.608  -2.317  -1.160  1.00  0.00    -0.345 OA
ENDBRANCH  16  19
ENDBRANCH  13  15
ENDBRANCH   7   9
ENDBRANCH   1   7
BRANCH   5  23
HETATM   23  N4  UNL     1       3.922  -0.389   0.169  1.00  0.00    -0.309 N 
HETATM   24  C13 UNL     1       5.287  -0.363  -0.130  1.00  0.00     0.325 C 
HETATM   25  O2  UNL     1       5.741   0.525  -0.856  1.00  0.00    -0.247 OA
HETATM   26  N5  UNL     1       6.246  -1.299   0.340  1.00  0.00    -0.309 N 
HETATM   27  H14 UNL     1       5.925  -2.081   0.962  1.00  0.00     0.170 HD
HETATM   28  H13 UNL     1       3.691  -1.198   0.794  1.00  0.00     0.170 HD
BRANCH  26  29
HETATM   29  C14 UNL     1       7.600  -1.082  -0.094  1.00  0.00     0.036 A 
HETATM   30  C15 UNL     1       8.333  -0.269   0.762  1.00  0.00     0.029 A 
HETATM   31  C16 UNL     1       9.659  -0.018   0.397  1.00  0.00     0.002 A 
HETATM   32  C17 UNL     1      10.208  -0.549  -0.752  1.00  0.00     0.000 A 
HETATM   33  C18 UNL     1       9.460  -1.354  -1.588  1.00  0.00     0.002 A 
HETATM   34  C19 UNL     1       8.150  -1.613  -1.244  1.00  0.00     0.029 A 
ENDBRANCH  26  29
ENDBRANCH   5  23
TORSDOF 7
