REMARK  1 active torsions:
REMARK  status: ('A' for Active; 'I' for Inactive)
REMARK    1  A    between atoms: O1_2  and  C2_3 
ROOT
HETATM    1  C2  UNL     1       2.674   0.272  -1.517  1.00  0.00     0.056 C 
HETATM    2  C3  UNL     1       3.176  -0.699  -0.823  1.00  0.00    -0.033 C 
HETATM    3  C4  UNL     1       4.497  -1.073  -0.296  1.00  0.00     0.050 C 
HETATM    4  C5  UNL     1       2.273  -1.728  -0.342  1.00  0.00     0.005 C 
HETATM    5  C6  UNL     1       0.969  -1.892  -0.487  1.00  0.00    -0.022 C 
HETATM    6  C7  UNL     1      -0.347  -2.527  -0.327  1.00  0.00     0.062 C 
HETATM    7  C8  UNL     1      -1.396  -1.579   0.251  1.00  0.00    -0.063 C 
HETATM    8  C9  UNL     1      -2.464  -1.397  -0.498  1.00  0.00     0.005 C 
HETATM    9  C10 UNL     1      -3.697  -1.057  -1.144  1.00  0.00     0.018 C 
HETATM   10  C11 UNL     1      -4.587  -0.173  -0.596  1.00  0.00     0.094 C 
HETATM   11  N1  UNL     1      -4.040   0.288   0.650  1.00  0.00    -0.322 N 
HETATM   12  C12 UNL     1      -3.798   1.692   0.917  1.00  0.00     0.190 C 
HETATM   13  C13 UNL     1      -2.302   1.961   0.654  1.00  0.00     0.054 C 
HETATM   14  C14 UNL     1      -2.028   0.996   1.567  1.00  0.00     0.023 C 
HETATM   15  C15 UNL     1      -2.309  -0.155   2.226  1.00  0.00     0.081 A 
HETATM   16  C16 UNL     1      -1.473  -0.864   3.036  1.00  0.00     0.032 A 
HETATM   17  C17 UNL     1      -1.084  -1.175   1.643  1.00  0.00     0.038 A 
HETATM   18  C18 UNL     1       0.246  -0.607   1.612  1.00  0.00     0.177 C 
HETATM   19  O2  UNL     1       0.554   0.485   1.002  1.00  0.00    -0.312 OA
HETATM   20  C19 UNL     1       0.045   1.535   0.472  1.00  0.00     0.236 C 
HETATM   21  N2  UNL     1      -1.043   2.389   0.229  1.00  0.00    -0.213 NA
HETATM   22  N3  UNL     1       0.729   2.484  -0.323  1.00  0.00    -0.355 NA
HETATM   23  C20 UNL     1       1.392   2.309  -1.399  1.00  0.00     0.269 C 
HETATM   24  C21 UNL     1       1.698   1.066  -2.222  1.00  0.00     0.111 C 
HETATM   25  C22 UNL     1      -3.626  -0.666   1.692  1.00  0.00     0.238 C 
HETATM   26  O3  UNL     1      -4.579  -1.341   1.548  1.00  0.00    -0.272 OA
ENDROOT
BRANCH   1  27
HETATM   27  O1  UNL     1       3.966   0.828  -1.543  1.00  0.00    -0.359 OA
HETATM   28  C1  UNL     1       4.299   1.915  -0.735  1.00  0.00     0.209 C 
ENDBRANCH   1  27
TORSDOF 1
