REMARK  5 active torsions:
REMARK  status: ('A' for Active; 'I' for Inactive)
REMARK    1  A    between atoms: O1_2  and  C2_3 
REMARK    2  A    between atoms: C5_6  and  N1_7 
REMARK       I    between atoms: N1_7  and  C6_8 
REMARK       I    between atoms: C6_8  and  N2_10 
REMARK    3  A    between atoms: N2_10  and  C7_11 
REMARK    4  A    between atoms: C16_23  and  O4_24 
REMARK    5  A    between atoms: C16_23  and  O5_26 
ROOT
HETATM    1  C7  UNL     1      -0.516   0.662   0.203  1.00  0.00     0.051 A 
HETATM    2  C8  UNL     1      -0.227   1.019   1.429  1.00  0.00     0.005 A 
HETATM    3  C9  UNL     1      -1.466   1.746   1.682  1.00  0.00     0.080 A 
HETATM    4  C10 UNL     1      -1.811   1.354   0.302  1.00  0.00     0.174 A 
HETATM    5  O3  UNL     1      -1.949   2.349  -0.654  1.00  0.00    -0.310 OA
HETATM    6  C11 UNL     1      -3.095   3.129  -0.753  1.00  0.00     0.174 A 
HETATM    7  N3  UNL     1      -3.162   4.352  -1.164  1.00  0.00    -0.218 NA
HETATM    8  C12 UNL     1      -4.456   4.954  -1.179  1.00  0.00     0.229 A 
HETATM    9  N4  UNL     1      -5.547   4.371  -0.817  1.00  0.00    -0.278 NA
HETATM   10  C13 UNL     1      -5.634   3.012  -0.336  1.00  0.00     0.193 A 
HETATM   11  C14 UNL     1      -4.278   2.392  -0.323  1.00  0.00     0.016 A 
HETATM   12  C15 UNL     1      -4.263   1.139   0.106  1.00  0.00     0.057 C 
HETATM   13  C16 UNL     1      -2.977   0.319   0.198  1.00  0.00     0.222 C 
ENDROOT
BRANCH   1  14
HETATM   14  N2  UNL     1       0.249  -0.102  -0.724  1.00  0.00    -0.309 N 
HETATM   15  C6  UNL     1       1.516  -0.598  -0.378  1.00  0.00     0.325 C 
HETATM   16  N1  UNL     1       2.330  -1.374  -1.273  1.00  0.00    -0.309 N 
HETATM   17  O2  UNL     1       2.045  -0.402   0.752  1.00  0.00    -0.247 OA
HETATM   18  H6  UNL     1       1.937  -1.570  -2.235  1.00  0.00     0.170 HD
HETATM   19  H7  UNL     1      -0.149  -0.289  -1.670  1.00  0.00     0.170 HD
BRANCH  16  20
HETATM   20  C5  UNL     1       3.597  -1.816  -0.794  1.00  0.00     0.036 A 
HETATM   21  C4  UNL     1       3.880  -2.995  -0.137  1.00  0.00     0.032 A 
HETATM   22  C3  UNL     1       5.179  -3.255   0.255  1.00  0.00     0.039 A 
HETATM   23  C2  UNL     1       6.189  -2.339  -0.011  1.00  0.00     0.068 A 
HETATM   24  C20 UNL     1       5.930  -1.138  -0.674  1.00  0.00     0.039 A 
HETATM   25  C19 UNL     1       4.628  -0.909  -1.051  1.00  0.00     0.032 A 
BRANCH  23  26
HETATM   26  O1  UNL     1       7.462  -2.691   0.423  1.00  0.00    -0.356 OA
HETATM   27  C1  UNL     1       8.537  -1.812   0.190  1.00  0.00     0.210 C 
ENDBRANCH  23  26
ENDBRANCH  16  20
ENDBRANCH   1  14
BRANCH  13  28
HETATM   28  O4  UNL     1      -2.917  -0.368   1.335  1.00  0.00    -0.354 OA
HETATM   29  C17 UNL     1      -3.643  -1.401   1.720  1.00  0.00     0.206 C 
ENDBRANCH  13  28
BRANCH  13  30
HETATM   30  O5  UNL     1      -2.746  -0.337  -0.947  1.00  0.00    -0.354 OA
HETATM   31  C18 UNL     1      -3.441  -1.362  -1.430  1.00  0.00     0.206 C 
ENDBRANCH  13  30
TORSDOF 5
