REMARK  7 active torsions:
REMARK  status: ('A' for Active; 'I' for Inactive)
REMARK    1  A    between atoms: C3_3  and  C4_4 
REMARK    2  A    between atoms: C4_4  and  N1_7 
REMARK       I    between atoms: N1_7  and  C7_8 
REMARK       I    between atoms: C7_8  and  N2_10 
REMARK    3  A    between atoms: N2_10  and  C8_11 
REMARK    4  A    between atoms: C12_15  and  N3_16 
REMARK    5  A    between atoms: N3_16  and  C14_18 
REMARK    6  A    between atoms: C18_24  and  O2_25 
REMARK    7  A    between atoms: C20_27  and  O3_28 
ROOT
HETATM    1  C8  UNL     1       1.951  -1.229  -1.597  1.00  0.00     0.038 A 
HETATM    2  C9  UNL     1       1.787  -0.876  -2.931  1.00  0.00     0.029 A 
HETATM    3  C10 UNL     1       0.506  -0.851  -3.445  1.00  0.00     0.004 A 
HETATM    4  C11 UNL     1      -0.536  -1.178  -2.603  1.00  0.00     0.030 A 
HETATM    5  C12 UNL     1      -0.414  -1.533  -1.278  1.00  0.00     0.037 A 
HETATM    6  C24 UNL     1       0.872  -1.553  -0.781  1.00  0.00     0.059 A 
ENDROOT
BRANCH   5   7
HETATM    7  N3  UNL     1      -1.530  -1.861  -0.461  1.00  0.00    -0.335 N 
HETATM    8  C13 UNL     1      -1.287  -2.221   0.932  1.00  0.00     0.158 C 
BRANCH   7   9
HETATM    9  C14 UNL     1      -2.835  -1.827  -1.027  1.00  0.00     0.144 A 
HETATM   10  N4  UNL     1      -2.996  -2.694  -2.068  1.00  0.00    -0.223 NA
HETATM   11  C15 UNL     1      -4.205  -2.752  -2.689  1.00  0.00     0.236 A 
HETATM   12  N5  UNL     1      -5.252  -1.991  -2.322  1.00  0.00    -0.241 NA
HETATM   13  C16 UNL     1      -5.109  -1.127  -1.293  1.00  0.00     0.075 A 
HETATM   14  C17 UNL     1      -6.146  -0.300  -0.848  1.00  0.00     0.072 A 
HETATM   15  C23 UNL     1      -3.898  -1.037  -0.636  1.00  0.00     0.042 A 
HETATM   16  C18 UNL     1      -5.882   0.547   0.216  1.00  0.00     0.103 A 
HETATM   17  C20 UNL     1      -4.679   0.637   0.870  1.00  0.00     0.102 A 
HETATM   18  C22 UNL     1      -3.658  -0.194   0.414  1.00  0.00     0.057 A 
BRANCH  16  19
HETATM   19  O2  UNL     1      -6.935   1.349   0.626  1.00  0.00    -0.353 OA
HETATM   20  C19 UNL     1      -8.207   1.297  -0.018  1.00  0.00     0.210 C 
ENDBRANCH  16  19
BRANCH  17  21
HETATM   21  O3  UNL     1      -4.558   1.528   1.918  1.00  0.00    -0.353 OA
HETATM   22  C21 UNL     1      -3.313   1.613   2.585  1.00  0.00     0.210 C 
ENDBRANCH  17  21
ENDBRANCH   7   9
ENDBRANCH   5   7
BRANCH   1  23
HETATM   23  N2  UNL     1       3.299  -1.232  -1.143  1.00  0.00    -0.309 N 
HETATM   24  C7  UNL     1       3.838  -0.030  -0.593  1.00  0.00     0.325 C 
HETATM   25  N1  UNL     1       5.210  -0.147  -0.166  1.00  0.00    -0.309 N 
HETATM   26  O1  UNL     1       3.169   1.014  -0.499  1.00  0.00    -0.247 OA
HETATM   27  H10 UNL     1       5.754  -1.048  -0.259  1.00  0.00     0.170 HD
HETATM   28  H11 UNL     1       3.785  -2.148  -1.260  1.00  0.00     0.170 HD
BRANCH  25  29
HETATM   29  C4  UNL     1       6.035   0.850   0.418  1.00  0.00     0.032 C 
HETATM   30  C5  UNL     1       7.139   1.172  -0.232  1.00  0.00    -0.002 C 
HETATM   31  C6  UNL     1       8.199   2.154   0.096  1.00  0.00     0.038 C 
BRANCH  29  32
HETATM   32  C3  UNL     1       5.674   1.483   1.676  1.00  0.00     0.025 C 
HETATM   33  C2  UNL     1       4.593   1.184   2.338  1.00  0.00    -0.029 C 
HETATM   34  C1  UNL     1       4.185   1.800   3.619  1.00  0.00     0.036 C 
ENDBRANCH  29  32
ENDBRANCH  25  29
ENDBRANCH   1  23
TORSDOF 7
