REMARK  3 active torsions:
REMARK  status: ('A' for Active; 'I' for Inactive)
REMARK       I    between atoms: C1_2  and  N1_3 
REMARK       I    between atoms: C1_2  and  N3_15 
REMARK    1  A    between atoms: N1_3  and  C2_4 
REMARK    2  A    between atoms: N2_11  and  C9_12 
REMARK    3  A    between atoms: N3_15  and  C11_16 
ROOT
HETATM    1  O1  UNL     1      -1.036   0.766   0.405  1.00  0.00    -0.247 OA
HETATM    2  C1  UNL     1      -0.838   0.198  -0.690  1.00  0.00     0.321 C 
HETATM    3  N1  UNL     1       0.527   0.041  -1.168  1.00  0.00    -0.331 N 
HETATM    4  N3  UNL     1      -1.847  -0.318  -1.519  1.00  0.00    -0.309 N 
HETATM    5  H1  UNL     1       0.679  -0.466  -2.078  1.00  0.00     0.165 HD
HETATM    6  H9  UNL     1      -1.561  -0.809  -2.388  1.00  0.00     0.170 HD
ENDROOT
BRANCH   3   7
HETATM    7  C2  UNL     1       1.737   0.512  -0.309  1.00  0.00     0.067 A 
HETATM    8  C3  UNL     1       1.827   1.445  -1.063  1.00  0.00     0.028 A 
HETATM    9  C4  UNL     1       2.851   1.375   0.092  1.00  0.00     0.070 A 
HETATM   10  C5  UNL     1       2.446  -0.027   0.818  1.00  0.00     0.064 A 
HETATM   11  C6  UNL     1       1.435  -1.265   0.970  1.00  0.00     0.034 A 
HETATM   12  N2  UNL     1       3.441  -0.006   1.686  1.00  0.00    -0.368 N 
HETATM   13  C8  UNL     1       2.339  -0.300   0.958  1.00  0.00     0.066 A 
HETATM   14  C7  UNL     1       2.169  -1.537   1.844  1.00  0.00     0.062 A 
BRANCH  12  15
HETATM   15  C9  UNL     1       4.548   0.014   2.641  1.00  0.00     0.077 C 
HETATM   16  C10 UNL     1       5.789  -0.464   2.382  1.00  0.00     0.214 C 
HETATM   17  I1  UNL     1       7.060  -1.383   0.978  1.00  0.00    -0.182 I 
ENDBRANCH  12  15
ENDBRANCH   3   7
BRANCH   4  18
HETATM   18  C11 UNL     1      -3.229  -0.235  -1.239  1.00  0.00     0.036 A 
HETATM   19  C12 UNL     1      -3.821   0.904  -1.790  1.00  0.00     0.029 A 
HETATM   20  C13 UNL     1      -5.168   1.234  -1.673  1.00  0.00     0.002 A 
HETATM   21  C14 UNL     1      -5.978   0.374  -0.961  1.00  0.00     0.000 A 
HETATM   22  C15 UNL     1      -5.413  -0.763  -0.404  1.00  0.00     0.002 A 
HETATM   23  C16 UNL     1      -4.073  -1.083  -0.526  1.00  0.00     0.029 A 
ENDBRANCH   4  18
TORSDOF 3
