REMARK  6 active torsions:
REMARK  status: ('A' for Active; 'I' for Inactive)
REMARK    1  A    between atoms: O1_2  and  C2_3 
REMARK    2  A    between atoms: C8_12  and  O3_13 
REMARK    3  A    between atoms: O3_13  and  C9_14 
REMARK    4  A    between atoms: C9_14  and  C10_15 
REMARK    5  A    between atoms: C14_19  and  N3_20 
REMARK       I    between atoms: N3_20  and  C15_21 
REMARK       I    between atoms: C15_21  and  N4_23 
REMARK    6  A    between atoms: N4_23  and  C16_24 
ROOT
HETATM    1  C10 UNL     1      -0.466  -1.173   0.458  1.00  0.00    -0.032 A 
HETATM    2  C11 UNL     1      -0.563  -2.560   0.561  1.00  0.00     0.009 A 
HETATM    3  C12 UNL     1       0.497  -3.367   0.208  1.00  0.00     0.003 A 
HETATM    4  C13 UNL     1       1.663  -2.761  -0.253  1.00  0.00     0.029 A 
HETATM    5  C14 UNL     1       1.731  -1.390  -0.345  1.00  0.00     0.036 A 
HETATM    6  C22 UNL     1       0.683  -0.563   0.003  1.00  0.00     0.039 A 
ENDROOT
BRANCH   1   7
HETATM    7  C9  UNL     1      -1.699  -0.416   0.878  1.00  0.00     0.214 C 
BRANCH   7   8
HETATM    8  O3  UNL     1      -2.568  -0.218  -0.194  1.00  0.00    -0.344 OA
BRANCH   8   9
HETATM    9  C8  UNL     1      -3.775   0.426  -0.182  1.00  0.00     0.104 C 
HETATM   10  C2  UNL     1      -5.056  -0.223  -0.357  1.00  0.00     0.100 C 
HETATM   11  C3  UNL     1      -6.292   0.220  -0.335  1.00  0.00     0.053 C 
HETATM   12  C4  UNL     1      -6.327   1.635   0.014  1.00  0.00     0.232 C 
HETATM   13  O2  UNL     1      -7.489   2.288  -0.329  1.00  0.00    -0.240 OA
HETATM   14  C6  UNL     1      -5.086   2.368  -0.032  1.00  0.00     0.074 C 
HETATM   15  N1  UNL     1      -7.541   3.661  -0.525  1.00  0.00    -0.126 NA
HETATM   16  C5  UNL     1      -6.412   4.286  -0.498  1.00  0.00     0.262 C 
HETATM   17  N2  UNL     1      -5.135   3.655  -0.263  1.00  0.00    -0.241 NA
HETATM   18  C7  UNL     1      -3.774   1.751   0.007  1.00  0.00     0.070 C 
BRANCH  10  19
HETATM   19  O1  UNL     1      -4.932  -1.588  -0.647  1.00  0.00    -0.353 OA
HETATM   20  C1  UNL     1      -5.624  -2.503   0.171  1.00  0.00     0.210 C 
ENDBRANCH  10  19
ENDBRANCH   8   9
ENDBRANCH   7   8
ENDBRANCH   1   7
BRANCH   5  21
HETATM   21  N3  UNL     1       2.945  -0.818  -0.822  1.00  0.00    -0.309 N 
HETATM   22  C15 UNL     1       4.100  -0.399  -0.142  1.00  0.00     0.325 C 
HETATM   23  O4  UNL     1       4.303  -0.447   1.080  1.00  0.00    -0.247 OA
HETATM   24  N4  UNL     1       5.141   0.134  -0.936  1.00  0.00    -0.309 N 
HETATM   25  H14 UNL     1       5.069   0.218  -1.981  1.00  0.00     0.170 HD
HETATM   26  H13 UNL     1       2.796  -0.768  -1.854  1.00  0.00     0.170 HD
BRANCH  24  27
HETATM   27  C16 UNL     1       6.336   0.576  -0.303  1.00  0.00     0.036 A 
HETATM   28  C17 UNL     1       6.668   1.817   0.198  1.00  0.00     0.029 A 
HETATM   29  C18 UNL     1       7.910   1.994   0.774  1.00  0.00     0.002 A 
HETATM   30  C19 UNL     1       8.823   0.971   0.862  1.00  0.00     0.000 A 
HETATM   31  C20 UNL     1       8.509  -0.277   0.366  1.00  0.00     0.002 A 
HETATM   32  C21 UNL     1       7.255  -0.460  -0.217  1.00  0.00     0.029 A 
ENDBRANCH  24  27
ENDBRANCH   5  21
TORSDOF 6
