REMARK  5 active torsions:
REMARK  status: ('A' for Active; 'I' for Inactive)
REMARK    1  A    between atoms: C3_3  and  C4_4 
REMARK    2  A    between atoms: C10_12  and  N3_13 
REMARK    3  A    between atoms: N3_13  and  C12_15 
REMARK    4  A    between atoms: C13_16  and  C14_17 
REMARK    5  A    between atoms: C16_20  and  O2_21 
ROOT
HETATM    1  C4  UNL     1      -3.158   0.356  -0.073  1.00  0.00     0.032 C 
HETATM    2  C5  UNL     1      -1.954  -0.102   0.154  1.00  0.00     0.062 C 
HETATM    3  N1  UNL     1      -1.893  -1.538   0.276  1.00  0.00    -0.367 N 
HETATM    4  C6  UNL     1      -0.638  -2.184   0.493  1.00  0.00     0.176 C 
HETATM    5  C7  UNL     1      -0.828  -3.696   0.589  1.00  0.00     0.055 C 
HETATM    6  N2  UNL     1      -0.032  -1.814   1.763  1.00  0.00    -0.379 N 
HETATM    7  C8  UNL     1       1.206  -2.489   1.750  1.00  0.00     0.083 C 
HETATM    8  C9  UNL     1       1.928  -1.533   1.243  1.00  0.00     0.019 C 
HETATM    9  C10 UNL     1       1.867  -0.142   0.742  1.00  0.00     0.133 C 
HETATM   10  C15 UNL     1       0.489   0.232   0.496  1.00  0.00     0.041 C 
HETATM   11  C16 UNL     1      -0.740   0.749   0.257  1.00  0.00     0.090 C 
HETATM   12  H7  UNL     1      -2.739  -2.137   0.213  1.00  0.00     0.161 HD
HETATM   13  H12 UNL     1      -0.241  -1.249   2.596  1.00  0.00     0.161 HD
ENDROOT
BRANCH   9  14
HETATM   14  N3  UNL     1       2.765   0.026  -0.397  1.00  0.00    -0.383 N 
HETATM   15  C11 UNL     1       2.699  -0.690  -1.629  1.00  0.00     0.150 C 
BRANCH  14  16
HETATM   16  C12 UNL     1       3.825   0.972  -0.353  1.00  0.00     0.089 C 
HETATM   17  C13 UNL     1       4.956   0.823  -1.015  1.00  0.00     0.058 C 
BRANCH  17  18
HETATM   18  C14 UNL     1       5.952   1.864  -0.881  1.00  0.00     0.260 C 
HETATM   19  O1  UNL     1       5.501   2.743  -0.115  1.00  0.00    -0.302 OA
ENDBRANCH  17  18
ENDBRANCH  14  16
ENDBRANCH   9  14
BRANCH  11  20
HETATM   20  O2  UNL     1      -1.154   2.088   0.065  1.00  0.00    -0.359 OA
HETATM   21  H23 UNL     1      -1.110   2.735   0.819  1.00  0.00     0.217 HD
ENDBRANCH  11  20
BRANCH   1  22
HETATM   22  C3  UNL     1      -3.622   1.740  -0.256  1.00  0.00    -0.002 C 
HETATM   23  C2  UNL     1      -4.898   2.015  -0.478  1.00  0.00    -0.031 C 
HETATM   24  C1  UNL     1      -5.720   3.213  -0.702  1.00  0.00     0.036 C 
ENDBRANCH   1  22
TORSDOF 5
