REMARK  5 active torsions:
REMARK  status: ('A' for Active; 'I' for Inactive)
REMARK    1  A    between atoms: O1_2  and  C2_3 
REMARK    2  A    between atoms: N1_7  and  C6_8 
REMARK    3  A    between atoms: C10_12  and  C11_13 
REMARK    4  A    between atoms: C15_18  and  O2_19 
REMARK    5  A    between atoms: C20_25  and  C21_26 
ROOT
HETATM    1  C2  UNL     1       4.981   0.396  -0.324  1.00  0.00     0.080 C 
HETATM    2  C3  UNL     1       3.875   0.812  -0.955  1.00  0.00     0.047 C 
HETATM    3  C4  UNL     1       2.730   0.724  -0.057  1.00  0.00    -0.025 A 
HETATM    4  C5  UNL     1       1.524   0.709  -0.659  1.00  0.00     0.127 A 
HETATM    5  N1  UNL     1       0.306   0.603   0.062  1.00  0.00    -0.245 N 
HETATM    6  N3  UNL     1       0.445   0.507   1.448  1.00  0.00    -0.183 NA
HETATM    7  C17 UNL     1       1.567   0.522   2.072  1.00  0.00     0.125 A 
HETATM    8  C18 UNL     1       2.834   0.659   1.389  1.00  0.00     0.086 A 
HETATM    9  C19 UNL     1       4.057   0.112   1.939  1.00  0.00     0.004 C 
HETATM   10  C20 UNL     1       5.088   0.021   1.079  1.00  0.00     0.011 C 
ENDROOT
BRANCH   5  11
HETATM   11  C6  UNL     1      -0.993   0.589  -0.509  1.00  0.00     0.058 A 
HETATM   12  C7  UNL     1      -1.241   0.678  -1.861  1.00  0.00     0.031 A 
HETATM   13  C8  UNL     1      -2.498   0.665  -2.428  1.00  0.00     0.003 A 
HETATM   14  C9  UNL     1      -3.595   0.556  -1.597  1.00  0.00     0.010 A 
HETATM   15  C10 UNL     1      -3.376   0.466  -0.242  1.00  0.00    -0.027 A 
HETATM   16  C16 UNL     1      -2.097   0.483   0.276  1.00  0.00     0.041 A 
BRANCH  15  17
HETATM   17  C11 UNL     1      -4.579   0.351   0.610  1.00  0.00     0.171 A 
HETATM   18  N2  UNL     1      -5.614   1.287   0.221  1.00  0.00    -0.384 N 
HETATM   19  C12 UNL     1      -6.959   1.022  -0.139  1.00  0.00     0.084 A 
HETATM   20  H10 UNL     1      -5.263   2.270   0.226  1.00  0.00     0.160 HD
HETATM   21  C13 UNL     1      -7.316  -0.253  -0.117  1.00  0.00     0.019 A 
HETATM   22  C14 UNL     1      -6.407  -1.332   0.249  1.00  0.00     0.036 A 
HETATM   23  C15 UNL     1      -5.164  -1.013   0.575  1.00  0.00     0.070 A 
BRANCH  23  24
HETATM   24  O2  UNL     1      -4.278  -2.005   0.926  1.00  0.00    -0.362 OA
HETATM   25  H14 UNL     1      -4.447  -2.693   1.656  1.00  0.00     0.217 HD
ENDBRANCH  23  24
ENDBRANCH  15  17
ENDBRANCH   5  11
BRANCH   1  26
HETATM   26  O1  UNL     1       6.203   0.350  -1.025  1.00  0.00    -0.355 OA
HETATM   27  C1  UNL     1       6.337  -0.309  -2.255  1.00  0.00     0.210 C 
ENDBRANCH   1  26
BRANCH  10  28
HETATM   28  C21 UNL     1       6.343  -0.486   1.641  1.00  0.00     0.121 C 
HETATM   29  N4  UNL     1       6.415  -0.812   2.883  1.00  0.00    -0.311 NA
HETATM   30  H20 UNL     1       7.310  -1.172   3.278  1.00  0.00     0.186 HD
ENDBRANCH  10  28
TORSDOF 5
