REMARK  10 active torsions:
REMARK  status: ('A' for Active; 'I' for Inactive)
REMARK    1  A    between atoms: O1_2  and  C2_3 
REMARK    2  A    between atoms: N1_7  and  C6_8 
REMARK    3  A    between atoms: C6_8  and  C7_9 
REMARK    4  A    between atoms: C7_9  and  N2_10 
REMARK    5  A    between atoms: N2_10  and  C8_11 
REMARK    6  A    between atoms: C8_11  and  O2_12 
REMARK    7  A    between atoms: O2_12  and  C9_13 
REMARK    8  A    between atoms: C13_17  and  N3_18 
REMARK       I    between atoms: N3_18  and  C14_19 
REMARK       I    between atoms: C14_19  and  N4_21 
REMARK    9  A    between atoms: N4_21  and  C15_22 
REMARK   10  A    between atoms: C23_30  and  O4_31 
ROOT
HETATM    1  C9  UNL     1       2.026   0.024  -0.923  1.00  0.00     0.073 A 
HETATM    2  C10 UNL     1       1.725  -0.833  -1.964  1.00  0.00     0.037 A 
HETATM    3  C11 UNL     1       2.659  -0.974  -2.969  1.00  0.00     0.005 A 
HETATM    4  C12 UNL     1       3.860  -0.284  -2.943  1.00  0.00     0.030 A 
HETATM    5  C13 UNL     1       4.129   0.574  -1.872  1.00  0.00     0.039 A 
HETATM    6  C21 UNL     1       3.210   0.731  -0.857  1.00  0.00     0.066 A 
ENDROOT
BRANCH   1   7
HETATM    7  O2  UNL     1       1.147   0.231   0.134  1.00  0.00    -0.330 OA
BRANCH   7   8
HETATM    8  C8  UNL     1      -0.080  -0.475   0.106  1.00  0.00     0.323 C 
BRANCH   8   9
HETATM    9  N2  UNL     1      -0.901  -0.195   1.225  1.00  0.00    -0.278 NA
BRANCH   9  10
HETATM   10  C7  UNL     1      -2.167  -0.146   1.069  1.00  0.00     0.107 C 
BRANCH  10  11
HETATM   11  C6  UNL     1      -3.611  -0.114   0.772  1.00  0.00     0.195 C 
BRANCH  11  12
HETATM   12  N1  UNL     1      -4.420   0.026   1.968  1.00  0.00    -0.289 NA
HETATM   13  C5  UNL     1      -5.703  -0.155   1.819  1.00  0.00     0.035 A 
HETATM   14  C4  UNL     1      -6.372   0.028   3.152  1.00  0.00     0.088 A 
HETATM   15  C22 UNL     1      -6.442  -0.481   0.604  1.00  0.00     0.066 A 
HETATM   16  C3  UNL     1      -7.827  -0.157   3.085  1.00  0.00     0.019 A 
HETATM   17  C2  UNL     1      -8.435  -0.450   1.960  1.00  0.00     0.098 A 
HETATM   18  C23 UNL     1      -7.758  -0.620   0.687  1.00  0.00     0.103 A 
BRANCH  17  19
HETATM   19  O1  UNL     1      -9.827  -0.614   1.966  1.00  0.00    -0.353 OA
HETATM   20  C1  UNL     1     -10.674  -0.016   2.912  1.00  0.00     0.210 C 
ENDBRANCH  17  19
BRANCH  18  21
HETATM   21  O4  UNL     1      -8.404  -0.929  -0.494  1.00  0.00    -0.353 OA
HETATM   22  C24 UNL     1      -8.151  -0.329  -1.732  1.00  0.00     0.210 C 
ENDBRANCH  18  21
ENDBRANCH  11  12
ENDBRANCH  10  11
ENDBRANCH   9  10
ENDBRANCH   8   9
ENDBRANCH   7   8
ENDBRANCH   1   7
BRANCH   5  23
HETATM   23  N3  UNL     1       5.415   1.201  -2.013  1.00  0.00    -0.309 N 
HETATM   24  C14 UNL     1       6.516   0.514  -1.438  1.00  0.00     0.325 C 
HETATM   25  O3  UNL     1       6.229  -0.558  -0.878  1.00  0.00    -0.247 OA
HETATM   26  N4  UNL     1       7.860   0.963  -1.468  1.00  0.00    -0.309 N 
HETATM   27  H16 UNL     1       7.928   1.873  -1.973  1.00  0.00     0.170 HD
HETATM   28  H15 UNL     1       5.609   2.122  -2.503  1.00  0.00     0.170 HD
BRANCH  26  29
HETATM   29  C15 UNL     1       9.017   0.353  -0.928  1.00  0.00     0.036 A 
HETATM   30  C16 UNL     1       9.077  -0.824  -0.250  1.00  0.00     0.029 A 
HETATM   31  C17 UNL     1      10.220  -1.383   0.259  1.00  0.00     0.002 A 
HETATM   32  C18 UNL     1      11.419  -0.709   0.077  1.00  0.00     0.000 A 
HETATM   33  C19 UNL     1      11.388   0.476  -0.601  1.00  0.00     0.002 A 
HETATM   34  C20 UNL     1      10.207   0.987  -1.089  1.00  0.00     0.029 A 
ENDBRANCH  26  29
ENDBRANCH   5  23
TORSDOF 10
