REMARK  4 active torsions:
REMARK  status: ('A' for Active; 'I' for Inactive)
REMARK    1  A    between atoms: C6_8  and  C7_9 
REMARK    2  A    between atoms: C7_9  and  O3_11 
REMARK    3  A    between atoms: C12_17  and  N3_18 
REMARK    4  A    between atoms: N3_18  and  C13_19 
ROOT
HETATM    1  C1  UNL     1      -0.877  -3.268  -0.798  1.00  0.00     0.180 C 
HETATM    2  N1  UNL     1      -1.029  -2.017  -0.082  1.00  0.00    -0.270 NA
HETATM    3  C2  UNL     1       0.041  -1.385   0.249  1.00  0.00     0.193 C 
HETATM    4  O1  UNL     1       1.334  -1.873  -0.064  1.00  0.00    -0.290 OA
HETATM    5  C3  UNL     1       2.537  -1.129  -0.110  1.00  0.00     0.086 A 
HETATM    6  C4  UNL     1       3.386  -1.397  -1.169  1.00  0.00     0.039 A 
HETATM    7  C5  UNL     1       4.570  -0.698  -1.257  1.00  0.00     0.021 A 
HETATM    8  C6  UNL     1       4.855   0.229  -0.298  1.00  0.00     0.038 A 
HETATM    9  C8  UNL     1       3.993   0.490   0.764  1.00  0.00     0.029 A 
HETATM   10  C9  UNL     1       2.785  -0.203   0.882  1.00  0.00    -0.006 A 
HETATM   11  C10 UNL     1       2.074   0.263   2.091  1.00  0.00     0.161 C 
HETATM   12  N2  UNL     1       0.650   0.455   1.904  1.00  0.00    -0.381 N 
HETATM   13  C11 UNL     1      -0.262  -0.135   0.969  1.00  0.00     0.097 C 
HETATM   14  C12 UNL     1      -1.381   0.493   0.780  1.00  0.00     0.122 C 
HETATM   15  H10 UNL     1       0.232   1.158   2.586  1.00  0.00     0.160 HD
ENDROOT
BRANCH  14  16
HETATM   16  N3  UNL     1      -2.498   0.229  -0.047  1.00  0.00    -0.364 N 
HETATM   17  H12 UNL     1      -2.369  -0.290  -0.969  1.00  0.00     0.165 HD
BRANCH  16  18
HETATM   18  C13 UNL     1      -3.847   0.595   0.224  1.00  0.00     0.033 A 
HETATM   19  C14 UNL     1      -4.053   1.917  -0.199  1.00  0.00     0.032 A 
HETATM   20  C15 UNL     1      -5.279   2.541  -0.061  1.00  0.00     0.046 A 
HETATM   21  C16 UNL     1      -6.340   1.865   0.504  1.00  0.00     0.138 A 
HETATM   22  F1  UNL     1      -7.562   2.424   0.662  1.00  0.00    -0.204 F 
HETATM   23  C17 UNL     1      -6.115   0.563   0.914  1.00  0.00     0.074 A 
HETATM   24 CL1  UNL     1      -7.406  -0.364   1.635  1.00  0.00    -0.081 Cl
HETATM   25  C18 UNL     1      -4.894  -0.065   0.779  1.00  0.00     0.056 A 
ENDBRANCH  16  18
ENDBRANCH  14  16
BRANCH   8  26
HETATM   26  C7  UNL     1       6.083   1.030  -0.296  1.00  0.00     0.176 C 
HETATM   27  O2  UNL     1       6.375   1.897   0.581  1.00  0.00    -0.646 OA
BRANCH  26  28
HETATM   28  O3  UNL     1       7.107   0.976  -1.227  1.00  0.00    -0.773 OA
HETATM   29  H6  UNL     1       8.095   1.057  -0.983  1.00  0.00     0.167 HD
ENDBRANCH  26  28
ENDBRANCH   8  26
TORSDOF 4
