REMARK  6 active torsions:
REMARK  status: ('A' for Active; 'I' for Inactive)
REMARK    1  A    between atoms: O1_2  and  C2_3 
REMARK    2  A    between atoms: C4_5  and  O2_6 
REMARK    3  A    between atoms: O2_6  and  C5_7 
REMARK    4  A    between atoms: C9_11  and  N1_12 
REMARK       I    between atoms: N1_12  and  C10_13 
REMARK       I    between atoms: C10_13  and  N2_15 
REMARK    5  A    between atoms: C11_16  and  C12_17 
REMARK    6  A    between atoms: C21_26  and  O4_27 
ROOT
HETATM    1  C5  UNL     1      -1.141  -0.101  -0.938  1.00  0.00     0.149 C 
HETATM    2  C6  UNL     1      -0.034  -0.758  -0.628  1.00  0.00    -0.012 A 
HETATM    3  C7  UNL     1       0.106  -2.170  -0.294  1.00  0.00     0.015 A 
HETATM    4  C8  UNL     1       1.369  -2.373  -0.060  1.00  0.00     0.030 A 
HETATM    5  C9  UNL     1       2.164  -1.162  -0.210  1.00  0.00     0.037 A 
HETATM    6  C18 UNL     1       1.317  -0.216  -0.546  1.00  0.00     0.043 A 
ENDROOT
BRANCH   1   7
HETATM    7  O2  UNL     1      -2.325  -0.814  -0.957  1.00  0.00    -0.325 OA
BRANCH   7   8
HETATM    8  C4  UNL     1      -3.431  -0.424  -0.244  1.00  0.00     0.187 C 
HETATM    9  C3  UNL     1      -4.628  -1.311  -0.506  1.00  0.00     0.075 C 
HETATM   10  C2  UNL     1      -5.948  -1.017  -0.560  1.00  0.00     0.104 C 
HETATM   11  C21 UNL     1      -6.371   0.353  -0.109  1.00  0.00     0.124 C 
HETATM   12  C20 UNL     1      -5.181   0.930   0.236  1.00  0.00     0.051 C 
HETATM   13  C19 UNL     1      -4.009   0.944  -0.767  1.00  0.00     0.128 C 
HETATM   14  N3  UNL     1      -4.871   1.506   1.550  1.00  0.00    -0.352 N 
HETATM   15  C23 UNL     1      -3.653   0.759   1.900  1.00  0.00     0.205 C 
HETATM   16  H21 UNL     1      -5.598   2.204   1.796  1.00  0.00     0.166 HD
HETATM   17  N4  UNL     1      -3.131  -0.157   1.111  1.00  0.00    -0.242 NA
BRANCH  10  18
HETATM   18  O1  UNL     1      -7.074  -1.689  -0.947  1.00  0.00    -0.353 OA
HETATM   19  C1  UNL     1      -7.775  -2.524  -0.027  1.00  0.00     0.210 C 
ENDBRANCH  10  18
BRANCH  11  20
HETATM   20  O4  UNL     1      -7.410   1.235   0.100  1.00  0.00    -0.351 OA
HETATM   21  C22 UNL     1      -8.055   1.916  -0.945  1.00  0.00     0.210 C 
ENDBRANCH  11  20
ENDBRANCH   7   8
ENDBRANCH   1   7
BRANCH   5  22
HETATM   22  N1  UNL     1       3.570  -1.108  -0.013  1.00  0.00    -0.307 N 
HETATM   23  C10 UNL     1       4.344   0.063  -0.159  1.00  0.00     0.346 C 
HETATM   24  O3  UNL     1       3.815   1.157  -0.481  1.00  0.00    -0.245 OA
HETATM   25  N2  UNL     1       5.771   0.074   0.051  1.00  0.00    -0.206 NA
HETATM   26  C11 UNL     1       6.430   1.145   0.225  1.00  0.00     0.133 C 
HETATM   27  H8  UNL     1       4.117  -1.936   0.252  1.00  0.00     0.170 HD
BRANCH  26  28
HETATM   28  C12 UNL     1       7.871   0.981   0.424  1.00  0.00    -0.018 A 
HETATM   29  C13 UNL     1       8.435  -0.281   0.415  1.00  0.00     0.013 A 
HETATM   30  C14 UNL     1       9.799  -0.499   0.599  1.00  0.00     0.001 A 
HETATM   31  C15 UNL     1      10.628   0.599   0.800  1.00  0.00     0.000 A 
HETATM   32  C16 UNL     1      10.068   1.858   0.810  1.00  0.00     0.001 A 
HETATM   33  C17 UNL     1       8.716   2.070   0.627  1.00  0.00     0.013 A 
ENDBRANCH  26  28
ENDBRANCH   5  22
TORSDOF 6
