REMARK  2 active torsions:
REMARK  status: ('A' for Active; 'I' for Inactive)
REMARK    1  A    between atoms: C12_16  and  C13_17 
REMARK    2  A    between atoms: C15_19  and  C16_20 
ROOT
HETATM    1  C1  UNL     1       4.800  -0.664   2.266  1.00  0.00     0.083 C 
HETATM    2  C2  UNL     1       3.833  -0.828   1.380  1.00  0.00     0.075 C 
HETATM    3  N1  UNL     1       3.660  -1.786   0.352  1.00  0.00    -0.380 N 
HETATM    4  C3  UNL     1       2.918  -2.978   0.048  1.00  0.00     0.126 C 
HETATM    5  C4  UNL     1       1.482  -2.679  -0.129  1.00  0.00     0.018 C 
HETATM    6  C5  UNL     1       1.173  -1.365   0.027  1.00  0.00     0.033 C 
HETATM    7  C6  UNL     1       0.049  -0.412  -0.000  1.00  0.00    -0.029 C 
HETATM    8  C7  UNL     1       0.751   0.711   0.281  1.00  0.00     0.107 C 
HETATM    9  O1  UNL     1      -0.134   1.813   0.299  1.00  0.00    -0.329 OA
HETATM   10  C8  UNL     1      -0.475   2.423  -0.974  1.00  0.00     0.324 C 
HETATM   11  N2  UNL     1      -1.835   2.726  -1.016  1.00  0.00    -0.265 NA
HETATM   12  C9  UNL     1      -2.719   2.435  -1.856  1.00  0.00     0.165 C 
HETATM   13  N3  UNL     1      -3.591   3.172  -0.959  1.00  0.00    -0.295 NA
HETATM   14  C10 UNL     1      -3.661   2.713   0.263  1.00  0.00     0.258 C 
HETATM   15  C11 UNL     1      -2.913   1.574   0.590  1.00  0.00     0.000 C 
HETATM   16  C12 UNL     1      -2.175   0.512   0.720  1.00  0.00    -0.070 C 
HETATM   17  C15 UNL     1      -1.450  -0.391  -0.161  1.00  0.00     0.068 C 
HETATM   18  C19 UNL     1       2.144   1.094   0.566  1.00  0.00     0.194 A 
HETATM   19  C20 UNL     1       3.006   1.174  -0.633  1.00  0.00     0.037 A 
HETATM   20  C21 UNL     1       3.491   2.412  -0.713  1.00  0.00     0.020 A 
HETATM   21  C22 UNL     1       2.965   3.164   0.419  1.00  0.00     0.114 A 
HETATM   22  N4  UNL     1       2.214   2.416   1.124  1.00  0.00    -0.259 NA
HETATM   23  N5  UNL     1       2.780   0.117   1.468  1.00  0.00    -0.343 N 
HETATM   24  H3  UNL     1       4.368  -1.295  -0.261  1.00  0.00     0.160 HD
HETATM   25  H27 UNL     1       2.354   0.109   2.422  1.00  0.00     0.164 HD
ENDROOT
BRANCH  17  26
HETATM   26  C16 UNL     1      -1.911  -0.678  -1.510  1.00  0.00    -0.018 C 
HETATM   27  C17 UNL     1      -2.707  -1.667  -1.938  1.00  0.00    -0.034 C 
HETATM   28  C18 UNL     1      -3.326  -2.205  -3.159  1.00  0.00     0.036 C 
ENDBRANCH  17  26
BRANCH  16  29
HETATM   29  C13 UNL     1      -2.130   0.019   2.157  1.00  0.00     0.030 C 
HETATM   30  C14 UNL     1      -2.697  -1.369   2.193  1.00  0.00     0.010 C 
ENDBRANCH  16  29
TORSDOF 2
