REMARK  10 active torsions:
REMARK  status: ('A' for Active; 'I' for Inactive)
REMARK    1  A    between atoms: N1_2  and  C2_3 
REMARK    2  A    between atoms: N1_2  and  C10_14 
REMARK    3  A    between atoms: C2_3  and  C3_4 
REMARK    4  A    between atoms: C3_4  and  C4_5 
REMARK    5  A    between atoms: C5_6  and  C6_7 
REMARK       I    between atoms: C6_7  and  N2_9 
REMARK    6  A    between atoms: N2_9  and  C7_10 
REMARK    7  A    between atoms: C7_10  and  C8_11 
REMARK    8  A    between atoms: C8_11  and  C9_12 
REMARK    9  A    between atoms: C14_20  and  O2_21 
REMARK   10  A    between atoms: C16_23  and  O3_24 
ROOT
HETATM    1  C10 UNL     1      -0.588   1.778  -1.149  1.00  0.00     0.143 A 
HETATM    2  N3  UNL     1       0.312   2.558  -0.512  1.00  0.00    -0.223 NA
HETATM    3  C11 UNL     1      -0.074   3.193   0.614  1.00  0.00     0.236 A 
HETATM    4  N4  UNL     1      -1.326   3.046   1.082  1.00  0.00    -0.241 NA
HETATM    5  C12 UNL     1      -2.234   2.275   0.462  1.00  0.00     0.075 A 
HETATM    6  C13 UNL     1      -3.528   2.074   0.886  1.00  0.00     0.072 A 
HETATM    7  C14 UNL     1      -4.458   1.275   0.252  1.00  0.00     0.103 A 
HETATM    8  C16 UNL     1      -4.010   0.654  -0.886  1.00  0.00     0.102 A 
HETATM    9  C18 UNL     1      -2.743   0.756  -1.438  1.00  0.00     0.057 A 
HETATM   10  C19 UNL     1      -1.903   1.584  -0.715  1.00  0.00     0.042 A 
ENDROOT
BRANCH   1  11
HETATM   11  N1  UNL     1      -0.092   1.157  -2.361  1.00  0.00    -0.348 N 
HETATM   12  C1  UNL     1      -0.310   1.294  -3.787  1.00  0.00     0.156 C 
BRANCH  11  13
HETATM   13  C2  UNL     1       0.819   0.192  -1.889  1.00  0.00     0.074 C 
BRANCH  13  14
HETATM   14  C3  UNL     1       1.792  -0.515  -1.273  1.00  0.00     0.059 C 
BRANCH  14  15
HETATM   15  C4  UNL     1       2.825  -0.237  -0.270  1.00  0.00    -0.010 C 
HETATM   16  C5  UNL     1       3.289  -1.501  -0.288  1.00  0.00     0.071 C 
BRANCH  16  17
HETATM   17  C6  UNL     1       4.380  -2.164   0.450  1.00  0.00     0.241 C 
HETATM   18  O1  UNL     1       5.015  -3.259   0.654  1.00  0.00    -0.269 OA
HETATM   19  N2  UNL     1       5.110  -1.305   1.359  1.00  0.00    -0.354 N 
HETATM   20  H8  UNL     1       4.999  -0.268   1.585  1.00  0.00     0.163 HD
BRANCH  19  21
HETATM   21  C7  UNL     1       6.171  -2.023   2.060  1.00  0.00     0.152 C 
BRANCH  21  22
HETATM   22  C8  UNL     1       5.504  -3.136   2.826  1.00  0.00     0.022 C 
BRANCH  22  23
HETATM   23  C9  UNL     1       4.802  -4.066   3.443  1.00  0.00     0.186 C 
HETATM   24  F1  UNL     1       4.466  -5.118   4.211  1.00  0.00    -0.220 F 
ENDBRANCH  22  23
ENDBRANCH  21  22
ENDBRANCH  19  21
ENDBRANCH  16  17
ENDBRANCH  14  15
ENDBRANCH  13  14
ENDBRANCH  11  13
ENDBRANCH   1  11
BRANCH   8  25
HETATM   25  O3  UNL     1      -4.998  -0.130  -1.465  1.00  0.00    -0.353 OA
HETATM   26  C17 UNL     1      -4.750  -0.862  -2.646  1.00  0.00     0.210 C 
ENDBRANCH   8  25
BRANCH   7  27
HETATM   27  O2  UNL     1      -5.704   1.184   0.813  1.00  0.00    -0.353 OA
HETATM   28  C15 UNL     1      -6.082   1.860   1.998  1.00  0.00     0.210 C 
ENDBRANCH   7  27
TORSDOF 10
