REMARK  6 active torsions:
REMARK  status: ('A' for Active; 'I' for Inactive)
REMARK    1  A    between atoms: O1_2  and  C2_3 
REMARK    2  A    between atoms: C2_3  and  C3_4 
REMARK    3  A    between atoms: C3_4  and  C4_5 
REMARK    4  A    between atoms: C7_10  and  O2_11 
REMARK    5  A    between atoms: O2_11  and  C8_12 
REMARK    6  A    between atoms: N4_20  and  C14_21 
ROOT
HETATM    1  C8  UNL     1      -0.725   0.049  -0.069  1.00  0.00     0.073 C 
HETATM    2  C9  UNL     1      -1.299   0.139  -1.320  1.00  0.00     0.034 C 
HETATM    3  C10 UNL     1      -2.448   0.427  -2.249  1.00  0.00     0.000 C 
HETATM    4  C11 UNL     1      -3.733   0.778  -2.524  1.00  0.00    -0.007 C 
HETATM    5  C12 UNL     1      -5.023   1.148  -1.645  1.00  0.00     0.151 C 
HETATM    6  N3  UNL     1      -4.525   0.493  -0.417  1.00  0.00    -0.339 N 
HETATM    7  C13 UNL     1      -3.351   0.908   0.183  1.00  0.00     0.323 C 
HETATM    8  O3  UNL     1      -2.690   1.842  -0.018  1.00  0.00    -0.247 OA
HETATM    9  N4  UNL     1      -2.763   0.100   1.150  1.00  0.00    -0.300 N 
HETATM   10  C18 UNL     1      -1.304   0.310   1.366  1.00  0.00     0.198 C 
HETATM   11  H13 UNL     1      -5.023  -0.256   0.017  1.00  0.00     0.164 HD
ENDROOT
BRANCH   1  12
HETATM   12  O2  UNL     1       0.581  -0.339   0.005  1.00  0.00    -0.294 OA
BRANCH  12  13
HETATM   13  C7  UNL     1       1.575   0.609   0.186  1.00  0.00     0.182 A 
HETATM   14  C4  UNL     1       2.868   0.144   0.248  1.00  0.00     0.036 A 
HETATM   15  C5  UNL     1       3.833   1.083   0.427  1.00  0.00     0.134 A 
HETATM   16  N1  UNL     1       3.612   2.397   0.544  1.00  0.00    -0.253 NA
HETATM   17  C6  UNL     1       2.332   2.822   0.479  1.00  0.00     0.235 A 
HETATM   18  N2  UNL     1       1.350   1.932   0.304  1.00  0.00    -0.217 NA
BRANCH  14  19
HETATM   19  C3  UNL     1       3.065  -1.277   0.112  1.00  0.00     0.041 C 
BRANCH  19  20
HETATM   20  C2  UNL     1       4.213  -1.893   0.129  1.00  0.00     0.135 C 
BRANCH  20  21
HETATM   21  O1  UNL     1       5.496  -2.364   0.171  1.00  0.00    -0.368 OA
HETATM   22  C1  UNL     1       6.606  -1.515   0.463  1.00  0.00     0.208 C 
ENDBRANCH  20  21
ENDBRANCH  19  20
ENDBRANCH  14  19
ENDBRANCH  12  13
ENDBRANCH   1  12
BRANCH   9  23
HETATM   23  C14 UNL     1      -3.513  -0.902   1.727  1.00  0.00     0.012 A 
HETATM   24  C15 UNL     1      -4.577  -1.600   1.888  1.00  0.00     0.033 A 
HETATM   25  C16 UNL     1      -4.314  -1.647   3.169  1.00  0.00     0.005 A 
HETATM   26  C17 UNL     1      -3.040  -1.749   2.793  1.00  0.00     0.060 A 
ENDBRANCH   9  23
TORSDOF 6
