REMARK  4 active torsions:
REMARK  status: ('A' for Active; 'I' for Inactive)
REMARK    1  A    between atoms: O1_2  and  C2_3 
REMARK    2  A    between atoms: C7_11  and  N3_12 
REMARK    3  A    between atoms: N3_12  and  C8_13 
REMARK    4  A    between atoms: C17_26  and  O3_27 
ROOT
HETATM    1  C2  UNL     1       3.516  -1.222   1.093  1.00  0.00     0.087 C 
HETATM    2  C3  UNL     1       2.471  -1.974   0.682  1.00  0.00     0.082 C 
HETATM    3  C4  UNL     1       1.527  -3.025   0.342  1.00  0.00     0.189 C 
HETATM    4  O2  UNL     1       0.317  -2.922   0.972  1.00  0.00    -0.332 OA
HETATM    5  C5  UNL     1      -0.644  -1.993   0.913  1.00  0.00     0.196 A 
HETATM    6  N1  UNL     1      -1.238  -1.838   2.111  1.00  0.00    -0.216 NA
HETATM    7  C6  UNL     1      -2.245  -0.980   2.357  1.00  0.00     0.238 A 
HETATM    8  N2  UNL     1      -2.728  -0.202   1.371  1.00  0.00    -0.222 NA
HETATM    9  C7  UNL     1      -2.195  -0.283   0.120  1.00  0.00     0.160 A 
HETATM   10  C14 UNL     1      -1.164  -1.168  -0.099  1.00  0.00     0.129 A 
HETATM   11  N4  UNL     1      -0.537  -1.262  -1.401  1.00  0.00    -0.367 N 
HETATM   12  C15 UNL     1       0.535  -0.321  -1.414  1.00  0.00     0.243 C 
HETATM   13  N5  UNL     1       1.074  -0.055  -0.102  1.00  0.00    -0.381 N 
HETATM   14  C16 UNL     1       2.202   0.682   0.336  1.00  0.00     0.123 C 
HETATM   15  C17 UNL     1       3.335   0.207   0.886  1.00  0.00     0.112 C 
HETATM   16  H12 UNL     1      -1.231  -1.978  -1.630  1.00  0.00     0.161 HD
HETATM   17  H15 UNL     1       0.860  -0.245   0.925  1.00  0.00     0.160 HD
ENDROOT
BRANCH   9  18
HETATM   18  N3  UNL     1      -2.555   0.373  -1.064  1.00  0.00    -0.339 N 
HETATM   19  H8  UNL     1      -2.076   0.292  -1.977  1.00  0.00     0.167 HD
BRANCH  18  20
HETATM   20  C8  UNL     1      -3.614   1.263  -1.292  1.00  0.00     0.035 A 
HETATM   21  C9  UNL     1      -3.906   1.987  -2.435  1.00  0.00     0.032 A 
HETATM   22  C10 UNL     1      -4.964   2.842  -2.610  1.00  0.00     0.046 A 
HETATM   23  C11 UNL     1      -5.844   3.024  -1.567  1.00  0.00     0.138 A 
HETATM   24  F1  UNL     1      -6.863   3.878  -1.804  1.00  0.00    -0.204 F 
HETATM   25  C12 UNL     1      -5.621   2.346  -0.413  1.00  0.00     0.074 A 
HETATM   26 CL1  UNL     1      -6.809   2.655   0.849  1.00  0.00    -0.081 Cl
HETATM   27  C13 UNL     1      -4.552   1.501  -0.281  1.00  0.00     0.056 A 
ENDBRANCH  18  20
ENDBRANCH   9  18
BRANCH   1  28
HETATM   28  O1  UNL     1       4.810  -1.150   1.676  1.00  0.00    -0.357 OA
HETATM   29  C1  UNL     1       5.364  -2.187   2.440  1.00  0.00     0.209 C 
ENDBRANCH   1  28
BRANCH  15  30
HETATM   30  O3  UNL     1       4.090   1.331   1.125  1.00  0.00    -0.352 OA
HETATM   31  C18 UNL     1       4.345   2.381   0.246  1.00  0.00     0.210 C 
ENDBRANCH  15  30
TORSDOF 4
