REMARK  6 active torsions:
REMARK  status: ('A' for Active; 'I' for Inactive)
REMARK    1  A    between atoms: O1_2  and  C2_3 
REMARK    2  A    between atoms: C5_6  and  N1_7 
REMARK    3  A    between atoms: C7_9  and  O2_10 
REMARK    4  A    between atoms: O2_10  and  C8_11 
REMARK    5  A    between atoms: C13_20  and  N5_21 
REMARK    6  A    between atoms: N5_21  and  C14_22 
ROOT
HETATM    1  C14 UNL     1       5.013   2.598  -0.233  1.00  0.00     0.188 C 
HETATM    2  C15 UNL     1       5.434   2.188   1.128  1.00  0.00     0.250 C 
HETATM    3  O4  UNL     1       5.636   1.791   2.257  1.00  0.00    -0.305 OA
ENDROOT
BRANCH   1   4
HETATM    4  N5  UNL     1       3.657   2.201  -0.529  1.00  0.00    -0.387 N 
HETATM    5  H18 UNL     1       2.875   2.879  -0.647  1.00  0.00     0.159 HD
BRANCH   4   6
HETATM    6  C13 UNL     1       3.306   0.835  -0.680  1.00  0.00     0.004 C 
HETATM    7  C12 UNL     1       4.291  -0.084  -0.653  1.00  0.00     0.026 C 
HETATM    8  C11 UNL     1       4.404  -1.565  -0.760  1.00  0.00     0.230 C 
HETATM    9  O3  UNL     1       3.170  -2.169  -0.937  1.00  0.00    -0.280 OA
HETATM   10  N4  UNL     1       2.967  -3.109  -0.037  1.00  0.00    -0.282 N 
HETATM   11  C10 UNL     1       1.664  -3.714  -0.078  1.00  0.00     0.296 C 
HETATM   12  H14 UNL     1       3.322  -2.958   0.910  1.00  0.00     0.189 HD
HETATM   13  N3  UNL     1       0.666  -2.676   0.052  1.00  0.00    -0.262 NA
HETATM   14  C9  UNL     1       0.401  -2.152   1.194  1.00  0.00     0.231 C 
HETATM   15  N2  UNL     1      -0.545  -1.354   0.491  1.00  0.00    -0.222 NA
HETATM   16  C8  UNL     1      -0.295  -0.140   0.066  1.00  0.00     0.147 C 
HETATM   17  C17 UNL     1       1.056   0.420   0.339  1.00  0.00     0.092 C 
HETATM   18  C16 UNL     1       1.914   0.378  -0.907  1.00  0.00     0.064 C 
BRANCH  16  19
HETATM   19  O2  UNL     1      -1.523   0.103  -0.508  1.00  0.00    -0.293 OA
BRANCH  19  20
HETATM   20  C7  UNL     1      -2.741   0.114   0.151  1.00  0.00     0.109 A 
HETATM   21  C2  UNL     1      -3.812   1.123   0.088  1.00  0.00     0.106 A 
HETATM   22  C3  UNL     1      -4.831   0.781   0.864  1.00  0.00    -0.011 A 
HETATM   23  C4  UNL     1      -6.125   1.459   1.135  1.00  0.00     0.049 C 
HETATM   24  C5  UNL     1      -4.513  -0.504   1.516  1.00  0.00     0.275 A 
HETATM   25  C6  UNL     1      -3.159  -0.819   0.978  1.00  0.00     0.053 A 
BRANCH  21  26
HETATM   26  O1  UNL     1      -3.642   2.255  -0.732  1.00  0.00    -0.353 OA
HETATM   27  C1  UNL     1      -4.235   2.172  -2.030  1.00  0.00     0.210 C 
ENDBRANCH  21  26
BRANCH  24  28
HETATM   28  N1  UNL     1      -5.472  -1.525   1.152  1.00  0.00     0.090 N 
HETATM   29  H8  UNL     1      -5.179  -2.405   1.592  1.00  0.00     0.314 HD
HETATM   30  H9  UNL     1      -5.478  -1.578   0.107  1.00  0.00     0.314 HD
ENDBRANCH  24  28
ENDBRANCH  19  20
ENDBRANCH  16  19
ENDBRANCH   4   6
ENDBRANCH   1   4
TORSDOF 6
