REMARK  7 active torsions:
REMARK  status: ('A' for Active; 'I' for Inactive)
REMARK    1  A    between atoms: O1_2  and  C2_3 
REMARK    2  A    between atoms: C3_4  and  O2_5 
REMARK    3  A    between atoms: C9_14  and  O3_15 
REMARK    4  A    between atoms: O3_15  and  C10_16 
REMARK    5  A    between atoms: C14_20  and  N3_21 
REMARK       I    between atoms: N3_21  and  C15_22 
REMARK       I    between atoms: C15_22  and  N4_24 
REMARK    6  A    between atoms: N4_24  and  C16_25 
REMARK    7  A    between atoms: C19_28  and  O5_29 
ROOT
HETATM    1  C10 UNL     1      -0.954  -2.331   0.974  1.00  0.00     0.078 A 
HETATM    2  C11 UNL     1      -0.930  -2.662   2.312  1.00  0.00     0.037 A 
HETATM    3  C12 UNL     1       0.256  -2.990   2.911  1.00  0.00     0.005 A 
HETATM    4  C13 UNL     1       1.458  -3.012   2.248  1.00  0.00     0.030 A 
HETATM    5  C14 UNL     1       1.436  -2.678   0.894  1.00  0.00     0.039 A 
HETATM    6  C23 UNL     1       0.244  -2.346   0.284  1.00  0.00     0.066 A 
ENDROOT
BRANCH   1   7
HETATM    7  O3  UNL     1      -1.991  -1.964   0.121  1.00  0.00    -0.308 OA
BRANCH   7   8
HETATM    8  C9  UNL     1      -3.295  -1.862   0.509  1.00  0.00     0.106 A 
HETATM    9  B1  UNL     1      -4.278  -0.724   0.112  1.00  0.00     0.333 B 
HETATM   10  C5  UNL     1      -3.789   0.448  -0.822  1.00  0.00     0.035 A 
HETATM   11  C6  UNL     1      -5.736  -0.776   0.655  1.00  0.00     0.007 A 
HETATM   12  C3  UNL     1      -4.949   1.357  -1.008  1.00  0.00     0.071 A 
HETATM   13  C2  UNL     1      -6.171   1.258  -0.517  1.00  0.00     0.097 A 
HETATM   14  C7  UNL     1      -6.613   0.167   0.347  1.00  0.00     0.054 A 
HETATM   15  N1  UNL     1      -6.062  -1.898   1.499  1.00  0.00    -0.258 NA
HETATM   16  C8  UNL     1      -5.108  -2.764   1.729  1.00  0.00     0.233 A 
HETATM   17  N2  UNL     1      -3.737  -2.801   1.275  1.00  0.00    -0.234 NA
BRANCH  12  18
HETATM   18  O2  UNL     1      -4.573   2.427  -1.836  1.00  0.00    -0.358 OA
HETATM   19  C4  UNL     1      -4.700   2.339  -3.251  1.00  0.00     0.209 C 
ENDBRANCH  12  18
BRANCH  13  20
HETATM   20  O1  UNL     1      -7.027   2.267  -0.875  1.00  0.00    -0.353 OA
HETATM   21  C1  UNL     1      -8.087   2.713  -0.046  1.00  0.00     0.210 C 
ENDBRANCH  13  20
ENDBRANCH   7   8
ENDBRANCH   1   7
BRANCH   5  22
HETATM   22  N3  UNL     1       2.712  -2.716   0.255  1.00  0.00    -0.309 N 
HETATM   23  C15 UNL     1       3.446  -1.503   0.282  1.00  0.00     0.325 C 
HETATM   24  O4  UNL     1       2.866  -0.560   0.869  1.00  0.00    -0.247 OA
HETATM   25  N4  UNL     1       4.722  -1.298  -0.279  1.00  0.00    -0.309 N 
HETATM   26  H15 UNL     1       5.064  -2.174  -0.728  1.00  0.00     0.170 HD
HETATM   27  H14 UNL     1       3.165  -3.544  -0.232  1.00  0.00     0.170 HD
BRANCH  25  28
HETATM   28  C16 UNL     1       5.511  -0.125  -0.292  1.00  0.00     0.036 A 
HETATM   29  C17 UNL     1       5.205   1.084   0.245  1.00  0.00     0.032 A 
HETATM   30  C18 UNL     1       6.016   2.198   0.203  1.00  0.00     0.039 A 
HETATM   31  C19 UNL     1       7.237   2.101  -0.428  1.00  0.00     0.068 A 
HETATM   32  C21 UNL     1       7.580   0.888  -0.985  1.00  0.00     0.039 A 
HETATM   33  C22 UNL     1       6.735  -0.187  -0.913  1.00  0.00     0.032 A 
BRANCH  31  34
HETATM   34  O5  UNL     1       8.073   3.195  -0.490  1.00  0.00    -0.356 OA
HETATM   35  C20 UNL     1       9.343   3.164  -1.123  1.00  0.00     0.210 C 
ENDBRANCH  31  34
ENDBRANCH  25  28
ENDBRANCH   5  22
TORSDOF 7
