REMARK  2 active torsions:
REMARK  status: ('A' for Active; 'I' for Inactive)
REMARK    1  A    between atoms: O1_2  and  C2_3 
REMARK    2  A    between atoms: C5_6  and  C6_7 
ROOT
HETATM    1  C6  UNL     1       0.463  -0.253   0.885  1.00  0.00     0.147 C 
HETATM    2  N1  UNL     1       0.175   1.165   0.725  1.00  0.00    -0.379 N 
HETATM    3  C7  UNL     1      -1.132   1.631   1.006  1.00  0.00     0.025 C 
HETATM    4  C8  UNL     1      -1.275   2.712   0.203  1.00  0.00     0.026 C 
HETATM    5  C9  UNL     1      -2.516   3.223  -0.449  1.00  0.00    -0.001 C 
HETATM    6  C10 UNL     1      -3.751   2.673  -0.519  1.00  0.00    -0.011 C 
HETATM    7  C11 UNL     1      -4.591   1.664   0.173  1.00  0.00     0.137 C 
HETATM    8  N2  UNL     1      -4.074   0.279   0.034  1.00  0.00    -0.234 NA
HETATM    9  N3  UNL     1      -2.886   0.253   0.833  1.00  0.00    -0.303 N 
HETATM   10  C12 UNL     1      -2.183   0.987   1.942  1.00  0.00     0.200 C 
HETATM   11  C13 UNL     1      -2.217  -0.862   0.204  1.00  0.00     0.097 C 
HETATM   12  P1  UNL     1      -0.665  -1.255  -0.031  1.00  0.00    -0.032 P 
HETATM   13  C14 UNL     1      -0.623  -2.985   0.257  1.00  0.00     0.117 C 
HETATM   14  N4  UNL     1      -1.636  -3.546  -0.292  1.00  0.00    -0.293 NA
HETATM   15  C15 UNL     1      -2.673  -2.936  -1.033  1.00  0.00     0.233 C 
HETATM   16  C16 UNL     1      -3.291  -1.759  -0.309  1.00  0.00     0.197 C 
HETATM   17  O2  UNL     1      -4.513  -1.449  -0.091  1.00  0.00    -0.289 OA
HETATM   18  H7  UNL     1       0.679   2.027   0.436  1.00  0.00     0.160 HD
HETATM   19  H13 UNL     1      -3.626   0.397  -0.951  1.00  0.00     0.147 HD
HETATM   20  H16 UNL     1      -0.364  -1.064  -1.419  1.00  0.00     0.067 HD
ENDROOT
BRANCH   1  21
HETATM   21  C5  UNL     1       1.886  -0.474   0.494  1.00  0.00    -0.031 A 
HETATM   22  C4  UNL     1       2.815   0.423   0.977  1.00  0.00     0.012 A 
HETATM   23  C3  UNL     1       4.146   0.348   0.704  1.00  0.00     0.037 A 
HETATM   24  C2  UNL     1       4.641  -0.661  -0.093  1.00  0.00     0.068 A 
HETATM   25  C18 UNL     1       3.713  -1.581  -0.593  1.00  0.00     0.037 A 
HETATM   26  C17 UNL     1       2.368  -1.483  -0.301  1.00  0.00     0.012 A 
BRANCH  24  27
HETATM   27  O1  UNL     1       5.936  -0.915  -0.487  1.00  0.00    -0.356 OA
HETATM   28  C1  UNL     1       7.061  -0.139  -0.122  1.00  0.00     0.210 C 
ENDBRANCH  24  27
ENDBRANCH   1  21
TORSDOF 2
