REMARK  5 active torsions:
REMARK  status: ('A' for Active; 'I' for Inactive)
REMARK    1  A    between atoms: O1_2  and  C2_3 
REMARK    2  A    between atoms: C6_9  and  O2_10 
REMARK    3  A    between atoms: O2_10  and  C7_11 
REMARK    4  A    between atoms: C10_14  and  N3_15 
REMARK       I    between atoms: N3_15  and  C11_16 
REMARK       I    between atoms: C11_16  and  N4_18 
REMARK    5  A    between atoms: C16_24  and  O4_25 
ROOT
HETATM    1  C2  UNL     1      -4.513   0.489  -0.212  1.00  0.00     0.103 A 
HETATM    2  C3  UNL     1      -4.239  -0.861  -0.431  1.00  0.00     0.072 A 
HETATM    3  C4  UNL     1      -2.939  -1.338  -0.459  1.00  0.00     0.075 A 
HETATM    4  N1  UNL     1      -2.668  -2.636  -0.669  1.00  0.00    -0.241 NA
HETATM    5  C5  UNL     1      -1.383  -3.081  -0.693  1.00  0.00     0.236 A 
HETATM    6  N2  UNL     1      -0.372  -2.211  -0.504  1.00  0.00    -0.217 NA
HETATM    7  C6  UNL     1      -0.597  -0.901  -0.290  1.00  0.00     0.183 A 
HETATM    8  C14 UNL     1      -1.899  -0.444  -0.265  1.00  0.00     0.049 A 
HETATM    9  C15 UNL     1      -2.214   0.874  -0.053  1.00  0.00     0.057 A 
HETATM   10  C16 UNL     1      -3.491   1.394  -0.016  1.00  0.00     0.102 A 
ENDROOT
BRANCH   7  11
HETATM   11  O2  UNL     1       0.395   0.041  -0.089  1.00  0.00    -0.291 OA
BRANCH  11  12
HETATM   12  C7  UNL     1       1.756  -0.250  -0.083  1.00  0.00     0.078 A 
HETATM   13  C8  UNL     1       2.426  -0.599   1.067  1.00  0.00     0.039 A 
HETATM   14  C9  UNL     1       3.775  -0.869   0.973  1.00  0.00     0.032 A 
HETATM   15  C10 UNL     1       4.385  -0.779  -0.255  1.00  0.00     0.036 A 
HETATM   16  C12 UNL     1       3.726  -0.430  -1.421  1.00  0.00     0.032 A 
HETATM   17  C13 UNL     1       2.371  -0.160  -1.318  1.00  0.00     0.039 A 
BRANCH  15  18
HETATM   18  N3  UNL     1       5.796  -1.077  -0.270  1.00  0.00    -0.307 N 
HETATM   19  C11 UNL     1       6.580   0.077  -0.050  1.00  0.00     0.348 C 
HETATM   20  O3  UNL     1       5.922   1.147   0.119  1.00  0.00    -0.245 OA
HETATM   21  N4  UNL     1       8.003   0.081  -0.012  1.00  0.00    -0.173 N 
HETATM   22  F1  UNL     1       8.726   1.206   0.202  1.00  0.00    -0.097 F 
HETATM   23  H9  UNL     1       8.518  -0.837  -0.158  1.00  0.00     0.204 HD
HETATM   24  H8  UNL     1       6.320  -1.989  -0.415  1.00  0.00     0.170 HD
ENDBRANCH  15  18
ENDBRANCH  11  12
ENDBRANCH   7  11
BRANCH  10  25
HETATM   25  O4  UNL     1      -3.801   2.716   0.197  1.00  0.00    -0.353 OA
HETATM   26  C17 UNL     1      -2.841   3.720   0.407  1.00  0.00     0.210 C 
ENDBRANCH  10  25
BRANCH   1  27
HETATM   27  O1  UNL     1      -5.814   0.947  -0.187  1.00  0.00    -0.353 OA
HETATM   28  C1  UNL     1      -6.950   0.156  -0.368  1.00  0.00     0.210 C 
ENDBRANCH   1  27
TORSDOF 5
