REMARK  8 active torsions:
REMARK  status: ('A' for Active; 'I' for Inactive)
REMARK    1  A    between atoms: C2_2  and  C3_3 
REMARK    2  A    between atoms: C3_3  and  C4_4 
REMARK    3  A    between atoms: C4_4  and  C5_5 
REMARK       I    between atoms: C5_5  and  N1_7 
REMARK    4  A    between atoms: C8_10  and  O2_11 
REMARK    5  A    between atoms: O2_11  and  C9_12 
REMARK    6  A    between atoms: C13_18  and  O3_19 
REMARK    7  A    between atoms: C15_21  and  O4_22 
REMARK    8  A    between atoms: C20_27  and  N4_28 
ROOT
HETATM    1  C5  UNL     1       4.091  -0.536   0.283  1.00  0.00     0.221 C 
HETATM    2  O1  UNL     1       4.442  -1.419   1.137  1.00  0.00    -0.273 OA
HETATM    3  N1  UNL     1       2.730  -0.054   0.231  1.00  0.00    -0.318 N 
HETATM    4  C6  UNL     1       2.350   0.947  -0.744  1.00  0.00     0.157 C 
HETATM    5  C7  UNL     1       0.888   0.936  -0.902  1.00  0.00     0.026 C 
HETATM    6  C8  UNL     1      -0.004   0.661   0.057  1.00  0.00     0.057 C 
HETATM    7  C19 UNL     1       0.624   0.349   1.372  1.00  0.00     0.122 C 
HETATM    8  C20 UNL     1       1.790  -0.617   1.190  1.00  0.00     0.327 C 
ENDROOT
BRANCH   6   9
HETATM    9  O2  UNL     1      -1.382   0.655  -0.108  1.00  0.00    -0.296 OA
BRANCH   9  10
HETATM   10  C9  UNL     1      -2.108  -0.488   0.165  1.00  0.00     0.183 A 
HETATM   11  N2  UNL     1      -1.512  -1.637   0.601  1.00  0.00    -0.217 NA
HETATM   12  C10 UNL     1      -2.334  -2.680   0.831  1.00  0.00     0.236 A 
HETATM   13  N3  UNL     1      -3.665  -2.612   0.648  1.00  0.00    -0.241 NA
HETATM   14  C11 UNL     1      -4.289  -1.503   0.222  1.00  0.00     0.075 A 
HETATM   15  C12 UNL     1      -5.662  -1.476   0.046  1.00  0.00     0.072 A 
HETATM   16  C18 UNL     1      -3.472  -0.415  -0.023  1.00  0.00     0.049 A 
HETATM   17  C13 UNL     1      -6.238  -0.293  -0.398  1.00  0.00     0.103 A 
HETATM   18  C15 UNL     1      -5.471   0.825  -0.659  1.00  0.00     0.102 A 
HETATM   19  C17 UNL     1      -4.092   0.749  -0.467  1.00  0.00     0.057 A 
BRANCH  17  20
HETATM   20  O3  UNL     1      -7.610  -0.204  -0.593  1.00  0.00    -0.353 OA
HETATM   21  C14 UNL     1      -8.438  -1.346  -0.332  1.00  0.00     0.210 C 
ENDBRANCH  17  20
BRANCH  18  22
HETATM   22  O4  UNL     1      -6.099   1.983  -1.101  1.00  0.00    -0.353 OA
HETATM   23  C16 UNL     1      -5.330   3.140  -1.374  1.00  0.00     0.210 C 
ENDBRANCH  18  22
ENDBRANCH   9  10
ENDBRANCH   6   9
BRANCH   8  24
HETATM   24  N4  UNL     1       2.363  -0.870   2.478  1.00  0.00     0.101 N 
HETATM   25  H25 UNL     1       2.176  -0.093   3.169  1.00  0.00     0.315 HD
HETATM   26  H26 UNL     1       2.035  -1.785   2.897  1.00  0.00     0.315 HD
ENDBRANCH   8  24
BRANCH   1  27
HETATM   27  C4  UNL     1       5.083   0.033  -0.699  1.00  0.00     0.103 C 
BRANCH  27  28
HETATM   28  C3  UNL     1       6.397  -0.623  -0.437  1.00  0.00     0.009 C 
BRANCH  28  29
HETATM   29  C2  UNL     1       7.496  -0.144  -1.356  1.00  0.00    -0.004 C 
HETATM   30  C1  UNL     1       7.747   1.327  -1.243  1.00  0.00     0.005 C 
ENDBRANCH  28  29
ENDBRANCH  27  28
ENDBRANCH   1  27
TORSDOF 8
