REMARK  3 active torsions:
REMARK  status: ('A' for Active; 'I' for Inactive)
REMARK    1  A    between atoms: O1_2  and  C2_3 
REMARK    2  A    between atoms: C6_9  and  O2_10 
REMARK    3  A    between atoms: O2_10  and  C7_11 
ROOT
HETATM    1  C2  UNL     1      -4.900   0.398   1.001  1.00  0.00     0.103 A 
HETATM    2  C3  UNL     1      -4.304   1.515   1.539  1.00  0.00     0.072 A 
HETATM    3  C4  UNL     1      -2.993   1.811   1.232  1.00  0.00     0.075 A 
HETATM    4  N1  UNL     1      -2.492   2.925   1.784  1.00  0.00    -0.241 NA
HETATM    5  C5  UNL     1      -1.213   3.325   1.546  1.00  0.00     0.236 A 
HETATM    6  N2  UNL     1      -0.443   2.576   0.737  1.00  0.00    -0.217 NA
HETATM    7  C6  UNL     1      -0.897   1.446   0.155  1.00  0.00     0.183 A 
HETATM    8  C16 UNL     1      -2.190   1.040   0.390  1.00  0.00     0.049 A 
HETATM    9  C17 UNL     1      -2.815  -0.082  -0.141  1.00  0.00     0.057 A 
HETATM   10  C18 UNL     1      -4.139  -0.423   0.136  1.00  0.00     0.102 A 
HETATM   11  O4  UNL     1      -4.591  -1.485  -0.439  1.00  0.00    -0.353 OA
HETATM   12  C19 UNL     1      -4.949  -2.568  -1.065  1.00  0.00     0.210 C 
ENDROOT
BRANCH   1  13
HETATM   13  O1  UNL     1      -6.179  -0.086   1.178  1.00  0.00    -0.353 OA
HETATM   14  C1  UNL     1      -7.155   0.510   1.994  1.00  0.00     0.210 C 
ENDBRANCH   1  13
BRANCH   7  15
HETATM   15  O2  UNL     1      -0.283   0.553  -0.677  1.00  0.00    -0.290 OA
BRANCH  15  16
HETATM   16  C7  UNL     1       0.911   0.500  -1.181  1.00  0.00     0.086 C 
HETATM   17  C8  UNL     1       2.018   0.484  -1.879  1.00  0.00     0.012 C 
HETATM   18  C9  UNL     1       3.451   0.359  -1.901  1.00  0.00     0.002 C 
HETATM   19  C10 UNL     1       4.639   0.253  -1.452  1.00  0.00     0.026 C 
HETATM   20  C11 UNL     1       6.036   0.126  -1.104  1.00  0.00     0.007 C 
HETATM   21  C12 UNL     1       6.492  -0.870  -0.104  1.00  0.00     0.020 C 
HETATM   22  C13 UNL     1       5.521  -2.027   0.149  1.00  0.00     0.124 C 
HETATM   23  N3  UNL     1       4.267  -1.383   0.565  1.00  0.00    -0.348 N 
HETATM   24  C14 UNL     1       3.072  -0.776   0.961  1.00  0.00     0.291 C 
HETATM   25  H15 UNL     1       4.372  -0.339   0.791  1.00  0.00     0.163 HD
HETATM   26  O3  UNL     1       2.622  -1.965   0.974  1.00  0.00    -0.255 OA
HETATM   27  N4  UNL     1       1.806  -0.407   1.351  1.00  0.00    -0.234 NA
HETATM   28  C15 UNL     1       1.056   0.099   0.305  1.00  0.00     0.263 C 
ENDBRANCH  15  16
ENDBRANCH   7  15
TORSDOF 3
