REMARK  2 active torsions:
REMARK  status: ('A' for Active; 'I' for Inactive)
REMARK    1  A    between atoms: O1_2  and  C2_3 
REMARK    2  A    between atoms: C9_12  and  O2_13 
ROOT
HETATM    1  C2  UNL     1      -3.619  -0.930   0.236  1.00  0.00     0.102 C 
HETATM    2  C3  UNL     1      -3.297  -0.159   1.318  1.00  0.00     0.059 C 
HETATM    3  C4  UNL     1      -2.409   0.156   2.326  1.00  0.00     0.120 C 
HETATM    4  N1  UNL     1      -1.712   1.291   2.201  1.00  0.00    -0.261 NA
HETATM    5  C5  UNL     1      -0.780   1.359   1.237  1.00  0.00     0.188 C 
HETATM    6  N2  UNL     1       0.221   1.384   0.244  1.00  0.00    -0.185 NA
HETATM    7  C6  UNL     1      -0.333   1.380  -1.017  1.00  0.00     0.136 C 
HETATM    8  C7  UNL     1      -0.647   0.062  -1.212  1.00  0.00    -0.009 C 
HETATM    9  C8  UNL     1      -1.953  -0.287  -1.440  1.00  0.00     0.050 C 
HETATM   10  C9  UNL     1      -3.175  -0.720  -1.046  1.00  0.00     0.102 C 
HETATM   11  C11 UNL     1       0.485  -0.934  -1.170  1.00  0.00     0.042 C 
HETATM   12  C12 UNL     1       0.937  -1.362   0.172  1.00  0.00     0.006 C 
HETATM   13  C13 UNL     1       2.057  -2.336   0.120  1.00  0.00     0.020 C 
HETATM   14  C14 UNL     1       3.364  -2.027  -0.436  1.00  0.00     0.124 C 
HETATM   15  N3  UNL     1       4.206  -1.010   0.121  1.00  0.00    -0.343 N 
HETATM   16  C15 UNL     1       4.348   0.391   0.409  1.00  0.00     0.317 C 
HETATM   17  O3  UNL     1       3.232   0.329  -0.123  1.00  0.00    -0.247 OA
HETATM   18  N4  UNL     1       4.462   1.812   0.687  1.00  0.00    -0.330 N 
HETATM   19  C16 UNL     1       3.246   2.580   0.284  1.00  0.00     0.066 A 
HETATM   20  C17 UNL     1       2.932   2.756   1.587  1.00  0.00     0.005 A 
HETATM   21  C18 UNL     1       1.565   2.910   1.556  1.00  0.00     0.028 A 
HETATM   22  C19 UNL     1       0.947   2.840   0.330  1.00  0.00     0.160 A 
HETATM   23  C20 UNL     1       1.849   2.628  -0.746  1.00  0.00     0.081 A 
HETATM   24  C21 UNL     1       3.168   2.449  -1.071  1.00  0.00     0.037 A 
HETATM   25  O4  UNL     1       0.016   2.810  -0.786  1.00  0.00    -0.307 OA
HETATM   26  H19 UNL     1       5.160  -1.241   0.533  1.00  0.00     0.164 HD
HETATM   27  H20 UNL     1       5.391   1.505   1.041  1.00  0.00     0.165 HD
ENDROOT
BRANCH   1  28
HETATM   28  O1  UNL     1      -4.464  -1.953   0.643  1.00  0.00    -0.353 OA
HETATM   29  C1  UNL     1      -4.843  -2.053   1.989  1.00  0.00     0.210 C 
ENDBRANCH   1  28
BRANCH  10  30
HETATM   30  O2  UNL     1      -4.134  -1.001  -2.000  1.00  0.00    -0.353 OA
HETATM   31  C10 UNL     1      -3.903  -0.859  -3.382  1.00  0.00     0.210 C 
ENDBRANCH  10  30
TORSDOF 2
