REMARK  7 active torsions:
REMARK  status: ('A' for Active; 'I' for Inactive)
REMARK    1  A    between atoms: C2_2  and  C3_3 
REMARK    2  A    between atoms: C3_3  and  C4_4 
REMARK    3  A    between atoms: C4_4  and  N1_5 
REMARK       I    between atoms: N1_5  and  C5_6 
REMARK       I    between atoms: C5_6  and  N2_8 
REMARK    4  A    between atoms: N2_8  and  C6_9 
REMARK    5  A    between atoms: C14_17  and  O2_18 
REMARK    6  A    between atoms: C16_20  and  O3_21 
REMARK    7  A    between atoms: C21_28  and  O4_29 
ROOT
HETATM    1  C6  UNL     1       0.698  -0.437  -1.411  1.00  0.00     0.037 A 
HETATM    2  C7  UNL     1       0.870  -1.560  -2.193  1.00  0.00     0.030 A 
HETATM    3  C8  UNL     1      -0.152  -2.419  -2.528  1.00  0.00     0.019 A 
HETATM    4  C9  UNL     1      -1.381  -2.114  -2.045  1.00  0.00     0.028 A 
HETATM    5  C10 UNL     1      -1.586  -0.990  -1.250  1.00  0.00    -0.007 A 
HETATM    6  C11 UNL     1      -0.563  -0.091  -0.894  1.00  0.00     0.043 A 
HETATM    7  C12 UNL     1      -2.788  -0.461  -0.556  1.00  0.00     0.007 A 
HETATM    8  C13 UNL     1      -2.216   0.025   0.635  1.00  0.00     0.054 A 
HETATM    9  C14 UNL     1      -3.166   0.624   1.481  1.00  0.00     0.102 A 
HETATM   10  C16 UNL     1      -4.499   0.685   1.107  1.00  0.00     0.103 A 
HETATM   11  C18 UNL     1      -4.960   0.168  -0.099  1.00  0.00     0.072 A 
HETATM   12  C19 UNL     1      -4.083  -0.425  -0.961  1.00  0.00     0.072 A 
HETATM   13  N3  UNL     1      -4.811  -0.916  -2.107  1.00  0.00    -0.241 NA
HETATM   14  C20 UNL     1      -4.564  -1.979  -2.835  1.00  0.00     0.236 C 
HETATM   15  N4  UNL     1      -3.601  -3.057  -2.889  1.00  0.00    -0.217 NA
HETATM   16  C21 UNL     1      -2.326  -3.121  -2.575  1.00  0.00     0.174 C 
ENDROOT
BRANCH   1  17
HETATM   17  N2  UNL     1       1.800   0.409  -1.103  1.00  0.00    -0.309 N 
HETATM   18  C5  UNL     1       2.497   0.055   0.087  1.00  0.00     0.320 C 
HETATM   19  N1  UNL     1       3.628   0.757   0.589  1.00  0.00    -0.343 N 
HETATM   20  O1  UNL     1       2.061  -0.960   0.726  1.00  0.00    -0.247 OA
HETATM   21  H10 UNL     1       3.884   1.574  -0.033  1.00  0.00     0.164 HD
HETATM   22  H11 UNL     1       2.131   1.233  -1.648  1.00  0.00     0.170 HD
BRANCH  19  23
HETATM   23  C4  UNL     1       4.268   0.310   1.819  1.00  0.00     0.124 C 
BRANCH  23  24
HETATM   24  C3  UNL     1       5.421   1.245   2.085  1.00  0.00     0.019 C 
BRANCH  24  25
HETATM   25  C2  UNL     1       6.391   1.190   0.931  1.00  0.00    -0.003 C 
HETATM   26  C1  UNL     1       7.574   2.118   1.153  1.00  0.00     0.005 C 
ENDBRANCH  24  25
ENDBRANCH  23  24
ENDBRANCH  19  23
ENDBRANCH   1  17
BRANCH  16  27
HETATM   27  O4  UNL     1      -1.681  -4.332  -2.754  1.00  0.00    -0.344 OA
HETATM   28  H24 UNL     1      -2.216  -5.101  -3.182  1.00  0.00     0.219 HD
ENDBRANCH  16  27
BRANCH   9  29
HETATM   29  O2  UNL     1      -2.729   1.148   2.691  1.00  0.00    -0.353 OA
HETATM   30  C15 UNL     1      -1.349   1.038   2.986  1.00  0.00     0.210 C 
ENDBRANCH   9  29
BRANCH  10  31
HETATM   31  O3  UNL     1      -5.407   1.295   1.989  1.00  0.00    -0.353 OA
HETATM   32  C17 UNL     1      -6.779   1.394   1.675  1.00  0.00     0.210 C 
ENDBRANCH  10  31
TORSDOF 7
