REMARK  8 active torsions:
REMARK  status: ('A' for Active; 'I' for Inactive)
REMARK    1  A    between atoms: C2_2  and  C3_3 
REMARK    2  A    between atoms: C3_3  and  C4_4 
REMARK    3  A    between atoms: C4_4  and  N1_5 
REMARK       I    between atoms: N1_5  and  C5_6 
REMARK       I    between atoms: C5_6  and  N2_8 
REMARK    4  A    between atoms: N2_8  and  C6_9 
REMARK    5  A    between atoms: C9_12  and  O2_13 
REMARK    6  A    between atoms: O2_13  and  C10_14 
REMARK    7  A    between atoms: C13_17  and  O3_18 
REMARK    8  A    between atoms: C15_20  and  O4_21 
ROOT
HETATM    1  C6  UNL     1       2.124   1.019  -1.886  1.00  0.00     0.036 A 
HETATM    2  C7  UNL     1       1.493   1.740  -0.915  1.00  0.00     0.032 A 
HETATM    3  C8  UNL     1       0.142   1.601  -0.647  1.00  0.00     0.039 A 
HETATM    4  C9  UNL     1      -0.616   0.698  -1.385  1.00  0.00     0.078 A 
HETATM    5  C20 UNL     1       0.069  -0.008  -2.357  1.00  0.00     0.039 A 
HETATM    6  C21 UNL     1       1.405   0.108  -2.645  1.00  0.00     0.032 A 
ENDROOT
BRANCH   4   7
HETATM    7  O2  UNL     1      -1.984   0.464  -1.215  1.00  0.00    -0.285 OA
BRANCH   7   8
HETATM    8  C10 UNL     1      -2.699   1.139  -0.254  1.00  0.00     0.228 C 
HETATM    9  C11 UNL     1      -3.969   0.813  -0.214  1.00  0.00    -0.013 C 
HETATM   10  C12 UNL     1      -5.087   0.530  -0.159  1.00  0.00    -0.030 C 
HETATM   11  C13 UNL     1      -6.349   0.218  -0.075  1.00  0.00     0.156 C 
HETATM   12  C15 UNL     1      -6.317  -0.490   1.089  1.00  0.00     0.111 C 
HETATM   13  C17 UNL     1      -5.920  -0.195   2.353  1.00  0.00     0.059 C 
HETATM   14  C18 UNL     1      -4.842   0.599   2.651  1.00  0.00     0.121 C 
HETATM   15  N3  UNL     1      -3.801   1.370   2.932  1.00  0.00    -0.254 NA
HETATM   16  C19 UNL     1      -2.864   1.726   2.035  1.00  0.00     0.236 C 
HETATM   17  N4  UNL     1      -2.732   2.030   0.731  1.00  0.00    -0.210 NA
BRANCH  11  18
HETATM   18  O3  UNL     1      -7.328   0.572  -0.980  1.00  0.00    -0.345 OA
HETATM   19  C14 UNL     1      -8.024   1.805  -0.768  1.00  0.00     0.211 C 
ENDBRANCH  11  18
BRANCH  12  20
HETATM   20  O4  UNL     1      -6.823  -1.688   0.679  1.00  0.00    -0.352 OA
HETATM   21  C16 UNL     1      -7.006  -2.800   1.512  1.00  0.00     0.210 C 
ENDBRANCH  12  20
ENDBRANCH   7   8
ENDBRANCH   4   7
BRANCH   1  22
HETATM   22  N2  UNL     1       3.517   1.195  -2.128  1.00  0.00    -0.309 N 
HETATM   23  C5  UNL     1       4.486   0.409  -1.430  1.00  0.00     0.320 C 
HETATM   24  N1  UNL     1       5.860   0.620  -1.704  1.00  0.00    -0.343 N 
HETATM   25  O1  UNL     1       4.123  -0.453  -0.590  1.00  0.00    -0.247 OA
HETATM   26  H10 UNL     1       6.111   1.359  -2.426  1.00  0.00     0.164 HD
HETATM   27  H11 UNL     1       3.754   1.925  -2.836  1.00  0.00     0.170 HD
BRANCH  24  28
HETATM   28  C4  UNL     1       6.967  -0.085  -1.085  1.00  0.00     0.124 C 
BRANCH  28  29
HETATM   29  C3  UNL     1       6.906   0.178   0.400  1.00  0.00     0.019 C 
BRANCH  29  30
HETATM   30  C2  UNL     1       8.067  -0.555   1.053  1.00  0.00    -0.003 C 
HETATM   31  C1  UNL     1       7.977  -2.026   0.802  1.00  0.00     0.005 C 
ENDBRANCH  29  30
ENDBRANCH  28  29
ENDBRANCH  24  28
ENDBRANCH   1  22
TORSDOF 8
