REMARK  7 active torsions:
REMARK  status: ('A' for Active; 'I' for Inactive)
REMARK    1  A    between atoms: O1_2  and  C2_3 
REMARK    2  A    between atoms: C2_3  and  C3_4 
REMARK    3  A    between atoms: C5_6  and  C6_7 
REMARK    4  A    between atoms: C6_7  and  N1_8 
REMARK    5  A    between atoms: N1_8  and  C7_9 
REMARK    6  A    between atoms: C8_10  and  N2_11 
REMARK    7  A    between atoms: N2_11  and  C9_12 
ROOT
HETATM    1  N1  UNL     1       0.526   0.066  -0.389  1.00  0.00    -0.393 N 
HETATM    2  H9  UNL     1       0.776   0.694  -1.208  1.00  0.00     0.159 HD
ENDROOT
BRANCH   1   3
HETATM    3  C6  UNL     1      -0.050   0.645   0.803  1.00  0.00     0.159 C 
BRANCH   3   4
HETATM    4  C5  UNL     1      -1.381   0.089   1.080  1.00  0.00    -0.016 C 
HETATM    5  C4  UNL     1      -2.417   0.755   0.507  1.00  0.00     0.040 C 
HETATM    6  C3  UNL     1      -3.271   0.335  -0.488  1.00  0.00     0.060 C 
HETATM    7  N4  UNL     1      -3.650  -0.920  -0.256  1.00  0.00    -0.244 NA
HETATM    8  C17 UNL     1      -4.073  -1.393   0.942  1.00  0.00     0.235 C 
HETATM    9  N3  UNL     1      -4.260  -1.241   2.287  1.00  0.00    -0.230 NA
HETATM   10  C16 UNL     1      -3.324  -1.753   3.140  1.00  0.00     0.259 C 
HETATM   11  O2  UNL     1      -2.157  -1.111   3.086  1.00  0.00    -0.315 OA
HETATM   12  C15 UNL     1      -1.670  -1.018   1.850  1.00  0.00     0.152 C 
BRANCH   6  13
HETATM   13  C2  UNL     1      -3.618   1.268  -1.586  1.00  0.00     0.226 C 
BRANCH  13  14
HETATM   14  O1  UNL     1      -4.739   2.028  -1.312  1.00  0.00    -0.390 OA
HETATM   15  C1  UNL     1      -5.882   1.274  -1.096  1.00  0.00     0.201 C 
ENDBRANCH  13  14
ENDBRANCH   6  13
ENDBRANCH   3   4
ENDBRANCH   1   3
BRANCH   1  16
HETATM   16  C7  UNL     1       0.785  -1.312  -0.547  1.00  0.00     0.100 C 
HETATM   17  C8  UNL     1       2.013  -1.593  -0.945  1.00  0.00     0.105 C 
BRANCH  17  18
HETATM   18  N2  UNL     1       3.060  -0.670  -1.219  1.00  0.00    -0.365 N 
HETATM   19  H12 UNL     1       3.005  -0.173  -2.152  1.00  0.00     0.165 HD
BRANCH  18  20
HETATM   20  C9  UNL     1       4.252  -0.102  -0.693  1.00  0.00     0.033 A 
HETATM   21  C10 UNL     1       5.388  -0.830  -1.041  1.00  0.00     0.032 A 
HETATM   22  C11 UNL     1       6.633  -0.415  -0.611  1.00  0.00     0.046 A 
HETATM   23  C12 UNL     1       6.673   0.729   0.159  1.00  0.00     0.138 A 
HETATM   24  F1  UNL     1       7.898   1.143   0.586  1.00  0.00    -0.204 F 
HETATM   25  C13 UNL     1       5.549   1.464   0.514  1.00  0.00     0.074 A 
HETATM   26 CL1  UNL     1       5.671   2.908   1.495  1.00  0.00    -0.081 Cl
HETATM   27  C14 UNL     1       4.331   1.036   0.078  1.00  0.00     0.056 A 
ENDBRANCH  18  20
ENDBRANCH  17  18
ENDBRANCH   1  16
TORSDOF 7
