REMARK  10 active torsions:
REMARK  status: ('A' for Active; 'I' for Inactive)
REMARK    1  A    between atoms: C2_2  and  C3_3 
REMARK    2  A    between atoms: C3_3  and  C4_4 
REMARK    3  A    between atoms: C4_4  and  N1_5 
REMARK    4  A    between atoms: N1_5  and  C5_6 
REMARK    5  A    between atoms: C5_6  and  N2_7 
REMARK    6  A    between atoms: C8_10  and  O1_11 
REMARK    7  A    between atoms: O1_11  and  C9_12 
REMARK    8  A    between atoms: C13_18  and  O2_19 
REMARK    9  A    between atoms: C15_21  and  C16_22 
REMARK   10  A    between atoms: C16_22  and  O3_23 
ROOT
HETATM    1  C9  UNL     1      -1.809  -0.307   0.978  1.00  0.00     0.183 A 
HETATM    2  N3  UNL     1      -1.215   0.004   2.146  1.00  0.00    -0.217 NA
HETATM    3  C10 UNL     1      -2.022   0.362   3.188  1.00  0.00     0.236 A 
HETATM    4  N4  UNL     1      -3.365   0.413   3.085  1.00  0.00    -0.241 NA
HETATM    5  C11 UNL     1      -3.990   0.112   1.942  1.00  0.00     0.075 A 
HETATM    6  C12 UNL     1      -5.360   0.188   1.918  1.00  0.00     0.070 A 
HETATM    7  C13 UNL     1      -5.966  -0.138   0.700  1.00  0.00     0.079 A 
HETATM    8  C15 UNL     1      -5.236  -0.518  -0.433  1.00  0.00    -0.000 A 
HETATM    9  C18 UNL     1      -3.865  -0.561  -0.298  1.00  0.00     0.030 A 
HETATM   10  C19 UNL     1      -3.186  -0.252   0.883  1.00  0.00     0.047 A 
ENDROOT
BRANCH   1  11
HETATM   11  O1  UNL     1      -1.167  -0.690  -0.179  1.00  0.00    -0.296 OA
BRANCH  11  12
HETATM   12  C8  UNL     1       0.218  -0.784  -0.212  1.00  0.00     0.055 C 
HETATM   13  C7  UNL     1       0.926  -0.300  -1.250  1.00  0.00     0.036 C 
HETATM   14  C6  UNL     1       2.413  -0.383  -1.320  1.00  0.00     0.304 C 
HETATM   15  N2  UNL     1       3.064  -0.322  -0.052  1.00  0.00     0.120 N 
HETATM   16  C21 UNL     1       2.158  -0.312   1.082  1.00  0.00     0.281 C 
HETATM   17  C20 UNL     1       1.121  -1.397   0.828  1.00  0.00     0.095 C 
BRANCH  15  18
HETATM   18  C5  UNL     1       4.032  -1.342   0.208  1.00  0.00     0.540 C 
BRANCH  18  19
HETATM   19  N1  UNL     1       5.134  -1.399  -0.685  1.00  0.00     0.111 N 
HETATM   20  H10 UNL     1       5.740  -2.209  -0.450  1.00  0.00     0.318 HD
BRANCH  19  21
HETATM   21  C4  UNL     1       5.943  -0.230  -0.754  1.00  0.00     0.272 C 
BRANCH  21  22
HETATM   22  C3  UNL     1       6.741   0.082   0.481  1.00  0.00     0.030 C 
BRANCH  22  23
HETATM   23  C2  UNL     1       7.510   1.352   0.162  1.00  0.00    -0.003 C 
HETATM   24  C1  UNL     1       6.580   2.481  -0.165  1.00  0.00     0.005 C 
ENDBRANCH  22  23
ENDBRANCH  21  22
ENDBRANCH  19  21
ENDBRANCH  18  19
ENDBRANCH  15  18
ENDBRANCH  11  12
ENDBRANCH   1  11
BRANCH   8  25
HETATM   25  C16 UNL     1      -5.930  -0.850  -1.695  1.00  0.00     0.208 C 
BRANCH  25  26
HETATM   26  O3  UNL     1      -6.344   0.333  -2.304  1.00  0.00    -0.391 OA
HETATM   27  C17 UNL     1      -5.243   1.131  -2.573  1.00  0.00     0.201 C 
ENDBRANCH  25  26
ENDBRANCH   8  25
BRANCH   7  28
HETATM   28  O2  UNL     1      -7.356  -0.099   0.548  1.00  0.00    -0.355 OA
HETATM   29  C14 UNL     1      -8.144   0.278   1.658  1.00  0.00     0.210 C 
ENDBRANCH   7  28
TORSDOF 10
