REMARK  5 active torsions:
REMARK  status: ('A' for Active; 'I' for Inactive)
REMARK    1  A    between atoms: C2_3  and  C3_4 
REMARK    2  A    between atoms: C4_5  and  C5_6 
REMARK       I    between atoms: C5_6  and  N2_8 
REMARK    3  A    between atoms: N2_8  and  C6_9 
REMARK    4  A    between atoms: C19_24  and  C20_25 
REMARK    5  A    between atoms: C21_26  and  O3_27 
ROOT
HETATM    1  C3  UNL     1      -0.606   0.231   0.364  1.00  0.00     0.053 C 
HETATM    2  C4  UNL     1       0.034   0.491  -0.958  1.00  0.00     0.112 C 
HETATM    3  C12 UNL     1       0.264   2.003  -1.088  1.00  0.00     0.190 C 
HETATM    4  O2  UNL     1      -0.938   2.649  -1.455  1.00  0.00    -0.350 OA
HETATM    5  C13 UNL     1      -2.245   2.371  -1.165  1.00  0.00     0.075 A 
HETATM    6  C14 UNL     1      -3.032   3.389  -1.662  1.00  0.00     0.037 A 
HETATM    7  C15 UNL     1      -4.397   3.301  -1.474  1.00  0.00     0.003 A 
HETATM    8  C16 UNL     1      -4.914   2.199  -0.796  1.00  0.00     0.001 A 
HETATM    9  C17 UNL     1      -4.096   1.204  -0.315  1.00  0.00     0.011 A 
HETATM   10  C18 UNL     1      -2.708   1.267  -0.492  1.00  0.00    -0.016 A 
HETATM   11  C19 UNL     1      -2.114   0.078   0.123  1.00  0.00     0.055 C 
ENDROOT
BRANCH   2  12
HETATM   12  C5  UNL     1       1.290  -0.253  -1.198  1.00  0.00     0.229 C 
HETATM   13  O1  UNL     1       1.889  -1.091  -1.929  1.00  0.00    -0.273 OA
HETATM   14  N2  UNL     1       2.232   0.125  -0.184  1.00  0.00    -0.327 N 
HETATM   15  H7  UNL     1       2.168   0.796   0.636  1.00  0.00     0.169 HD
BRANCH  14  16
HETATM   16  C6  UNL     1       3.575  -0.281   0.056  1.00  0.00     0.034 A 
HETATM   17  C7  UNL     1       4.606   0.430  -0.541  1.00  0.00     0.031 A 
HETATM   18  C8  UNL     1       5.937   0.098  -0.356  1.00  0.00     0.021 A 
HETATM   19  C9  UNL     1       6.286  -0.963   0.436  1.00  0.00     0.011 A 
HETATM   20 BR1  UNL     1       8.121  -1.386   0.663  1.00  0.00    -0.051 Br
HETATM   21  C10 UNL     1       5.248  -1.679   1.036  1.00  0.00     0.021 A 
HETATM   22  C11 UNL     1       3.920  -1.351   0.855  1.00  0.00     0.031 A 
ENDBRANCH  14  16
ENDBRANCH   2  12
BRANCH   1  23
HETATM   23  C2  UNL     1      -0.110  -0.990   1.036  1.00  0.00     0.089 C 
HETATM   24  N1  UNL     1      -0.807  -1.528   1.951  1.00  0.00    -0.310 NA
HETATM   25  C1  UNL     1      -0.469  -2.695   2.686  1.00  0.00     0.176 C 
ENDBRANCH   1  23
BRANCH  11  26
HETATM   26  C20 UNL     1      -2.323  -1.176  -0.630  1.00  0.00     0.007 C 
HETATM   27  C21 UNL     1      -3.135  -2.113  -0.171  1.00  0.00     0.128 C 
BRANCH  27  28
HETATM   28  O3  UNL     1      -3.858  -2.052   1.007  1.00  0.00    -0.373 OA
HETATM   29  H21 UNL     1      -3.622  -2.542   1.841  1.00  0.00     0.216 HD
ENDBRANCH  27  28
ENDBRANCH  11  26
TORSDOF 5
