REMARK  4 active torsions:
REMARK  status: ('A' for Active; 'I' for Inactive)
REMARK    1  A    between atoms: C5_5  and  C6_6 
REMARK       I    between atoms: C6_6  and  N1_8 
REMARK    2  A    between atoms: N1_8  and  C7_9 
REMARK    3  A    between atoms: C10_12  and  O2_13 
REMARK    4  A    between atoms: O2_13  and  C11_14 
ROOT
HETATM    1  C7  UNL     1       1.945   0.100  -0.037  1.00  0.00     0.035 A 
HETATM    2  C8  UNL     1       1.236  -0.231   1.093  1.00  0.00     0.032 A 
HETATM    3  C9  UNL     1      -0.121  -0.083   1.168  1.00  0.00     0.039 A 
HETATM    4  C10 UNL     1      -0.836   0.405   0.110  1.00  0.00     0.075 A 
HETATM    5  C20 UNL     1      -0.092   0.737  -1.035  1.00  0.00     0.039 A 
HETATM    6  C21 UNL     1       1.296   0.593  -1.128  1.00  0.00     0.032 A 
ENDROOT
BRANCH   4   7
HETATM    7  O2  UNL     1      -2.083   0.632  -0.071  1.00  0.00    -0.313 OA
BRANCH   7   8
HETATM    8  C11 UNL     1      -3.331   0.860  -0.251  1.00  0.00     0.076 C 
HETATM    9  C12 UNL     1      -3.948  -0.096   0.428  1.00  0.00    -0.035 C 
HETATM   10  C13 UNL     1      -3.731  -0.832   1.708  1.00  0.00     0.067 C 
HETATM   11  C18 UNL     1      -5.320  -0.743   0.167  1.00  0.00     0.070 C 
HETATM   12  C14 UNL     1      -5.124  -0.475   2.326  1.00  0.00     0.011 C 
HETATM   13  C15 UNL     1      -5.806   0.176   1.331  1.00  0.00     0.059 C 
HETATM   14  O3  UNL     1      -6.688   1.253   0.934  1.00  0.00    -0.308 OA
HETATM   15  C16 UNL     1      -6.239   2.414   0.130  1.00  0.00     0.252 C 
HETATM   16  N2  UNL     1      -5.215   2.479  -0.702  1.00  0.00    -0.271 NA
HETATM   17  C17 UNL     1      -3.945   1.970  -1.054  1.00  0.00     0.215 C 
HETATM   18  C19 UNL     1      -5.327  -2.168   0.493  1.00  0.00     0.022 C 
ENDBRANCH   7   8
ENDBRANCH   4   7
BRANCH   1  19
HETATM   19  N1  UNL     1       3.335  -0.122   0.056  1.00  0.00    -0.323 N 
HETATM   20  C6  UNL     1       4.358   0.117  -0.900  1.00  0.00     0.257 C 
HETATM   21  O1  UNL     1       4.047   0.597  -2.010  1.00  0.00    -0.267 OA
HETATM   22  H5  UNL     1       3.776  -0.527   0.937  1.00  0.00     0.169 HD
BRANCH  20  23
HETATM   23  C5  UNL     1       5.762  -0.177  -0.642  1.00  0.00     0.050 A 
HETATM   24  C4  UNL     1       6.345  -0.729   0.556  1.00  0.00     0.019 A 
HETATM   25  C3  UNL     1       7.660  -0.888   0.502  1.00  0.00     0.013 A 
HETATM   26  C2  UNL     1       8.002  -0.408  -0.831  1.00  0.00    -0.027 A 
HETATM   27  C1  UNL     1       9.231  -0.384  -1.320  1.00  0.00     0.025 C 
HETATM   28  C22 UNL     1       6.773   0.013  -1.473  1.00  0.00     0.036 A 
HETATM   29 BR1  UNL     1       6.580   0.734  -3.232  1.00  0.00    -0.049 Br
ENDBRANCH  20  23
ENDBRANCH   1  19
TORSDOF 4
