REMARK  5 active torsions:
REMARK  status: ('A' for Active; 'I' for Inactive)
REMARK    1  A    between atoms: B1_1  and  C1_2 
REMARK    2  A    between atoms: C2_3  and  O1_4 
REMARK    3  A    between atoms: C7_11  and  O2_12 
REMARK    4  A    between atoms: O2_12  and  C8_13 
REMARK       I    between atoms: N3_18  and  C13_19 
REMARK       I    between atoms: C13_19  and  N4_21 
REMARK    5  A    between atoms: N4_21  and  C14_22 
ROOT
HETATM    1  C8  UNL     1       1.162   1.071  -1.880  1.00  0.00     0.131 A 
HETATM    2  C9  UNL     1       1.288   2.354  -2.696  1.00  0.00     0.085 A 
HETATM    3  C10 UNL     1       1.257   3.031  -1.652  1.00  0.00    -0.013 A 
HETATM    4  C11 UNL     1       1.767   1.594  -2.018  1.00  0.00     0.077 A 
HETATM    5  C12 UNL     1       2.153   0.327  -2.604  1.00  0.00     0.076 A 
HETATM    6  N3  UNL     1       2.275   0.977  -0.946  1.00  0.00    -0.186 NA
HETATM    7  C13 UNL     1       2.490   0.029   0.142  1.00  0.00     0.304 C 
HETATM    8  O3  UNL     1       3.502   0.386   0.858  1.00  0.00    -0.253 OA
HETATM    9  N4  UNL     1       1.849  -1.147   0.551  1.00  0.00    -0.313 N 
HETATM   10  H10 UNL     1       1.054  -1.370  -0.061  1.00  0.00     0.170 HD
ENDROOT
BRANCH   1  11
HETATM   11  O2  UNL     1      -0.062   0.619  -1.626  1.00  0.00    -0.306 OA
BRANCH  11  12
HETATM   12  C7  UNL     1      -1.015   1.256  -0.913  1.00  0.00     0.179 A 
HETATM   13  N2  UNL     1      -1.070   2.390  -0.226  1.00  0.00    -0.217 NA
HETATM   14  C6  UNL     1      -2.113   2.895   0.438  1.00  0.00     0.236 A 
HETATM   15  N1  UNL     1      -3.268   2.240   0.457  1.00  0.00    -0.241 NA
HETATM   16  C5  UNL     1      -3.369   1.053  -0.205  1.00  0.00     0.075 A 
HETATM   17  C4  UNL     1      -4.508   0.177  -0.344  1.00  0.00     0.069 A 
HETATM   18  C20 UNL     1      -2.244   0.606  -0.864  1.00  0.00     0.043 A 
HETATM   19  C2  UNL     1      -4.162  -0.867  -1.098  1.00  0.00     0.065 A 
HETATM   20  C1  UNL     1      -2.767  -0.641  -1.440  1.00  0.00    -0.064 A 
BRANCH  19  21
HETATM   21  O1  UNL     1      -4.966  -1.928  -1.473  1.00  0.00    -0.356 OA
HETATM   22  C3  UNL     1      -6.104  -2.292  -0.732  1.00  0.00     0.210 C 
ENDBRANCH  19  21
BRANCH  20  23
HETATM   23  B1  UNL     1      -1.948  -1.837  -2.449  1.00  0.00     0.163 B 
HETATM   24  H1  UNL     1      -0.770  -2.527  -3.273  1.00  0.00    -0.030 HD
ENDBRANCH  20  23
ENDBRANCH  11  12
ENDBRANCH   1  11
BRANCH   9  25
HETATM   25  C14 UNL     1       2.672  -1.470   1.690  1.00  0.00     0.035 A 
HETATM   26  C15 UNL     1       2.416  -1.086   2.963  1.00  0.00     0.031 A 
HETATM   27  C16 UNL     1       3.210  -1.375   4.047  1.00  0.00     0.021 A 
HETATM   28  C17 UNL     1       4.331  -2.128   3.661  1.00  0.00     0.011 A 
HETATM   29 BR1  UNL     1       5.552  -2.600   5.077  1.00  0.00    -0.051 Br
HETATM   30  C18 UNL     1       4.698  -2.576   2.421  1.00  0.00     0.021 A 
HETATM   31  C19 UNL     1       3.799  -2.209   1.410  1.00  0.00     0.031 A 
ENDBRANCH   9  25
TORSDOF 5
