REMARK  7 active torsions:
REMARK  status: ('A' for Active; 'I' for Inactive)
REMARK    1  A    between atoms: O1_2  and  C2_3 
REMARK    2  A    between atoms: C2_3  and  C3_4 
REMARK    3  A    between atoms: C8_10  and  C9_11 
REMARK    4  A    between atoms: C9_11  and  O2_12 
REMARK    5  A    between atoms: O2_12  and  C10_13 
REMARK    6  A    between atoms: C13_16  and  N2_17 
REMARK       I    between atoms: N2_17  and  C14_18 
REMARK       I    between atoms: C14_18  and  N3_20 
REMARK    7  A    between atoms: N3_20  and  C15_21 
ROOT
HETATM    1  C10 UNL     1      -0.485   0.986  -0.068  1.00  0.00     0.069 A 
HETATM    2  C11 UNL     1      -0.474  -0.379   0.128  1.00  0.00     0.039 A 
HETATM    3  C12 UNL     1       0.701  -1.087   0.215  1.00  0.00     0.032 A 
HETATM    4  C13 UNL     1       1.930  -0.480   0.112  1.00  0.00     0.036 A 
HETATM    5  C21 UNL     1       1.874   0.878  -0.083  1.00  0.00     0.032 A 
HETATM    6  C22 UNL     1       0.727   1.635  -0.178  1.00  0.00     0.039 A 
ENDROOT
BRANCH   4   7
HETATM    7  N2  UNL     1       3.098  -1.268   0.210  1.00  0.00    -0.309 N 
HETATM    8  C14 UNL     1       4.455  -0.905   0.140  1.00  0.00     0.325 C 
HETATM    9  O3  UNL     1       4.745   0.302  -0.038  1.00  0.00    -0.247 OA
HETATM   10  N3  UNL     1       5.547  -1.793   0.254  1.00  0.00    -0.309 N 
HETATM   11  H16 UNL     1       5.342  -2.809   0.403  1.00  0.00     0.170 HD
HETATM   12  H15 UNL     1       2.998  -2.300   0.360  1.00  0.00     0.170 HD
BRANCH  10  13
HETATM   13  C15 UNL     1       6.871  -1.281   0.163  1.00  0.00     0.036 A 
HETATM   14  C16 UNL     1       7.454  -0.883   1.371  1.00  0.00     0.031 A 
HETATM   15  C17 UNL     1       8.746  -0.377   1.332  1.00  0.00     0.021 A 
HETATM   16  C18 UNL     1       9.471  -0.251   0.172  1.00  0.00     0.011 A 
HETATM   17 BR1  UNL     1      11.256   0.458   0.198  1.00  0.00    -0.051 Br
HETATM   18  C19 UNL     1       8.879  -0.651  -1.012  1.00  0.00     0.021 A 
HETATM   19  C20 UNL     1       7.595  -1.158  -1.007  1.00  0.00     0.031 A 
ENDBRANCH  10  13
ENDBRANCH   4   7
BRANCH   1  20
HETATM   20  O2  UNL     1      -1.703   1.647  -0.148  1.00  0.00    -0.345 OA
BRANCH  20  21
HETATM   21  C9  UNL     1      -2.883   0.888  -0.023  1.00  0.00     0.235 C 
BRANCH  21  22
HETATM   22  C8  UNL     1      -4.106   1.689  -0.123  1.00  0.00     0.063 A 
HETATM   23  C4  UNL     1      -5.414   1.058  -0.015  1.00  0.00    -0.012 A 
HETATM   24  C3  UNL     1      -5.486  -0.246   0.173  1.00  0.00     0.012 C 
HETATM   25  C5  UNL     1      -6.567   1.933  -0.126  1.00  0.00     0.011 A 
HETATM   26  C6  UNL     1      -6.409   3.231  -0.315  1.00  0.00    -0.004 A 
HETATM   27  C7  UNL     1      -5.086   3.887  -0.427  1.00  0.00     0.176 A 
HETATM   28  N1  UNL     1      -3.987   2.950  -0.306  1.00  0.00    -0.287 NA
BRANCH  24  29
HETATM   29  C2  UNL     1      -6.672  -1.106   0.313  1.00  0.00     0.195 C 
BRANCH  29  30
HETATM   30  O1  UNL     1      -6.761  -2.087  -0.646  1.00  0.00    -0.392 OA
HETATM   31  C1  UNL     1      -5.686  -2.966  -0.650  1.00  0.00     0.201 C 
ENDBRANCH  29  30
ENDBRANCH  24  29
ENDBRANCH  21  22
ENDBRANCH  20  21
ENDBRANCH   1  20
TORSDOF 7
