REMARK  8 active torsions:
REMARK  status: ('A' for Active; 'I' for Inactive)
REMARK    1  A    between atoms: O1_2  and  C2_3 
REMARK    2  A    between atoms: C6_9  and  O2_10 
REMARK    3  A    between atoms: O2_10  and  C7_11 
REMARK    4  A    between atoms: C9_13  and  O3_14 
REMARK    5  A    between atoms: N3_15  and  C10_16 
REMARK    6  A    between atoms: C10_16  and  N4_18 
REMARK    7  A    between atoms: N4_18  and  C11_19 
REMARK    8  A    between atoms: C21_30  and  O4_31 
ROOT
HETATM    1  C7  UNL     1       0.211   0.214  -0.826  1.00  0.00     0.079 A 
HETATM    2  C8  UNL     1      -0.587   1.214  -0.491  1.00  0.00     0.063 A 
HETATM    3  C9  UNL     1      -2.063   1.353  -0.499  1.00  0.00     0.250 A 
HETATM    4  N3  UNL     1      -2.623   0.107  -0.981  1.00  0.00    -0.314 N 
HETATM    5  C17 UNL     1      -1.835  -1.015  -1.361  1.00  0.00     0.096 A 
HETATM    6  C18 UNL     1      -0.517  -0.959  -1.287  1.00  0.00     0.054 A 
ENDROOT
BRANCH   1   7
HETATM    7  O2  UNL     1       1.596   0.258  -0.754  1.00  0.00    -0.291 OA
BRANCH   7   8
HETATM    8  C6  UNL     1       2.208  -0.322   0.350  1.00  0.00     0.183 A 
HETATM    9  N2  UNL     1       1.552  -0.937   1.378  1.00  0.00    -0.217 NA
HETATM   10  C5  UNL     1       2.293  -1.458   2.390  1.00  0.00     0.236 A 
HETATM   11  N1  UNL     1       3.639  -1.390   2.414  1.00  0.00    -0.241 NA
HETATM   12  C4  UNL     1       4.312  -0.785   1.404  1.00  0.00     0.075 A 
HETATM   13  C3  UNL     1       5.691  -0.716   1.431  1.00  0.00     0.072 A 
HETATM   14  C19 UNL     1       3.598  -0.235   0.345  1.00  0.00     0.049 A 
HETATM   15  C2  UNL     1       6.401  -0.098   0.402  1.00  0.00     0.103 A 
HETATM   16  C21 UNL     1       5.678   0.443  -0.642  1.00  0.00     0.102 A 
HETATM   17  C20 UNL     1       4.297   0.380  -0.679  1.00  0.00     0.057 A 
BRANCH  15  18
HETATM   18  O1  UNL     1       7.789  -0.023   0.418  1.00  0.00    -0.353 OA
HETATM   19  C1  UNL     1       8.434  -0.610   1.538  1.00  0.00     0.210 C 
ENDBRANCH  15  18
BRANCH  16  20
HETATM   20  O4  UNL     1       6.372   1.056  -1.663  1.00  0.00    -0.353 OA
HETATM   21  C22 UNL     1       5.777   1.647  -2.785  1.00  0.00     0.210 C 
ENDBRANCH  16  20
ENDBRANCH   7   8
ENDBRANCH   1   7
BRANCH   3  22
HETATM   22  O3  UNL     1      -2.429   1.611   0.826  1.00  0.00    -0.373 OA
HETATM   23  H8  UNL     1      -1.952   1.019   1.459  1.00  0.00     0.212 HD
ENDBRANCH   3  22
BRANCH   4  24
HETATM   24  C10 UNL     1      -4.076  -0.027  -1.094  1.00  0.00     0.379 C 
HETATM   25  F1  UNL     1      -4.419  -1.274  -1.598  1.00  0.00    -0.203 F 
BRANCH  24  26
HETATM   26  N4  UNL     1      -4.651   0.033   0.252  1.00  0.00    -0.343 N 
HETATM   27  H10 UNL     1      -4.179   0.131   1.200  1.00  0.00     0.164 HD
BRANCH  26  28
HETATM   28  C11 UNL     1      -6.076  -0.054   0.323  1.00  0.00     0.033 A 
HETATM   29  C12 UNL     1      -6.870  -0.182  -0.801  1.00  0.00     0.029 A 
HETATM   30  C13 UNL     1      -8.245  -0.270  -0.780  1.00  0.00     0.004 A 
HETATM   31  C14 UNL     1      -8.890  -0.230   0.438  1.00  0.00     0.024 A 
HETATM   32  C15 UNL     1      -8.152  -0.104   1.597  1.00  0.00     0.036 A 
HETATM   33 CL1  UNL     1      -8.966  -0.051   3.162  1.00  0.00    -0.084 Cl
HETATM   34  C16 UNL     1      -6.795  -0.022   1.500  1.00  0.00     0.053 A 
ENDBRANCH  26  28
ENDBRANCH  24  26
ENDBRANCH   4  24
TORSDOF 8
