REMARK  7 active torsions:
REMARK  status: ('A' for Active; 'I' for Inactive)
REMARK    1  A    between atoms: C2_2  and  C3_3 
REMARK    2  A    between atoms: C3_3  and  N3_14 
REMARK    3  A    between atoms: C4_4  and  C5_5 
REMARK    4  A    between atoms: C6_6  and  O1_7 
REMARK    5  A    between atoms: O1_7  and  C7_8 
REMARK       I    between atoms: N3_14  and  C11_15 
REMARK       I    between atoms: C11_15  and  N4_17 
REMARK    6  A    between atoms: N4_17  and  C12_18 
REMARK    7  A    between atoms: C12_18  and  C13_19 
ROOT
HETATM    1  C3  UNL     1       0.172  -1.129   0.868  1.00  0.00     0.018 C 
HETATM    2  C4  UNL     1       1.330  -1.202   1.457  1.00  0.00     0.073 C 
ENDROOT
BRANCH   1   3
HETATM    3  C2  UNL     1       0.698   0.081   0.195  1.00  0.00    -0.001 C 
HETATM    4  C1  UNL     1       0.046   0.834  -0.673  1.00  0.00     0.033 C 
ENDBRANCH   1   3
BRANCH   1   5
HETATM    5  N3  UNL     1      -1.172  -1.408   0.457  1.00  0.00    -0.312 N 
HETATM    6  C11 UNL     1      -2.177  -0.461   0.692  1.00  0.00     0.320 C 
HETATM    7  O2  UNL     1      -2.003   0.653   1.247  1.00  0.00    -0.247 OA
HETATM    8  N4  UNL     1      -3.462  -0.860   0.244  1.00  0.00    -0.340 N 
HETATM    9  H11 UNL     1      -3.596  -1.806  -0.222  1.00  0.00     0.164 HD
HETATM   10  H10 UNL     1      -1.283  -2.337  -0.003  1.00  0.00     0.170 HD
BRANCH   8  11
HETATM   11  C12 UNL     1      -4.607   0.010   0.415  1.00  0.00     0.161 C 
BRANCH  11  12
HETATM   12  C13 UNL     1      -4.472   1.342  -0.275  1.00  0.00     0.183 C 
HETATM   13  C14 UNL     1      -4.290   1.218  -1.760  1.00  0.00     0.046 C 
HETATM   14  F1  UNL     1      -5.709   1.973  -0.100  1.00  0.00    -0.248 F 
ENDBRANCH  11  12
ENDBRANCH   8  11
ENDBRANCH   1   5
BRANCH   2  15
HETATM   15  C5  UNL     1       2.076  -2.002   2.406  1.00  0.00     0.010 C 
HETATM   16  C6  UNL     1       3.166  -1.233   2.332  1.00  0.00     0.141 C 
BRANCH  16  17
HETATM   17  O1  UNL     1       3.679  -0.105   1.718  1.00  0.00    -0.304 OA
BRANCH  17  18
HETATM   18  C7  UNL     1       4.072  -0.071   0.376  1.00  0.00     0.171 A 
HETATM   19  C8  UNL     1       4.563   1.125  -0.091  1.00  0.00     0.077 A 
HETATM   20  C9  UNL     1       4.975   1.261  -1.395  1.00  0.00     0.122 A 
HETATM   21  N1  UNL     1       4.870   0.176  -2.164  1.00  0.00    -0.254 NA
HETATM   22  C10 UNL     1       4.396  -1.017  -1.753  1.00  0.00     0.235 A 
HETATM   23  N2  UNL     1       4.003  -1.112  -0.472  1.00  0.00    -0.218 NA
ENDBRANCH  17  18
ENDBRANCH  16  17
ENDBRANCH   2  15
TORSDOF 7
