REMARK  6 active torsions:
REMARK  status: ('A' for Active; 'I' for Inactive)
REMARK    1  A    between atoms: C2_2  and  O1_3 
REMARK    2  A    between atoms: C2_2  and  C4_5 
REMARK    3  A    between atoms: C4_5  and  O2_6 
REMARK    4  A    between atoms: C4_5  and  C6_8 
REMARK    5  A    between atoms: C8_10  and  O3_11 
REMARK    6  A    between atoms: O3_11  and  C9_12 
ROOT
HETATM    1  C9  UNL     1      -1.377  -0.494  -0.652  1.00  0.00     0.188 C 
HETATM    2  C10 UNL     1      -1.838  -1.250  -1.850  1.00  0.00     0.006 C 
HETATM    3  C11 UNL     1      -3.070  -1.477  -2.352  1.00  0.00    -0.026 C 
HETATM    4  C12 UNL     1      -4.517  -1.287  -2.255  1.00  0.00     0.046 C 
HETATM    5  C13 UNL     1      -4.952  -0.055  -1.503  1.00  0.00     0.123 C 
HETATM    6  N1  UNL     1      -4.815  -0.312  -0.070  1.00  0.00    -0.389 N 
HETATM    7  C14 UNL     1      -3.684  -0.593   0.745  1.00  0.00     0.038 A 
HETATM    8  C15 UNL     1      -4.171  -0.829   2.033  1.00  0.00     0.053 A 
HETATM    9  C16 UNL     1      -3.329  -1.133   3.075  1.00  0.00     0.036 A 
HETATM   10 CL1  UNL     1      -3.937  -1.430   4.706  1.00  0.00    -0.084 Cl
HETATM   11  C17 UNL     1      -1.951  -1.217   2.892  1.00  0.00     0.024 A 
HETATM   12  C18 UNL     1      -1.542  -0.974   1.604  1.00  0.00     0.014 A 
HETATM   13  C19 UNL     1      -2.316  -0.661   0.492  1.00  0.00     0.001 A 
HETATM   14  H18 UNL     1      -5.686  -0.292   0.470  1.00  0.00     0.159 HD
ENDROOT
BRANCH   1  15
HETATM   15  O3  UNL     1      -1.114   0.865  -0.913  1.00  0.00    -0.320 OA
BRANCH  15  16
HETATM   16  C8  UNL     1       0.068   1.530  -0.759  1.00  0.00     0.168 A 
HETATM   17  C7  UNL     1       1.272   1.038  -0.319  1.00  0.00     0.088 A 
HETATM   18  C6  UNL     1       2.403   1.814  -0.205  1.00  0.00     0.075 A 
HETATM   19  N3  UNL     1       2.272   3.099  -0.548  1.00  0.00    -0.243 NA
HETATM   20  C20 UNL     1       1.104   3.620  -0.985  1.00  0.00     0.236 A 
HETATM   21  N2  UNL     1       0.000   2.852  -1.095  1.00  0.00    -0.218 NA
BRANCH  18  22
HETATM   22  C4  UNL     1       3.722   1.334   0.261  1.00  0.00     0.228 C 
BRANCH  22  23
HETATM   23  C2  UNL     1       3.780  -0.093   0.591  1.00  0.00     0.071 C 
HETATM   24  C1  UNL     1       4.295  -0.387   1.783  1.00  0.00     0.049 C 
BRANCH  23  25
HETATM   25  O1  UNL     1       3.343  -1.114  -0.239  1.00  0.00    -0.358 OA
HETATM   26  C3  UNL     1       3.588  -2.465   0.004  1.00  0.00     0.209 C 
ENDBRANCH  23  25
ENDBRANCH  22  23
BRANCH  22  27
HETATM   27  O2  UNL     1       4.280   2.175   1.218  1.00  0.00    -0.378 OA
HETATM   28  C5  UNL     1       5.404   2.844   0.824  1.00  0.00     0.203 C 
ENDBRANCH  22  27
ENDBRANCH  18  22
ENDBRANCH  15  16
ENDBRANCH   1  15
TORSDOF 6
