REMARK  4 active torsions:
REMARK  status: ('A' for Active; 'I' for Inactive)
REMARK    1  A    between atoms: O1_2  and  C2_3 
REMARK    2  A    between atoms: C2_3  and  C3_4 
REMARK    3  A    between atoms: C5_6  and  C6_7 
REMARK    4  A    between atoms: B1_25  and  O2_26 
ROOT
HETATM    1  C6  UNL     1       1.091  -0.381   0.667  1.00  0.00     0.074 C 
HETATM    2  C7  UNL     1       0.215   0.517   1.219  1.00  0.00    -0.030 C 
HETATM    3  C8  UNL     1      -0.240   0.680   2.694  1.00  0.00     0.148 C 
HETATM    4  N1  UNL     1      -1.425  -0.246   2.722  1.00  0.00    -0.381 N 
HETATM    5  C9  UNL     1      -1.552  -0.981   1.500  1.00  0.00     0.112 A 
HETATM    6  C10 UNL     1      -0.721  -1.884   0.670  1.00  0.00     0.200 A 
HETATM    7  N2  UNL     1      -1.066  -2.613  -0.395  1.00  0.00    -0.215 NA
HETATM    8  C11 UNL     1      -2.268  -2.662  -0.971  1.00  0.00     0.236 A 
HETATM    9  N3  UNL     1      -3.287  -1.833  -0.382  1.00  0.00    -0.239 NA
HETATM   10  C12 UNL     1      -2.599  -1.251   0.669  1.00  0.00     0.099 A 
HETATM   11  C13 UNL     1      -3.176   0.104   0.108  1.00  0.00    -0.005 A 
HETATM   12  C14 UNL     1      -4.454   0.236  -0.185  1.00  0.00     0.035 A 
HETATM   13  C15 UNL     1      -4.694   1.427  -0.808  1.00  0.00     0.050 A 
HETATM   14 BR1  UNL     1      -6.566   1.579  -1.220  1.00  0.00    -0.048 Br
HETATM   15  C16 UNL     1      -3.722   2.357  -1.088  1.00  0.00     0.133 A 
HETATM   16  F1  UNL     1      -4.213   3.475  -1.722  1.00  0.00    -0.205 F 
HETATM   17  C17 UNL     1      -2.397   2.266  -0.805  1.00  0.00     0.043 A 
HETATM   18  C18 UNL     1      -2.081   1.109  -0.183  1.00  0.00    -0.044 A 
HETATM   19  B1  UNL     1      -0.450   1.331   0.012  1.00  0.00     0.401 B 
HETATM   20  O3  UNL     1       0.652  -1.745   1.244  1.00  0.00    -0.291 OA
HETATM   21  H12 UNL     1      -2.041  -0.341   3.522  1.00  0.00     0.160 HD
ENDROOT
BRANCH   1  22
HETATM   22  C5  UNL     1       1.814   0.576  -0.073  1.00  0.00     0.041 C 
HETATM   23  C3  UNL     1       2.801   0.042  -0.787  1.00  0.00    -0.058 C 
HETATM   24  C4  UNL     1       3.752   0.751  -1.669  1.00  0.00     0.046 C 
BRANCH  23  25
HETATM   25  C2  UNL     1       3.131  -1.421  -0.819  1.00  0.00     0.201 C 
BRANCH  25  26
HETATM   26  O1  UNL     1       4.461  -1.513  -0.351  1.00  0.00    -0.392 OA
HETATM   27  C1  UNL     1       4.561  -1.012   0.927  1.00  0.00     0.201 C 
ENDBRANCH  25  26
ENDBRANCH  23  25
ENDBRANCH   1  22
BRANCH  19  28
HETATM   28  O2  UNL     1      -0.032   0.889  -1.317  1.00  0.00    -0.454 OA
HETATM   29  H16 UNL     1       0.136   1.684  -1.872  1.00  0.00     0.183 HD
ENDBRANCH  19  28
TORSDOF 4
