REMARK  4 active torsions:
REMARK  status: ('A' for Active; 'I' for Inactive)
REMARK    1  A    between atoms: C2_2  and  O1_3 
REMARK    2  A    between atoms: C2_2  and  C4_5 
REMARK    3  A    between atoms: C4_5  and  O3_24 
REMARK    4  A    between atoms: C5_6  and  C6_7 
ROOT
HETATM    1  C6  UNL     1      -0.410   0.238  -0.513  1.00  0.00     0.051 C 
HETATM    2  C7  UNL     1      -0.623  -1.087   0.271  1.00  0.00    -0.024 A 
HETATM    3  C8  UNL     1      -1.742  -1.534   0.930  1.00  0.00     0.057 A 
HETATM    4  C9  UNL     1      -2.858  -2.132   1.683  1.00  0.00     0.059 A 
HETATM    5  C10 UNL     1      -1.760  -2.924   1.799  1.00  0.00     0.071 A 
HETATM    6  C11 UNL     1      -0.433  -3.026   1.410  1.00  0.00     0.057 A 
HETATM    7 CL1  UNL     1       0.473  -4.448   1.974  1.00  0.00    -0.085 Cl
HETATM    8  C12 UNL     1       0.236  -2.114   0.619  1.00  0.00     0.138 A 
HETATM    9  F1  UNL     1       1.483  -2.023   0.183  1.00  0.00    -0.204 F 
HETATM   10  N1  UNL     1      -3.434  -1.022   1.303  1.00  0.00    -0.335 N 
HETATM   11  C13 UNL     1      -4.052   0.168   0.895  1.00  0.00     0.298 C 
HETATM   12  O2  UNL     1      -5.043  -0.183   0.598  1.00  0.00    -0.254 OA
HETATM   13  N2  UNL     1      -3.415   1.451   0.909  1.00  0.00    -0.221 NA
HETATM   14  C14 UNL     1      -3.043   2.744   0.804  1.00  0.00     0.063 C 
HETATM   15  C15 UNL     1      -1.707   2.477   0.420  1.00  0.00    -0.010 C 
HETATM   16  C16 UNL     1      -1.128   1.186   0.255  1.00  0.00     0.017 C 
HETATM   17  C17 UNL     1      -0.787   0.860   1.684  1.00  0.00     0.015 C 
HETATM   18  H10 UNL     1      -4.067  -1.912   1.379  1.00  0.00     0.194 HD
HETATM   19  H11 UNL     1      -4.264   1.843   0.379  1.00  0.00     0.137 HD
ENDROOT
BRANCH   1  20
HETATM   20  C5  UNL     1       1.012   0.415  -0.724  1.00  0.00     0.022 C 
HETATM   21  C4  UNL     1       1.921  -0.022  -1.580  1.00  0.00     0.097 C 
BRANCH  21  22
HETATM   22  C2  UNL     1       3.296   0.489  -1.337  1.00  0.00     0.091 C 
HETATM   23  C1  UNL     1       4.310   0.124  -2.122  1.00  0.00     0.053 C 
BRANCH  22  24
HETATM   24  O1  UNL     1       3.585   1.374  -0.278  1.00  0.00    -0.354 OA
HETATM   25  C3  UNL     1       4.101   0.966   0.954  1.00  0.00     0.210 C 
ENDBRANCH  22  24
ENDBRANCH  21  22
BRANCH  21  26
HETATM   26  O3  UNL     1       1.768  -0.871  -2.643  1.00  0.00    -0.353 OA
HETATM   27  C18 UNL     1       1.752  -0.258  -3.946  1.00  0.00     0.210 C 
ENDBRANCH  21  26
ENDBRANCH   1  20
TORSDOF 4
