REMARK  4 active torsions:
REMARK  status: ('A' for Active; 'I' for Inactive)
REMARK    1  A    between atoms: O1_2  and  C2_3 
REMARK    2  A    between atoms: C6_9  and  C7_10 
REMARK    3  A    between atoms: C17_22  and  O2_23 
REMARK    4  A    between atoms: C20_27  and  O3_28 
ROOT
HETATM    1  C7  UNL     1      -0.145  -0.294  -0.759  1.00  0.00    -0.005 A 
HETATM    2  C8  UNL     1      -0.462   1.016  -0.472  1.00  0.00     0.016 A 
HETATM    3  C9  UNL     1      -1.684   1.287   0.165  1.00  0.00     0.031 A 
HETATM    4  C10 UNL     1      -2.628   0.310   0.539  1.00  0.00     0.044 A 
HETATM    5  C11 UNL     1      -2.333  -0.975   0.265  1.00  0.00     0.029 A 
HETATM    6  C12 UNL     1      -1.117  -1.209  -0.365  1.00  0.00     0.030 A 
HETATM    7  C13 UNL     1      -3.106  -2.183   0.512  1.00  0.00     0.126 C 
HETATM    8  F1  UNL     1      -2.442  -3.401   0.426  1.00  0.00    -0.205 F 
HETATM    9  C14 UNL     1      -4.372  -2.384   0.837  1.00  0.00     0.027 C 
HETATM   10  C15 UNL     1      -5.096  -1.094   0.967  1.00  0.00     0.062 C 
HETATM   11  C16 UNL     1      -6.332  -0.616   1.250  1.00  0.00     0.069 C 
HETATM   12  N3  UNL     1      -6.003   0.794   1.129  1.00  0.00    -0.360 N 
HETATM   13  C17 UNL     1      -4.948   1.634   0.678  1.00  0.00     0.326 C 
HETATM   14  N4  UNL     1      -3.613   1.205   1.099  1.00  0.00    -0.347 N 
HETATM   15  H12 UNL     1      -6.789   1.431   1.488  1.00  0.00     0.162 HD
HETATM   16  H15 UNL     1      -3.390   1.693   2.023  1.00  0.00     0.164 HD
ENDROOT
BRANCH   1  17
HETATM   17  C6  UNL     1       1.089  -0.751  -1.386  1.00  0.00     0.081 A 
HETATM   18  N2  UNL     1       0.862  -1.547  -2.453  1.00  0.00    -0.240 NA
HETATM   19  C5  UNL     1       1.878  -2.071  -3.163  1.00  0.00     0.234 A 
HETATM   20  N1  UNL     1       3.170  -1.824  -2.838  1.00  0.00    -0.241 NA
HETATM   21  C4  UNL     1       3.421  -1.040  -1.786  1.00  0.00     0.073 A 
HETATM   22  C3  UNL     1       4.699  -0.722  -1.346  1.00  0.00     0.072 A 
HETATM   23  C18 UNL     1       2.397  -0.493  -1.044  1.00  0.00     0.025 A 
HETATM   24  C2  UNL     1       4.887   0.095  -0.227  1.00  0.00     0.103 A 
HETATM   25  C20 UNL     1       3.823   0.616   0.480  1.00  0.00     0.102 A 
HETATM   26  C19 UNL     1       2.558   0.313   0.060  1.00  0.00     0.055 A 
BRANCH  24  27
HETATM   27  O1  UNL     1       6.188   0.366   0.148  1.00  0.00    -0.353 OA
HETATM   28  C1  UNL     1       7.274  -0.162  -0.570  1.00  0.00     0.210 C 
ENDBRANCH  24  27
BRANCH  25  29
HETATM   29  O3  UNL     1       4.137   1.413   1.572  1.00  0.00    -0.353 OA
HETATM   30  C21 UNL     1       3.184   2.029   2.410  1.00  0.00     0.210 C 
ENDBRANCH  25  29
ENDBRANCH   1  17
BRANCH  13  31
HETATM   31  O2  UNL     1      -5.164   2.961   0.949  1.00  0.00    -0.360 OA
HETATM   32  H14 UNL     1      -5.543   3.492   0.224  1.00  0.00     0.214 HD
ENDBRANCH  13  31
TORSDOF 4
