REMARK  4 active torsions:
REMARK  status: ('A' for Active; 'I' for Inactive)
REMARK    1  A    between atoms: O1_2  and  C2_3 
REMARK    2  A    between atoms: C11_15  and  N3_16 
REMARK       I    between atoms: N3_16  and  C12_17 
REMARK       I    between atoms: C12_17  and  N4_19 
REMARK    3  A    between atoms: N4_19  and  C13_20 
REMARK    4  A    between atoms: C21_30  and  O4_31 
ROOT
HETATM    1  C2  UNL     1      -3.600   0.945  -0.238  1.00  0.00     0.080 C 
HETATM    2  C3  UNL     1      -4.439  -0.011  -0.602  1.00  0.00     0.052 C 
HETATM    3  C4  UNL     1      -4.712  -1.381  -0.185  1.00  0.00     0.037 A 
HETATM    4  C5  UNL     1      -6.009  -1.712  -0.513  1.00  0.00     0.134 A 
HETATM    5  N1  UNL     1      -6.509  -2.931  -0.233  1.00  0.00    -0.253 NA
HETATM    6  C6  UNL     1      -5.720  -3.843   0.381  1.00  0.00     0.235 A 
HETATM    7  N2  UNL     1      -4.442  -3.540   0.712  1.00  0.00    -0.217 NA
HETATM    8  C7  UNL     1      -3.908  -2.335   0.449  1.00  0.00     0.182 A 
HETATM    9  O2  UNL     1      -2.571  -2.332   0.912  1.00  0.00    -0.290 OA
HETATM   10  C8  UNL     1      -1.497  -1.435   0.712  1.00  0.00     0.087 A 
HETATM   11  C9  UNL     1      -0.346  -2.174   0.551  1.00  0.00     0.040 A 
HETATM   12  C10 UNL     1       0.801  -1.443   0.344  1.00  0.00     0.032 A 
HETATM   13  C11 UNL     1       0.873  -0.075   0.289  1.00  0.00     0.037 A 
HETATM   14  C19 UNL     1      -0.320   0.584   0.460  1.00  0.00     0.042 A 
HETATM   15  C20 UNL     1      -1.517  -0.057   0.672  1.00  0.00     0.013 A 
HETATM   16  C21 UNL     1      -2.529   1.018   0.806  1.00  0.00     0.213 C 
ENDROOT
BRANCH  13  17
HETATM   17  N3  UNL     1       2.024   0.715   0.080  1.00  0.00    -0.309 N 
HETATM   18  C12 UNL     1       3.364   0.325  -0.123  1.00  0.00     0.325 C 
HETATM   19  O3  UNL     1       3.632  -0.901  -0.128  1.00  0.00    -0.247 OA
HETATM   20  N4  UNL     1       4.462   1.176  -0.326  1.00  0.00    -0.309 N 
HETATM   21  H10 UNL     1       4.271   2.222  -0.328  1.00  0.00     0.170 HD
HETATM   22  H9  UNL     1       1.954   1.755   0.058  1.00  0.00     0.170 HD
BRANCH  20  23
HETATM   23  C13 UNL     1       5.726   0.513  -0.508  1.00  0.00     0.038 A 
HETATM   24  C14 UNL     1       6.373   0.321   0.702  1.00  0.00     0.032 A 
HETATM   25  C15 UNL     1       7.617  -0.315   0.677  1.00  0.00     0.046 A 
HETATM   26  C16 UNL     1       8.169  -0.731  -0.525  1.00  0.00     0.138 A 
HETATM   27  F1  UNL     1       9.368  -1.348  -0.586  1.00  0.00    -0.204 F 
HETATM   28  C17 UNL     1       7.500  -0.526  -1.716  1.00  0.00     0.074 A 
HETATM   29 CL1  UNL     1       8.144  -1.027  -3.265  1.00  0.00    -0.081 Cl
HETATM   30  C18 UNL     1       6.271   0.101  -1.706  1.00  0.00     0.056 A 
ENDBRANCH  20  23
ENDBRANCH  13  17
BRANCH  16  31
HETATM   31  O4  UNL     1      -1.890   2.235   0.668  1.00  0.00    -0.379 OA
HETATM   32  C22 UNL     1      -2.018   3.036   1.798  1.00  0.00     0.202 C 
ENDBRANCH  16  31
BRANCH   1  33
HETATM   33  O1  UNL     1      -3.728   2.118  -0.960  1.00  0.00    -0.357 OA
HETATM   34  C1  UNL     1      -4.536   2.207  -2.111  1.00  0.00     0.209 C 
ENDBRANCH   1  33
TORSDOF 4
