REMARK  5 active torsions:
REMARK  status: ('A' for Active; 'I' for Inactive)
REMARK    1  A    between atoms: O1_2  and  C2_3 
REMARK    2  A    between atoms: C7_8  and  O2_9 
REMARK    3  A    between atoms: C9_11  and  O3_12 
REMARK    4  A    between atoms: O3_12  and  C10_13 
REMARK    5  A    between atoms: C16_19  and  C17_20 
ROOT
HETATM    1  C10 UNL     1       1.293   0.943   0.584  1.00  0.00     0.078 A 
HETATM    2  C11 UNL     1       1.605   1.842   1.583  1.00  0.00     0.039 A 
HETATM    3  C12 UNL     1       2.940   1.955   1.921  1.00  0.00     0.033 A 
HETATM    4  C13 UNL     1       3.931   1.226   1.315  1.00  0.00     0.044 A 
HETATM    5  C14 UNL     1       3.638   0.323   0.314  1.00  0.00    -0.004 A 
HETATM    6  C15 UNL     1       2.292   0.192  -0.045  1.00  0.00     0.049 A 
HETATM    7  C16 UNL     1       4.565  -0.546  -0.451  1.00  0.00     0.150 A 
HETATM    8  N1  UNL     1       5.903  -0.314   0.013  1.00  0.00    -0.332 N 
HETATM    9  C18 UNL     1       6.341   0.581   1.029  1.00  0.00     0.321 A 
HETATM   10  O4  UNL     1       7.558   0.680   1.334  1.00  0.00    -0.247 OA
HETATM   11  N2  UNL     1       5.308   1.334   1.655  1.00  0.00    -0.308 N 
HETATM   12  H15 UNL     1       6.620  -0.903  -0.490  1.00  0.00     0.165 HD
HETATM   13  H16 UNL     1       5.556   2.013   2.412  1.00  0.00     0.170 HD
ENDROOT
BRANCH   1  14
HETATM   14  O3  UNL     1      -0.031   0.788   0.203  1.00  0.00    -0.293 OA
BRANCH  14  15
HETATM   15  C9  UNL     1      -0.790  -0.171   0.863  1.00  0.00     0.163 C 
HETATM   16  C5  UNL     1      -2.125  -0.345   0.497  1.00  0.00     0.045 A 
HETATM   17  C4  UNL     1      -3.020  -1.241   1.039  1.00  0.00     0.052 A 
HETATM   18  C6  UNL     1      -2.605   0.463  -0.514  1.00  0.00     0.057 A 
HETATM   19  C3  UNL     1      -4.314  -1.288   0.562  1.00  0.00     0.070 A 
HETATM   20  N4  UNL     1      -2.835  -2.153   2.036  1.00  0.00    -0.329 NA
HETATM   21  C2  UNL     1      -4.777  -0.467  -0.456  1.00  0.00     0.103 A 
HETATM   22  C7  UNL     1      -3.889   0.438  -1.011  1.00  0.00     0.102 A 
HETATM   23  B1  UNL     1      -0.934  -2.602   1.977  1.00  0.00     0.466 B 
HETATM   24  N3  UNL     1      -0.228  -0.925   1.854  1.00  0.00    -0.308 NA
BRANCH  21  25
HETATM   25  O1  UNL     1      -6.081  -0.510  -0.943  1.00  0.00    -0.353 OA
HETATM   26  C1  UNL     1      -6.995  -1.438  -0.376  1.00  0.00     0.210 C 
ENDBRANCH  21  25
BRANCH  22  27
HETATM   27  O2  UNL     1      -4.320   1.274  -2.031  1.00  0.00    -0.353 OA
HETATM   28  C8  UNL     1      -3.381   2.186  -2.571  1.00  0.00     0.210 C 
ENDBRANCH  22  27
ENDBRANCH  14  15
ENDBRANCH   1  14
BRANCH   7  29
HETATM   29  C17 UNL     1       4.165  -1.998  -0.379  1.00  0.00     0.252 C 
HETATM   30  F1  UNL     1       5.080  -2.725  -1.115  1.00  0.00    -0.253 F 
ENDBRANCH   7  29
TORSDOF 5
