REMARK  6 active torsions:
REMARK  status: ('A' for Active; 'I' for Inactive)
REMARK    1  A    between atoms: C1_2  and  C2_3 
REMARK       I    between atoms: C1_2  and  N3_14 
REMARK    2  A    between atoms: C3_4  and  C4_5 
REMARK    3  A    between atoms: C5_6  and  O2_7 
REMARK    4  A    between atoms: O2_7  and  C6_8 
REMARK    5  A    between atoms: N3_14  and  C10_15 
REMARK    6  A    between atoms: C13_18  and  C14_19 
ROOT
HETATM    1  O1  UNL     1      -1.944  -1.554  -1.781  1.00  0.00    -0.268 OA
HETATM    2  C1  UNL     1      -0.887  -1.295  -1.130  1.00  0.00     0.245 C 
HETATM    3  N3  UNL     1      -1.395  -0.364  -0.157  1.00  0.00    -0.324 N 
HETATM    4  H8  UNL     1      -1.018   0.206   0.658  1.00  0.00     0.169 HD
ENDROOT
BRANCH   2   5
HETATM    5  C2  UNL     1       0.537  -1.499  -0.925  1.00  0.00     0.074 C 
HETATM    6  C3  UNL     1       1.665  -1.283  -0.302  1.00  0.00     0.007 C 
BRANCH   6   7
HETATM    7  C4  UNL     1       1.846  -0.401   0.830  1.00  0.00     0.025 C 
HETATM    8  C5  UNL     1       3.052  -0.291   1.347  1.00  0.00     0.144 C 
BRANCH   8   9
HETATM    9  O2  UNL     1       4.173  -0.957   0.893  1.00  0.00    -0.304 OA
BRANCH   9  10
HETATM   10  C6  UNL     1       5.235  -0.309   0.274  1.00  0.00     0.171 A 
HETATM   11  C7  UNL     1       5.299   1.052   0.042  1.00  0.00     0.077 A 
HETATM   12  C8  UNL     1       6.373   1.655  -0.576  1.00  0.00     0.122 A 
HETATM   13  N1  UNL     1       7.401   0.863  -0.966  1.00  0.00    -0.254 NA
HETATM   14  C9  UNL     1       7.350  -0.459  -0.747  1.00  0.00     0.235 A 
HETATM   15  N2  UNL     1       6.283  -1.033  -0.136  1.00  0.00    -0.218 NA
ENDBRANCH   9  10
ENDBRANCH   8   9
ENDBRANCH   6   7
ENDBRANCH   2   5
BRANCH   3  16
HETATM   16  C10 UNL     1      -2.788   0.013  -0.140  1.00  0.00     0.035 A 
HETATM   17  C11 UNL     1      -3.561  -0.812   0.658  1.00  0.00     0.030 A 
HETATM   18  C12 UNL     1      -4.927  -0.572   0.773  1.00  0.00     0.018 A 
HETATM   19  C13 UNL     1      -5.501   0.488   0.089  1.00  0.00     0.048 A 
HETATM   20  C15 UNL     1      -4.712   1.298  -0.701  1.00  0.00     0.018 A 
HETATM   21  C16 UNL     1      -3.346   1.075  -0.829  1.00  0.00     0.030 A 
BRANCH  19  22
HETATM   22  C14 UNL     1      -6.968   0.764   0.199  1.00  0.00     0.417 C 
HETATM   23  F1  UNL     1      -7.422   0.992  -1.092  1.00  0.00    -0.166 F 
HETATM   24  F2  UNL     1      -7.659  -0.310   0.684  1.00  0.00    -0.166 F 
HETATM   25  F3  UNL     1      -7.225   1.930   0.894  1.00  0.00    -0.166 F 
ENDBRANCH  19  22
ENDBRANCH   3  16
TORSDOF 6
