REMARK  5 active torsions:
REMARK  status: ('A' for Active; 'I' for Inactive)
REMARK    1  A    between atoms: O1_2  and  C2_3 
REMARK       I    between atoms: N1_9  and  C8_10 
REMARK       I    between atoms: C8_10  and  N2_12 
REMARK    2  A    between atoms: N2_12  and  C9_13 
REMARK    3  A    between atoms: C12_16  and  O3_17 
REMARK    4  A    between atoms: O3_17  and  C13_18 
REMARK    5  A    between atoms: C17_24  and  O4_25 
ROOT
HETATM    1  C9  UNL     1      -1.299  -1.142  -0.303  1.00  0.00     0.036 A 
HETATM    2  C10 UNL     1      -0.751  -1.473   0.920  1.00  0.00     0.032 A 
HETATM    3  C11 UNL     1       0.636  -1.568   1.079  1.00  0.00     0.039 A 
HETATM    4  C12 UNL     1       1.455  -1.329  -0.001  1.00  0.00     0.078 A 
HETATM    5  C22 UNL     1       0.891  -0.998  -1.225  1.00  0.00     0.039 A 
HETATM    6  C23 UNL     1      -0.483  -0.895  -1.412  1.00  0.00     0.032 A 
ENDROOT
BRANCH   1   7
HETATM    7  N2  UNL     1      -2.712  -1.051  -0.440  1.00  0.00    -0.308 N 
HETATM    8  C8  UNL     1      -3.339   0.196  -0.202  1.00  0.00     0.333 C 
HETATM    9  N1  UNL     1      -4.690   0.623  -0.248  1.00  0.00    -0.255 N 
HETATM   10  O2  UNL     1      -2.480   1.065   0.106  1.00  0.00    -0.246 OA
HETATM   11  C2  UNL     1      -5.768  -0.254  -0.543  1.00  0.00     0.148 C 
HETATM   12  C7  UNL     1      -4.813   2.032   0.048  1.00  0.00     0.100 C 
HETATM   13  C3  UNL     1      -6.882   0.105  -1.163  1.00  0.00     0.030 C 
HETATM   14  C4  UNL     1      -7.308   1.449  -1.700  1.00  0.00     0.035 C 
HETATM   15  C5  UNL     1      -7.269   2.402  -0.552  1.00  0.00     0.032 C 
HETATM   16  C6  UNL     1      -5.927   2.780  -0.088  1.00  0.00    -0.009 C 
HETATM   17  H11 UNL     1      -3.375  -1.809  -0.709  1.00  0.00     0.170 HD
BRANCH  11  18
HETATM   18  O1  UNL     1      -5.517  -1.547  -0.102  1.00  0.00    -0.341 OA
HETATM   19  C1  UNL     1      -5.740  -1.999   1.217  1.00  0.00     0.211 C 
ENDBRANCH  11  18
ENDBRANCH   1   7
BRANCH   4  20
HETATM   20  O3  UNL     1       2.836  -1.385   0.003  1.00  0.00    -0.291 OA
BRANCH  20  21
HETATM   21  C13 UNL     1       3.579  -0.251   0.298  1.00  0.00     0.183 A 
HETATM   22  N3  UNL     1       3.037   0.956   0.595  1.00  0.00    -0.217 NA
HETATM   23  C14 UNL     1       3.838   2.025   0.874  1.00  0.00     0.236 A 
HETATM   24  N4  UNL     1       5.181   1.917   0.865  1.00  0.00    -0.241 NA
HETATM   25  C15 UNL     1       5.782   0.745   0.577  1.00  0.00     0.075 A 
HETATM   26  C16 UNL     1       7.148   0.579   0.553  1.00  0.00     0.069 A 
HETATM   27  C21 UNL     1       4.954  -0.325   0.297  1.00  0.00     0.046 A 
HETATM   28  C17 UNL     1       7.759  -0.622   0.259  1.00  0.00     0.070 A 
HETATM   29  C19 UNL     1       6.944  -1.703  -0.024  1.00  0.00     0.038 A 
HETATM   30  C20 UNL     1       5.561  -1.545  -0.002  1.00  0.00     0.021 A 
BRANCH  28  31
HETATM   31  O4  UNL     1       9.127  -0.805   0.230  1.00  0.00    -0.356 OA
HETATM   32  C18 UNL     1      10.039   0.224   0.501  1.00  0.00     0.210 C 
ENDBRANCH  28  31
ENDBRANCH  20  21
ENDBRANCH   4  20
TORSDOF 5
