REMARK  8 active torsions:
REMARK  status: ('A' for Active; 'I' for Inactive)
REMARK    1  A    between atoms: C2_2  and  C3_3 
REMARK    2  A    between atoms: C3_3  and  C4_4 
REMARK    3  A    between atoms: C5_6  and  N1_8 
REMARK    4  A    between atoms: N1_8  and  C7_9 
REMARK    5  A    between atoms: C10_12  and  N2_13 
REMARK    6  A    between atoms: O2_16  and  C12_17 
REMARK    7  A    between atoms: C16_23  and  O3_24 
REMARK    8  A    between atoms: C18_26  and  O4_27 
ROOT
HETATM    1  C1  UNL     1      -1.657   1.428  -2.002  1.00  0.00     0.039 A 
HETATM    2  C2  UNL     1      -1.114   0.287  -1.671  1.00  0.00    -0.074 A 
HETATM    3  O2  UNL     1      -2.270   0.353  -0.939  1.00  0.00     0.000 OA
ENDROOT
BRANCH   2   4
HETATM    4  C3  UNL     1       0.154  -0.009  -2.341  1.00  0.00     0.080 C 
BRANCH   4   5
HETATM    5  C4  UNL     1       1.242  -0.022  -1.329  1.00  0.00     0.141 A 
HETATM    6  O1  UNL     1       2.201  -0.171  -2.030  1.00  0.00    -0.349 OA
HETATM    7  C5  UNL     1       2.475  -0.062  -0.490  1.00  0.00     0.214 A 
HETATM    8  C6  UNL     1       2.357  -1.131   0.554  1.00  0.00     0.062 C 
BRANCH   7   9
HETATM    9  N1  UNL     1       3.620  -0.282  -1.331  1.00  0.00    -0.351 N 
HETATM   10  H9  UNL     1       3.904  -0.520  -2.328  1.00  0.00     0.163 HD
BRANCH   9  11
HETATM   11  C7  UNL     1       5.048  -0.249  -1.072  1.00  0.00     0.099 A 
HETATM   12  C8  UNL     1       5.885   0.796  -1.305  1.00  0.00     0.050 A 
HETATM   13  C9  UNL     1       7.336   0.743  -1.009  1.00  0.00     0.030 A 
HETATM   14  C10 UNL     1       7.875  -0.334  -0.500  1.00  0.00     0.020 A 
HETATM   15  C11 UNL     1       7.110  -1.558  -0.146  1.00  0.00     0.177 A 
HETATM   16  N3  UNL     1       5.734  -1.385  -0.533  1.00  0.00    -0.371 N 
HETATM   17  H16 UNL     1       5.225  -2.301  -0.359  1.00  0.00     0.161 HD
BRANCH  14  18
HETATM   18  N2  UNL     1       9.266  -0.198  -0.290  1.00  0.00    -0.401 N 
HETATM   19  H12 UNL     1       9.889   0.564  -0.630  1.00  0.00     0.156 HD
HETATM   20  H13 UNL     1       9.783  -0.936   0.281  1.00  0.00     0.156 HD
ENDBRANCH  14  18
ENDBRANCH   9  11
ENDBRANCH   7   9
ENDBRANCH   4   5
ENDBRANCH   2   4
BRANCH   3  21
HETATM   21  C12 UNL     1      -2.320  -0.061   0.387  1.00  0.00     0.100 A 
HETATM   22  N4  UNL     1      -1.257  -0.590   1.104  1.00  0.00    -0.239 NA
HETATM   23  C13 UNL     1      -1.461  -0.965   2.418  1.00  0.00     0.234 A 
HETATM   24  N5  UNL     1      -2.644  -0.862   3.088  1.00  0.00    -0.241 NA
HETATM   25  C14 UNL     1      -3.754  -0.354   2.469  1.00  0.00     0.073 A 
HETATM   26  C15 UNL     1      -4.998  -0.236   3.005  1.00  0.00     0.072 A 
HETATM   27  C21 UNL     1      -3.372  -0.052   1.239  1.00  0.00     0.027 A 
HETATM   28  C16 UNL     1      -6.054   0.239   2.282  1.00  0.00     0.103 A 
HETATM   29  C18 UNL     1      -5.787   0.600   0.959  1.00  0.00     0.102 A 
HETATM   30  C20 UNL     1      -4.475   0.450   0.470  1.00  0.00     0.055 A 
BRANCH  28  31
HETATM   31  O3  UNL     1      -7.312   0.370   2.791  1.00  0.00    -0.353 OA
HETATM   32  C17 UNL     1      -7.634   0.020   4.112  1.00  0.00     0.210 C 
ENDBRANCH  28  31
BRANCH  29  33
HETATM   33  O4  UNL     1      -6.861   1.080   0.240  1.00  0.00    -0.353 OA
HETATM   34  C19 UNL     1      -6.697   1.465  -1.100  1.00  0.00     0.210 C 
ENDBRANCH  29  33
ENDBRANCH   3  21
TORSDOF 8
