REMARK  6 active torsions:
REMARK  status: ('A' for Active; 'I' for Inactive)
REMARK    1  A    between atoms: O1_2  and  C2_3 
REMARK    2  A    between atoms: C6_9  and  O2_10 
REMARK    3  A    between atoms: O2_10  and  C7_11 
REMARK    4  A    between atoms: C10_14  and  N3_15 
REMARK       I    between atoms: N3_15  and  C11_16 
REMARK       I    between atoms: C11_16  and  N4_18 
REMARK    5  A    between atoms: N4_18  and  C12_19 
REMARK    6  A    between atoms: C21_29  and  O4_30 
ROOT
HETATM    1  C7  UNL     1      -0.809  -0.539   1.039  1.00  0.00     0.072 A 
HETATM    2  C8  UNL     1      -0.231   0.700   0.882  1.00  0.00     0.039 A 
HETATM    3  C9  UNL     1       1.108   0.864   1.171  1.00  0.00     0.032 A 
HETATM    4  C10 UNL     1       1.884  -0.195   1.617  1.00  0.00     0.036 A 
HETATM    5  C18 UNL     1       1.326  -1.436   1.780  1.00  0.00     0.032 A 
HETATM    6  C19 UNL     1      -0.032  -1.612   1.489  1.00  0.00     0.039 A 
ENDROOT
BRANCH   1   7
HETATM    7  O2  UNL     1      -2.110  -0.968   0.824  1.00  0.00    -0.314 OA
BRANCH   7   8
HETATM    8  C6  UNL     1      -3.048   0.026   0.354  1.00  0.00     0.202 A 
HETATM    9  N2  UNL     1      -3.157   1.077   1.277  1.00  0.00    -0.240 NA
HETATM   10  C5  UNL     1      -3.837   1.991   1.852  1.00  0.00     0.230 C 
HETATM   11  N1  UNL     1      -5.197   2.484   1.775  1.00  0.00    -0.254 NA
HETATM   12  C4  UNL     1      -6.122   2.150   0.896  1.00  0.00     0.120 C 
HETATM   13  C3  UNL     1      -6.240   1.267  -0.257  1.00  0.00     0.055 C 
HETATM   14  C2  UNL     1      -5.367   0.338  -0.611  1.00  0.00     0.087 C 
HETATM   15  C21 UNL     1      -4.144  -0.419  -0.459  1.00  0.00     0.165 A 
HETATM   16  C20 UNL     1      -2.926   0.228  -1.110  1.00  0.00     0.117 A 
BRANCH  14  17
HETATM   17  O1  UNL     1      -5.949  -0.219  -1.774  1.00  0.00    -0.357 OA
HETATM   18  C1  UNL     1      -5.446   0.264  -3.005  1.00  0.00     0.209 C 
ENDBRANCH  14  17
BRANCH  15  19
HETATM   19  O4  UNL     1      -4.253  -1.832  -0.595  1.00  0.00    -0.373 OA
HETATM   20  C22 UNL     1      -5.138  -2.239   0.396  1.00  0.00     0.203 C 
ENDBRANCH  15  19
ENDBRANCH   7   8
ENDBRANCH   1   7
BRANCH   4  21
HETATM   21  N3  UNL     1       3.260   0.052   1.895  1.00  0.00    -0.309 N 
HETATM   22  C11 UNL     1       4.186  -0.117   0.847  1.00  0.00     0.325 C 
HETATM   23  O3  UNL     1       3.708  -0.471  -0.233  1.00  0.00    -0.247 OA
HETATM   24  N4  UNL     1       5.578   0.087   0.959  1.00  0.00    -0.309 N 
HETATM   25  H10 UNL     1       5.842   0.385   1.932  1.00  0.00     0.170 HD
HETATM   26  H9  UNL     1       3.619   0.357   2.849  1.00  0.00     0.170 HD
BRANCH  24  27
HETATM   27  C12 UNL     1       6.589  -0.055  -0.025  1.00  0.00     0.037 A 
HETATM   28  C13 UNL     1       7.892   0.206   0.336  1.00  0.00     0.029 A 
HETATM   29  C14 UNL     1       8.935   0.092  -0.558  1.00  0.00     0.004 A 
HETATM   30  C15 UNL     1       8.732  -0.287  -1.856  1.00  0.00     0.024 A 
HETATM   31  C16 UNL     1       7.439  -0.552  -2.235  1.00  0.00     0.036 A 
HETATM   32 CL1  UNL     1       7.138  -1.038  -3.880  1.00  0.00    -0.084 Cl
HETATM   33  C17 UNL     1       6.418  -0.429  -1.317  1.00  0.00     0.053 A 
ENDBRANCH  24  27
ENDBRANCH   4  21
TORSDOF 6
