REMARK  6 active torsions:
REMARK  status: ('A' for Active; 'I' for Inactive)
REMARK    1  A    between atoms: O1_2  and  C2_3 
REMARK    2  A    between atoms: C6_9  and  O2_10 
REMARK    3  A    between atoms: O2_10  and  C7_11 
REMARK    4  A    between atoms: C10_14  and  N3_15 
REMARK       I    between atoms: N3_15  and  C11_16 
REMARK    5  A    between atoms: C11_16  and  C12_18 
REMARK    6  A    between atoms: C22_28  and  O4_29 
ROOT
HETATM    1  C7  UNL     1      -0.503  -0.211  -0.680  1.00  0.00     0.078 A 
HETATM    2  C8  UNL     1       0.336  -0.691   0.332  1.00  0.00     0.039 A 
HETATM    3  C9  UNL     1       1.723  -0.614   0.205  1.00  0.00     0.032 A 
HETATM    4  C10 UNL     1       2.263  -0.066  -0.917  1.00  0.00     0.035 A 
HETATM    5  C18 UNL     1       1.436   0.409  -1.917  1.00  0.00     0.032 A 
HETATM    6  C19 UNL     1       0.062   0.341  -1.811  1.00  0.00     0.039 A 
ENDROOT
BRANCH   1   7
HETATM    7  O2  UNL     1      -1.830  -0.394  -0.333  1.00  0.00    -0.291 OA
BRANCH   7   8
HETATM    8  C6  UNL     1      -2.463   0.626   0.364  1.00  0.00     0.183 A 
HETATM    9  N2  UNL     1      -1.859   1.792   0.725  1.00  0.00    -0.217 NA
HETATM   10  C5  UNL     1      -2.532   2.742   1.401  1.00  0.00     0.236 A 
HETATM   11  N1  UNL     1      -3.838   2.621   1.771  1.00  0.00    -0.241 NA
HETATM   12  C4  UNL     1      -4.455   1.459   1.416  1.00  0.00     0.075 A 
HETATM   13  C3  UNL     1      -5.774   1.353   1.797  1.00  0.00     0.072 A 
HETATM   14  C20 UNL     1      -3.787   0.471   0.723  1.00  0.00     0.049 A 
HETATM   15  C2  UNL     1      -6.457   0.185   1.461  1.00  0.00     0.103 A 
HETATM   16  C22 UNL     1      -5.776  -0.793   0.769  1.00  0.00     0.102 A 
HETATM   17  C21 UNL     1      -4.457  -0.706   0.378  1.00  0.00     0.057 A 
BRANCH  15  18
HETATM   18  O1  UNL     1      -7.789   0.038   1.827  1.00  0.00    -0.353 OA
HETATM   19  C1  UNL     1      -8.382   1.125   2.543  1.00  0.00     0.210 C 
ENDBRANCH  15  18
BRANCH  16  20
HETATM   20  O4  UNL     1      -6.511  -1.924   0.467  1.00  0.00    -0.353 OA
HETATM   21  C23 UNL     1      -5.954  -3.026  -0.244  1.00  0.00     0.210 C 
ENDBRANCH  16  20
ENDBRANCH   7   8
ENDBRANCH   1   7
BRANCH   4  22
HETATM   22  N3  UNL     1       3.662   0.020  -1.062  1.00  0.00    -0.323 N 
HETATM   23  C11 UNL     1       4.503  -0.951  -1.643  1.00  0.00     0.252 C 
HETATM   24  O3  UNL     1       3.983  -2.015  -2.086  1.00  0.00    -0.268 OA
HETATM   25  H8  UNL     1       4.112   0.903  -0.697  1.00  0.00     0.169 HD
BRANCH  23  26
HETATM   26  C12 UNL     1       5.959  -0.781  -1.755  1.00  0.00     0.014 A 
HETATM   27  C13 UNL     1       6.819  -1.636  -2.281  1.00  0.00     0.013 A 
HETATM   28  C14 UNL     1       8.169  -1.105  -2.206  1.00  0.00     0.003 A 
HETATM   29  C15 UNL     1       8.094   0.086  -1.622  1.00  0.00    -0.079 A 
HETATM   30  C16 UNL     1       9.270   0.974  -1.351  1.00  0.00     0.043 C 
HETATM   31  C17 UNL     1       6.688   0.420  -1.273  1.00  0.00     0.078 A 
ENDBRANCH  23  26
ENDBRANCH   4  22
TORSDOF 6
