REMARK  1 active torsions:
REMARK  status: ('A' for Active; 'I' for Inactive)
REMARK    1  A    between atoms: C19_24  and  C20_25 
ROOT
HETATM    1  O1  UNL     1      -0.978  -1.938   1.461  1.00  0.00    -0.099 OA
HETATM    2  C1  UNL     1      -0.960  -3.158   1.615  1.00  0.00     0.389 A 
HETATM    3  N1  UNL     1      -2.240  -2.586   2.064  1.00  0.00     0.155 N 
HETATM    4  C2  UNL     1      -2.385  -1.133   1.862  1.00  0.00     0.177 A 
HETATM    5  C3  UNL     1      -2.050  -0.133   2.733  1.00  0.00     0.044 A 
HETATM    6  C4  UNL     1      -2.122   1.123   2.181  1.00  0.00     0.040 A 
HETATM    7  C5  UNL     1      -2.499   1.309   0.877  1.00  0.00     0.078 A 
HETATM    8  C6  UNL     1      -2.848   0.327  -0.020  1.00  0.00     0.040 A 
HETATM    9  C7  UNL     1      -2.777  -0.934   0.526  1.00  0.00     0.044 A 
HETATM   10  O2  UNL     1      -2.555   2.602   0.318  1.00  0.00    -0.291 OA
HETATM   11  C8  UNL     1      -1.671   2.837  -0.756  1.00  0.00     0.182 A 
HETATM   12  N2  UNL     1      -2.217   3.901  -1.351  1.00  0.00    -0.217 NA
HETATM   13  C9  UNL     1      -1.708   4.490  -2.440  1.00  0.00     0.235 A 
HETATM   14  N3  UNL     1      -0.570   4.000  -2.997  1.00  0.00    -0.253 NA
HETATM   15  C10 UNL     1      -0.032   2.914  -2.370  1.00  0.00     0.134 A 
HETATM   16  C11 UNL     1      -0.520   2.277  -1.252  1.00  0.00     0.035 A 
HETATM   17  C12 UNL     1       0.274   1.143  -0.818  1.00  0.00     0.018 C 
HETATM   18  C13 UNL     1       1.211   0.456  -1.494  1.00  0.00     0.013 C 
HETATM   19  C14 UNL     1       1.819  -0.652  -0.724  1.00  0.00    -0.019 A 
HETATM   20  C15 UNL     1       0.990  -1.617  -0.197  1.00  0.00     0.042 A 
HETATM   21  C16 UNL     1       1.433  -2.691   0.592  1.00  0.00     0.036 A 
HETATM   22  C17 UNL     1       2.729  -2.834   0.874  1.00  0.00     0.030 A 
HETATM   23  C18 UNL     1       3.581  -1.874   0.350  1.00  0.00     0.019 A 
HETATM   24  C19 UNL     1       3.144  -0.824  -0.418  1.00  0.00     0.058 A 
HETATM   25  N4  UNL     1       0.372  -3.544   1.121  1.00  0.00    -0.312 N 
HETATM   26  H1  UNL     1      -2.784  -3.414   2.450  1.00  0.00     0.337 HD
HETATM   27  H13 UNL     1       0.369  -4.566   1.241  1.00  0.00     0.169 HD
ENDROOT
BRANCH  24  28
HETATM   28  C20 UNL     1       4.083   0.179  -0.955  1.00  0.00     0.418 C 
HETATM   29  F1  UNL     1       4.036   0.206  -2.328  1.00  0.00    -0.166 F 
HETATM   30  F2  UNL     1       5.328  -0.060  -0.435  1.00  0.00    -0.166 F 
HETATM   31  F3  UNL     1       3.671   1.422  -0.461  1.00  0.00    -0.166 F 
ENDBRANCH  24  28
TORSDOF 1
