REMARK  2 active torsions:
REMARK  status: ('A' for Active; 'I' for Inactive)
REMARK    1  A    between atoms: C3_3  and  C4_5 
REMARK    2  A    between atoms: C9_12  and  O1_13 
ROOT
HETATM    1  C4  UNL     1       2.542   0.163  -1.330  1.00  0.00     0.127 A 
HETATM    2  N1  UNL     1       2.938   0.188  -2.615  1.00  0.00    -0.237 NA
HETATM    3  C5  UNL     1       1.990  -0.010  -3.545  1.00  0.00     0.234 A 
HETATM    4  N2  UNL     1       0.690  -0.227  -3.198  1.00  0.00    -0.240 NA
HETATM    5  C6  UNL     1       0.315  -0.248  -1.900  1.00  0.00     0.089 A 
HETATM    6  C7  UNL     1      -1.041  -0.484  -1.812  1.00  0.00     0.037 C 
HETATM    7  C8  UNL     1      -2.120   0.171  -1.250  1.00  0.00     0.039 C 
HETATM    8  C9  UNL     1      -2.913  -0.185  -0.193  1.00  0.00     0.068 C 
HETATM    9  C11 UNL     1      -2.457  -0.984   0.803  1.00  0.00     0.037 C 
HETATM   10  C12 UNL     1      -1.856  -0.955   2.027  1.00  0.00     0.006 C 
HETATM   11  C13 UNL     1      -1.286   0.271   2.304  1.00  0.00     0.037 C 
HETATM   12  P1  UNL     1      -0.266   0.982   1.097  1.00  0.00     0.088 P 
HETATM   13  N3  UNL     1       0.838  -0.078   0.368  1.00  0.00    -0.246 NA
HETATM   14  C14 UNL     1       1.248  -0.050  -0.903  1.00  0.00     0.117 A 
ENDROOT
BRANCH   1  15
HETATM   15  C3  UNL     1       3.561   0.375  -0.329  1.00  0.00     0.143 C 
HETATM   16  C2  UNL     1       3.538   0.414   0.984  1.00  0.00     0.014 C 
HETATM   17  C1  UNL     1       4.783   0.659   1.747  1.00  0.00     0.039 C 
HETATM   18  F1  UNL     1       4.869   0.597  -0.653  1.00  0.00    -0.204 F 
ENDBRANCH   1  15
BRANCH   8  19
HETATM   19  O1  UNL     1      -4.199   0.339  -0.237  1.00  0.00    -0.356 OA
HETATM   20  C10 UNL     1      -5.166   0.095   0.749  1.00  0.00     0.210 C 
ENDBRANCH   8  19
TORSDOF 2
