REMARK  6 active torsions:
REMARK  status: ('A' for Active; 'I' for Inactive)
REMARK    1  A    between atoms: O1_2  and  C2_3 
REMARK    2  A    between atoms: C5_6  and  N1_7 
REMARK       I    between atoms: N1_7  and  C6_8 
REMARK       I    between atoms: C6_8  and  N2_10 
REMARK    3  A    between atoms: N2_10  and  C7_11 
REMARK    4  A    between atoms: C10_14  and  C11_15 
REMARK    5  A    between atoms: C11_15  and  C12_16 
REMARK    6  A    between atoms: C20_28  and  O4_29 
ROOT
HETATM    1  C2  UNL     1      -4.035  -1.031   0.783  1.00  0.00     0.098 C 
HETATM    2  C3  UNL     1      -2.848  -1.399   0.268  1.00  0.00     0.017 C 
HETATM    3  C4  UNL     1      -2.109  -0.982  -0.894  1.00  0.00     0.084 C 
HETATM    4  C5  UNL     1      -1.093   0.099  -0.781  1.00  0.00     0.236 C 
HETATM    5  O3  UNL     1      -1.771   1.378  -0.640  1.00  0.00    -0.308 OA
HETATM    6  C15 UNL     1      -2.343   1.900  -1.813  1.00  0.00     0.169 A 
HETATM    7  C16 UNL     1      -2.506   2.497  -3.030  1.00  0.00     0.077 A 
HETATM    8  C17 UNL     1      -3.793   2.557  -3.496  1.00  0.00     0.123 A 
HETATM    9  N3  UNL     1      -4.858   2.061  -2.804  1.00  0.00    -0.241 NA
HETATM   10  C18 UNL     1      -4.615   1.500  -1.630  1.00  0.00     0.154 A 
HETATM   11  N4  UNL     1      -3.403   1.399  -1.107  1.00  0.00    -0.205 NA
HETATM   12  C19 UNL     1      -5.219   0.875  -0.489  1.00  0.00     0.092 C 
HETATM   13  C20 UNL     1      -5.039  -0.046   0.415  1.00  0.00     0.104 C 
ENDROOT
BRANCH   4  14
HETATM   14  N1  UNL     1      -0.056  -0.005   0.142  1.00  0.00    -0.315 N 
HETATM   15  C6  UNL     1       1.308   0.052  -0.299  1.00  0.00     0.322 C 
HETATM   16  O2  UNL     1       1.571   0.197  -1.529  1.00  0.00    -0.247 OA
HETATM   17  N2  UNL     1       2.366  -0.052   0.623  1.00  0.00    -0.309 N 
HETATM   18  H9  UNL     1       2.199  -0.174   1.664  1.00  0.00     0.170 HD
HETATM   19  H8  UNL     1      -0.239  -0.124   1.161  1.00  0.00     0.166 HD
BRANCH  17  20
HETATM   20  C7  UNL     1       3.755  -0.017   0.372  1.00  0.00     0.036 A 
HETATM   21  C8  UNL     1       4.606   1.043   0.338  1.00  0.00     0.030 A 
HETATM   22  C9  UNL     1       5.948   0.868   0.071  1.00  0.00     0.009 A 
HETATM   23  C10 UNL     1       6.477  -0.385  -0.172  1.00  0.00    -0.056 A 
HETATM   24  C13 UNL     1       5.618  -1.480  -0.141  1.00  0.00     0.009 A 
HETATM   25  C14 UNL     1       4.258  -1.300   0.130  1.00  0.00     0.030 A 
BRANCH  23  26
HETATM   26  C11 UNL     1       7.918  -0.607  -0.462  1.00  0.00     0.070 C 
BRANCH  26  27
HETATM   27  C12 UNL     1       8.607  -0.838   0.874  1.00  0.00     0.226 C 
HETATM   28  F1  UNL     1       8.446   0.253   1.684  1.00  0.00    -0.255 F 
ENDBRANCH  26  27
ENDBRANCH  23  26
ENDBRANCH  17  20
ENDBRANCH   4  14
BRANCH   1  29
HETATM   29  O1  UNL     1      -4.338  -1.768   1.956  1.00  0.00    -0.353 OA
HETATM   30  C1  UNL     1      -3.906  -1.363   3.229  1.00  0.00     0.210 C 
ENDBRANCH   1  29
BRANCH  13  31
HETATM   31  O4  UNL     1      -6.182  -0.040   1.249  1.00  0.00    -0.353 OA
HETATM   32  C21 UNL     1      -7.119  -1.075   1.285  1.00  0.00     0.210 C 
ENDBRANCH  13  31
TORSDOF 6
