REMARK  2 active torsions:
REMARK  status: ('A' for Active; 'I' for Inactive)
REMARK    1  A    between atoms: O1_2  and  C2_3 
REMARK    2  A    between atoms: C9_12  and  O3_13 
ROOT
HETATM    1  C2  UNL     1      -3.634  -2.239   0.190  1.00  0.00     0.103 A 
HETATM    2  C3  UNL     1      -4.556  -1.196   0.179  1.00  0.00     0.071 A 
HETATM    3  C4  UNL     1      -4.159   0.141   0.229  1.00  0.00     0.062 A 
HETATM    4  C5  UNL     1      -2.818   0.445   0.289  1.00  0.00    -0.009 A 
HETATM    5  C6  UNL     1      -1.958  -0.620   0.295  1.00  0.00     0.053 A 
HETATM    6  C7  UNL     1      -2.283  -1.954   0.250  1.00  0.00     0.105 A 
HETATM    7  O2  UNL     1      -1.326  -2.955   0.263  1.00  0.00    -0.327 OA
HETATM    8  C8  UNL     1      -0.317  -3.125  -0.713  1.00  0.00     0.327 C 
HETATM    9  N1  UNL     1       0.503  -1.969  -0.779  1.00  0.00    -0.240 NA
HETATM   10  C9  UNL     1       1.628  -1.727  -0.255  1.00  0.00     0.161 C 
HETATM   11  C10 UNL     1       2.211  -0.418  -0.522  1.00  0.00     0.082 C 
HETATM   12  C11 UNL     1       3.360   0.064  -0.083  1.00  0.00     0.015 C 
HETATM   13  C12 UNL     1       4.418  -0.496   0.781  1.00  0.00     0.083 C 
HETATM   14  C13 UNL     1       5.697  -0.722   0.059  1.00  0.00    -0.023 C 
HETATM   15  C14 UNL     1       5.894   0.173  -0.902  1.00  0.00    -0.011 C 
HETATM   16  C15 UNL     1       4.988   1.291  -1.267  1.00  0.00     0.150 C 
HETATM   17  N2  UNL     1       3.833   1.394  -0.392  1.00  0.00    -0.376 N 
HETATM   18  C16 UNL     1       3.206   2.611   0.120  1.00  0.00     0.161 C 
HETATM   19  C17 UNL     1       1.728   2.483   0.117  1.00  0.00    -0.040 A 
HETATM   20  C18 UNL     1       1.183   1.838   1.200  1.00  0.00     0.009 A 
HETATM   21  C19 UNL     1      -0.149   1.556   1.376  1.00  0.00     0.011 A 
HETATM   22  C20 UNL     1      -1.055   1.933   0.409  1.00  0.00    -0.040 A 
HETATM   23  C21 UNL     1      -0.190   2.505  -0.441  1.00  0.00     0.011 A 
HETATM   24  C22 UNL     1       0.985   2.943  -0.952  1.00  0.00     0.009 A 
HETATM   25  C23 UNL     1      -2.468   1.721   0.350  1.00  0.00    -0.078 A 
HETATM   26  B1  UNL     1      -3.554   2.829   0.356  1.00  0.00     0.220 B 
HETATM   27  C24 UNL     1      -5.064   2.393   0.248  1.00  0.00     0.097 A 
HETATM   28  N3  UNL     1      -5.143   0.951   0.209  1.00  0.00    -0.298 NA
HETATM   29  H22 UNL     1      -3.207   3.926   0.611  1.00  0.00    -0.019 HD
ENDROOT
BRANCH   1  30
HETATM   30  O1  UNL     1      -3.988  -3.580   0.143  1.00  0.00    -0.353 OA
HETATM   31  C1  UNL     1      -5.362  -3.944   0.061  1.00  0.00     0.210 C 
ENDBRANCH   1  30
BRANCH  10  32
HETATM   32  O3  UNL     1       2.239  -2.695   0.531  1.00  0.00    -0.345 OA
HETATM   33  H8  UNL     1       2.114  -3.669   0.382  1.00  0.00     0.219 HD
ENDBRANCH  10  32
TORSDOF 2
