REMARK  3 active torsions:
REMARK  status: ('A' for Active; 'I' for Inactive)
REMARK    1  A    between atoms: C5_5  and  N1_6 
REMARK       I    between atoms: N1_6  and  C6_7 
REMARK       I    between atoms: C6_7  and  N2_9 
REMARK    2  A    between atoms: N2_9  and  C7_10 
REMARK    3  A    between atoms: C14_18  and  C15_19 
ROOT
HETATM    1  C7  UNL     1       0.776  -0.494   0.457  1.00  0.00     0.022 A 
HETATM    2  C8  UNL     1       1.629  -1.313  -0.181  1.00  0.00     0.059 A 
HETATM    3  C9  UNL     1       2.847  -0.591  -0.427  1.00  0.00     0.088 A 
HETATM    4  C10 UNL     1       2.745   0.659   0.054  1.00  0.00     0.086 A 
HETATM    5  C11 UNL     1       1.396   0.834   0.669  1.00  0.00     0.124 A 
HETATM    6  O2  UNL     1       3.581   1.791   0.108  1.00  0.00    -0.325 OA
HETATM    7  C12 UNL     1       4.925   1.970  -0.275  1.00  0.00     0.139 C 
HETATM    8  C13 UNL     1       6.016   1.236  -0.433  1.00  0.00     0.009 C 
HETATM    9  C14 UNL     1       6.220  -0.222  -0.234  1.00  0.00     0.064 C 
HETATM   10  C16 UNL     1       5.267  -1.052  -1.019  1.00  0.00     0.100 C 
HETATM   11  N3  UNL     1       3.967  -1.201  -1.101  1.00  0.00    -0.262 NA
ENDROOT
BRANCH   1  12
HETATM   12  N2  UNL     1      -0.536  -0.868   0.864  1.00  0.00    -0.312 N 
HETATM   13  C6  UNL     1      -1.679  -0.179   0.377  1.00  0.00     0.325 C 
HETATM   14  N1  UNL     1      -2.908  -0.680   0.883  1.00  0.00    -0.309 N 
HETATM   15  O1  UNL     1      -1.554   0.769  -0.418  1.00  0.00    -0.247 OA
HETATM   16  H6  UNL     1      -2.987  -1.479   1.551  1.00  0.00     0.170 HD
HETATM   17  H7  UNL     1      -0.572  -1.681   1.540  1.00  0.00     0.170 HD
BRANCH  14  18
HETATM   18  C5  UNL     1      -4.213  -0.195   0.577  1.00  0.00     0.036 A 
HETATM   19  C4  UNL     1      -4.898  -0.734  -0.495  1.00  0.00     0.030 A 
HETATM   20  C3  UNL     1      -6.179  -0.325  -0.872  1.00  0.00     0.009 A 
HETATM   21  C2  UNL     1      -6.751   0.668  -0.110  1.00  0.00    -0.062 A 
HETATM   22  C1  UNL     1      -8.128   1.192  -0.419  1.00  0.00     0.048 C 
HETATM   23  C18 UNL     1      -6.108   1.248   0.980  1.00  0.00     0.009 A 
HETATM   24  C17 UNL     1      -4.828   0.799   1.311  1.00  0.00     0.030 A 
ENDBRANCH  14  18
ENDBRANCH   1  12
BRANCH   9  25
HETATM   25  C15 UNL     1       7.615  -0.643  -0.575  1.00  0.00     0.128 C 
HETATM   26 CL1  UNL     1       8.794   0.207   0.444  1.00  0.00    -0.129 Cl
ENDBRANCH   9  25
TORSDOF 3
