REMARK  6 active torsions:
REMARK  status: ('A' for Active; 'I' for Inactive)
REMARK    1  A    between atoms: C1_2  and  C2_3 
REMARK    2  A    between atoms: C5_6  and  N1_7 
REMARK    3  A    between atoms: N1_7  and  N2_8 
REMARK    4  A    between atoms: N2_8  and  C6_9 
REMARK    5  A    between atoms: C9_12  and  O2_13 
REMARK    6  A    between atoms: O2_13  and  C10_14 
ROOT
HETATM    1  C6  UNL     1      -0.404  -0.772   0.207  1.00  0.00     0.048 A 
HETATM    2  C7  UNL     1      -1.125  -0.009   1.134  1.00  0.00     0.034 A 
HETATM    3  C8  UNL     1      -2.520  -0.088   1.209  1.00  0.00     0.039 A 
HETATM    4  C9  UNL     1      -3.176  -0.953   0.330  1.00  0.00     0.078 A 
HETATM    5  C14 UNL     1      -2.510  -1.724  -0.598  1.00  0.00     0.039 A 
HETATM    6  C15 UNL     1      -1.132  -1.610  -0.633  1.00  0.00     0.034 A 
ENDROOT
BRANCH   1   7
HETATM    7  N2  UNL     1       0.988  -0.668   0.150  1.00  0.00    -0.300 N 
HETATM    8  H5  UNL     1       0.984   0.079  -0.577  1.00  0.00     0.187 HD
BRANCH   7   9
HETATM    9  N1  UNL     1       2.102  -1.243   0.742  1.00  0.00    -0.300 N 
HETATM   10  H4  UNL     1       1.988  -2.126   1.280  1.00  0.00     0.187 HD
BRANCH   9  11
HETATM   11  C5  UNL     1       3.346  -0.616   0.596  1.00  0.00     0.048 A 
HETATM   12  C4  UNL     1       4.454  -1.170   1.172  1.00  0.00     0.032 A 
HETATM   13  C3  UNL     1       5.712  -0.577   1.049  1.00  0.00     0.017 A 
HETATM   14  C2  UNL     1       5.885   0.578   0.349  1.00  0.00     0.002 A 
HETATM   15  C17 UNL     1       4.791   1.162  -0.243  1.00  0.00     0.017 A 
HETATM   16  C16 UNL     1       3.551   0.545  -0.101  1.00  0.00     0.032 A 
BRANCH  14  17
HETATM   17  C1  UNL     1       7.227   1.136   0.265  1.00  0.00     0.269 C 
HETATM   18  O1  UNL     1       8.157   0.521   0.843  1.00  0.00    -0.301 OA
ENDBRANCH  14  17
ENDBRANCH   9  11
ENDBRANCH   7   9
ENDBRANCH   1   7
BRANCH   4  19
HETATM   19  O2  UNL     1      -4.550  -0.947   0.496  1.00  0.00    -0.292 OA
BRANCH  19  20
HETATM   20  C10 UNL     1      -5.323  -0.026  -0.233  1.00  0.00     0.172 A 
HETATM   21  C11 UNL     1      -4.680   0.859  -1.106  1.00  0.00     0.077 A 
HETATM   22  C12 UNL     1      -5.291   1.822  -1.893  1.00  0.00     0.122 A 
HETATM   23  N3  UNL     1      -6.636   1.856  -1.757  1.00  0.00    -0.254 NA
HETATM   24  C13 UNL     1      -7.294   1.024  -0.930  1.00  0.00     0.235 A 
HETATM   25  N4  UNL     1      -6.669   0.083  -0.163  1.00  0.00    -0.218 NA
ENDBRANCH  19  20
ENDBRANCH   4  19
TORSDOF 6
