REMARK  8 active torsions:
REMARK  status: ('A' for Active; 'I' for Inactive)
REMARK    1  A    between atoms: O1_2  and  C2_3 
REMARK    2  A    between atoms: C6_9  and  O2_10 
REMARK    3  A    between atoms: O2_10  and  C7_11 
REMARK    4  A    between atoms: C8_12  and  C9_13 
REMARK    5  A    between atoms: C10_14  and  N3_15 
REMARK       I    between atoms: N3_15  and  C11_16 
REMARK    6  A    between atoms: C11_16  and  C12_18 
REMARK    7  A    between atoms: C18_24  and  C19_25 
REMARK    8  A    between atoms: C22_28  and  O4_29 
ROOT
HETATM    1  C7  UNL     1      -0.627   0.401  -0.484  1.00  0.00     0.138 A 
HETATM    2  C8  UNL     1       0.500   0.518  -0.525  1.00  0.00    -0.027 A 
HETATM    3  C19 UNL     1       0.314  -0.507   0.390  1.00  0.00     0.072 A 
ENDROOT
BRANCH   1   4
HETATM    4  O2  UNL     1      -1.842   0.117  -0.297  1.00  0.00    -0.313 OA
BRANCH   4   5
HETATM    5  C6  UNL     1      -2.527  -0.764   0.461  1.00  0.00     0.179 A 
HETATM    6  N2  UNL     1      -2.264  -1.729   1.348  1.00  0.00    -0.217 NA
HETATM    7  C5  UNL     1      -3.194  -2.462   1.958  1.00  0.00     0.236 A 
HETATM    8  N1  UNL     1      -4.498  -2.259   1.699  1.00  0.00    -0.241 NA
HETATM    9  C4  UNL     1      -4.890  -1.303   0.813  1.00  0.00     0.075 A 
HETATM   10  C3  UNL     1      -6.230  -1.185   0.629  1.00  0.00     0.072 A 
HETATM   11  C20 UNL     1      -3.874  -0.558   0.197  1.00  0.00     0.049 A 
HETATM   12  C2  UNL     1      -6.657  -0.231  -0.258  1.00  0.00     0.103 A 
HETATM   13  C22 UNL     1      -5.765   0.571  -0.932  1.00  0.00     0.102 A 
HETATM   14  C21 UNL     1      -4.426   0.379  -0.681  1.00  0.00     0.057 A 
BRANCH  12  15
HETATM   15  O1  UNL     1      -8.003  -0.028  -0.519  1.00  0.00    -0.353 OA
HETATM   16  C1  UNL     1      -8.960  -0.828   0.150  1.00  0.00     0.210 C 
ENDBRANCH  12  15
BRANCH  13  17
HETATM   17  O4  UNL     1      -6.161   1.544  -1.834  1.00  0.00    -0.353 OA
HETATM   18  C23 UNL     1      -5.200   2.325  -2.485  1.00  0.00     0.210 C 
ENDBRANCH  13  17
ENDBRANCH   4   5
ENDBRANCH   1   4
BRANCH   2  19
HETATM   19  C9  UNL     1       1.543   0.610  -0.549  1.00  0.00    -0.035 A 
HETATM   20  C10 UNL     1       2.669   0.692  -0.559  1.00  0.00     0.096 A 
HETATM   21  C18 UNL     1       1.890  -0.368   0.355  1.00  0.00     0.065 A 
BRANCH  20  22
HETATM   22  N3  UNL     1       3.900   0.256  -0.095  1.00  0.00    -0.340 N 
HETATM   23  C11 UNL     1       4.829  -0.485   0.628  1.00  0.00     0.248 C 
HETATM   24  O3  UNL     1       4.463  -1.386   1.422  1.00  0.00    -0.268 OA
HETATM   25  H6  UNL     1       4.126   1.032  -0.783  1.00  0.00     0.164 HD
BRANCH  23  26
HETATM   26  C12 UNL     1       6.205  -0.101   0.359  1.00  0.00     0.013 A 
HETATM   27  C13 UNL     1       7.120  -0.798   1.042  1.00  0.00     0.013 A 
HETATM   28  C14 UNL     1       8.426  -0.300   0.666  1.00  0.00     0.003 A 
HETATM   29  C15 UNL     1       8.318   0.670  -0.217  1.00  0.00    -0.079 A 
HETATM   30  C16 UNL     1       9.262   1.537  -0.948  1.00  0.00     0.043 C 
HETATM   31  C17 UNL     1       6.889   0.893  -0.501  1.00  0.00     0.078 A 
ENDBRANCH  23  26
ENDBRANCH  20  22
ENDBRANCH   2  19
TORSDOF 8
