REMARK  3 active torsions:
REMARK  status: ('A' for Active; 'I' for Inactive)
REMARK    1  A    between atoms: C2_2  and  C3_3 
REMARK    2  A    between atoms: C4_4  and  O1_5 
REMARK    3  A    between atoms: C23_28  and  O4_29 
ROOT
HETATM    1  C3  UNL     1      -3.305   1.552   0.010  1.00  0.00     0.097 A 
HETATM    2  C4  UNL     1      -3.256   2.754   0.869  1.00  0.00     0.056 A 
HETATM    3  C6  UNL     1      -2.290   3.129   1.692  1.00  0.00     0.036 A 
HETATM    4  C7  UNL     1      -1.089   2.314   1.831  1.00  0.00     0.041 A 
HETATM    5  C8  UNL     1      -0.977   1.202   1.130  1.00  0.00     0.095 A 
HETATM    6  O2  UNL     1       0.039   0.308   1.106  1.00  0.00    -0.329 OA
HETATM    7  C9  UNL     1       0.321  -0.596   0.007  1.00  0.00     0.139 C 
HETATM    8  C10 UNL     1       1.170  -1.629   0.709  1.00  0.00     0.014 C 
HETATM    9  C11 UNL     1       2.421  -1.583   1.249  1.00  0.00    -0.008 C 
HETATM   10  C12 UNL     1       3.663  -0.900   1.587  1.00  0.00     0.143 C 
HETATM   11  N1  UNL     1       4.920  -1.344   1.147  1.00  0.00    -0.396 N 
HETATM   12  C13 UNL     1       5.264  -1.230  -0.250  1.00  0.00     0.319 C 
HETATM   13  O3  UNL     1       4.705  -2.123  -1.084  1.00  0.00    -0.261 OA
HETATM   14  N2  UNL     1       4.910  -2.032  -2.418  1.00  0.00    -0.269 N 
HETATM   15  C14 UNL     1       3.480  -1.674  -2.292  1.00  0.00     0.041 A 
HETATM   16  C15 UNL     1       2.647  -2.755  -1.901  1.00  0.00     0.025 A 
HETATM   17  C16 UNL     1       1.738  -1.750  -1.688  1.00  0.00    -0.009 A 
HETATM   18  C17 UNL     1       2.010  -0.471  -1.915  1.00  0.00     0.025 A 
HETATM   19  C18 UNL     1       2.624   0.700  -2.254  1.00  0.00    -0.055 A 
HETATM   20  C19 UNL     1       3.537  -0.308  -2.457  1.00  0.00     0.085 A 
HETATM   21  C20 UNL     1       1.741   1.836  -2.082  1.00  0.00     0.001 C 
HETATM   22  C21 UNL     1       0.571   1.324  -1.623  1.00  0.00    -0.017 C 
HETATM   23  C22 UNL     1       1.130   0.177  -0.949  1.00  0.00     0.069 C 
HETATM   24  C23 UNL     1      -0.947  -1.182  -0.486  1.00  0.00     0.283 C 
HETATM   25  N3  UNL     1      -2.071  -0.239  -0.497  1.00  0.00    -0.255 NA
HETATM   26  C25 UNL     1      -2.026   0.794   0.239  1.00  0.00     0.075 A 
HETATM   27  H16 UNL     1       5.255  -2.201   1.599  1.00  0.00     0.155 HD
HETATM   28  H19 UNL     1       5.745  -2.182  -3.028  1.00  0.00     0.194 HD
ENDROOT
BRANCH  24  29
HETATM   29  O4  UNL     1      -1.354  -2.187   0.408  1.00  0.00    -0.366 OA
HETATM   30  C24 UNL     1      -1.551  -3.412  -0.174  1.00  0.00     0.204 C 
ENDBRANCH  24  29
BRANCH   1  31
HETATM   31  C2  UNL     1      -4.435   0.618   0.300  1.00  0.00     0.013 C 
HETATM   32  C1  UNL     1      -5.799   1.194   0.151  1.00  0.00     0.006 C 
ENDBRANCH   1  31
BRANCH   2  33
HETATM   33  O1  UNL     1      -4.306   3.692   0.905  1.00  0.00    -0.359 OA
HETATM   34  C5  UNL     1      -4.954   4.092   2.076  1.00  0.00     0.209 C 
ENDBRANCH   2  33
TORSDOF 3
