REMARK  2 active torsions:
REMARK  status: ('A' for Active; 'I' for Inactive)
REMARK       I    between atoms: C1_2  and  N1_3 
REMARK       I    between atoms: C1_2  and  N4_22 
REMARK    1  A    between atoms: N1_3  and  C2_4 
REMARK    2  A    between atoms: N4_22  and  C15_23 
ROOT
HETATM    1  C2  UNL     1       0.206   0.455  -1.082  1.00  0.00     0.022 C 
HETATM    2  C3  UNL     1       0.422   1.549  -0.385  1.00  0.00     0.073 C 
HETATM    3  C4  UNL     1       1.411   2.380   0.234  1.00  0.00     0.012 C 
HETATM    4  C5  UNL     1       2.666   2.650   0.519  1.00  0.00     0.035 C 
HETATM    5  C6  UNL     1       3.646   1.704  -0.009  1.00  0.00     0.096 C 
HETATM    6  C7  UNL     1       5.007   2.333  -0.236  1.00  0.00     0.170 C 
HETATM    7  C8  UNL     1       5.712   2.586   1.035  1.00  0.00     0.123 C 
HETATM    8  N2  UNL     1       5.189   3.212   2.025  1.00  0.00    -0.256 NA
HETATM    9  C9  UNL     1       3.990   3.963   2.059  1.00  0.00     0.232 C 
HETATM   10  N3  UNL     1       2.919   3.791   1.300  1.00  0.00    -0.247 NA
HETATM   11  O2  UNL     1       5.672   1.809  -1.262  1.00  0.00    -0.356 OA
HETATM   12  C10 UNL     1       5.345   0.638  -1.859  1.00  0.00     0.341 C 
HETATM   13  O3  UNL     1       5.377  -0.512  -1.083  1.00  0.00    -0.343 OA
HETATM   14  C11 UNL     1       5.041  -1.644  -1.793  1.00  0.00     0.340 C 
HETATM   15  O4  UNL     1       3.763  -1.697  -2.331  1.00  0.00    -0.363 OA
HETATM   16  C12 UNL     1       2.799  -1.667  -1.336  1.00  0.00     0.198 C 
HETATM   17  C13 UNL     1       1.425  -1.647  -1.842  1.00  0.00     0.001 C 
HETATM   18  C14 UNL     1       0.383  -0.833  -1.758  1.00  0.00     0.024 C 
ENDROOT
BRANCH   1  19
HETATM   19  N1  UNL     1      -1.195   0.871  -0.996  1.00  0.00    -0.312 N 
HETATM   20  C1  UNL     1      -1.937  -0.122  -0.273  1.00  0.00     0.325 C 
HETATM   21  O1  UNL     1      -1.169  -1.070   0.080  1.00  0.00    -0.247 OA
HETATM   22  N4  UNL     1      -3.299  -0.176   0.070  1.00  0.00    -0.308 N 
HETATM   23  H17 UNL     1      -3.734   0.674  -0.305  1.00  0.00     0.170 HD
HETATM   24  H1  UNL     1      -1.857   1.659  -1.300  1.00  0.00     0.170 HD
BRANCH  22  25
HETATM   25  C15 UNL     1      -4.000  -1.169   0.784  1.00  0.00     0.047 A 
HETATM   26  C16 UNL     1      -3.448  -2.317   1.298  1.00  0.00     0.030 A 
HETATM   27  C17 UNL     1      -4.124  -3.292   1.996  1.00  0.00     0.003 A 
HETATM   28  C18 UNL     1      -5.477  -3.104   2.202  1.00  0.00     0.012 A 
HETATM   29  C19 UNL     1      -6.062  -1.962   1.699  1.00  0.00    -0.024 A 
HETATM   30  C20 UNL     1      -7.411  -1.857   1.950  1.00  0.00     0.012 A 
HETATM   31  C24 UNL     1      -5.328  -1.013   1.002  1.00  0.00     0.001 A 
HETATM   32  C21 UNL     1      -8.087  -0.754   1.489  1.00  0.00     0.001 A 
HETATM   33  C22 UNL     1      -7.435   0.237   0.787  1.00  0.00     0.001 A 
HETATM   34  C23 UNL     1      -6.089   0.053   0.582  1.00  0.00     0.014 A 
ENDBRANCH  22  25
ENDBRANCH   1  19
TORSDOF 2
