REMARK  5 active torsions:
REMARK  status: ('A' for Active; 'I' for Inactive)
REMARK    1  A    between atoms: O1_2  and  C2_3 
REMARK    2  A    between atoms: C3_4  and  C4_5 
REMARK    3  A    between atoms: C5_6  and  C6_7 
REMARK    4  A    between atoms: C9_10  and  C10_11 
REMARK       I    between atoms: C10_11  and  N1_13 
REMARK    5  A    between atoms: N1_13  and  C11_14 
ROOT
HETATM    1  C10 UNL     1       1.328   1.096  -0.252  1.00  0.00     0.256 C 
HETATM    2  O2  UNL     1       1.836   2.141   0.228  1.00  0.00    -0.267 OA
HETATM    3  N1  UNL     1       2.285   0.193  -0.745  1.00  0.00    -0.322 N 
HETATM    4  H8  UNL     1       2.034  -0.724  -1.176  1.00  0.00     0.169 HD
ENDROOT
BRANCH   1   5
HETATM    5  C9  UNL     1      -0.097   0.798  -0.316  1.00  0.00     0.032 A 
HETATM    6  C8  UNL     1      -0.658  -0.365  -0.849  1.00  0.00     0.018 A 
HETATM    7  C7  UNL     1      -2.033  -0.493  -0.834  1.00  0.00     0.012 A 
HETATM    8  C6  UNL     1      -2.886   0.443  -0.331  1.00  0.00    -0.036 A 
HETATM    9  C22 UNL     1      -2.309   1.584   0.191  1.00  0.00     0.012 A 
HETATM   10  C21 UNL     1      -0.929   1.784   0.210  1.00  0.00     0.018 A 
BRANCH   8  11
HETATM   11  C5  UNL     1      -4.324   0.292  -0.323  1.00  0.00     0.020 C 
HETATM   12  C4  UNL     1      -4.926  -0.777  -0.808  1.00  0.00     0.067 C 
BRANCH  12  13
HETATM   13  C3  UNL     1      -6.373  -0.924  -0.798  1.00  0.00    -0.048 C 
HETATM   14  C2  UNL     1      -7.587  -1.032  -0.798  1.00  0.00     0.058 C 
BRANCH  14  15
HETATM   15  O1  UNL     1      -8.947  -1.153  -0.821  1.00  0.00    -0.308 OA
HETATM   16  C1  UNL     1      -9.757  -0.638   0.231  1.00  0.00     0.223 C 
ENDBRANCH  14  15
ENDBRANCH  12  13
ENDBRANCH   8  11
ENDBRANCH   1   5
BRANCH   3  17
HETATM   17  C11 UNL     1       3.703   0.316  -0.765  1.00  0.00     0.046 A 
HETATM   18  C12 UNL     1       4.421   0.880  -1.798  1.00  0.00     0.030 A 
HETATM   19  C13 UNL     1       5.802   0.938  -1.691  1.00  0.00     0.003 A 
HETATM   20  C14 UNL     1       6.474   0.448  -0.583  1.00  0.00     0.012 A 
HETATM   21  C15 UNL     1       5.734  -0.108   0.428  1.00  0.00    -0.024 A 
HETATM   22  C16 UNL     1       6.425  -0.590   1.524  1.00  0.00     0.012 A 
HETATM   23  C20 UNL     1       4.342  -0.190   0.370  1.00  0.00     0.001 A 
HETATM   24  C17 UNL     1       5.763  -1.166   2.591  1.00  0.00     0.001 A 
HETATM   25  C18 UNL     1       4.391  -1.235   2.508  1.00  0.00     0.001 A 
HETATM   26  C19 UNL     1       3.670  -0.764   1.430  1.00  0.00     0.014 A 
ENDBRANCH   3  17
TORSDOF 5
