REMARK  0 active torsions:
REMARK  status: ('A' for Active; 'I' for Inactive)
ROOT
HETATM    1  C1  UNL     1      -5.931   1.736   0.299  1.00  0.00     0.038 C 
HETATM    2  C2  UNL     1      -4.819   0.793   0.481  1.00  0.00     0.001 C 
HETATM    3  C3  UNL     1      -3.517   0.817   0.848  1.00  0.00     0.045 C 
HETATM    4  C4  UNL     1      -2.973   2.145   1.179  1.00  0.00     0.091 C 
HETATM    5  C5  UNL     1      -1.934   2.614   0.247  1.00  0.00    -0.019 C 
HETATM    6  C6  UNL     1      -0.697   2.924   0.542  1.00  0.00     0.015 C 
HETATM    7  C7  UNL     1       0.080   3.357  -0.602  1.00  0.00     0.117 C 
HETATM    8  N1  UNL     1       1.038   3.767  -1.316  1.00  0.00    -0.255 NA
HETATM    9  C8  UNL     1       2.345   4.066  -0.848  1.00  0.00     0.228 C 
HETATM   10  N2  UNL     1       3.282   4.735  -1.472  1.00  0.00    -0.257 NA
HETATM   11  C9  UNL     1       4.545   4.881  -0.722  1.00  0.00     0.325 C 
HETATM   12  O1  UNL     1       5.347   3.716  -1.048  1.00  0.00    -0.330 OA
HETATM   13  C10 UNL     1       4.716   2.487  -0.731  1.00  0.00     0.071 A 
HETATM   14  C11 UNL     1       4.653   1.800   0.453  1.00  0.00     0.039 A 
HETATM   15  C12 UNL     1       3.944   0.624   0.433  1.00  0.00     0.032 A 
HETATM   16  C13 UNL     1       3.334   0.166  -0.712  1.00  0.00     0.034 A 
HETATM   17  C14 UNL     1       3.411   0.880  -1.912  1.00  0.00     0.032 A 
HETATM   18  C15 UNL     1       4.119   2.056  -1.894  1.00  0.00     0.039 A 
HETATM   19  N3  UNL     1       2.613  -1.047  -0.558  1.00  0.00    -0.327 N 
HETATM   20  C16 UNL     1       2.651  -2.457  -0.423  1.00  0.00     0.222 C 
HETATM   21  O2  UNL     1       3.899  -2.613  -0.468  1.00  0.00    -0.273 OA
HETATM   22  C17 UNL     1       1.254  -3.013  -0.302  1.00  0.00     0.103 C 
HETATM   23  C18 UNL     1       1.245  -4.464  -0.079  1.00  0.00     0.009 C 
HETATM   24  C19 UNL     1      -0.121  -5.059  -0.121  1.00  0.00     0.000 C 
HETATM   25  C20 UNL     1      -1.192  -4.507   0.716  1.00  0.00     0.000 C 
HETATM   26  C21 UNL     1      -1.834  -3.229   0.320  1.00  0.00     0.002 C 
HETATM   27  C22 UNL     1      -2.902  -2.845   1.358  1.00  0.00     0.027 C 
HETATM   28  C23 UNL     1      -3.649  -1.603   0.990  1.00  0.00     0.175 C 
HETATM   29  O3  UNL     1      -2.878  -0.436   0.860  1.00  0.00    -0.355 OA
HETATM   30  H17 UNL     1       1.724  -0.452  -0.552  1.00  0.00     0.169 HD
ENDROOT
TORSDOF 0
