REMARK  7 active torsions:
REMARK  status: ('A' for Active; 'I' for Inactive)
REMARK    1  A    between atoms: O1_2  and  C2_3 
REMARK    2  A    between atoms: C2_3  and  O2_4 
REMARK    3  A    between atoms: O2_4  and  C3_5 
REMARK    4  A    between atoms: C9_13  and  N3_14 
REMARK    5  A    between atoms: N3_14  and  C10_15 
REMARK    6  A    between atoms: C13_18  and  N4_19 
REMARK    7  A    between atoms: N4_19  and  C14_20 
ROOT
HETATM    1  C3  UNL     1      -2.478  -0.486   0.316  1.00  0.00     0.087 A 
HETATM    2  C4  UNL     1      -3.816  -0.818   0.315  1.00  0.00     0.038 A 
HETATM    3  C5  UNL     1      -4.220  -2.152   0.294  1.00  0.00     0.005 A 
HETATM    4  C6  UNL     1      -3.243  -3.139   0.274  1.00  0.00     0.033 A 
HETATM    5  C7  UNL     1      -1.901  -2.829   0.274  1.00  0.00     0.075 A 
HETATM    6  N1  UNL     1      -0.936  -3.761   0.251  1.00  0.00    -0.241 NA
HETATM    7  C8  UNL     1       0.348  -3.435   0.248  1.00  0.00     0.236 A 
HETATM    8  N2  UNL     1       0.673  -2.132   0.269  1.00  0.00    -0.223 NA
HETATM    9  C9  UNL     1      -0.220  -1.143   0.292  1.00  0.00     0.144 A 
HETATM   10  C17 UNL     1      -1.544  -1.494   0.295  1.00  0.00     0.072 A 
ENDROOT
BRANCH   9  11
HETATM   11  N3  UNL     1       0.295   0.179   0.313  1.00  0.00    -0.340 N 
HETATM   12  H10 UNL     1      -0.050   1.151   0.385  1.00  0.00     0.167 HD
BRANCH  11  13
HETATM   13  C10 UNL     1       1.697   0.403   0.212  1.00  0.00     0.033 A 
HETATM   14  C11 UNL     1       2.449   1.370   0.894  1.00  0.00     0.032 A 
HETATM   15  C12 UNL     1       3.795   1.550   0.738  1.00  0.00     0.032 A 
HETATM   16  C13 UNL     1       4.509   0.766  -0.126  1.00  0.00     0.034 A 
HETATM   17  C15 UNL     1       3.822  -0.197  -0.819  1.00  0.00     0.032 A 
HETATM   18  C16 UNL     1       2.463  -0.379  -0.662  1.00  0.00     0.032 A 
BRANCH  16  19
HETATM   19  N4  UNL     1       5.888   1.064  -0.183  1.00  0.00    -0.334 N 
HETATM   20  H13 UNL     1       6.346   1.815   0.365  1.00  0.00     0.168 HD
BRANCH  19  21
HETATM   21  C14 UNL     1       6.868   0.422  -0.970  1.00  0.00     0.353 C 
HETATM   22  O3  UNL     1       6.600  -0.522  -1.732  1.00  0.00    -0.283 OA
ENDBRANCH  19  21
ENDBRANCH  16  19
ENDBRANCH  11  13
ENDBRANCH   9  11
BRANCH   1  23
HETATM   23  O2  UNL     1      -2.199   0.865   0.338  1.00  0.00    -0.325 OA
BRANCH  23  24
HETATM   24  C2  UNL     1      -3.128   1.904   0.356  1.00  0.00     0.344 C 
BRANCH  24  25
HETATM   25  O1  UNL     1      -3.922   1.828  -0.792  1.00  0.00    -0.371 OA
HETATM   26  C1  UNL     1      -4.841   2.894  -0.730  1.00  0.00     0.204 C 
ENDBRANCH  24  25
ENDBRANCH  23  24
ENDBRANCH   1  23
TORSDOF 7
