REMARK  5 active torsions:
REMARK  status: ('A' for Active; 'I' for Inactive)
REMARK       I    between atoms: N1_7  and  C7_8 
REMARK       I    between atoms: C7_8  and  N2_10 
REMARK    1  A    between atoms: N2_10  and  C8_11 
REMARK    2  A    between atoms: C11_14  and  O2_15 
REMARK    3  A    between atoms: O2_15  and  C12_16 
REMARK    4  A    between atoms: C16_22  and  O3_23 
REMARK    5  A    between atoms: C18_25  and  O4_26 
ROOT
HETATM    1  C8  UNL     1      -1.650   1.507  -0.215  1.00  0.00     0.135 A 
HETATM    2  C9  UNL     1      -1.451   2.282   1.038  1.00  0.00     0.005 A 
HETATM    3  C10 UNL     1      -0.258   2.036   1.557  1.00  0.00     0.035 A 
HETATM    4  C11 UNL     1       0.440   1.081   0.703  1.00  0.00     0.076 A 
HETATM    5  C22 UNL     1      -0.364   0.773  -0.323  1.00  0.00     0.039 A 
ENDROOT
BRANCH   4   6
HETATM    6  O2  UNL     1       1.658   0.417   0.643  1.00  0.00    -0.291 OA
BRANCH   6   7
HETATM    7  C12 UNL     1       2.821   1.108   0.259  1.00  0.00     0.183 A 
HETATM    8  N3  UNL     1       2.799   2.418  -0.059  1.00  0.00    -0.217 NA
HETATM    9  C13 UNL     1       3.892   3.099  -0.428  1.00  0.00     0.236 A 
HETATM   10  N4  UNL     1       5.090   2.521  -0.505  1.00  0.00    -0.241 NA
HETATM   11  C14 UNL     1       5.168   1.210  -0.197  1.00  0.00     0.075 A 
HETATM   12  C15 UNL     1       6.354   0.515  -0.243  1.00  0.00     0.072 A 
HETATM   13  C21 UNL     1       4.055   0.480   0.187  1.00  0.00     0.049 A 
HETATM   14  C16 UNL     1       6.468  -0.827   0.066  1.00  0.00     0.103 A 
HETATM   15  C18 UNL     1       5.335  -1.534   0.449  1.00  0.00     0.102 A 
HETATM   16  C20 UNL     1       4.146  -0.838   0.496  1.00  0.00     0.057 A 
BRANCH  14  17
HETATM   17  O3  UNL     1       7.727  -1.421  -0.019  1.00  0.00    -0.353 OA
HETATM   18  C17 UNL     1       8.808  -0.631  -0.412  1.00  0.00     0.210 C 
ENDBRANCH  14  17
BRANCH  15  19
HETATM   19  O4  UNL     1       5.568  -2.871   0.735  1.00  0.00    -0.353 OA
HETATM   20  C19 UNL     1       4.482  -3.714   1.142  1.00  0.00     0.210 C 
ENDBRANCH  15  19
ENDBRANCH   6   7
ENDBRANCH   4   6
BRANCH   1  21
HETATM   21  N2  UNL     1      -2.777   0.630  -0.039  1.00  0.00    -0.332 N 
HETATM   22  C7  UNL     1      -3.884   0.641  -0.907  1.00  0.00     0.323 C 
HETATM   23  N1  UNL     1      -4.984  -0.263  -0.678  1.00  0.00    -0.304 N 
HETATM   24  O1  UNL     1      -3.793   1.479  -1.837  1.00  0.00    -0.247 OA
HETATM   25  C2  UNL     1      -6.096  -0.212  -1.597  1.00  0.00     0.007 C 
HETATM   26  C6  UNL     1      -5.116  -1.239   0.385  1.00  0.00     0.133 C 
HETATM   27  C1  UNL     1      -5.965   0.260  -2.826  1.00  0.00     0.038 C 
HETATM   28  C3  UNL     1      -7.381  -0.745  -1.011  1.00  0.00     0.056 C 
HETATM   29  C4  UNL     1      -7.385  -0.169   0.412  1.00  0.00     0.007 C 
HETATM   30  C5  UNL     1      -6.278  -0.773   1.238  1.00  0.00     0.021 C 
HETATM   31  H11 UNL     1      -2.688  -0.004   0.787  1.00  0.00     0.165 HD
ENDBRANCH   1  21
TORSDOF 5
