REMARK  5 active torsions:
REMARK  status: ('A' for Active; 'I' for Inactive)
REMARK    1  A    between atoms: O1_2  and  C2_3 
REMARK    2  A    between atoms: C2_3  and  C3_4 
REMARK    3  A    between atoms: C5_6  and  C6_7 
REMARK    4  A    between atoms: C10_13  and  O2_14 
REMARK    5  A    between atoms: N3_15  and  C11_16 
ROOT
HETATM    1  C6  UNL     1       1.976   1.077   0.664  1.00  0.00     0.073 A 
HETATM    2  N1  UNL     1       2.887   1.903   1.266  1.00  0.00    -0.241 NA
HETATM    3  C7  UNL     1       2.889   3.204   0.948  1.00  0.00     0.236 A 
HETATM    4  N2  UNL     1       1.973   3.583   0.044  1.00  0.00    -0.217 NA
HETATM    5  C8  UNL     1       1.082   2.776  -0.545  1.00  0.00     0.179 A 
HETATM    6  C9  UNL     1       0.986   1.402  -0.287  1.00  0.00     0.082 A 
HETATM    7  C10 UNL     1       0.189   0.268  -0.670  1.00  0.00     0.407 A 
HETATM    8  N3  UNL     1      -1.246   0.250  -0.372  1.00  0.00     0.182 N 
HETATM    9  C17 UNL     1      -2.222   1.332  -0.711  1.00  0.00     0.296 A 
HETATM   10  O3  UNL     1      -0.986   1.000  -0.779  1.00  0.00     0.000 OA
HETATM   11  N4  UNL     1      -3.187   2.436  -1.063  1.00  0.00    -0.348 N 
HETATM   12  C18 UNL     1      -2.414   3.535  -1.708  1.00  0.00     0.081 A 
HETATM   13  C19 UNL     1      -2.485   3.989  -0.413  1.00  0.00     0.008 A 
HETATM   14  C20 UNL     1      -1.193   4.259  -0.030  1.00  0.00     0.014 A 
HETATM   15  C21 UNL     1      -0.902   3.837  -1.281  1.00  0.00     0.126 A 
HETATM   16  C22 UNL     1      -1.072   3.372  -2.540  1.00  0.00     0.085 A 
HETATM   17  C23 UNL     1      -2.343   3.087  -2.988  1.00  0.00    -0.006 A 
HETATM   18  O4  UNL     1       0.527   3.870  -1.308  1.00  0.00    -0.314 OA
HETATM   19  H24 UNL     1      -3.637   1.616  -0.602  1.00  0.00     0.162 HD
ENDROOT
BRANCH   1  20
HETATM   20  C5  UNL     1       2.231  -0.289   1.184  1.00  0.00     0.037 C 
HETATM   21  C3  UNL     1       2.602  -1.458   0.619  1.00  0.00    -0.058 C 
HETATM   22  C4  UNL     1       2.758  -2.657   1.478  1.00  0.00     0.046 C 
BRANCH  21  23
HETATM   23  C2  UNL     1       2.932  -1.954  -0.743  1.00  0.00     0.201 C 
BRANCH  23  24
HETATM   24  O1  UNL     1       4.243  -2.437  -0.723  1.00  0.00    -0.392 OA
HETATM   25  C1  UNL     1       5.113  -1.396  -0.355  1.00  0.00     0.201 C 
ENDBRANCH  23  24
ENDBRANCH  21  23
ENDBRANCH   1  20
BRANCH   7  26
HETATM   26  O2  UNL     1       0.324   0.040  -2.076  1.00  0.00    -0.364 OA
HETATM   27  H12 UNL     1       0.326  -0.907  -2.296  1.00  0.00     0.212 HD
ENDBRANCH   7  26
BRANCH   8  28
HETATM   28  C11 UNL     1      -1.947  -0.886   0.321  1.00  0.00     0.235 C 
HETATM   29  C12 UNL     1      -1.470  -1.069   1.721  1.00  0.00     0.036 C 
HETATM   30  C13 UNL     1      -2.166  -2.350   2.204  1.00  0.00     0.002 C 
HETATM   31  C14 UNL     1      -3.336  -2.728   1.339  1.00  0.00     0.000 C 
HETATM   32  C15 UNL     1      -2.962  -3.031  -0.094  1.00  0.00     0.002 C 
HETATM   33  C16 UNL     1      -1.741  -2.177  -0.417  1.00  0.00     0.036 C 
ENDBRANCH   8  28
TORSDOF 5
