REMARK  3 active torsions:
REMARK  status: ('A' for Active; 'I' for Inactive)
REMARK    1  A    between atoms: O1_2  and  C2_3 
REMARK    2  A    between atoms: N4_20  and  C15_21 
REMARK    3  A    between atoms: C23_30  and  O3_31 
ROOT
HETATM    1  C2  UNL     1      -2.761   2.093   0.487  1.00  0.00     0.098 A 
HETATM    2  C3  UNL     1      -1.470   1.963   0.754  1.00  0.00     0.027 A 
HETATM    3  C4  UNL     1      -0.762   0.733   1.099  1.00  0.00     0.108 A 
HETATM    4  C5  UNL     1       0.204   0.451   0.005  1.00  0.00     0.121 C 
HETATM    5  N1  UNL     1      -0.465   0.461  -1.057  1.00  0.00    -0.256 NA
HETATM    6  C6  UNL     1      -1.207  -0.843  -1.083  1.00  0.00     0.275 C 
HETATM    7  N2  UNL     1      -1.168  -1.530   0.199  1.00  0.00    -0.356 N 
HETATM    8  C7  UNL     1      -0.729  -2.921   0.323  1.00  0.00     0.012 C 
HETATM    9  C8  UNL     1      -0.825  -3.597  -0.875  1.00  0.00     0.026 C 
HETATM   10  C9  UNL     1       0.446  -3.806  -1.684  1.00  0.00     0.020 C 
HETATM   11  C10 UNL     1       1.806  -3.527  -1.568  1.00  0.00     0.101 C 
HETATM   12  N3  UNL     1       2.015  -2.664  -0.334  1.00  0.00    -0.285 N 
HETATM   13  C11 UNL     1       2.438  -3.439   0.811  1.00  0.00     0.097 C 
HETATM   14  C12 UNL     1       1.295  -3.738   1.578  1.00  0.00    -0.003 C 
HETATM   15  C13 UNL     1      -0.224  -3.538   1.621  1.00  0.00     0.085 C 
HETATM   16  C14 UNL     1       1.764  -1.289  -0.233  1.00  0.00     0.338 C 
HETATM   17  O2  UNL     1       2.537  -1.097  -1.095  1.00  0.00    -0.245 OA
HETATM   18  N4  UNL     1       1.595   0.109  -0.224  1.00  0.00    -0.250 N 
HETATM   19  C21 UNL     1      -1.641  -0.509   1.152  1.00  0.00     0.126 A 
HETATM   20  C22 UNL     1      -3.046  -0.252   0.839  1.00  0.00     0.038 A 
HETATM   21  C23 UNL     1      -3.603   0.905   0.533  1.00  0.00     0.097 A 
ENDROOT
BRANCH  18  22
HETATM   22  C15 UNL     1       2.209   1.374  -0.346  1.00  0.00     0.048 A 
HETATM   23  C16 UNL     1       2.322   1.986  -1.592  1.00  0.00     0.030 A 
HETATM   24  C17 UNL     1       2.921   3.226  -1.731  1.00  0.00     0.005 A 
HETATM   25  C18 UNL     1       3.382   3.777  -0.536  1.00  0.00     0.042 A 
HETATM   26  C19 UNL     1       3.292   3.209   0.718  1.00  0.00     0.118 A 
HETATM   27  F1  UNL     1       3.786   3.863   1.799  1.00  0.00    -0.206 F 
HETATM   28  C20 UNL     1       2.685   1.974   0.791  1.00  0.00     0.072 A 
ENDBRANCH  18  22
BRANCH   1  29
HETATM   29  O1  UNL     1      -3.373   3.296   0.164  1.00  0.00    -0.353 OA
HETATM   30  C1  UNL     1      -2.552   4.316  -0.389  1.00  0.00     0.210 C 
ENDBRANCH   1  29
BRANCH  21  31
HETATM   31  O3  UNL     1      -4.980   0.959   0.262  1.00  0.00    -0.358 OA
HETATM   32  H21 UNL     1      -5.624   1.005   1.067  1.00  0.00     0.217 HD
ENDBRANCH  21  31
TORSDOF 3
