REMARK  6 active torsions:
REMARK  status: ('A' for Active; 'I' for Inactive)
REMARK    1  A    between atoms: C3_3  and  N1_5 
REMARK    2  A    between atoms: N1_5  and  C4_6 
REMARK    3  A    between atoms: C7_9  and  O2_10 
REMARK    4  A    between atoms: O2_10  and  C8_11 
REMARK    5  A    between atoms: C12_17  and  O3_18 
REMARK    6  A    between atoms: C14_20  and  O4_21 
ROOT
HETATM    1  C8  UNL     1      -0.826   0.943  -0.323  1.00  0.00     0.183 A 
HETATM    2  N2  UNL     1      -0.497   2.223  -0.366  1.00  0.00    -0.217 NA
HETATM    3  C9  UNL     1      -1.344   3.218  -0.643  1.00  0.00     0.236 A 
HETATM    4  N3  UNL     1      -2.650   2.942  -0.908  1.00  0.00    -0.241 NA
HETATM    5  C10 UNL     1      -3.084   1.648  -0.888  1.00  0.00     0.075 A 
HETATM    6  C11 UNL     1      -4.420   1.476  -1.168  1.00  0.00     0.072 A 
HETATM    7  C12 UNL     1      -4.890   0.183  -1.154  1.00  0.00     0.103 A 
HETATM    8  C14 UNL     1      -4.036  -0.867  -0.869  1.00  0.00     0.102 A 
HETATM    9  C16 UNL     1      -2.710  -0.612  -0.599  1.00  0.00     0.057 A 
HETATM   10  C17 UNL     1      -2.168   0.678  -0.597  1.00  0.00     0.049 A 
ENDROOT
BRANCH   1  11
HETATM   11  O2  UNL     1      -0.120  -0.196  -0.065  1.00  0.00    -0.291 OA
BRANCH  11  12
HETATM   12  C7  UNL     1       1.222  -0.155   0.229  1.00  0.00     0.078 A 
HETATM   13  C6  UNL     1       1.700  -1.455   0.407  1.00  0.00     0.039 A 
HETATM   14  C5  UNL     1       3.043  -1.708   0.717  1.00  0.00     0.032 A 
HETATM   15  C4  UNL     1       3.948  -0.692   0.860  1.00  0.00     0.030 A 
HETATM   16  C19 UNL     1       3.429   0.556   0.675  1.00  0.00     0.032 A 
HETATM   17  C18 UNL     1       2.140   0.862   0.375  1.00  0.00     0.039 A 
BRANCH  15  18
HETATM   18  N1  UNL     1       5.282  -1.014   1.159  1.00  0.00    -0.353 N 
HETATM   19  H4  UNL     1       5.590  -2.000   1.260  1.00  0.00     0.163 HD
BRANCH  18  20
HETATM   20  C3  UNL     1       6.364  -0.144   1.359  1.00  0.00     0.175 A 
HETATM   21  C2  UNL     1       7.767  -0.339   1.660  1.00  0.00     0.038 A 
HETATM   22  C1  UNL     1       7.713   0.998   1.605  1.00  0.00     0.234 A 
HETATM   23  O1  UNL     1       6.234   1.093   1.291  1.00  0.00    -0.349 OA
ENDBRANCH  18  20
ENDBRANCH  15  18
ENDBRANCH  11  12
ENDBRANCH   1  11
BRANCH   8  24
HETATM   24  O4  UNL     1      -4.589  -2.130  -0.876  1.00  0.00    -0.353 OA
HETATM   25  C15 UNL     1      -3.937  -3.334  -0.621  1.00  0.00     0.210 C 
ENDBRANCH   8  24
BRANCH   7  26
HETATM   26  O3  UNL     1      -6.228  -0.055  -1.428  1.00  0.00    -0.353 OA
HETATM   27  C13 UNL     1      -7.105   1.013  -1.720  1.00  0.00     0.210 C 
ENDBRANCH   7  26
TORSDOF 6
