REMARK  7 active torsions:
REMARK  status: ('A' for Active; 'I' for Inactive)
REMARK    1  A    between atoms: C5_6  and  O1_7 
REMARK    2  A    between atoms: C7_9  and  O2_10 
REMARK    3  A    between atoms: N2_15  and  C12_16 
REMARK    4  A    between atoms: C12_16  and  N3_17 
REMARK    5  A    between atoms: C15_20  and  C16_21 
REMARK    6  A    between atoms: C16_21  and  N4_23 
REMARK    7  A    between atoms: C20_27  and  C21_28 
ROOT
HETATM    1  C12 UNL     1       1.046   1.100  -0.584  1.00  0.00     0.272 A 
HETATM    2  C13 UNL     1       2.192   0.869  -1.479  1.00  0.00     0.042 A 
HETATM    3  C14 UNL     1       3.071  -0.010  -0.968  1.00  0.00     0.011 A 
HETATM    4  C15 UNL     1       2.547  -0.425   0.331  1.00  0.00    -0.020 A 
HETATM    5  C22 UNL     1       1.402   0.197   0.558  1.00  0.00     0.051 A 
ENDROOT
BRANCH   1   6
HETATM    6  N2  UNL     1      -0.233   0.730  -1.152  1.00  0.00    -0.302 N 
HETATM    7  C2  UNL     1      -0.572   0.174  -2.391  1.00  0.00     0.109 A 
HETATM    8  C1  UNL     1       0.470  -0.042  -3.173  1.00  0.00     0.086 C 
HETATM    9  N1  UNL     1      -1.943  -0.087  -2.660  1.00  0.00    -0.234 NA
HETATM   10  C3  UNL     1      -2.866   0.175  -1.795  1.00  0.00     0.073 A 
HETATM   11  C4  UNL     1      -4.161  -0.121  -2.165  1.00  0.00     0.072 A 
HETATM   12  C10 UNL     1      -2.567   0.725  -0.560  1.00  0.00     0.011 A 
HETATM   13  C5  UNL     1      -5.215   0.123  -1.308  1.00  0.00     0.103 A 
HETATM   14  C7  UNL     1      -4.945   0.670  -0.072  1.00  0.00     0.102 A 
HETATM   15  C9  UNL     1      -3.635   0.961   0.282  1.00  0.00     0.054 A 
HETATM   16  C11 UNL     1      -1.304   1.003  -0.223  1.00  0.00     0.109 A 
BRANCH  13  17
HETATM   17  O1  UNL     1      -6.518  -0.163  -1.653  1.00  0.00    -0.353 OA
HETATM   18  C6  UNL     1      -6.900  -0.721  -2.886  1.00  0.00     0.210 C 
ENDBRANCH  13  17
BRANCH  14  19
HETATM   19  O2  UNL     1      -6.000   0.908   0.771  1.00  0.00    -0.353 OA
HETATM   20  C8  UNL     1      -5.933   1.460   2.060  1.00  0.00     0.210 C 
ENDBRANCH  14  19
ENDBRANCH   1   6
BRANCH   1  21
HETATM   21  N3  UNL     1       1.049   2.450  -0.111  1.00  0.00     0.115 N 
HETATM   22  H12 UNL     1       1.979   2.874  -0.312  1.00  0.00     0.317 HD
HETATM   23  H13 UNL     1       0.863   2.490   0.912  1.00  0.00     0.317 HD
ENDBRANCH   1  21
BRANCH   4  24
HETATM   24  C16 UNL     1       3.287  -1.409   1.172  1.00  0.00     0.219 C 
HETATM   25 CL1  UNL     1       3.409  -2.890   0.210  1.00  0.00    -0.097 Cl
BRANCH  24  26
HETATM   26  N4  UNL     1       4.580  -0.895   1.565  1.00  0.00    -0.336 N 
HETATM   27  C17 UNL     1       4.983   0.369   1.333  1.00  0.00     0.093 A 
HETATM   28  C18 UNL     1       6.259   0.533   1.830  1.00  0.00     0.019 A 
HETATM   29  C19 UNL     1       6.559  -0.705   2.357  1.00  0.00     0.029 A 
HETATM   30  C20 UNL     1       5.515  -1.618   2.200  1.00  0.00     0.041 A 
BRANCH  30  31
HETATM   31  C21 UNL     1       5.539  -3.009   2.658  1.00  0.00     0.279 C 
HETATM   32  F1  UNL     1       5.068  -3.176   3.962  1.00  0.00    -0.249 F 
ENDBRANCH  30  31
ENDBRANCH  24  26
ENDBRANCH   4  24
TORSDOF 7
