REMARK  7 active torsions:
REMARK  status: ('A' for Active; 'I' for Inactive)
REMARK    1  A    between atoms: C2_2  and  C3_3 
REMARK    2  A    between atoms: C3_3  and  N1_4 
REMARK    3  A    between atoms: C3_3  and  N3_16 
REMARK       I    between atoms: N1_4  and  C4_5 
REMARK       I    between atoms: C4_5  and  N2_7 
REMARK    4  A    between atoms: N2_7  and  C5_8 
REMARK    5  A    between atoms: N3_16  and  C12_18 
REMARK    6  A    between atoms: C16_24  and  O2_25 
REMARK    7  A    between atoms: C18_27  and  O3_28 
ROOT
HETATM    1  C3  UNL     1       0.576   1.798   1.115  1.00  0.00     0.108 C 
ENDROOT
BRANCH   1   2
HETATM    2  C2  UNL     1       1.362   2.780   1.513  1.00  0.00     0.018 C 
HETATM    3  C1  UNL     1       2.428   3.708   1.832  1.00  0.00     0.040 C 
ENDBRANCH   1   2
BRANCH   1   4
HETATM    4  N1  UNL     1       1.004   0.625   0.398  1.00  0.00    -0.294 N 
HETATM    5  C4  UNL     1       2.264   0.231  -0.063  1.00  0.00     0.326 C 
HETATM    6  O1  UNL     1       3.256   0.975   0.137  1.00  0.00    -0.247 OA
HETATM    7  N2  UNL     1       2.626  -0.942  -0.762  1.00  0.00    -0.309 N 
HETATM    8  H6  UNL     1       1.832  -1.618  -0.964  1.00  0.00     0.170 HD
HETATM    9  H5  UNL     1       0.336  -0.144   0.115  1.00  0.00     0.172 HD
BRANCH   7  10
HETATM   10  C5  UNL     1       4.024  -1.063  -1.105  1.00  0.00     0.038 A 
HETATM   11  C6  UNL     1       4.535  -0.592  -2.297  1.00  0.00     0.032 A 
HETATM   12  C7  UNL     1       5.889  -0.779  -2.481  1.00  0.00     0.046 A 
HETATM   13  C8  UNL     1       6.700  -1.402  -1.529  1.00  0.00     0.138 A 
HETATM   14  F1  UNL     1       8.009  -1.542  -1.790  1.00  0.00    -0.204 F 
HETATM   15  C9  UNL     1       6.128  -1.851  -0.357  1.00  0.00     0.074 A 
HETATM   16 CL1  UNL     1       7.142  -2.636   0.851  1.00  0.00    -0.081 Cl
HETATM   17  C10 UNL     1       4.777  -1.685  -0.132  1.00  0.00     0.056 A 
ENDBRANCH   7  10
ENDBRANCH   1   4
BRANCH   1  18
HETATM   18  N3  UNL     1      -0.855   1.711   1.317  1.00  0.00    -0.322 N 
HETATM   19  C11 UNL     1      -1.560   2.938   0.943  1.00  0.00     0.159 C 
BRANCH  18  20
HETATM   20  C12 UNL     1      -1.427   0.513   1.827  1.00  0.00     0.145 A 
HETATM   21  N4  UNL     1      -1.126   0.070   3.039  1.00  0.00    -0.223 NA
HETATM   22  C13 UNL     1      -1.668  -1.069   3.548  1.00  0.00     0.236 A 
HETATM   23  N5  UNL     1      -2.530  -1.732   2.756  1.00  0.00    -0.241 NA
HETATM   24  C14 UNL     1      -2.868  -1.326   1.521  1.00  0.00     0.075 A 
HETATM   25  C15 UNL     1      -3.756  -2.055   0.764  1.00  0.00     0.072 A 
HETATM   26  C21 UNL     1      -2.312  -0.172   1.022  1.00  0.00     0.042 A 
HETATM   27  C16 UNL     1      -4.150  -1.709  -0.507  1.00  0.00     0.103 A 
HETATM   28  C18 UNL     1      -3.581  -0.534  -1.011  1.00  0.00     0.102 A 
HETATM   29  C20 UNL     1      -2.683   0.208  -0.251  1.00  0.00     0.057 A 
BRANCH  27  30
HETATM   30  O2  UNL     1      -5.020  -2.352  -1.346  1.00  0.00    -0.353 OA
HETATM   31  C17 UNL     1      -5.643  -3.533  -0.940  1.00  0.00     0.210 C 
ENDBRANCH  27  30
BRANCH  28  32
HETATM   32  O3  UNL     1      -3.902  -0.082  -2.285  1.00  0.00    -0.353 OA
HETATM   33  C19 UNL     1      -3.304   1.104  -2.749  1.00  0.00     0.210 C 
ENDBRANCH  28  32
ENDBRANCH  18  20
ENDBRANCH   1  18
TORSDOF 7
