REMARK  5 active torsions:
REMARK  status: ('A' for Active; 'I' for Inactive)
REMARK       I    between atoms: N1_2  and  C2_3 
REMARK    1  A    between atoms: N1_2  and  C3_6 
REMARK       I    between atoms: C2_3  and  N2_4 
REMARK    2  A    between atoms: C6_9  and  N3_10 
REMARK    3  A    between atoms: N3_10  and  C7_11 
REMARK    4  A    between atoms: C7_11  and  N4_12 
REMARK    5  A    between atoms: N4_12  and  C8_13 
ROOT
HETATM    1  C3  UNL     1      -2.653  -0.286  -0.239  1.00  0.00     0.038 A 
HETATM    2  C4  UNL     1      -1.957   0.368   0.740  1.00  0.00     0.032 A 
HETATM    3  C5  UNL     1      -0.765  -0.164   1.187  1.00  0.00     0.031 A 
HETATM    4  C6  UNL     1      -0.201  -1.330   0.717  1.00  0.00     0.029 A 
HETATM    5  C14 UNL     1      -0.939  -1.941  -0.259  1.00  0.00     0.031 A 
HETATM    6  C15 UNL     1      -2.133  -1.457  -0.743  1.00  0.00     0.032 A 
ENDROOT
BRANCH   4   7
HETATM    7  N3  UNL     1       1.026  -1.865   1.185  1.00  0.00    -0.374 N 
HETATM    8  H8  UNL     1       1.342  -2.771   0.747  1.00  0.00     0.161 HD
BRANCH   7   9
HETATM    9  C7  UNL     1       1.848  -1.255   2.205  1.00  0.00     0.243 C 
BRANCH   9  10
HETATM   10  N4  UNL     1       2.293   0.068   1.825  1.00  0.00    -0.374 N 
HETATM   11  H11 UNL     1       2.018   0.876   2.428  1.00  0.00     0.161 HD
BRANCH  10  12
HETATM   12  C8  UNL     1       3.087   0.329   0.680  1.00  0.00     0.030 A 
HETATM   13  C9  UNL     1       3.536  -0.613  -0.199  1.00  0.00     0.032 A 
HETATM   14  C10 UNL     1       4.306  -0.355  -1.313  1.00  0.00     0.046 A 
HETATM   15  C11 UNL     1       4.662   0.951  -1.578  1.00  0.00     0.138 A 
HETATM   16  F1  UNL     1       5.417   1.297  -2.652  1.00  0.00    -0.204 F 
HETATM   17  C12 UNL     1       4.239   1.947  -0.730  1.00  0.00     0.074 A 
HETATM   18 CL1  UNL     1       4.674   3.614  -1.040  1.00  0.00    -0.081 Cl
HETATM   19  C13 UNL     1       3.472   1.615   0.365  1.00  0.00     0.056 A 
ENDBRANCH  10  12
ENDBRANCH   9  10
ENDBRANCH   7   9
ENDBRANCH   4   7
BRANCH   1  20
HETATM   20  N1  UNL     1      -3.887   0.202  -0.748  1.00  0.00    -0.309 N 
HETATM   21  C1  UNL     1      -5.008  -0.305  -0.012  1.00  0.00     0.161 C 
HETATM   22  C2  UNL     1      -4.082   1.081  -1.842  1.00  0.00     0.298 C 
HETATM   23  N2  UNL     1      -3.031   1.619  -2.610  1.00  0.00    -0.253 NA
HETATM   24  O1  UNL     1      -5.233   1.426  -2.177  1.00  0.00    -0.254 OA
HETATM   25  H4  UNL     1      -2.781   2.430  -2.010  1.00  0.00     0.128 HD
HETATM   26  H5  UNL     1      -2.439   2.470  -2.415  1.00  0.00     0.128 HD
ENDBRANCH   1  20
TORSDOF 5
