REMARK  5 active torsions:
REMARK  status: ('A' for Active; 'I' for Inactive)
REMARK    1  A    between atoms: O1_2  and  C2_3 
REMARK    2  A    between atoms: C6_9  and  N3_10 
REMARK    3  A    between atoms: N3_10  and  C8_12 
REMARK    4  A    between atoms: C11_15  and  N4_16 
REMARK       I    between atoms: N4_16  and  C12_17 
REMARK       I    between atoms: C12_17  and  N5_19 
REMARK    5  A    between atoms: C23_31  and  O3_32 
ROOT
HETATM    1  C8  UNL     1      -1.070  -0.105  -1.051  1.00  0.00     0.018 A 
HETATM    2  C9  UNL     1      -0.845  -1.378  -0.709  1.00  0.00     0.027 A 
HETATM    3  C10 UNL     1       0.570  -1.582  -0.424  1.00  0.00     0.027 A 
HETATM    4  C11 UNL     1       1.173  -0.416  -0.603  1.00  0.00     0.019 A 
HETATM    5  C20 UNL     1       0.220   0.628  -1.011  1.00  0.00     0.114 A 
ENDROOT
BRANCH   1   6
HETATM    6  N3  UNL     1      -2.355   0.424  -1.392  1.00  0.00    -0.339 N 
HETATM    7  C7  UNL     1      -2.498   1.871  -1.451  1.00  0.00     0.158 C 
BRANCH   6   8
HETATM    8  C6  UNL     1      -3.440  -0.446  -1.658  1.00  0.00     0.143 A 
HETATM    9  N2  UNL     1      -3.261  -1.306  -2.695  1.00  0.00    -0.223 NA
HETATM   10  C5  UNL     1      -4.223  -2.183  -3.045  1.00  0.00     0.236 A 
HETATM   11  N1  UNL     1      -5.391  -2.240  -2.384  1.00  0.00    -0.241 NA
HETATM   12  C4  UNL     1      -5.625  -1.411  -1.346  1.00  0.00     0.075 A 
HETATM   13  C3  UNL     1      -6.794  -1.399  -0.610  1.00  0.00     0.072 A 
HETATM   14  C21 UNL     1      -4.643  -0.511  -0.985  1.00  0.00     0.042 A 
HETATM   15  C2  UNL     1      -6.937  -0.512   0.433  1.00  0.00     0.103 A 
HETATM   16  C23 UNL     1      -5.962   0.393   0.804  1.00  0.00     0.102 A 
HETATM   17  C22 UNL     1      -4.792   0.373   0.060  1.00  0.00     0.057 A 
BRANCH  15  18
HETATM   18  O1  UNL     1      -8.115  -0.512   1.161  1.00  0.00    -0.353 OA
HETATM   19  C1  UNL     1      -9.184  -1.400   0.865  1.00  0.00     0.210 C 
ENDBRANCH  15  18
BRANCH  16  20
HETATM   20  O3  UNL     1      -6.176   1.246   1.856  1.00  0.00    -0.353 OA
HETATM   21  C24 UNL     1      -5.194   2.182   2.256  1.00  0.00     0.210 C 
ENDBRANCH  16  20
ENDBRANCH   6   8
ENDBRANCH   1   6
BRANCH   4  22
HETATM   22  N4  UNL     1       2.576  -0.302  -0.396  1.00  0.00    -0.312 N 
HETATM   23  C12 UNL     1       3.266   0.541   0.535  1.00  0.00     0.325 C 
HETATM   24  O2  UNL     1       2.809   1.353   1.364  1.00  0.00    -0.247 OA
HETATM   25  N5  UNL     1       4.689   0.502   0.581  1.00  0.00    -0.299 N 
HETATM   26  C13 UNL     1       5.175   1.434   1.595  1.00  0.00     0.158 C 
HETATM   27  C19 UNL     1       5.593  -0.307  -0.216  1.00  0.00     0.283 C 
HETATM   28  C14 UNL     1       6.646   1.663   1.429  1.00  0.00    -0.004 C 
HETATM   29  C15 UNL     1       7.432   0.687   0.983  1.00  0.00    -0.078 C 
HETATM   30  C16 UNL     1       8.902   0.907   0.815  1.00  0.00     0.043 C 
HETATM   31  C17 UNL     1       6.795  -0.623   0.659  1.00  0.00     0.064 C 
HETATM   32  C18 UNL     1       7.720  -1.514  -0.138  1.00  0.00     0.019 C 
HETATM   33  F1  UNL     1       6.007   0.464  -1.276  1.00  0.00    -0.226 F 
HETATM   34  H11 UNL     1       3.179  -0.922  -1.014  1.00  0.00     0.170 HD
ENDBRANCH   4  22
TORSDOF 5
