REMARK  10 active torsions:
REMARK  status: ('A' for Active; 'I' for Inactive)
REMARK    1  A    between atoms: B1_1  and  C1_2 
REMARK    2  A    between atoms: C1_2  and  C2_4 
REMARK    3  A    between atoms: C3_6  and  N1_7 
REMARK    4  A    between atoms: N1_7  and  C4_8 
REMARK    5  A    between atoms: C4_8  and  N2_10 
REMARK    6  A    between atoms: N2_10  and  C6_11 
REMARK    7  A    between atoms: C9_14  and  N3_15 
REMARK    8  A    between atoms: N3_15  and  C11_17 
REMARK    9  A    between atoms: C16_24  and  O1_25 
REMARK   10  A    between atoms: C18_27  and  O2_28 
ROOT
HETATM    1  C6  UNL     1       1.203  -1.398   0.509  1.00  0.00     0.033 A 
HETATM    2  C7  UNL     1       0.538  -1.142   1.677  1.00  0.00     0.032 A 
HETATM    3  C8  UNL     1      -0.558  -0.308   1.769  1.00  0.00     0.031 A 
HETATM    4  C9  UNL     1      -1.023   0.312   0.632  1.00  0.00     0.031 A 
HETATM    5  C20 UNL     1      -0.357   0.057  -0.543  1.00  0.00     0.031 A 
HETATM    6  C21 UNL     1       0.736  -0.773  -0.646  1.00  0.00     0.032 A 
ENDROOT
BRANCH   4   7
HETATM    7  N3  UNL     1      -2.150   1.164   0.774  1.00  0.00    -0.361 N 
HETATM    8  C10 UNL     1      -2.714   1.326   2.100  1.00  0.00     0.152 C 
BRANCH   7   9
HETATM    9  C11 UNL     1      -2.869   1.937  -0.250  1.00  0.00     0.230 A 
HETATM   10  N4  UNL     1      -2.696   3.318  -0.068  1.00  0.00    -0.255 NA
HETATM   11  C12 UNL     1      -3.553   4.221  -0.047  1.00  0.00     0.228 A 
HETATM   12  N5  UNL     1      -4.915   3.867  -0.229  1.00  0.00    -0.257 NA
HETATM   13  C13 UNL     1      -5.197   2.609  -0.414  1.00  0.00     0.113 A 
HETATM   14  C14 UNL     1      -4.249   1.480  -0.460  1.00  0.00     0.074 A 
HETATM   15  C15 UNL     1      -4.767   0.507   0.551  1.00  0.00     0.029 C 
HETATM   16  C19 UNL     1      -4.402   0.897  -1.838  1.00  0.00     0.032 C 
HETATM   17  C16 UNL     1      -4.630  -0.803   0.284  1.00  0.00     0.047 C 
HETATM   18  C17 UNL     1      -3.990  -1.271  -0.969  1.00  0.00     0.131 C 
HETATM   19  C18 UNL     1      -4.288  -0.379  -2.115  1.00  0.00     0.093 C 
BRANCH  17  20
HETATM   20  O1  UNL     1      -5.067  -1.836   1.138  1.00  0.00    -0.365 OA
HETATM   21  H18 UNL     1      -5.770  -1.564   1.820  1.00  0.00     0.217 HD
ENDBRANCH  17  20
BRANCH  19  22
HETATM   22  O2  UNL     1      -4.447  -0.835  -3.436  1.00  0.00    -0.160 OA
HETATM   23  F2  UNL     1      -5.251  -1.853  -3.764  1.00  0.00    -0.042 F 
ENDBRANCH  19  22
ENDBRANCH   7   9
ENDBRANCH   4   7
BRANCH   1  24
HETATM   24  N2  UNL     1       2.333  -2.253   0.387  1.00  0.00    -0.343 N 
HETATM   25  H8  UNL     1       2.262  -3.271   0.186  1.00  0.00     0.167 HD
BRANCH  24  26
HETATM   26  C4  UNL     1       3.605  -1.625   0.560  1.00  0.00     0.095 C 
HETATM   27  C5  UNL     1       3.737  -0.677   1.467  1.00  0.00     0.063 C 
BRANCH  26  28
HETATM   28  N1  UNL     1       4.713  -2.040  -0.257  1.00  0.00    -0.352 N 
HETATM   29  H5  UNL     1       4.510  -2.574  -1.139  1.00  0.00     0.166 HD
BRANCH  28  30
HETATM   30  C3  UNL     1       6.024  -1.691   0.197  1.00  0.00     0.111 C 
HETATM   31  C2  UNL     1       6.825  -0.665  -0.051  1.00  0.00     0.050 C 
HETATM   32 CL1  UNL     1       6.074   0.468  -1.174  1.00  0.00    -0.086 Cl
BRANCH  31  33
HETATM   33  C1  UNL     1       8.195  -0.346   0.454  1.00  0.00     0.158 C 
HETATM   34  F1  UNL     1       8.588  -1.328   1.347  1.00  0.00    -0.256 F 
BRANCH  33  35
HETATM   35  B1  UNL     1       9.168  -0.258  -0.793  1.00  0.00     0.185 B 
HETATM   36  H1  UNL     1      10.039   0.560  -0.797  1.00  0.00    -0.028 HD
HETATM   37  H2  UNL     1       9.081  -1.027  -1.691  1.00  0.00    -0.028 HD
ENDBRANCH  33  35
ENDBRANCH  31  33
ENDBRANCH  28  30
ENDBRANCH  26  28
ENDBRANCH  24  26
ENDBRANCH   1  24
TORSDOF 10
