REMARK  9 active torsions:
REMARK  status: ('A' for Active; 'I' for Inactive)
REMARK    1  A    between atoms: C2_2  and  N1_3 
REMARK    2  A    between atoms: C2_2  and  N5_24 
REMARK    3  A    between atoms: N1_3  and  C3_4 
REMARK    4  A    between atoms: C3_4  and  C5_6 
REMARK    5  A    between atoms: C6_7  and  C7_8 
REMARK    6  A    between atoms: C7_8  and  N2_9 
REMARK    7  A    between atoms: N2_9  and  C8_10 
REMARK    8  A    between atoms: C12_16  and  O1_17 
REMARK    9  A    between atoms: C14_19  and  O2_20 
ROOT
HETATM    1  C7  UNL     1      -1.142  -1.483  -0.297  1.00  0.00     0.148 C 
ENDROOT
BRANCH   1   2
HETATM    2  C6  UNL     1       0.100  -0.894  -0.916  1.00  0.00    -0.009 C 
HETATM    3  C5  UNL     1       0.954  -1.570  -1.689  1.00  0.00    -0.005 C 
BRANCH   3   4
HETATM    4  C3  UNL     1       2.190  -1.057  -2.327  1.00  0.00     0.101 C 
HETATM    5  C4  UNL     1       2.265   0.446  -2.142  1.00  0.00     0.036 C 
BRANCH   4   6
HETATM    6  N1  UNL     1       3.358  -1.689  -1.700  1.00  0.00    -0.372 N 
HETATM    7  H3  UNL     1       3.235  -2.375  -0.906  1.00  0.00     0.161 HD
BRANCH   6   8
HETATM    8  C2  UNL     1       4.693  -1.427  -2.119  1.00  0.00     0.084 C 
HETATM    9  C1  UNL     1       4.840  -2.130  -3.224  1.00  0.00     0.084 C 
BRANCH   8  10
HETATM   10  N5  UNL     1       5.663  -0.582  -1.459  1.00  0.00    -0.321 N 
HETATM   11  C18 UNL     1       6.495   0.154  -2.347  1.00  0.00     0.097 A 
HETATM   12  C19 UNL     1       7.375   0.919  -1.739  1.00  0.00     0.033 A 
HETATM   13  C20 UNL     1       7.627   1.129  -0.298  1.00  0.00     0.240 A 
HETATM   14  F1  UNL     1       7.603   2.449   0.060  1.00  0.00    -0.239 F 
HETATM   15  C21 UNL     1       6.675   0.289   0.477  1.00  0.00     0.065 A 
HETATM   16 CL1  UNL     1       6.829   0.411   2.221  1.00  0.00    -0.084 Cl
HETATM   17  C22 UNL     1       5.759  -0.509  -0.043  1.00  0.00     0.120 A 
ENDBRANCH   8  10
ENDBRANCH   6   8
ENDBRANCH   4   6
ENDBRANCH   3   4
ENDBRANCH   1   2
BRANCH   1  18
HETATM   18  N2  UNL     1      -2.340  -0.854  -0.680  1.00  0.00    -0.371 N 
HETATM   19  H12 UNL     1      -2.049  -1.135  -1.664  1.00  0.00     0.161 HD
BRANCH  18  20
HETATM   20  C8  UNL     1      -3.557  -0.215  -1.080  1.00  0.00     0.137 A 
HETATM   21  N3  UNL     1      -4.088  -0.057  -2.300  1.00  0.00    -0.224 NA
HETATM   22  C9  UNL     1      -5.257   0.544  -2.526  1.00  0.00     0.235 A 
HETATM   23  N4  UNL     1      -5.876   0.984  -1.436  1.00  0.00    -0.241 NA
HETATM   24  C10 UNL     1      -5.434   0.876  -0.186  1.00  0.00     0.075 A 
HETATM   25  C11 UNL     1      -6.217   1.360   0.870  1.00  0.00     0.072 A 
HETATM   26  C17 UNL     1      -4.191   0.241   0.054  1.00  0.00     0.041 A 
HETATM   27  C12 UNL     1      -5.846   1.253   2.183  1.00  0.00     0.103 A 
HETATM   28  C14 UNL     1      -4.631   0.631   2.375  1.00  0.00     0.102 A 
HETATM   29  C16 UNL     1      -3.830   0.144   1.376  1.00  0.00     0.057 A 
BRANCH  27  30
HETATM   30  O1  UNL     1      -6.539   1.678   3.128  1.00  0.00    -0.353 OA
HETATM   31  C13 UNL     1      -7.588   2.300   3.647  1.00  0.00     0.210 C 
ENDBRANCH  27  30
BRANCH  28  32
HETATM   32  O2  UNL     1      -4.185   0.493   3.708  1.00  0.00    -0.353 OA
HETATM   33  C15 UNL     1      -2.948  -0.122   4.013  1.00  0.00     0.210 C 
ENDBRANCH  28  32
ENDBRANCH  18  20
ENDBRANCH   1  18
TORSDOF 9
