REMARK  7 active torsions:
REMARK  status: ('A' for Active; 'I' for Inactive)
REMARK    1  A    between atoms: O1_2  and  C2_3 
REMARK    2  A    between atoms: C3_4  and  C4_5 
REMARK    3  A    between atoms: C4_5  and  C5_6 
REMARK    4  A    between atoms: C5_6  and  C6_7 
REMARK    5  A    between atoms: C7_8  and  C8_9 
REMARK    6  A    between atoms: C8_9  and  C9_10 
REMARK    7  A    between atoms: C9_10  and  O2_11 
ROOT
HETATM    1  C2  UNL     1       0.122   1.040  -1.484  1.00  0.00     0.118 C 
HETATM    2  C3  UNL     1       0.379   0.206  -0.448  1.00  0.00     0.080 C 
HETATM    3  O3  UNL     1      -0.471  -0.791  -0.308  1.00  0.00    -0.348 OA
HETATM    4  C10 UNL     1      -1.222  -1.810  -0.158  1.00  0.00     0.214 C 
HETATM    5  C11 UNL     1      -2.761  -1.631  -0.415  1.00  0.00    -0.032 C 
HETATM    6  C12 UNL     1      -3.720  -2.110  -1.206  1.00  0.00     0.028 C 
HETATM    7  C13 UNL     1      -3.650  -3.047  -2.279  1.00  0.00     0.118 C 
HETATM    8  N1  UNL     1      -2.639  -2.693  -3.071  1.00  0.00    -0.255 NA
HETATM    9  C14 UNL     1      -1.941  -1.510  -2.744  1.00  0.00     0.229 C 
HETATM   10  N2  UNL     1      -1.174  -0.629  -2.356  1.00  0.00    -0.250 NA
HETATM   11  C15 UNL     1      -1.052   0.768  -2.376  1.00  0.00     0.265 C 
HETATM   12  N3  UNL     1      -2.204   1.503  -2.179  1.00  0.00    -0.378 N 
HETATM   13  C16 UNL     1      -2.073   2.914  -1.914  1.00  0.00     0.150 C 
HETATM   14  C17 UNL     1      -2.589   3.325  -0.568  1.00  0.00     0.035 C 
HETATM   15  C18 UNL     1      -2.570   2.430   0.450  1.00  0.00     0.122 C 
HETATM   16  F1  UNL     1      -2.441   2.147   1.782  1.00  0.00    -0.206 F 
HETATM   17  C19 UNL     1      -2.759   1.013   0.025  1.00  0.00    -0.002 C 
HETATM   18  C20 UNL     1      -2.522  -0.258   0.028  1.00  0.00     0.021 C 
HETATM   19  C21 UNL     1      -3.316   1.038  -1.374  1.00  0.00     0.161 C 
ENDROOT
BRANCH   2  20
HETATM   20  C4  UNL     1       1.334   0.043   0.627  1.00  0.00     0.071 C 
BRANCH  20  21
HETATM   21  C5  UNL     1       1.979  -1.329   0.679  1.00  0.00     0.033 C 
BRANCH  21  22
HETATM   22  C6  UNL     1       2.962  -1.378   1.791  1.00  0.00    -0.030 C 
HETATM   23  C7  UNL     1       3.115  -2.077   2.894  1.00  0.00    -0.029 C 
BRANCH  23  24
HETATM   24  C8  UNL     1       4.296  -1.813   3.794  1.00  0.00     0.053 C 
BRANCH  24  25
HETATM   25  C9  UNL     1       5.179  -0.730   3.222  1.00  0.00     0.168 C 
BRANCH  25  26
HETATM   26  O2  UNL     1       6.247  -0.562   4.110  1.00  0.00    -0.401 OA
HETATM   27  H14 UNL     1       6.709   0.308   3.927  1.00  0.00     0.209 HD
ENDBRANCH  25  26
ENDBRANCH  24  25
ENDBRANCH  23  24
ENDBRANCH  21  22
ENDBRANCH  20  21
ENDBRANCH   2  20
BRANCH   1  28
HETATM   28  O1  UNL     1       1.220   1.610  -0.944  1.00  0.00    -0.354 OA
HETATM   29  C1  UNL     1       1.252   2.844  -0.258  1.00  0.00     0.209 C 
ENDBRANCH   1  28
TORSDOF 7
