REMARK  7 active torsions:
REMARK  status: ('A' for Active; 'I' for Inactive)
REMARK    1  A    between atoms: O1_2  and  C2_3 
REMARK    2  A    between atoms: C6_9  and  N3_10 
REMARK    3  A    between atoms: N3_10  and  C7_11 
REMARK    4  A    between atoms: C15_21  and  O2_22 
REMARK    5  A    between atoms: O2_22  and  C16_23 
REMARK    6  A    between atoms: C16_23  and  C17_24 
REMARK    7  A    between atoms: C17_24  and  C18_25 
ROOT
HETATM    1  C2  UNL     1      -0.488  -3.312   1.053  1.00  0.00     0.103 A 
HETATM    2  C3  UNL     1       0.752  -3.597   1.620  1.00  0.00     0.072 A 
HETATM    3  C4  UNL     1       1.734  -2.650   1.461  1.00  0.00     0.075 A 
HETATM    4  N1  UNL     1       2.929  -2.930   2.007  1.00  0.00    -0.241 NA
HETATM    5  C5  UNL     1       3.987  -2.100   1.931  1.00  0.00     0.236 A 
HETATM    6  N2  UNL     1       3.767  -0.970   1.270  1.00  0.00    -0.224 NA
HETATM    7  C6  UNL     1       2.643  -0.560   0.680  1.00  0.00     0.142 A 
HETATM    8  C13 UNL     1       1.603  -1.450   0.792  1.00  0.00     0.042 A 
HETATM    9  C14 UNL     1       0.338  -1.264   0.269  1.00  0.00     0.057 A 
HETATM   10  C15 UNL     1      -0.727  -2.138   0.363  1.00  0.00     0.103 A 
ENDROOT
BRANCH   7  11
HETATM   11  N3  UNL     1       2.444   0.647  -0.025  1.00  0.00    -0.340 N 
HETATM   12  H6  UNL     1       1.538   0.911  -0.408  1.00  0.00     0.167 HD
BRANCH  11  13
HETATM   13  C7  UNL     1       3.404   1.645  -0.306  1.00  0.00     0.035 A 
HETATM   14  C8  UNL     1       4.737   1.490  -0.028  1.00  0.00     0.032 A 
HETATM   15  C9  UNL     1       5.702   2.447  -0.286  1.00  0.00     0.046 A 
HETATM   16  C10 UNL     1       5.343   3.652  -0.860  1.00  0.00     0.138 A 
HETATM   17  F1  UNL     1       6.228   4.634  -1.140  1.00  0.00    -0.204 F 
HETATM   18  C11 UNL     1       4.020   3.847  -1.153  1.00  0.00     0.074 A 
HETATM   19 CL1  UNL     1       3.520   5.346  -1.882  1.00  0.00    -0.081 Cl
HETATM   20  C12 UNL     1       3.115   2.862  -0.874  1.00  0.00     0.056 A 
ENDBRANCH  11  13
ENDBRANCH   7  11
BRANCH  10  21
HETATM   21  O2  UNL     1      -1.892  -1.921  -0.145  1.00  0.00    -0.348 OA
BRANCH  21  22
HETATM   22  C16 UNL     1      -2.896  -1.354  -0.775  1.00  0.00     0.178 C 
BRANCH  22  23
HETATM   23  C17 UNL     1      -3.201  -0.023  -0.087  1.00  0.00     0.064 C 
BRANCH  23  24
HETATM   24  C18 UNL     1      -4.327   0.739  -0.693  1.00  0.00     0.246 C 
HETATM   25  C19 UNL     1      -4.003   1.058  -2.156  1.00  0.00     0.203 C 
HETATM   26  O3  UNL     1      -2.691   1.554  -2.133  1.00  0.00    -0.387 OA
HETATM   27  C20 UNL     1      -2.685   2.813  -1.569  1.00  0.00     0.197 C 
HETATM   28  C21 UNL     1      -3.154   2.772  -0.159  1.00  0.00     0.296 C 
HETATM   29  N4  UNL     1      -4.365   2.010   0.058  1.00  0.00     0.092 N 
HETATM   30  H22 UNL     1      -4.355   1.714   1.066  1.00  0.00     0.316 HD
ENDBRANCH  23  24
ENDBRANCH  22  23
ENDBRANCH  21  22
ENDBRANCH  10  21
BRANCH   1  31
HETATM   31  O1  UNL     1      -1.500  -4.259   1.202  1.00  0.00    -0.353 OA
HETATM   32  C1  UNL     1      -1.259  -5.475   1.915  1.00  0.00     0.210 C 
ENDBRANCH   1  31
TORSDOF 7
