REMARK  2 active torsions:
REMARK  status: ('A' for Active; 'I' for Inactive)
REMARK    1  A    between atoms: O1_2  and  C2_3 
REMARK    2  A    between atoms: C6_9  and  C7_10 
ROOT
HETATM    1  C2  UNL     1      -3.256  -0.616  -0.476  1.00  0.00     0.102 C 
HETATM    2  C3  UNL     1      -3.532  -0.898  -1.735  1.00  0.00     0.058 C 
HETATM    3  C4  UNL     1      -2.662  -0.980  -2.889  1.00  0.00     0.116 C 
HETATM    4  N1  UNL     1      -1.399  -0.801  -3.018  1.00  0.00    -0.270 NA
HETATM    5  C5  UNL     1      -0.545  -0.456  -1.950  1.00  0.00     0.269 C 
HETATM    6  N2  UNL     1       0.296   0.064  -1.189  1.00  0.00    -0.282 NA
HETATM    7  C6  UNL     1       0.741  -0.220   0.117  1.00  0.00     0.089 C 
HETATM    8  C13 UNL     1       0.053  -1.427   0.779  1.00  0.00     0.068 C 
HETATM    9  C14 UNL     1      -1.418  -1.274   0.810  1.00  0.00     0.016 C 
HETATM   10  C15 UNL     1      -2.149  -0.275   0.409  1.00  0.00     0.099 C 
HETATM   11  O2  UNL     1      -1.885   1.002   0.797  1.00  0.00    -0.343 OA
HETATM   12  C16 UNL     1      -0.703   1.706   0.915  1.00  0.00     0.140 C 
HETATM   13  C17 UNL     1      -0.574   2.748  -0.173  1.00  0.00     0.059 C 
HETATM   14  C18 UNL     1       0.675   3.579   0.023  1.00  0.00     0.170 C 
HETATM   15  O3  UNL     1       1.789   2.832   0.264  1.00  0.00    -0.390 OA
HETATM   16  C19 UNL     1       1.696   1.857   1.225  1.00  0.00     0.177 C 
HETATM   17  C20 UNL     1       0.554   0.907   1.099  1.00  0.00     0.074 C 
ENDROOT
BRANCH   7  18
HETATM   18  C7  UNL     1       2.178  -0.581   0.002  1.00  0.00    -0.026 A 
HETATM   19  C8  UNL     1       3.134   0.077  -0.740  1.00  0.00     0.013 A 
HETATM   20  C9  UNL     1       4.461  -0.246  -0.836  1.00  0.00     0.044 A 
HETATM   21  C10 UNL     1       4.910  -1.339  -0.127  1.00  0.00     0.138 A 
HETATM   22  F1  UNL     1       6.220  -1.673  -0.210  1.00  0.00    -0.204 F 
HETATM   23  C11 UNL     1       4.034  -2.065   0.645  1.00  0.00     0.073 A 
HETATM   24 CL1  UNL     1       4.631  -3.449   1.536  1.00  0.00    -0.081 Cl
HETATM   25  C12 UNL     1       2.719  -1.677   0.689  1.00  0.00     0.036 A 
ENDBRANCH   7  18
BRANCH   1  26
HETATM   26  O1  UNL     1      -4.124  -0.542   0.633  1.00  0.00    -0.353 OA
HETATM   27  C1  UNL     1      -4.883  -1.733   0.844  1.00  0.00     0.210 C 
ENDBRANCH   1  26
TORSDOF 2
