REMARK  7 active torsions:
REMARK  status: ('A' for Active; 'I' for Inactive)
REMARK    1  A    between atoms: O1_2  and  C2_3 
REMARK    2  A    between atoms: C2_3  and  C3_4 
REMARK    3  A    between atoms: C3_4  and  O2_5 
REMARK    4  A    between atoms: C3_4  and  C5_7 
REMARK    5  A    between atoms: C9_13  and  N2_14 
REMARK    6  A    between atoms: N2_14  and  C10_15 
REMARK    7  A    between atoms: C11_16  and  C12_17 
ROOT
HETATM    1  C5  UNL     1      -2.449  -0.428   0.466  1.00  0.00     0.122 C 
HETATM    2  C6  UNL     1      -1.608  -0.128   1.466  1.00  0.00     0.143 C 
HETATM    3  F1  UNL     1      -2.151   0.866   2.244  1.00  0.00    -0.206 F 
HETATM    4  C7  UNL     1      -0.297  -0.547   1.965  1.00  0.00     0.193 C 
HETATM    5  N1  UNL     1       0.580  -1.110   0.959  1.00  0.00    -0.377 N 
HETATM    6  C8  UNL     1       0.406  -1.507  -0.405  1.00  0.00     0.129 A 
HETATM    7  C9  UNL     1       1.623  -1.741  -1.038  1.00  0.00     0.159 A 
HETATM    8  N3  UNL     1       1.544  -2.121  -2.340  1.00  0.00    -0.222 NA
HETATM    9  C15 UNL     1       0.369  -2.252  -2.943  1.00  0.00     0.238 A 
HETATM   10  N4  UNL     1      -0.802  -2.026  -2.328  1.00  0.00    -0.215 NA
HETATM   11  C16 UNL     1      -0.821  -1.643  -1.030  1.00  0.00     0.201 A 
HETATM   12  O3  UNL     1      -2.097  -1.426  -0.462  1.00  0.00    -0.289 OA
HETATM   13  H12 UNL     1       1.551  -1.235   1.372  1.00  0.00     0.160 HD
ENDROOT
BRANCH   7  14
HETATM   14  N2  UNL     1       2.779  -1.560  -0.251  1.00  0.00    -0.349 N 
HETATM   15  H13 UNL     1       3.173  -2.427   0.217  1.00  0.00     0.167 HD
BRANCH  14  16
HETATM   16  C10 UNL     1       3.423  -0.306  -0.063  1.00  0.00     0.090 C 
HETATM   17  C11 UNL     1       4.718  -0.044  -0.024  1.00  0.00     0.018 C 
BRANCH  17  18
HETATM   18  C12 UNL     1       5.142   1.332   0.184  1.00  0.00     0.020 C 
HETATM   19  C13 UNL     1       6.418   1.651   0.231  1.00  0.00     0.008 C 
HETATM   20  C14 UNL     1       7.596   0.778   0.097  1.00  0.00     0.062 C 
HETATM   21 CL1  UNL     1       6.959   3.293   0.480  1.00  0.00    -0.089 Cl
ENDBRANCH  17  18
ENDBRANCH  14  16
ENDBRANCH   7  14
BRANCH   1  22
HETATM   22  C3  UNL     1      -3.744   0.326   0.384  1.00  0.00     0.204 C 
BRANCH  22  23
HETATM   23  C2  UNL     1      -4.919  -0.590   0.556  1.00  0.00     0.205 C 
BRANCH  23  24
HETATM   24  O1  UNL     1      -6.153  -0.040   0.291  1.00  0.00    -0.393 OA
HETATM   25  C1  UNL     1      -6.352   0.362  -0.997  1.00  0.00     0.201 C 
ENDBRANCH  23  24
ENDBRANCH  22  23
BRANCH  22  26
HETATM   26  O2  UNL     1      -3.744   1.419   1.201  1.00  0.00    -0.382 OA
HETATM   27  C4  UNL     1      -3.730   2.655   0.642  1.00  0.00     0.202 C 
ENDBRANCH  22  26
ENDBRANCH   1  22
TORSDOF 7
