REMARK  4 active torsions:
REMARK  status: ('A' for Active; 'I' for Inactive)
REMARK    1  A    between atoms: O1_2  and  C2_3 
REMARK    2  A    between atoms: C7_8  and  O2_9 
REMARK    3  A    between atoms: C11_16  and  N2_17 
REMARK    4  A    between atoms: N2_17  and  C12_18 
ROOT
HETATM    1  C2  UNL     1      -4.268   0.074   0.596  1.00  0.00     0.102 A 
HETATM    2  C3  UNL     1      -3.035   0.261   1.143  1.00  0.00     0.051 A 
HETATM    3  C4  UNL     1      -1.842   0.180   0.452  1.00  0.00    -0.004 A 
HETATM    4  C5  UNL     1      -1.995  -0.117  -0.885  1.00  0.00     0.087 A 
HETATM    5  C6  UNL     1      -3.199  -0.322  -1.522  1.00  0.00     0.077 A 
HETATM    6  C7  UNL     1      -4.362  -0.226  -0.768  1.00  0.00     0.104 A 
HETATM    7  O3  UNL     1      -0.948  -0.260  -1.818  1.00  0.00    -0.306 OA
HETATM    8  C9  UNL     1       0.418  -0.320  -1.538  1.00  0.00     0.119 A 
HETATM    9  P1  UNL     1       1.333  -1.029  -2.860  1.00  0.00     0.027 P 
HETATM   10  C10 UNL     1       3.033  -1.079  -2.455  1.00  0.00     0.137 A 
HETATM   11  N1  UNL     1       3.298  -0.588  -1.263  1.00  0.00    -0.239 NA
HETATM   12  C11 UNL     1       2.523  -0.074  -0.338  1.00  0.00     0.157 A 
HETATM   13  C17 UNL     1       1.162   0.077  -0.415  1.00  0.00     0.110 A 
HETATM   14  N3  UNL     1       0.543   0.693   0.738  1.00  0.00    -0.380 N 
HETATM   15  C18 UNL     1      -0.718   0.437   1.363  1.00  0.00     0.161 C 
HETATM   16  H14 UNL     1       1.200   1.447   1.116  1.00  0.00     0.160 HD
ENDROOT
BRANCH  12  17
HETATM   17  N2  UNL     1       3.180   0.357   0.872  1.00  0.00    -0.341 N 
HETATM   18  H10 UNL     1       2.809   0.743   1.759  1.00  0.00     0.167 HD
BRANCH  17  19
HETATM   19  C12 UNL     1       4.620   0.266   0.979  1.00  0.00     0.036 A 
HETATM   20  C13 UNL     1       5.378   0.370   2.046  1.00  0.00     0.030 A 
HETATM   21  C14 UNL     1       6.793   0.228   1.791  1.00  0.00     0.042 A 
HETATM   22  C15 UNL     1       6.899   0.026   0.498  1.00  0.00     0.118 A 
HETATM   23  F1  UNL     1       8.043  -0.165  -0.217  1.00  0.00    -0.209 F 
HETATM   24  C16 UNL     1       5.554   0.018  -0.151  1.00  0.00     0.194 A 
HETATM   25 CL1  UNL     1       5.495   1.270  -1.395  1.00  0.00    -0.111 Cl
ENDBRANCH  17  19
ENDBRANCH  12  17
BRANCH   6  26
HETATM   26  O2  UNL     1      -5.581  -0.431  -1.401  1.00  0.00    -0.353 OA
HETATM   27  C8  UNL     1      -5.557  -0.729  -2.783  1.00  0.00     0.210 C 
ENDBRANCH   6  26
BRANCH   1  28
HETATM   28  O1  UNL     1      -5.489   0.140   1.220  1.00  0.00    -0.353 OA
HETATM   29  C1  UNL     1      -5.647   0.431   2.591  1.00  0.00     0.210 C 
ENDBRANCH   1  28
TORSDOF 4
