REMARK  7 active torsions:
REMARK  status: ('A' for Active; 'I' for Inactive)
REMARK    1  A    between atoms: N1_1  and  C1_2 
REMARK    2  A    between atoms: C7_11  and  C8_12 
REMARK    3  A    between atoms: C8_12  and  C9_13 
REMARK    4  A    between atoms: C17_22  and  C18_23 
REMARK    5  A    between atoms: C18_23  and  C19_24 
REMARK    6  A    between atoms: C19_24  and  C20_26 
REMARK    7  A    between atoms: C20_26  and  O2_27 
ROOT
HETATM    1  C1  UNL     1      -2.119  -4.161  -0.060  1.00  0.00     0.147 A 
HETATM    2  N2  UNL     1      -1.636  -5.368  -0.371  1.00  0.00    -0.240 NA
HETATM    3  C2  UNL     1      -0.444  -5.511  -0.964  1.00  0.00     0.136 A 
HETATM    4  C3  UNL     1       0.367  -4.457  -1.298  1.00  0.00     0.118 A 
HETATM    5  N3  UNL     1      -0.131  -3.265  -0.980  1.00  0.00    -0.298 N 
HETATM    6  C4  UNL     1       0.243  -1.998  -1.082  1.00  0.00     0.262 A 
HETATM    7  N4  UNL     1      -0.694  -1.225  -0.576  1.00  0.00     0.205 N 
HETATM    8  C5  UNL     1      -1.745  -1.803  -0.098  1.00  0.00     0.333 A 
HETATM    9  C6  UNL     1      -1.307  -3.046  -0.390  1.00  0.00     0.111 A 
HETATM   10  C7  UNL     1      -1.521  -0.283  -0.107  1.00  0.00     0.427 A 
HETATM   11  N5  UNL     1      -0.202   0.274  -0.515  1.00  0.00     0.155 N 
HETATM   12  C15 UNL     1      -0.181   1.593  -0.064  1.00  0.00     0.278 C 
HETATM   13  C16 UNL     1       1.246   1.889   0.377  1.00  0.00     0.035 C 
HETATM   14  C17 UNL     1       2.271   1.109  -0.371  1.00  0.00    -0.003 C 
HETATM   15  C21 UNL     1       2.031  -0.345  -0.484  1.00  0.00     0.049 C 
HETATM   16  C22 UNL     1       0.776  -0.569  -1.252  1.00  0.00     0.306 C 
ENDROOT
BRANCH  10  17
HETATM   17  C8  UNL     1      -2.551   0.444   0.285  1.00  0.00     0.063 C 
BRANCH  17  18
HETATM   18  C9  UNL     1      -3.235   1.650   0.576  1.00  0.00    -0.036 A 
HETATM   19  C10 UNL     1      -3.907   2.087   1.729  1.00  0.00     0.011 A 
HETATM   20  C11 UNL     1      -4.522   3.317   1.730  1.00  0.00     0.001 A 
HETATM   21  C12 UNL     1      -4.469   4.092   0.615  1.00  0.00     0.000 A 
HETATM   22  C13 UNL     1      -3.842   3.756  -0.556  1.00  0.00     0.001 A 
HETATM   23  C14 UNL     1      -3.240   2.524  -0.522  1.00  0.00     0.011 A 
ENDBRANCH  17  18
ENDBRANCH  10  17
BRANCH   1  24
HETATM   24  N1  UNL     1      -3.403  -4.229   0.565  1.00  0.00    -0.382 N 
HETATM   25  H1  UNL     1      -4.252  -3.800   0.152  1.00  0.00     0.157 HD
HETATM   26  H2  UNL     1      -3.468  -4.729   1.466  1.00  0.00     0.157 HD
ENDBRANCH   1  24
BRANCH  14  27
HETATM   27  C18 UNL     1       3.592   1.311   0.373  1.00  0.00     0.085 C 
BRANCH  27  28
HETATM   28  C19 UNL     1       4.717   0.597  -0.247  1.00  0.00     0.150 C 
HETATM   29  O1  UNL     1       5.119  -0.127  -1.133  1.00  0.00    -0.296 OA
BRANCH  28  30
HETATM   30  C20 UNL     1       5.955   0.865   0.571  1.00  0.00     0.242 C 
BRANCH  30  31
HETATM   31  O2  UNL     1       7.017   0.184  -0.007  1.00  0.00    -0.394 OA
HETATM   32  H20 UNL     1       7.429  -0.499   0.578  1.00  0.00     0.209 HD
ENDBRANCH  30  31
ENDBRANCH  28  30
ENDBRANCH  27  28
ENDBRANCH  14  27
TORSDOF 7
