REMARK  6 active torsions:
REMARK  status: ('A' for Active; 'I' for Inactive)
REMARK       I    between atoms: C2_2  and  N1_4 
REMARK    1  A    between atoms: N1_4  and  C3_5 
REMARK    2  A    between atoms: C3_5  and  C4_6 
REMARK    3  A    between atoms: C7_9  and  C8_10 
REMARK    4  A    between atoms: C11_13  and  C12_14 
REMARK    5  A    between atoms: C13_15  and  C14_16 
REMARK    6  A    between atoms: C18_23  and  N5_24 
ROOT
HETATM    1  C8  UNL     1       0.519  -0.517   0.104  1.00  0.00    -0.059 C 
HETATM    2  C9  UNL     1       0.183  -1.371  -0.858  1.00  0.00    -0.016 C 
HETATM    3  C10 UNL     1      -1.194  -1.902  -1.058  1.00  0.00     0.086 C 
HETATM    4  C11 UNL     1      -2.146  -1.015  -0.332  1.00  0.00     0.032 C 
HETATM    5  N6  UNL     1      -1.847  -0.192   0.598  1.00  0.00    -0.290 NA
HETATM    6  C20 UNL     1      -0.490  -0.015   1.079  1.00  0.00     0.183 C 
ENDROOT
BRANCH   4   7
HETATM    7  C12 UNL     1      -3.576  -1.059  -0.690  1.00  0.00     0.029 C 
HETATM    8  C13 UNL     1      -4.449  -0.300  -0.082  1.00  0.00     0.036 C 
BRANCH   8   9
HETATM    9  C14 UNL     1      -5.863  -0.337  -0.428  1.00  0.00     0.089 A 
HETATM   10  N2  UNL     1      -6.353  -1.145  -1.384  1.00  0.00    -0.241 NA
HETATM   11  C15 UNL     1      -7.685  -0.923  -1.441  1.00  0.00     0.215 A 
HETATM   12  N3  UNL     1      -7.970   0.022  -0.509  1.00  0.00    -0.310 N 
HETATM   13  C16 UNL     1      -9.175   0.544  -0.221  1.00  0.00     0.117 A 
HETATM   14  C19 UNL     1      -6.867   0.415   0.146  1.00  0.00     0.114 A 
HETATM   15  C17 UNL     1      -9.234   1.504   0.776  1.00  0.00     0.136 A 
HETATM   16  N4  UNL     1      -8.112   1.892   1.428  1.00  0.00    -0.240 NA
HETATM   17  C18 UNL     1      -6.923   1.364   1.131  1.00  0.00     0.150 A 
BRANCH  17  18
HETATM   18  N5  UNL     1      -5.715   1.744   1.794  1.00  0.00    -0.382 N 
HETATM   19  H21 UNL     1      -5.562   1.152   2.642  1.00  0.00     0.157 HD
HETATM   20  H22 UNL     1      -5.430   2.507   1.147  1.00  0.00     0.157 HD
ENDBRANCH  17  18
ENDBRANCH   8   9
ENDBRANCH   4   7
BRANCH   1  21
HETATM   21  C7  UNL     1       1.904  -0.047   0.226  1.00  0.00     0.016 C 
HETATM   22  C6  UNL     1       2.832  -0.643  -0.774  1.00  0.00     0.009 C 
HETATM   23  C5  UNL     1       4.226  -0.065  -0.612  1.00  0.00     0.007 C 
HETATM   24  C4  UNL     1       4.710   0.028   0.780  1.00  0.00     0.003 C 
HETATM   25  C22 UNL     1       3.660   0.455   1.796  1.00  0.00     0.007 C 
HETATM   26  C21 UNL     1       2.458  -0.442   1.604  1.00  0.00     0.009 C 
BRANCH  24  27
HETATM   27  C3  UNL     1       5.859   0.967   0.957  1.00  0.00     0.127 C 
BRANCH  27  28
HETATM   28  N1  UNL     1       7.061   0.692   0.242  1.00  0.00    -0.361 N 
HETATM   29  C2  UNL     1       7.610   0.575  -1.047  1.00  0.00     0.213 C 
HETATM   30  C1  UNL     1       8.991   0.245  -1.435  1.00  0.00     0.117 C 
HETATM   31  O1  UNL     1       6.818   0.779  -1.993  1.00  0.00    -0.274 OA
HETATM   32  H4  UNL     1       7.880   0.494   0.911  1.00  0.00     0.162 HD
ENDBRANCH  27  28
ENDBRANCH  24  27
ENDBRANCH   1  21
TORSDOF 6
