REMARK  6 active torsions:
REMARK  status: ('A' for Active; 'I' for Inactive)
REMARK    1  A    between atoms: C3_3  and  C4_4 
REMARK    2  A    between atoms: C9_10  and  N2_11 
REMARK    3  A    between atoms: C10_13  and  N4_14 
REMARK    4  A    between atoms: N4_14  and  C11_15 
REMARK    5  A    between atoms: C15_20  and  C16_21 
REMARK    6  A    between atoms: C16_21  and  N6_22 
REMARK       I    between atoms: N6_22  and  C17_23 
ROOT
HETATM    1  N4  UNL     1      -2.088  -0.039   1.124  1.00  0.00    -0.352 N 
HETATM    2  H13 UNL     1      -2.288  -0.515   2.054  1.00  0.00     0.163 HD
ENDROOT
BRANCH   1   3
HETATM    3  C10 UNL     1      -2.963   0.761   0.312  1.00  0.00     0.242 A 
HETATM    4  C5  UNL     1      -3.181   0.209  -1.049  1.00  0.00    -0.013 A 
HETATM    5  C4  UNL     1      -3.657  -0.998  -1.318  1.00  0.00     0.011 C 
HETATM    6  C6  UNL     1      -2.779   1.228  -2.036  1.00  0.00     0.038 A 
HETATM    7  C7  UNL     1      -2.362   2.283  -1.354  1.00  0.00     0.052 A 
HETATM    8  C8  UNL     1      -1.824   3.646  -1.611  1.00  0.00     0.226 A 
HETATM    9  N3  UNL     1      -2.441   2.085   0.054  1.00  0.00    -0.158 N 
HETATM   10  N1  UNL     1      -1.625   4.152  -0.281  1.00  0.00    -0.101 NA
HETATM   11  C9  UNL     1      -1.956   3.312   0.629  1.00  0.00     0.698 A 
BRANCH   5  12
HETATM   12  C3  UNL     1      -4.039  -1.964  -0.281  1.00  0.00    -0.004 C 
HETATM   13  C2  UNL     1      -4.509  -3.155  -0.596  1.00  0.00    -0.031 C 
HETATM   14  C1  UNL     1      -4.887  -4.112   0.492  1.00  0.00     0.036 C 
ENDBRANCH   5  12
BRANCH  11  15
HETATM   15  N2  UNL     1      -1.888   3.485   2.052  1.00  0.00    -0.233 N 
HETATM   16  H10 UNL     1      -2.598   3.037   2.673  1.00  0.00     0.174 HD
HETATM   17  H11 UNL     1      -1.084   4.081   2.373  1.00  0.00     0.174 HD
ENDBRANCH  11  15
ENDBRANCH   1   3
BRANCH   1  18
HETATM   18  C11 UNL     1      -0.763  -0.252   0.658  1.00  0.00     0.096 C 
HETATM   19  N5  UNL     1      -0.297   0.544  -0.214  1.00  0.00    -0.272 NA
HETATM   20  C12 UNL     1       0.958   0.631  -0.889  1.00  0.00     0.106 C 
HETATM   21  C13 UNL     1       1.623   1.894  -0.463  1.00  0.00     0.034 C 
HETATM   22  C14 UNL     1       1.796  -0.597  -0.887  1.00  0.00     0.033 C 
HETATM   23  C15 UNL     1       2.315  -1.091   0.399  1.00  0.00     0.006 C 
HETATM   24  C19 UNL     1       1.386  -1.033   1.575  1.00  0.00     0.013 C 
HETATM   25  C20 UNL     1      -0.023  -1.402   1.237  1.00  0.00     0.078 C 
BRANCH  23  26
HETATM   26  C16 UNL     1       3.648  -0.492   0.757  1.00  0.00     0.127 C 
BRANCH  26  27
HETATM   27  N6  UNL     1       4.663  -0.789  -0.238  1.00  0.00    -0.361 N 
HETATM   28  C17 UNL     1       5.924  -0.224   0.097  1.00  0.00     0.213 C 
HETATM   29  C18 UNL     1       7.100  -0.428  -0.819  1.00  0.00     0.117 C 
HETATM   30  O1  UNL     1       5.948   0.426   1.178  1.00  0.00    -0.274 OA
HETATM   31  H23 UNL     1       4.597  -1.346  -1.141  1.00  0.00     0.162 HD
ENDBRANCH  26  27
ENDBRANCH  23  26
ENDBRANCH   1  18
TORSDOF 6
