REMARK  3 active torsions:
REMARK  status: ('A' for Active; 'I' for Inactive)
REMARK    1  A    between atoms: C5_5  and  C6_6 
REMARK    2  A    between atoms: C11_11  and  C12_12 
REMARK    3  A    between atoms: C12_12  and  N1_13 
REMARK       I    between atoms: N1_13  and  C13_14 
ROOT
HETATM    1  C1  UNL     1      -2.093   0.189   4.540  1.00  0.00     0.038 C 
HETATM    2  C2  UNL     1      -2.377   1.078   3.391  1.00  0.00    -0.002 C 
HETATM    3  C3  UNL     1      -2.009   1.130   2.094  1.00  0.00     0.028 C 
HETATM    4  C4  UNL     1      -1.113   0.116   1.572  1.00  0.00     0.034 C 
HETATM    5  C5  UNL     1      -0.573  -0.117   0.411  1.00  0.00    -0.044 C 
HETATM    6  C16 UNL     1      -0.796   0.834  -0.724  1.00  0.00     0.185 C 
HETATM    7  N3  UNL     1      -1.485   0.236  -1.831  1.00  0.00    -0.279 NA
HETATM    8  C17 UNL     1      -2.154   0.909  -2.703  1.00  0.00     0.226 C 
HETATM    9  N4  UNL     1      -2.213   2.319  -2.564  1.00  0.00    -0.254 NA
HETATM   10  C18 UNL     1      -3.039   2.835  -1.749  1.00  0.00     0.131 C 
HETATM   11  C19 UNL     1      -4.084   2.603  -0.771  1.00  0.00     0.008 A 
HETATM   12  C20 UNL     1      -5.378   2.502  -0.566  1.00  0.00     0.017 A 
HETATM   13  C21 UNL     1      -5.097   2.255   0.839  1.00  0.00     0.031 A 
HETATM   14  C22 UNL     1      -3.799   2.356   0.632  1.00  0.00     0.044 A 
HETATM   15  N5  UNL     1      -2.658   2.250   1.509  1.00  0.00    -0.356 N 
HETATM   16  H29 UNL     1      -2.367   3.227   1.678  1.00  0.00     0.166 HD
ENDROOT
BRANCH   5  17
HETATM   17  C6  UNL     1       0.332  -1.247   0.097  1.00  0.00     0.022 C 
HETATM   18  C7  UNL     1      -0.224  -1.966  -1.089  1.00  0.00     0.027 C 
HETATM   19  C8  UNL     1       0.444  -2.246   1.236  1.00  0.00     0.020 C 
HETATM   20  C9  UNL     1       1.295  -3.387   0.829  1.00  0.00     0.002 C 
HETATM   21  C10 UNL     1       2.341  -3.161  -0.187  1.00  0.00     0.012 C 
HETATM   22  C11 UNL     1       2.548  -1.780  -0.688  1.00  0.00     0.052 C 
HETATM   23  C15 UNL     1       1.715  -0.730  -0.081  1.00  0.00     0.022 C 
HETATM   24  N2  UNL     1       2.277   0.388   0.191  1.00  0.00    -0.307 NA
HETATM   25  H22 UNL     1       1.790   1.159   0.617  1.00  0.00     0.186 HD
BRANCH  22  26
HETATM   26  C12 UNL     1       4.040  -1.427  -0.549  1.00  0.00     0.133 C 
BRANCH  26  27
HETATM   27  N1  UNL     1       4.324  -0.102  -1.005  1.00  0.00    -0.361 N 
HETATM   28  C13 UNL     1       4.098   0.380  -2.333  1.00  0.00     0.213 C 
HETATM   29  C14 UNL     1       4.440   1.793  -2.678  1.00  0.00     0.117 C 
HETATM   30  O1  UNL     1       3.617  -0.378  -3.203  1.00  0.00    -0.274 OA
HETATM   31  H18 UNL     1       4.732   0.612  -0.344  1.00  0.00     0.162 HD
ENDBRANCH  26  27
ENDBRANCH  22  26
ENDBRANCH   5  17
TORSDOF 3
