REMARK  7 active torsions:
REMARK  status: ('A' for Active; 'I' for Inactive)
REMARK    1  A    between atoms: C2_2  and  C3_3 
REMARK    2  A    between atoms: C3_3  and  N1_4 
REMARK    3  A    between atoms: C4_5  and  C5_6 
REMARK    4  A    between atoms: C6_7  and  N2_8 
REMARK    5  A    between atoms: C6_7  and  C9_12 
REMARK    6  A    between atoms: N2_8  and  N3_9 
REMARK    7  A    between atoms: C9_12  and  C11_14 
ROOT
HETATM    1  C5  UNL     1       0.482   0.344   0.050  1.00  0.00     0.046 C 
HETATM    2  C6  UNL     1      -0.555  -0.182  -0.569  1.00  0.00     0.038 C 
ENDROOT
BRANCH   2   3
HETATM    3  N2  UNL     1      -0.303  -1.010  -1.696  1.00  0.00    -0.282 N 
HETATM    4  H8  UNL     1      -0.119  -0.684  -2.690  1.00  0.00     0.189 HD
BRANCH   3   5
HETATM    5  N3  UNL     1      -0.312  -2.377  -1.396  1.00  0.00    -0.192 NA
HETATM    6  C7  UNL     1       0.303  -3.222  -2.154  1.00  0.00     0.107 C 
HETATM    7  C8  UNL     1       0.054  -4.536  -1.501  1.00  0.00     0.059 C 
ENDBRANCH   3   5
ENDBRANCH   2   3
BRANCH   2   8
HETATM    8  C9  UNL     1      -2.006  -0.116  -0.358  1.00  0.00     0.083 C 
HETATM    9  C10 UNL     1      -2.606   0.415  -1.662  1.00  0.00     0.023 C 
BRANCH   8  10
HETATM   10  C11 UNL     1      -2.397   0.779   0.780  1.00  0.00     0.020 C 
HETATM   11  C12 UNL     1      -2.016   2.068   0.625  1.00  0.00     0.027 C 
HETATM   12  C13 UNL     1      -2.226   3.124   1.487  1.00  0.00     0.028 C 
HETATM   13  C14 UNL     1      -2.894   2.954   2.680  1.00  0.00     0.071 C 
HETATM   14  F1  UNL     1      -3.484   3.835   3.506  1.00  0.00    -0.223 F 
HETATM   15  B1  UNL     1      -3.053   1.154   3.333  1.00  0.00     0.380 B 
HETATM   16  N4  UNL     1      -3.074   0.174   1.799  1.00  0.00    -0.356 NA
ENDBRANCH   8  10
ENDBRANCH   2   8
BRANCH   1  17
HETATM   17  C4  UNL     1       0.883   1.195   1.154  1.00  0.00     0.118 C 
HETATM   18  N1  UNL     1       1.879   1.703   1.750  1.00  0.00    -0.273 NA
BRANCH  18  19
HETATM   19  C3  UNL     1       3.200   1.447   1.298  1.00  0.00     0.112 C 
BRANCH  19  20
HETATM   20  C2  UNL     1       4.271   0.883   0.802  1.00  0.00    -0.012 C 
HETATM   21  C1  UNL     1       4.233  -0.497   0.311  1.00  0.00     0.037 C 
ENDBRANCH  19  20
ENDBRANCH  18  19
ENDBRANCH   1  17
TORSDOF 7
