REMARK  4 active torsions:
REMARK  status: ('A' for Active; 'I' for Inactive)
REMARK    1  A    between atoms: O1_2  and  C2_3 
REMARK    2  A    between atoms: C7_8  and  O2_9 
REMARK    3  A    between atoms: C11_16  and  N3_17 
REMARK    4  A    between atoms: N3_17  and  C12_18 
ROOT
HETATM    1  C2  UNL     1      -3.837   1.027  -1.218  1.00  0.00     0.102 A 
HETATM    2  C3  UNL     1      -2.483   1.220  -1.402  1.00  0.00     0.051 A 
HETATM    3  C4  UNL     1      -1.520   0.352  -0.944  1.00  0.00    -0.004 A 
HETATM    4  C5  UNL     1      -1.861  -0.795  -0.257  1.00  0.00     0.082 A 
HETATM    5  C6  UNL     1      -3.228  -1.013  -0.057  1.00  0.00     0.077 A 
HETATM    6  C7  UNL     1      -4.201  -0.129  -0.523  1.00  0.00     0.104 A 
HETATM    7  O3  UNL     1      -1.060  -1.782   0.276  1.00  0.00    -0.319 OA
HETATM    8  C9  UNL     1       0.329  -1.826   0.375  1.00  0.00     0.283 A 
HETATM    9  N1  UNL     1       0.808  -2.766   1.373  1.00  0.00    -0.353 N 
HETATM   10  C10 UNL     1       1.769  -2.476   2.343  1.00  0.00     0.207 A 
HETATM   11  N2  UNL     1       2.277  -1.300   2.393  1.00  0.00    -0.225 NA
HETATM   12  C11 UNL     1       1.880  -0.290   1.478  1.00  0.00     0.156 A 
HETATM   13  C18 UNL     1       0.980  -0.503   0.536  1.00  0.00     0.101 A 
HETATM   14  N4  UNL     1       0.769   0.689  -0.199  1.00  0.00    -0.382 N 
HETATM   15  C19 UNL     1      -0.158   0.855  -1.303  1.00  0.00     0.161 C 
HETATM   16  H10 UNL     1       0.373  -3.714   1.318  1.00  0.00     0.163 HD
HETATM   17  H16 UNL     1       1.334   1.498   0.104  1.00  0.00     0.160 HD
ENDROOT
BRANCH  12  18
HETATM   18  N3  UNL     1       2.589   0.938   1.716  1.00  0.00    -0.339 N 
HETATM   19  H12 UNL     1       2.289   1.785   2.255  1.00  0.00     0.167 HD
BRANCH  18  20
HETATM   20  C12 UNL     1       3.819   0.697   1.024  1.00  0.00     0.035 A 
HETATM   21  C13 UNL     1       4.217   1.164  -0.208  1.00  0.00     0.032 A 
HETATM   22  C14 UNL     1       5.395   0.887  -0.840  1.00  0.00     0.046 A 
HETATM   23  C15 UNL     1       6.263   0.047  -0.155  1.00  0.00     0.138 A 
HETATM   24  F1  UNL     1       7.447  -0.238  -0.772  1.00  0.00    -0.204 F 
HETATM   25  C16 UNL     1       5.963  -0.474   1.083  1.00  0.00     0.074 A 
HETATM   26 CL1  UNL     1       7.152  -1.517   1.822  1.00  0.00    -0.081 Cl
HETATM   27  C17 UNL     1       4.734  -0.144   1.670  1.00  0.00     0.056 A 
ENDBRANCH  18  20
ENDBRANCH  12  18
BRANCH   6  28
HETATM   28  O2  UNL     1      -5.542  -0.454  -0.256  1.00  0.00    -0.353 OA
HETATM   29  C8  UNL     1      -5.789  -1.636   0.452  1.00  0.00     0.210 C 
ENDBRANCH   6  28
BRANCH   1  30
HETATM   30  O1  UNL     1      -4.919   1.773  -1.600  1.00  0.00    -0.353 OA
HETATM   31  C1  UNL     1      -4.767   2.968  -2.312  1.00  0.00     0.210 C 
ENDBRANCH   1  30
TORSDOF 4
