REMARK  3 active torsions:
REMARK  status: ('A' for Active; 'I' for Inactive)
REMARK    1  A    between atoms: N1_1  and  C1_2 
REMARK    2  A    between atoms: C13_19  and  C14_20 
REMARK    3  A    between atoms: C14_20  and  N6_21 
ROOT
HETATM    1  C1  UNL     1       0.950   0.637  -3.463  1.00  0.00     0.194 A 
HETATM    2  N2  UNL     1       0.552   1.393  -2.427  1.00  0.00    -0.053 N 
HETATM    3  C2  UNL     1       1.001   2.743  -2.287  1.00  0.00     0.645 C 
HETATM    4  C3  UNL     1       1.686   3.689  -1.575  1.00  0.00     0.127 C 
HETATM    5  N3  UNL     1       2.266   3.196  -0.382  1.00  0.00    -0.277 NA
HETATM    6  C4  UNL     1       2.333   3.718   0.772  1.00  0.00     0.108 C 
HETATM    7  C5  UNL     1       3.052   2.772   1.724  1.00  0.00     0.171 C 
HETATM    8  N4  UNL     1       2.261   1.528   1.515  1.00  0.00    -0.338 N 
HETATM    9  C6  UNL     1       2.438   0.283   2.228  1.00  0.00     0.318 C 
HETATM   10  O1  UNL     1       3.276   0.080   3.112  1.00  0.00    -0.247 OA
HETATM   11  N5  UNL     1       1.938  -1.034   2.330  1.00  0.00    -0.334 N 
HETATM   12  C7  UNL     1       2.429  -2.276   1.669  1.00  0.00     0.128 C 
HETATM   13  C8  UNL     1       1.309  -2.866   0.793  1.00  0.00     0.024 C 
HETATM   14  C9  UNL     1       0.211  -1.776   0.772  1.00  0.00    -0.011 C 
HETATM   15  C10 UNL     1      -0.383  -1.838   2.120  1.00  0.00     0.024 C 
HETATM   16  C11 UNL     1       0.784  -1.556   3.108  1.00  0.00     0.128 C 
HETATM   17  C12 UNL     1      -0.592  -1.808  -0.455  1.00  0.00     0.019 C 
HETATM   18  C13 UNL     1      -0.267  -0.459  -1.135  1.00  0.00     0.023 C 
HETATM   19  C20 UNL     1       0.332  -0.034  -2.279  1.00  0.00     0.265 A 
HETATM   20  H8  UNL     1       1.501   1.518   0.773  1.00  0.00     0.164 HD
ENDROOT
BRANCH  18  21
HETATM   21  C14 UNL     1      -0.994   0.502  -0.217  1.00  0.00     0.135 C 
BRANCH  21  22
HETATM   22  N6  UNL     1      -2.418   0.148  -0.181  1.00  0.00    -0.386 N 
HETATM   23  C15 UNL     1      -2.913   0.406  -1.523  1.00  0.00     0.086 A 
HETATM   24  C16 UNL     1      -4.143   0.295  -2.060  1.00  0.00     0.017 A 
HETATM   25  C17 UNL     1      -5.191  -0.167  -1.160  1.00  0.00    -0.001 A 
HETATM   26  C18 UNL     1      -4.768  -0.413   0.062  1.00  0.00    -0.007 A 
HETATM   27  C19 UNL     1      -3.444  -0.324   0.724  1.00  0.00     0.149 A 
ENDBRANCH  21  22
ENDBRANCH  18  21
BRANCH   1  28
HETATM   28  N1  UNL     1       1.413  -0.061  -4.561  1.00  0.00    -0.382 N 
HETATM   29  H1  UNL     1       0.812   0.297  -5.357  1.00  0.00     0.157 HD
HETATM   30  H2  UNL     1       2.182  -0.712  -4.304  1.00  0.00     0.157 HD
ENDBRANCH   1  28
TORSDOF 3
