REMARK  5 active torsions:
REMARK  status: ('A' for Active; 'I' for Inactive)
REMARK    1  A    between atoms: N2_5  and  C4_6 
REMARK    2  A    between atoms: C4_6  and  C5_7 
REMARK    3  A    between atoms: C5_7  and  C6_8 
REMARK    4  A    between atoms: C6_8  and  C7_9 
REMARK    5  A    between atoms: C19_24  and  N6_25 
ROOT
HETATM    1  C7  UNL     1       0.209   0.097   1.248  1.00  0.00     0.101 C 
HETATM    2  N3  UNL     1      -0.500   0.977   0.642  1.00  0.00    -0.237 NA
HETATM    3  C8  UNL     1      -1.590   0.668  -0.312  1.00  0.00     0.370 C 
HETATM    4  C9  UNL     1      -2.066   1.988  -0.758  1.00  0.00     0.032 C 
HETATM    5  C10 UNL     1      -2.851   3.051  -1.065  1.00  0.00    -0.000 C 
HETATM    6  C11 UNL     1      -4.322   3.240  -0.955  1.00  0.00    -0.000 C 
HETATM    7  C12 UNL     1      -5.434   2.569  -0.623  1.00  0.00    -0.000 C 
HETATM    8  C13 UNL     1      -5.872   1.235  -0.202  1.00  0.00    -0.002 C 
HETATM    9  C14 UNL     1      -5.168   0.086  -0.107  1.00  0.00     0.003 C 
HETATM   10  C15 UNL     1      -3.791   0.159  -0.511  1.00  0.00     0.304 C 
HETATM   11  N4  UNL     1      -2.679  -0.052   0.333  1.00  0.00     0.138 NA
HETATM   12  C16 UNL     1      -2.479  -1.424   0.612  1.00  0.00     0.345 A 
HETATM   13  C17 UNL     1      -1.119  -1.965   0.539  1.00  0.00     0.069 A 
HETATM   14  C18 UNL     1      -1.087  -3.130  -0.143  1.00  0.00     0.146 A 
HETATM   15  N5  UNL     1      -2.434  -3.371  -0.534  1.00  0.00    -0.243 NA
HETATM   16  C19 UNL     1      -3.241  -2.427  -0.125  1.00  0.00     0.137 A 
HETATM   17  N7  UNL     1       0.058  -1.336   1.103  1.00  0.00    -0.345 N 
HETATM   18  H25 UNL     1       0.821  -1.984   1.409  1.00  0.00     0.167 HD
ENDROOT
BRANCH   1  19
HETATM   19  C6  UNL     1       1.292   0.488   2.194  1.00  0.00     0.080 C 
BRANCH  19  20
HETATM   20  C5  UNL     1       2.633  -0.026   1.767  1.00  0.00     0.028 C 
BRANCH  20  21
HETATM   21  C4  UNL     1       3.001   0.521   0.400  1.00  0.00     0.133 C 
BRANCH  21  22
HETATM   22  N2  UNL     1       4.318   0.015  -0.014  1.00  0.00    -0.308 N 
HETATM   23  C3  UNL     1       4.669  -1.077  -0.695  1.00  0.00     0.113 A 
HETATM   24  C2  UNL     1       6.035  -1.134  -0.845  1.00  0.00     0.112 A 
HETATM   25  N1  UNL     1       6.508  -0.023  -0.223  1.00  0.00    -0.313 N 
HETATM   26  C1  UNL     1       7.924   0.311  -0.145  1.00  0.00     0.160 C 
HETATM   27  C20 UNL     1       5.456   0.648   0.267  1.00  0.00     0.328 A 
HETATM   28  O1  UNL     1       5.565   1.729   0.903  1.00  0.00    -0.246 OA
ENDBRANCH  21  22
ENDBRANCH  20  21
ENDBRANCH  19  20
ENDBRANCH   1  19
BRANCH  16  29
HETATM   29  N6  UNL     1      -4.484  -2.959  -0.670  1.00  0.00    -0.385 N 
HETATM   30  H23 UNL     1      -5.162  -3.554  -0.178  1.00  0.00     0.157 HD
HETATM   31  H24 UNL     1      -4.832  -2.792  -1.639  1.00  0.00     0.157 HD
ENDBRANCH  16  29
TORSDOF 5
