REMARK  5 active torsions:
REMARK  status: ('A' for Active; 'I' for Inactive)
REMARK    1  A    between atoms: C4_4  and  N1_5 
REMARK    2  A    between atoms: N1_5  and  C5_6 
REMARK    3  A    between atoms: C6_8  and  C7_9 
REMARK    4  A    between atoms: C7_9  and  C9_11 
REMARK    5  A    between atoms: N5_23  and  N6_24 
ROOT
HETATM    1  C5  UNL     1      -0.759  -1.784  -0.671  1.00  0.00     0.145 A 
HETATM    2  N2  UNL     1       0.015  -1.154   0.165  1.00  0.00    -0.234 NA
HETATM    3  C6  UNL     1       1.376  -1.418  -0.155  1.00  0.00     0.066 A 
HETATM    4  C14 UNL     1       1.426  -2.222  -1.206  1.00  0.00     0.089 A 
HETATM    5  C15 UNL     1       2.663  -2.678  -1.780  1.00  0.00     0.100 C 
HETATM    6  N4  UNL     1       3.677  -3.046  -2.228  1.00  0.00    -0.191 NA
HETATM    7  C16 UNL     1       0.049  -2.554  -1.664  1.00  0.00     0.285 A 
HETATM    8  F2  UNL     1      -0.206  -2.150  -2.948  1.00  0.00    -0.235 F 
ENDROOT
BRANCH   3   9
HETATM    9  C7  UNL     1       2.511  -0.838   0.622  1.00  0.00     0.087 C 
HETATM   10  C8  UNL     1       2.444  -1.276   2.080  1.00  0.00     0.023 C 
BRANCH   9  11
HETATM   11  C9  UNL     1       2.569   0.643   0.533  1.00  0.00     0.044 A 
HETATM   12  C10 UNL     1       3.727   1.231   0.045  1.00  0.00     0.031 A 
HETATM   13  C11 UNL     1       3.910   2.612  -0.089  1.00  0.00     0.046 A 
HETATM   14  C12 UNL     1       2.841   3.386   0.302  1.00  0.00     0.133 A 
HETATM   15  F1  UNL     1       2.977   4.731   0.187  1.00  0.00    -0.205 F 
HETATM   16  C13 UNL     1       1.691   2.775   0.787  1.00  0.00     0.159 A 
HETATM   17  N3  UNL     1       1.570   1.437   0.895  1.00  0.00    -0.262 NA
ENDBRANCH   9  11
ENDBRANCH   3   9
BRANCH   1  18
HETATM   18  N1  UNL     1      -2.176  -1.767  -0.673  1.00  0.00    -0.325 N 
HETATM   19  H5  UNL     1      -2.679  -2.567  -1.057  1.00  0.00     0.169 HD
BRANCH  18  20
HETATM   20  C4  UNL     1      -2.883  -0.650  -0.148  1.00  0.00     0.150 A 
HETATM   21  C3  UNL     1      -2.382   0.507   0.404  1.00  0.00     0.080 A 
HETATM   22  C2  UNL     1      -3.431   1.325   0.785  1.00  0.00     0.056 A 
HETATM   23  C1  UNL     1      -3.353   2.671   1.424  1.00  0.00     0.072 C 
HETATM   24  N7  UNL     1      -4.554   0.645   0.455  1.00  0.00    -0.156 NA
HETATM   25  N5  UNL     1      -4.222  -0.517  -0.095  1.00  0.00    -0.163 N 
BRANCH  25  26
HETATM   26  N6  UNL     1      -5.191  -1.432  -0.535  1.00  0.00    -0.321 N 
HETATM   27  H14 UNL     1      -5.455  -2.129   0.195  1.00  0.00     0.179 HD
HETATM   28  H15 UNL     1      -5.746  -1.634  -1.399  1.00  0.00     0.179 HD
ENDBRANCH  25  26
ENDBRANCH  18  20
ENDBRANCH   1  18
TORSDOF 5
