REMARK  6 active torsions:
REMARK  status: ('A' for Active; 'I' for Inactive)
REMARK    1  A    between atoms: C2_2  and  N1_3 
REMARK    2  A    between atoms: N1_3  and  O1_4 
REMARK    3  A    between atoms: O1_4  and  C3_5 
REMARK    4  A    between atoms: C3_5  and  C4_7 
REMARK    5  A    between atoms: C5_8  and  C6_9 
REMARK    6  A    between atoms: C6_9  and  C7_10 
ROOT
HETATM    1  C4  UNL     1       1.625  -0.014   1.681  1.00  0.00     0.118 A 
HETATM    2  C5  UNL     1       0.311   0.012   1.693  1.00  0.00    -0.015 A 
HETATM    3  C17 UNL     1       0.008   0.930   2.815  1.00  0.00     0.129 A 
HETATM    4  N2  UNL     1       1.090   1.376   3.377  1.00  0.00    -0.221 NA
HETATM    5  C18 UNL     1       2.227   0.821   2.713  1.00  0.00     0.283 A 
HETATM    6  O3  UNL     1       3.442   1.014   2.967  1.00  0.00    -0.265 OA
ENDROOT
BRANCH   2   7
HETATM    7  C6  UNL     1      -0.644  -0.703   0.819  1.00  0.00     0.076 C 
BRANCH   7   8
HETATM    8  C7  UNL     1      -1.490   0.186   0.010  1.00  0.00    -0.067 A 
HETATM    9  C8  UNL     1      -1.332   1.499   0.119  1.00  0.00     0.004 A 
HETATM   10  C9  UNL     1      -2.135   2.448  -0.653  1.00  0.00    -0.003 A 
HETATM   11  C10 UNL     1      -3.027   1.915  -1.468  1.00  0.00    -0.017 A 
HETATM   12  C11 UNL     1      -3.305   0.490  -1.690  1.00  0.00     0.042 A 
HETATM   13  C12 UNL     1      -4.787   0.323  -1.521  1.00  0.00    -0.017 A 
HETATM   14  C16 UNL     1      -2.492  -0.461  -0.894  1.00  0.00     0.048 A 
HETATM   15  C13 UNL     1      -5.474  -0.536  -0.785  1.00  0.00    -0.004 A 
HETATM   16  C14 UNL     1      -4.647  -1.469  -0.016  1.00  0.00    -0.004 A 
HETATM   17  C15 UNL     1      -3.315  -1.406  -0.090  1.00  0.00    -0.017 A 
ENDBRANCH   7   8
ENDBRANCH   2   7
BRANCH   1  18
HETATM   18  C3  UNL     1       2.468  -0.778   0.771  1.00  0.00     0.316 C 
HETATM   19  O2  UNL     1       2.267  -1.562  -0.177  1.00  0.00    -0.257 OA
BRANCH  18  20
HETATM   20  O1  UNL     1       3.843  -0.794   0.772  1.00  0.00    -0.223 OA
BRANCH  20  21
HETATM   21  N1  UNL     1       4.563  -1.537  -0.115  1.00  0.00    -0.197 NA
HETATM   22  H6  UNL     1       4.754  -2.503   0.171  1.00  0.00     0.154 HD
BRANCH  21  23
HETATM   23  C2  UNL     1       5.759  -0.836  -0.556  1.00  0.00     0.113 C 
HETATM   24  C1  UNL     1       5.375   0.462  -1.232  1.00  0.00     0.023 C 
ENDBRANCH  21  23
ENDBRANCH  20  21
ENDBRANCH  18  20
ENDBRANCH   1  18
TORSDOF 6
