REMARK  4 active torsions:
REMARK  status: ('A' for Active; 'I' for Inactive)
REMARK    1  A    between atoms: C4_6  and  C12_14 
REMARK    2  A    between atoms: C13_15  and  C14_16 
REMARK    3  A    between atoms: C14_16  and  O1_17 
REMARK    4  A    between atoms: O1_17  and  C15_18 
ROOT
HETATM    1  B1  UNL     1      -2.674   2.784   1.626  1.00  0.00     0.179 B 
HETATM    2  C1  UNL     1      -1.315   2.851   0.537  1.00  0.00    -0.036 A 
HETATM    3  N1  UNL     1      -0.335   3.315  -0.245  1.00  0.00    -0.297 NA
HETATM    4  C2  UNL     1       0.086   2.027  -0.553  1.00  0.00     0.094 A 
HETATM    5  C3  UNL     1       0.034   0.469  -0.511  1.00  0.00     0.049 A 
HETATM    6  C4  UNL     1      -0.005  -0.767  -0.481  1.00  0.00     0.033 A 
HETATM    7  C5  UNL     1       0.300  -2.030  -0.691  1.00  0.00    -0.012 A 
HETATM    8  C6  UNL     1       1.446  -2.320  -1.492  1.00  0.00     0.005 A 
HETATM    9  C7  UNL     1       2.056  -1.091  -1.917  1.00  0.00    -0.043 A 
HETATM   10  C8  UNL     1       3.136  -0.647  -2.634  1.00  0.00     0.008 A 
HETATM   11  C9  UNL     1       3.347   0.677  -2.753  1.00  0.00     0.001 A 
HETATM   12  C10 UNL     1       2.685   1.795  -2.292  1.00  0.00     0.005 A 
HETATM   13  C11 UNL     1       1.545   1.441  -1.537  1.00  0.00    -0.051 A 
HETATM   14  C12 UNL     1       0.379   0.929  -0.763  1.00  0.00     0.046 A 
HETATM   15  C13 UNL     1      -0.684   1.581   0.064  1.00  0.00     0.056 A 
HETATM   16  C14 UNL     1      -1.016   0.040   0.443  1.00  0.00     0.139 A 
HETATM   17  C17 UNL     1       1.302   0.063  -1.393  1.00  0.00     0.040 A 
HETATM   18  H1  UNL     1      -3.828   2.795   2.551  1.00  0.00    -0.029 HD
ENDROOT
BRANCH  16  19
HETATM   19  O1  UNL     1      -0.827  -0.210   1.694  1.00  0.00    -0.385 OA
BRANCH  19  20
HETATM   20  C15 UNL     1      -1.697  -0.612   2.614  1.00  0.00     0.163 C 
HETATM   21  C16 UNL     1      -2.340  -1.967   2.289  1.00  0.00     0.033 C 
ENDBRANCH  19  20
ENDBRANCH  16  19
TORSDOF 4
