REMARK  5 active torsions:
REMARK  status: ('A' for Active; 'I' for Inactive)
REMARK    1  A    between atoms: N1_1  and  C1_2 
REMARK    2  A    between atoms: N3_6  and  C4_7 
REMARK    3  A    between atoms: C4_7  and  C5_8 
REMARK    4  A    between atoms: N4_11  and  C8_12 
REMARK    5  A    between atoms: C20_25  and  N5_26 
ROOT
HETATM    1  C1  UNL     1      -1.594  -2.738   0.806  1.00  0.00     0.148 A 
HETATM    2  N2  UNL     1      -1.080  -3.872   0.533  1.00  0.00    -0.240 NA
HETATM    3  C2  UNL     1       0.302  -3.983   0.233  1.00  0.00     0.136 A 
HETATM    4  C3  UNL     1       1.003  -2.862   0.256  1.00  0.00     0.110 A 
HETATM    5  N3  UNL     1       0.433  -1.569   0.565  1.00  0.00    -0.352 N 
HETATM    6  C11 UNL     1      -0.945  -1.441   0.863  1.00  0.00     0.085 A 
HETATM    7  C12 UNL     1      -1.713  -0.428   1.214  1.00  0.00    -0.008 C 
HETATM    8  C13 UNL     1      -3.132  -0.452   1.569  1.00  0.00     0.078 C 
HETATM    9  C14 UNL     1      -3.839   0.640   0.883  1.00  0.00    -0.045 A 
HETATM   10  C15 UNL     1      -5.146   0.727   0.454  1.00  0.00     0.008 A 
HETATM   11  C16 UNL     1      -5.543   1.936  -0.126  1.00  0.00     0.001 A 
HETATM   12  C17 UNL     1      -4.609   2.974  -0.236  1.00  0.00     0.001 A 
HETATM   13  C18 UNL     1      -3.319   2.805   0.219  1.00  0.00     0.010 A 
HETATM   14  C19 UNL     1      -2.927   1.596   0.795  1.00  0.00    -0.015 A 
HETATM   15  C20 UNL     1      -1.627   1.035   1.353  1.00  0.00     0.283 C 
ENDROOT
BRANCH   1  16
HETATM   16  N1  UNL     1      -2.894  -3.260   0.995  1.00  0.00    -0.382 N 
HETATM   17  H1  UNL     1      -3.603  -3.333   0.203  1.00  0.00     0.157 HD
HETATM   18  H2  UNL     1      -3.245  -3.625   1.935  1.00  0.00     0.157 HD
ENDBRANCH   1  16
BRANCH   5  19
HETATM   19  C4  UNL     1       1.300  -0.443   0.626  1.00  0.00     0.133 C 
BRANCH  19  20
HETATM   20  C5  UNL     1       1.876   0.075  -0.640  1.00  0.00     0.007 C 
HETATM   21  C6  UNL     1       2.742  -0.881  -1.416  1.00  0.00     0.026 C 
HETATM   22  C7  UNL     1       3.477  -0.094  -2.518  1.00  0.00     0.125 C 
HETATM   23  N4  UNL     1       4.498   0.672  -1.786  1.00  0.00    -0.359 N 
HETATM   24  C9  UNL     1       4.227   0.929  -0.385  1.00  0.00     0.125 C 
HETATM   25  C10 UNL     1       2.740   1.274  -0.290  1.00  0.00     0.026 C 
BRANCH  23  26
HETATM   26  C8  UNL     1       5.731   1.207  -2.253  1.00  0.00     0.350 C 
HETATM   27  O1  UNL     1       6.669   1.874  -1.708  1.00  0.00    -0.284 OA
ENDBRANCH  23  26
ENDBRANCH  19  20
ENDBRANCH   5  19
BRANCH  15  28
HETATM   28  N5  UNL     1      -0.672   1.648   0.413  1.00  0.00     0.091 N 
HETATM   29  H24 UNL     1      -0.945   1.436  -0.572  1.00  0.00     0.314 HD
HETATM   30  H25 UNL     1      -0.844   2.666   0.530  1.00  0.00     0.314 HD
ENDBRANCH  15  28
TORSDOF 5
