REMARK  6 active torsions:
REMARK  status: ('A' for Active; 'I' for Inactive)
REMARK    1  A    between atoms: C7_7  and  C8_8 
REMARK    2  A    between atoms: C8_8  and  C9_9 
REMARK    3  A    between atoms: C9_9  and  O1_10 
REMARK    4  A    between atoms: C11_13  and  O2_14 
REMARK    5  A    between atoms: O2_14  and  C12_15 
REMARK    6  A    between atoms: C12_15  and  C13_16 
ROOT
HETATM    1  C1  UNL     1      -4.348   2.923  -2.160  1.00  0.00     0.045 C 
HETATM    2  C2  UNL     1      -3.493   1.946  -1.424  1.00  0.00    -0.066 C 
HETATM    3  C3  UNL     1      -4.029   1.706  -0.216  1.00  0.00     0.004 C 
HETATM    4  C4  UNL     1      -3.509   0.803   0.840  1.00  0.00     0.003 C 
HETATM    5  C5  UNL     1      -2.690  -0.257   1.014  1.00  0.00    -0.072 C 
HETATM    6  C6  UNL     1      -2.732  -0.561   2.475  1.00  0.00     0.044 C 
HETATM    7  C7  UNL     1      -1.952  -0.873  -0.114  1.00  0.00     0.086 C 
HETATM    8  C10 UNL     1      -0.977   0.075  -0.686  1.00  0.00     0.120 A 
HETATM    9  N1  UNL     1       0.211  -0.220  -0.139  1.00  0.00    -0.208 NA
HETATM   10  C11 UNL     1       1.297   0.524  -0.498  1.00  0.00     0.194 A 
HETATM   11  C19 UNL     1       1.113   1.546  -1.411  1.00  0.00     0.154 A 
HETATM   12 CL1  UNL     1       2.453   2.558  -1.934  1.00  0.00    -0.074 Cl
HETATM   13  C20 UNL     1      -0.136   1.815  -1.952  1.00  0.00     0.275 A 
HETATM   14  O3  UNL     1      -0.266   2.757  -2.784  1.00  0.00    -0.266 OA
HETATM   15  N2  UNL     1      -1.212   1.068  -1.587  1.00  0.00    -0.296 N 
HETATM   16  C21 UNL     1      -2.347   1.598  -2.319  1.00  0.00     0.167 C 
ENDROOT
BRANCH  10  17
HETATM   17  O2  UNL     1       2.589   0.364  -0.037  1.00  0.00    -0.328 OA
BRANCH  17  18
HETATM   18  C12 UNL     1       2.911  -0.634   0.889  1.00  0.00     0.219 C 
BRANCH  18  19
HETATM   19  C13 UNL     1       4.378  -0.585   1.229  1.00  0.00     0.005 A 
HETATM   20  C14 UNL     1       5.151   0.416   0.629  1.00  0.00     0.015 A 
HETATM   21  C15 UNL     1       6.496   0.607   0.829  1.00  0.00     0.043 A 
HETATM   22  C16 UNL     1       7.134  -0.269   1.697  1.00  0.00     0.119 A 
HETATM   23  F1  UNL     1       8.459  -0.088   1.901  1.00  0.00    -0.206 F 
HETATM   24  C17 UNL     1       6.398  -1.266   2.304  1.00  0.00     0.085 A 
HETATM   25  C18 UNL     1       5.047  -1.431   2.082  1.00  0.00     0.127 A 
HETATM   26  F2  UNL     1       4.303  -2.400   2.663  1.00  0.00    -0.205 F 
ENDBRANCH  18  19
ENDBRANCH  17  18
ENDBRANCH  10  17
BRANCH   7  27
HETATM   27  C8  UNL     1      -1.314  -2.147   0.332  1.00  0.00     0.043 C 
BRANCH  27  28
HETATM   28  C9  UNL     1      -2.318  -3.170   0.802  1.00  0.00     0.165 C 
BRANCH  28  29
HETATM   29  O1  UNL     1      -3.211  -3.485  -0.245  1.00  0.00    -0.401 OA
HETATM   30  H14 UNL     1      -2.712  -3.764  -1.043  1.00  0.00     0.209 HD
ENDBRANCH  28  29
ENDBRANCH  27  28
ENDBRANCH   7  27
TORSDOF 6
