REMARK  4 active torsions:
REMARK  status: ('A' for Active; 'I' for Inactive)
REMARK    1  A    between atoms: C3_3  and  C4_4 
REMARK    2  A    between atoms: C13_13  and  C14_14 
REMARK    3  A    between atoms: C13_13  and  C15_16 
REMARK    4  A    between atoms: C14_14  and  N1_15 
ROOT
HETATM    1  C4  UNL     1      -0.372   0.431   1.260  1.00  0.00    -0.022 C 
HETATM    2  C5  UNL     1      -1.361   1.176   0.806  1.00  0.00    -0.037 A 
HETATM    3  C6  UNL     1      -2.457   1.927   1.464  1.00  0.00     0.067 A 
HETATM    4  C7  UNL     1      -3.286   2.605   0.434  1.00  0.00    -0.022 A 
HETATM    5  C8  UNL     1      -3.207   2.693  -0.877  1.00  0.00    -0.003 A 
HETATM    6  C9  UNL     1      -2.080   1.978  -1.452  1.00  0.00     0.007 A 
HETATM    7  C10 UNL     1      -1.290   1.324  -0.631  1.00  0.00    -0.046 A 
HETATM    8  C11 UNL     1      -0.041   0.645  -1.112  1.00  0.00     0.078 C 
HETATM    9  C12 UNL     1       0.287  -0.174   0.075  1.00  0.00    -0.038 C 
HETATM   10  C13 UNL     1       1.001  -1.294  -0.042  1.00  0.00    -0.033 C 
ENDROOT
BRANCH   1  11
HETATM   11  C3  UNL     1       0.070   0.042   2.571  1.00  0.00     0.008 C 
HETATM   12  C2  UNL     1      -0.302   0.242   3.811  1.00  0.00    -0.030 C 
HETATM   13  C1  UNL     1      -1.376   0.975   4.485  1.00  0.00     0.036 C 
ENDBRANCH   1  11
BRANCH  10  14
HETATM   14  C14 UNL     1       1.571  -2.492   0.603  1.00  0.00     0.302 C 
BRANCH  14  15
HETATM   15  N1  UNL     1       1.093  -3.727  -0.011  1.00  0.00     0.082 N 
HETATM   16  H15 UNL     1       0.055  -3.744   0.169  1.00  0.00     0.313 HD
HETATM   17  H16 UNL     1       1.295  -3.740  -1.043  1.00  0.00     0.313 HD
ENDBRANCH  14  15
ENDBRANCH  10  14
BRANCH  10  18
HETATM   18  C15 UNL     1       1.584  -1.581  -1.337  1.00  0.00     0.027 A 
HETATM   19  O1  UNL     1       1.811  -1.321  -2.539  1.00  0.00     0.000 OA
HETATM   20  O2  UNL     1       1.658  -1.033  -2.587  1.00  0.00     0.000 OA
HETATM   21  S1  UNL     1       2.467  -1.696  -3.931  1.00  0.00    -0.102 SA
HETATM   22  C16 UNL     1       4.167  -1.251  -4.155  1.00  0.00     0.102 C 
ENDBRANCH  10  18
TORSDOF 4
