REMARK  1 active torsions:
REMARK  status: ('A' for Active; 'I' for Inactive)
REMARK       I    between atoms: N1_8  and  C8_9 
REMARK    1  A    between atoms: C8_9  and  C9_11 
ROOT
HETATM    1  C1  UNL     1       3.647  -0.540  -0.598  1.00  0.00     0.050 C 
HETATM    2  C2  UNL     1       2.335  -1.163  -0.217  1.00  0.00    -0.035 A 
HETATM    3  C3  UNL     1       2.050  -2.518  -0.457  1.00  0.00     0.009 A 
HETATM    4  C4  UNL     1       0.821  -3.014  -0.086  1.00  0.00     0.009 A 
HETATM    5  C5  UNL     1      -0.119  -2.205   0.511  1.00  0.00    -0.036 A 
HETATM    6  C6  UNL     1       0.174  -0.884   0.741  1.00  0.00     0.039 A 
HETATM    7  C7  UNL     1       1.374  -0.341   0.392  1.00  0.00     0.049 A 
HETATM    8  N1  UNL     1       1.765   0.985   0.549  1.00  0.00    -0.274 N 
HETATM    9  C8  UNL     1       2.819   0.920   1.486  1.00  0.00     0.243 C 
HETATM   10  O1  UNL     1       2.982  -0.263   1.964  1.00  0.00    -0.271 OA
HETATM   11  C10 UNL     1       1.610   2.353   0.223  1.00  0.00     0.241 C 
HETATM   12  N2  UNL     1       0.648   2.007  -0.555  1.00  0.00    -0.148 NA
HETATM   13  N3  UNL     1      -0.080   2.912  -1.306  1.00  0.00    -0.183 N 
HETATM   14  O2  UNL     1      -0.895   1.806  -1.305  1.00  0.00    -0.259 OA
HETATM   15  C11 UNL     1      -2.181   2.097  -0.897  1.00  0.00     0.240 C 
HETATM   16  C12 UNL     1      -3.026   0.845  -0.918  1.00  0.00    -0.018 C 
HETATM   17  C13 UNL     1      -3.657   0.222  -1.916  1.00  0.00    -0.013 C 
HETATM   18  C14 UNL     1      -4.063  -1.157  -1.484  1.00  0.00     0.085 C 
HETATM   19  C15 UNL     1      -3.098  -1.426  -0.364  1.00  0.00     0.048 C 
HETATM   20  N4  UNL     1      -2.408  -2.468  -0.176  1.00  0.00    -0.290 NA
HETATM   21  C16 UNL     1      -1.504  -2.628   0.936  1.00  0.00     0.187 C 
HETATM   22  C17 UNL     1      -3.402  -0.075   0.200  1.00  0.00     0.248 C 
HETATM   23  F1  UNL     1      -4.753   0.034   0.440  1.00  0.00    -0.238 F 
HETATM   24  H10 UNL     1       0.270   3.875  -1.501  1.00  0.00     0.218 HD
ENDROOT
BRANCH   9  25
HETATM   25  C9  UNL     1       3.773   1.959   2.024  1.00  0.00     0.218 C 
HETATM   26 CL1  UNL     1       3.174   2.709   3.485  1.00  0.00    -0.121 Cl
ENDBRANCH   9  25
TORSDOF 1
