REMARK  1 active torsions:
REMARK  status: ('A' for Active; 'I' for Inactive)
REMARK    1  A    between atoms: C2_2  and  C4_4 
ROOT
HETATM    1  C4  UNL     1       2.629  -0.344  -0.607  1.00  0.00     0.044 C 
HETATM    2  C5  UNL     1       2.670   0.320   0.508  1.00  0.00     0.099 C 
HETATM    3  C6  UNL     1       2.195   0.956   1.744  1.00  0.00     0.308 A 
HETATM    4  O1  UNL     1       1.883   1.492   2.789  1.00  0.00    -0.125 OA
HETATM    5  N1  UNL     1       0.781   1.223   1.983  1.00  0.00     0.105 N 
HETATM    6  C7  UNL     1      -0.172   1.715   2.946  1.00  0.00     0.285 C 
HETATM    7  C8  UNL     1      -1.531   2.061   2.463  1.00  0.00     0.073 C 
HETATM    8  C9  UNL     1      -2.217   1.225   1.512  1.00  0.00    -0.017 A 
HETATM    9  C10 UNL     1      -2.504  -0.034   1.101  1.00  0.00     0.020 A 
HETATM   10  C11 UNL     1      -3.244  -0.468   0.067  1.00  0.00    -0.018 A 
HETATM   11  C12 UNL     1      -3.886   0.364  -0.814  1.00  0.00     0.125 A 
HETATM   12  F1  UNL     1      -4.598  -0.211  -1.804  1.00  0.00    -0.205 F 
HETATM   13  C13 UNL     1      -3.685   1.694  -0.520  1.00  0.00     0.085 A 
HETATM   14  C14 UNL     1      -2.899   2.048   0.574  1.00  0.00     0.125 A 
HETATM   15  F2  UNL     1      -2.892   3.440   0.591  1.00  0.00    -0.205 F 
HETATM   16  C15 UNL     1      -3.318  -1.937  -0.121  1.00  0.00     0.046 C 
HETATM   17  O2  UNL     1      -2.159  -2.498  -0.613  1.00  0.00     0.000 OA
HETATM   18  C16 UNL     1      -1.434  -2.352  -1.738  1.00  0.00     0.209 A 
HETATM   19  N2  UNL     1      -0.827  -1.893  -0.647  1.00  0.00    -0.265 N 
HETATM   20  C17 UNL     1       0.267  -1.356  -0.348  1.00  0.00     0.269 A 
HETATM   21  N3  UNL     1       1.430  -0.903  -0.681  1.00  0.00    -0.314 N 
HETATM   22  C18 UNL     1       0.631  -1.413  -1.597  1.00  0.00     0.230 A 
HETATM   23  O3  UNL     1       1.136  -1.388  -2.752  1.00  0.00    -0.318 OA
HETATM   24  C19 UNL     1      -0.264  -1.946  -2.409  1.00  0.00     0.227 A 
HETATM   25 CL1  UNL     1      -1.408  -2.621  -3.400  1.00  0.00    -0.135 Cl
HETATM   26  H7  UNL     1       0.165   0.999   1.142  1.00  0.00     0.328 HD
ENDROOT
BRANCH   1  27
HETATM   27  C2  UNL     1       3.880  -0.418  -1.233  1.00  0.00    -0.044 C 
HETATM   28  C1  UNL     1       3.782  -1.057  -2.327  1.00  0.00     0.021 C 
HETATM   29  C3  UNL     1       5.194   0.107  -0.839  1.00  0.00     0.049 C 
ENDBRANCH   1  27
TORSDOF 1
