REMARK  4 active torsions:
REMARK  status: ('A' for Active; 'I' for Inactive)
REMARK    1  A    between atoms: O1_2  and  C2_3 
REMARK    2  A    between atoms: C7_8  and  O2_9 
REMARK    3  A    between atoms: N1_13  and  C10_14 
REMARK    4  A    between atoms: C10_14  and  N2_15 
ROOT
HETATM    1  C2  UNL     1       4.821  -0.333  -0.323  1.00  0.00     0.102 A 
HETATM    2  C3  UNL     1       4.040  -1.045   0.558  1.00  0.00     0.051 A 
HETATM    3  C4  UNL     1       2.740  -0.687   0.827  1.00  0.00     0.006 A 
HETATM    4  C5  UNL     1       2.215   0.436   0.176  1.00  0.00     0.088 A 
HETATM    5  C6  UNL     1       3.002   1.163  -0.718  1.00  0.00     0.077 A 
HETATM    6  C7  UNL     1       4.312   0.775  -0.968  1.00  0.00     0.104 A 
HETATM    7  O3  UNL     1       0.950   1.016   0.259  1.00  0.00    -0.294 OA
HETATM    8  C9  UNL     1      -0.187   0.361   0.742  1.00  0.00     0.171 C 
HETATM    9  N1  UNL     1      -1.321   0.604   0.224  1.00  0.00    -0.247 NA
HETATM   10  C17 UNL     1      -0.201  -0.628   1.842  1.00  0.00     0.355 C 
HETATM   11  N4  UNL     1       1.078  -0.730   2.511  1.00  0.00     0.095 N 
HETATM   12  C18 UNL     1       2.018  -1.555   1.804  1.00  0.00     0.311 C 
HETATM   13  H21 UNL     1       1.484   0.205   2.716  1.00  0.00     0.316 HD
ENDROOT
BRANCH   9  14
HETATM   14  C10 UNL     1      -2.589   0.046   0.569  1.00  0.00     0.297 C 
BRANCH  14  15
HETATM   15  N2  UNL     1      -3.483   0.226  -0.549  1.00  0.00    -0.266 N 
HETATM   16  N3  UNL     1      -3.692   1.521  -0.907  1.00  0.00    -0.309 N 
HETATM   17  C11 UNL     1      -4.853   2.337  -0.727  1.00  0.00     0.107 C 
HETATM   18  H11 UNL     1      -2.908   2.048  -1.395  1.00  0.00     0.186 HD
HETATM   19  C12 UNL     1      -5.995   1.996  -0.131  1.00  0.00     0.018 C 
HETATM   20  C13 UNL     1      -6.304   0.698   0.471  1.00  0.00     0.002 C 
HETATM   21  C14 UNL     1      -5.694  -0.458   0.255  1.00  0.00     0.040 C 
HETATM   22  C15 UNL     1      -4.543  -0.694  -0.662  1.00  0.00     0.207 C 
HETATM   23  C16 UNL     1      -4.025  -2.088  -0.409  1.00  0.00     0.083 C 
HETATM   24  F1  UNL     1      -4.989  -0.671  -1.991  1.00  0.00    -0.213 F 
ENDBRANCH  14  15
ENDBRANCH   9  14
BRANCH   6  25
HETATM   25  O2  UNL     1       5.159   1.447  -1.846  1.00  0.00    -0.353 OA
HETATM   26  C8  UNL     1       4.694   2.582  -2.530  1.00  0.00     0.210 C 
ENDBRANCH   6  25
BRANCH   1  27
HETATM   27  O1  UNL     1       6.141  -0.737  -0.565  1.00  0.00    -0.353 OA
HETATM   28  C1  UNL     1       6.604  -1.871   0.120  1.00  0.00     0.210 C 
ENDBRANCH   1  27
TORSDOF 4
