REMARK  6 active torsions:
REMARK  status: ('A' for Active; 'I' for Inactive)
REMARK    1  A    between atoms: C2_2  and  O1_3 
REMARK    2  A    between atoms: O1_3  and  C3_4 
REMARK    3  A    between atoms: C3_4  and  C4_6 
REMARK    4  A    between atoms: C8_12  and  C9_13 
REMARK    5  A    between atoms: C10_14  and  C11_15 
REMARK    6  A    between atoms: C11_15  and  O4_16 
ROOT
HETATM    1  C4  UNL     1       1.550   0.907   0.345  1.00  0.00     0.122 A 
HETATM    2  C5  UNL     1       0.379   0.315   0.192  1.00  0.00     0.027 A 
HETATM    3  C6  UNL     1      -0.595   1.383   0.154  1.00  0.00     0.084 A 
HETATM    4  N1  UNL     1      -0.019   2.530   0.278  1.00  0.00    -0.208 NA
HETATM    5  C7  UNL     1       1.390   2.352   0.410  1.00  0.00     0.284 A 
HETATM    6  O3  UNL     1       2.224   3.283   0.548  1.00  0.00    -0.265 OA
HETATM    7  C8  UNL     1      -1.908   0.774  -0.013  1.00  0.00     0.005 A 
HETATM    8  C12 UNL     1      -1.644  -0.647  -0.067  1.00  0.00    -0.012 A 
HETATM    9  C13 UNL     1      -2.477  -1.731  -0.213  1.00  0.00     0.013 A 
HETATM   10  C14 UNL     1      -2.069  -3.038  -0.246  1.00  0.00     0.001 A 
HETATM   11  C15 UNL     1      -0.721  -3.299  -0.124  1.00  0.00     0.001 A 
HETATM   12  C16 UNL     1       0.155  -2.245   0.024  1.00  0.00     0.013 A 
HETATM   13  C17 UNL     1      -0.307  -0.962   0.050  1.00  0.00    -0.011 A 
ENDROOT
BRANCH   1  14
HETATM   14  C3  UNL     1       2.868   0.300   0.444  1.00  0.00     0.299 C 
HETATM   15  O2  UNL     1       3.332  -0.862   0.425  1.00  0.00    -0.259 OA
BRANCH  14  16
HETATM   16  O1  UNL     1       4.049   1.000   0.603  1.00  0.00    -0.318 OA
BRANCH  16  17
HETATM   17  C2  UNL     1       5.316   0.383   0.696  1.00  0.00     0.174 C 
HETATM   18  C1  UNL     1       5.623  -0.418  -0.548  1.00  0.00     0.034 C 
ENDBRANCH  16  17
ENDBRANCH  14  16
ENDBRANCH   1  14
BRANCH   7  19
HETATM   19  C9  UNL     1      -3.014   1.467  -0.086  1.00  0.00     0.016 C 
HETATM   20  C10 UNL     1      -4.305   0.836  -0.253  1.00  0.00     0.025 C 
BRANCH  20  21
HETATM   21  C11 UNL     1      -5.398   1.553  -0.323  1.00  0.00     0.131 C 
BRANCH  21  22
HETATM   22  O4  UNL     1      -6.604   2.212  -0.407  1.00  0.00    -0.373 OA
HETATM   23  H9  UNL     1      -7.485   1.713  -0.524  1.00  0.00     0.216 HD
ENDBRANCH  21  22
ENDBRANCH  20  21
ENDBRANCH   7  19
TORSDOF 6
