REMARK  3 active torsions:
REMARK  status: ('A' for Active; 'I' for Inactive)
REMARK    1  A    between atoms: C2_2  and  O1_3 
REMARK    2  A    between atoms: O1_3  and  C3_4 
REMARK       I    between atoms: C3_4  and  N1_6 
REMARK       I    between atoms: N1_6  and  C4_7 
REMARK    3  A    between atoms: N1_6  and  C5_10 
REMARK       I    between atoms: C4_7  and  N2_8 
ROOT
HETATM    1  C5  UNL     1       0.116   0.174  -0.908  1.00  0.00     0.138 A 
HETATM    2  C6  UNL     1       1.037  -0.903  -1.433  1.00  0.00     0.070 A 
HETATM    3  C7  UNL     1       2.245  -0.756  -0.600  1.00  0.00    -0.044 A 
HETATM    4  C8  UNL     1       3.452  -1.466  -0.605  1.00  0.00     0.008 A 
HETATM    5  C9  UNL     1       4.464  -1.130   0.302  1.00  0.00     0.001 A 
HETATM    6  C10 UNL     1       4.292  -0.099   1.212  1.00  0.00     0.012 A 
HETATM    7  C11 UNL     1       3.108   0.611   1.231  1.00  0.00    -0.025 A 
HETATM    8  C12 UNL     1       2.800   1.655   2.077  1.00  0.00     0.012 A 
HETATM    9  C13 UNL     1       1.551   2.278   1.974  1.00  0.00     0.002 A 
HETATM   10  C14 UNL     1       0.615   1.858   1.028  1.00  0.00     0.010 A 
HETATM   11  C15 UNL     1       0.918   0.799   0.164  1.00  0.00    -0.023 A 
HETATM   12  C16 UNL     1       2.164   0.235   0.324  1.00  0.00    -0.011 A 
ENDROOT
BRANCH   1  13
HETATM   13  N1  UNL     1      -1.124  -0.382  -0.435  1.00  0.00    -0.236 N 
HETATM   14  C3  UNL     1      -2.370  -0.031  -1.025  1.00  0.00     0.371 C 
HETATM   15  O2  UNL     1      -2.423   0.781  -1.984  1.00  0.00    -0.238 OA
HETATM   16  C4  UNL     1      -1.100  -1.302   0.648  1.00  0.00     0.325 C 
HETATM   17  N2  UNL     1       0.062  -1.723   1.309  1.00  0.00    -0.351 N 
HETATM   18  O3  UNL     1      -2.138  -1.832   1.120  1.00  0.00    -0.247 OA
HETATM   19  H6  UNL     1       0.700  -1.502   2.124  1.00  0.00     0.160 HD
HETATM   20  H7  UNL     1       0.710  -2.525   1.109  1.00  0.00     0.160 HD
BRANCH  14  21
HETATM   21  O1  UNL     1      -3.553  -0.579  -0.552  1.00  0.00    -0.304 OA
BRANCH  21  22
HETATM   22  C2  UNL     1      -4.810  -0.281  -1.083  1.00  0.00     0.176 C 
HETATM   23  C1  UNL     1      -5.144   1.178  -0.985  1.00  0.00     0.034 C 
ENDBRANCH  21  22
ENDBRANCH  14  21
ENDBRANCH   1  13
TORSDOF 3
