REMARK  8 active torsions:
REMARK  status: ('A' for Active; 'I' for Inactive)
REMARK    1  A    between atoms: O1_2  and  C2_3 
REMARK    2  A    between atoms: C2_3  and  C3_4 
REMARK    3  A    between atoms: C3_4  and  C4_5 
REMARK    4  A    between atoms: C4_5  and  C5_7 
REMARK    5  A    between atoms: C10_12  and  N1_13 
REMARK    6  A    between atoms: C12_16  and  O3_17 
REMARK    7  A    between atoms: O3_17  and  C13_18 
REMARK    8  A    between atoms: C13_18  and  C14_19 
ROOT
HETATM    1  N1  UNL     1      -0.124  -0.274   0.123  1.00  0.00    -0.271 N 
HETATM    2  C11 UNL     1      -0.828   0.862   0.383  1.00  0.00     0.221 A 
HETATM    3  N2  UNL     1      -2.121   0.955   0.050  1.00  0.00    -0.218 NA
HETATM    4  C12 UNL     1      -2.761  -0.064  -0.548  1.00  0.00     0.193 A 
HETATM    5  C19 UNL     1      -2.062  -1.238  -0.826  1.00  0.00     0.155 A 
HETATM    6 CL1  UNL     1      -2.914  -2.560  -1.609  1.00  0.00    -0.074 Cl
HETATM    7  C20 UNL     1      -0.731  -1.312  -0.474  1.00  0.00     0.279 A 
HETATM    8  O4  UNL     1      -0.182  -2.419  -0.767  1.00  0.00    -0.266 OA
ENDROOT
BRANCH   1   9
HETATM    9  C10 UNL     1       1.242  -0.520   0.424  1.00  0.00     0.050 A 
HETATM   10  C8  UNL     1       1.468  -0.522   1.802  1.00  0.00    -0.035 A 
HETATM   11  C7  UNL     1       2.760  -0.753   2.260  1.00  0.00     0.010 A 
HETATM   12  C9  UNL     1       0.417  -0.293   2.834  1.00  0.00     0.050 C 
HETATM   13  C6  UNL     1       3.745  -0.966   1.320  1.00  0.00     0.016 A 
HETATM   14  C5  UNL     1       3.564  -0.972  -0.061  1.00  0.00     0.012 A 
HETATM   15  C21 UNL     1       2.268  -0.740  -0.466  1.00  0.00     0.045 A 
BRANCH  14  16
HETATM   16  C4  UNL     1       4.631  -1.193  -1.016  1.00  0.00     0.161 C 
HETATM   17  O2  UNL     1       4.294  -1.202  -2.252  1.00  0.00    -0.292 OA
BRANCH  16  18
HETATM   18  C3  UNL     1       6.022  -1.400  -0.668  1.00  0.00     0.110 C 
BRANCH  18  19
HETATM   19  C2  UNL     1       6.852  -0.266  -0.225  1.00  0.00     0.174 C 
BRANCH  19  20
HETATM   20  O1  UNL     1       7.079   0.804  -1.001  1.00  0.00    -0.396 OA
HETATM   21  C1  UNL     1       6.034   1.600  -1.383  1.00  0.00     0.201 C 
ENDBRANCH  19  20
ENDBRANCH  18  19
ENDBRANCH  16  18
ENDBRANCH  14  16
ENDBRANCH   1   9
BRANCH   4  22
HETATM   22  O3  UNL     1      -4.096  -0.001  -0.906  1.00  0.00    -0.332 OA
BRANCH  22  23
HETATM   23  C13 UNL     1      -4.917   1.113  -0.686  1.00  0.00     0.193 C 
BRANCH  23  24
HETATM   24  C14 UNL     1      -6.320   0.852  -1.196  1.00  0.00     0.098 A 
HETATM   25  C15 UNL     1      -7.213   2.008  -0.981  1.00  0.00     0.029 A 
HETATM   26  C16 UNL     1      -8.213   1.684  -0.180  1.00  0.00     0.116 A 
HETATM   27  F1  UNL     1      -9.279   2.403   0.305  1.00  0.00    -0.206 F 
HETATM   28  C17 UNL     1      -8.085   0.274   0.218  1.00  0.00     0.080 A 
HETATM   29  C18 UNL     1      -6.998  -0.197  -0.367  1.00  0.00     0.106 A 
HETATM   30  F2  UNL     1      -6.438  -1.447  -0.322  1.00  0.00    -0.210 F 
ENDBRANCH  23  24
ENDBRANCH  22  23
ENDBRANCH   4  22
TORSDOF 8
