REMARK  8 active torsions:
REMARK  status: ('A' for Active; 'I' for Inactive)
REMARK    1  A    between atoms: C4_5  and  O1_6 
REMARK    2  A    between atoms: O1_6  and  C5_7 
REMARK    3  A    between atoms: C5_7  and  C6_8 
REMARK    4  A    between atoms: N2_18  and  C13_19 
REMARK    5  A    between atoms: C15_21  and  C16_22 
REMARK       I    between atoms: C16_22  and  N3_24 
REMARK    6  A    between atoms: N3_24  and  C17_25 
REMARK    7  A    between atoms: C17_25  and  C18_26 
REMARK    8  A    between atoms: C18_26  and  O3_27 
ROOT
HETATM    1  C1  UNL     1      -0.301  -1.193   2.414  1.00  0.00     0.039 C 
HETATM    2  C2  UNL     1      -0.813  -1.517   1.029  1.00  0.00     0.136 A 
HETATM    3  C3  UNL     1      -2.113  -0.840   0.802  1.00  0.00     0.087 A 
HETATM    4 CL1  UNL     1      -3.207  -1.331   2.092  1.00  0.00    -0.082 Cl
HETATM    5  C4  UNL     1      -2.528  -0.005  -0.135  1.00  0.00     0.185 A 
HETATM    6  N1  UNL     1      -1.528   0.290  -1.099  1.00  0.00    -0.218 NA
HETATM    7  C12 UNL     1      -0.342  -0.219  -1.042  1.00  0.00     0.213 A 
HETATM    8  N2  UNL     1       0.090  -1.129  -0.007  1.00  0.00    -0.331 N 
ENDROOT
BRANCH   8   9
HETATM    9  C13 UNL     1       1.442  -1.472  -0.264  1.00  0.00     0.043 A 
HETATM   10  C14 UNL     1       2.385  -0.437  -0.269  1.00  0.00     0.047 A 
HETATM   11  C15 UNL     1       3.719  -0.692  -0.510  1.00  0.00     0.034 A 
HETATM   12  C19 UNL     1       4.138  -1.983  -0.750  1.00  0.00     0.017 A 
HETATM   13  C20 UNL     1       3.241  -3.031  -0.754  1.00  0.00     0.010 A 
HETATM   14  C21 UNL     1       1.915  -2.743  -0.510  1.00  0.00    -0.035 A 
HETATM   15  C22 UNL     1       0.974  -3.865  -0.520  1.00  0.00     0.050 C 
BRANCH  11  16
HETATM   16  C16 UNL     1       4.633   0.444  -0.498  1.00  0.00     0.251 C 
HETATM   17  O2  UNL     1       4.168   1.583  -0.271  1.00  0.00    -0.268 OA
HETATM   18  N3  UNL     1       6.033   0.369  -0.726  1.00  0.00    -0.355 N 
HETATM   19  H12 UNL     1       6.422  -0.600  -0.919  1.00  0.00     0.162 HD
BRANCH  18  20
HETATM   20  C17 UNL     1       6.914   1.514  -0.707  1.00  0.00     0.148 C 
BRANCH  20  21
HETATM   21  C18 UNL     1       6.935   2.240   0.598  1.00  0.00     0.183 C 
BRANCH  21  22
HETATM   22  O3  UNL     1       7.830   3.310   0.446  1.00  0.00    -0.399 OA
HETATM   23  H17 UNL     1       7.476   3.999  -0.171  1.00  0.00     0.209 HD
ENDBRANCH  21  22
ENDBRANCH  20  21
ENDBRANCH  18  20
ENDBRANCH  11  16
ENDBRANCH   8   9
BRANCH   5  24
HETATM   24  O1  UNL     1      -3.812   0.516  -0.153  1.00  0.00    -0.329 OA
BRANCH  24  25
HETATM   25  C5  UNL     1      -4.580   0.651  -1.329  1.00  0.00     0.219 C 
BRANCH  25  26
HETATM   26  C6  UNL     1      -5.881   1.258  -0.943  1.00  0.00     0.005 A 
HETATM   27  C7  UNL     1      -6.076   2.592  -1.230  1.00  0.00     0.015 A 
HETATM   28  C8  UNL     1      -7.258   3.217  -0.901  1.00  0.00     0.043 A 
HETATM   29  C9  UNL     1      -8.260   2.487  -0.273  1.00  0.00     0.119 A 
HETATM   30  F1  UNL     1      -9.420   3.075   0.057  1.00  0.00    -0.206 F 
HETATM   31  C10 UNL     1      -7.996   1.178  -0.022  1.00  0.00     0.085 A 
HETATM   32  C11 UNL     1      -6.834   0.478  -0.321  1.00  0.00     0.127 A 
HETATM   33  F2  UNL     1      -6.662  -0.824  -0.033  1.00  0.00    -0.205 F 
ENDBRANCH  25  26
ENDBRANCH  24  25
ENDBRANCH   5  24
TORSDOF 8
