REMARK  4 active torsions:
REMARK  status: ('A' for Active; 'I' for Inactive)
REMARK    1  A    between atoms: C9_12  and  N2_13 
REMARK    2  A    between atoms: C11_16  and  O3_17 
REMARK    3  A    between atoms: O3_17  and  C12_18 
REMARK    4  A    between atoms: C12_18  and  C13_19 
ROOT
HETATM    1  N2  UNL     1      -0.557   0.396  -0.095  1.00  0.00    -0.278 N 
HETATM    2  C10 UNL     1       0.205  -0.543   0.461  1.00  0.00     0.220 A 
HETATM    3  N3  UNL     1       1.539  -0.575   0.560  1.00  0.00    -0.218 NA
HETATM    4  C11 UNL     1       2.287   0.443   0.052  1.00  0.00     0.193 A 
HETATM    5  C19 UNL     1       1.574   1.456  -0.541  1.00  0.00     0.155 A 
HETATM    6 CL1  UNL     1       2.593   2.732  -1.170  1.00  0.00    -0.074 Cl
HETATM    7  C20 UNL     1       0.195   1.422  -0.608  1.00  0.00     0.279 A 
HETATM    8  O4  UNL     1      -0.191   2.444  -1.194  1.00  0.00    -0.266 OA
ENDROOT
BRANCH   1   9
HETATM    9  C9  UNL     1      -2.000   0.381  -0.282  1.00  0.00     0.009 C 
HETATM   10  C2  UNL     1      -2.383  -1.036  -0.394  1.00  0.00     0.052 C 
HETATM   11  C1  UNL     1      -1.411  -1.845  -1.270  1.00  0.00     0.018 C 
HETATM   12  C3  UNL     1      -3.785  -1.382  -0.809  1.00  0.00     0.177 C 
HETATM   13  O1  UNL     1      -4.708  -0.635  -0.206  1.00  0.00    -0.389 OA
HETATM   14  C4  UNL     1      -6.031  -0.773  -0.415  1.00  0.00     0.187 C 
HETATM   15  C5  UNL     1      -6.760   0.369   0.325  1.00  0.00     0.146 C 
HETATM   16  N1  UNL     1      -6.246   1.596  -0.324  1.00  0.00    -0.390 N 
HETATM   17  C6  UNL     1      -4.934   2.084  -0.431  1.00  0.00     0.028 A 
HETATM   18  H11 UNL     1      -6.243   2.492  -0.846  1.00  0.00     0.159 HD
HETATM   19  O2  UNL     1      -3.967   1.467   0.067  1.00  0.00     0.000 OA
HETATM   20  C7  UNL     1      -3.563   2.637  -0.568  1.00  0.00     0.070 A 
HETATM   21  C8  UNL     1      -2.639   1.526  -0.395  1.00  0.00     0.048 C 
ENDBRANCH   1   9
BRANCH   4  22
HETATM   22  O3  UNL     1       3.663   0.385   0.169  1.00  0.00    -0.328 OA
BRANCH  22  23
HETATM   23  C12 UNL     1       4.277  -0.697   0.794  1.00  0.00     0.219 C 
BRANCH  23  24
HETATM   24  C13 UNL     1       5.738  -0.641   0.860  1.00  0.00     0.005 A 
HETATM   25  C14 UNL     1       6.338  -0.309   2.057  1.00  0.00     0.015 A 
HETATM   26  C15 UNL     1       7.688  -0.219   2.260  1.00  0.00     0.043 A 
HETATM   27  C16 UNL     1       8.556  -0.468   1.223  1.00  0.00     0.119 A 
HETATM   28  F1  UNL     1       9.903  -0.411   1.296  1.00  0.00    -0.206 F 
HETATM   29  C17 UNL     1       7.968  -0.806   0.003  1.00  0.00     0.085 A 
HETATM   30  C18 UNL     1       6.605  -0.892  -0.183  1.00  0.00     0.127 A 
HETATM   31  F2  UNL     1       6.061  -1.221  -1.381  1.00  0.00    -0.205 F 
ENDBRANCH  23  24
ENDBRANCH  22  23
ENDBRANCH   4  22
TORSDOF 4
