REMARK  4 active torsions:
REMARK  status: ('A' for Active; 'I' for Inactive)
REMARK    1  A    between atoms: N1_3  and  C3_4 
REMARK    2  A    between atoms: C3_4  and  O1_5 
REMARK    3  A    between atoms: O1_5  and  C4_6 
REMARK    4  A    between atoms: C20_24  and  C21_25 
ROOT
HETATM    1  C21 UNL     1      -6.049   0.415   0.201  1.00  0.00     0.041 C 
HETATM    2  C22 UNL     1      -6.822  -0.451   1.078  1.00  0.00     0.097 C 
HETATM    3  N3  UNL     1      -7.443  -1.141   1.803  1.00  0.00    -0.192 NA
HETATM    4  C23 UNL     1      -6.367   1.694   0.307  1.00  0.00    -0.011 C 
HETATM    5  C24 UNL     1      -7.396   2.283   1.199  1.00  0.00     0.037 C 
ENDROOT
BRANCH   1   6
HETATM    6  C20 UNL     1      -5.057  -0.312  -0.635  1.00  0.00     0.129 A 
HETATM    7  N2  UNL     1      -4.047  -0.810   0.277  1.00  0.00    -0.382 N 
HETATM    8  C19 UNL     1      -2.725  -0.312   0.116  1.00  0.00     0.028 A 
HETATM    9  H24 UNL     1      -4.329  -1.518   1.020  1.00  0.00     0.160 HD
HETATM   10  C12 UNL     1      -1.460  -0.525   0.852  1.00  0.00     0.020 C 
HETATM   11  C18 UNL     1      -2.919   0.478  -0.975  1.00  0.00     0.018 A 
HETATM   12  C11 UNL     1      -0.579  -1.601   0.334  1.00  0.00    -0.014 C 
HETATM   13  C13 UNL     1      -1.764  -0.782   2.291  1.00  0.00     0.027 C 
HETATM   14  C14 UNL     1      -0.659   0.819   0.810  1.00  0.00     0.062 C 
HETATM   15  C10 UNL     1       0.750  -1.594  -0.020  1.00  0.00    -0.010 C 
HETATM   16  C9  UNL     1       1.534  -0.595  -0.830  1.00  0.00     0.037 C 
HETATM   17  C2  UNL     1       2.720  -0.068  -0.200  1.00  0.00     0.015 C 
HETATM   18  C8  UNL     1       1.958  -1.374  -2.082  1.00  0.00     0.026 C 
HETATM   19  C16 UNL     1       0.631   0.484  -1.392  1.00  0.00     0.004 C 
HETATM   20  C1  UNL     1       2.918   1.076   0.409  1.00  0.00     0.039 C 
HETATM   21  N1  UNL     1       3.842  -0.977  -0.288  1.00  0.00    -0.362 N 
HETATM   22  C6  UNL     1       3.750  -2.349  -0.731  1.00  0.00     0.125 C 
HETATM   23  C7  UNL     1       2.692  -2.622  -1.737  1.00  0.00     0.022 C 
HETATM   24  C15 UNL     1      -0.487   0.813  -0.715  1.00  0.00    -0.008 C 
HETATM   25  C17 UNL     1      -1.701   1.154  -1.517  1.00  0.00     0.186 C 
HETATM   26  O2  UNL     1      -1.431   1.920  -2.461  1.00  0.00    -0.287 OA
HETATM   27  C25 UNL     1      -4.270   0.618  -1.541  1.00  0.00     0.075 A 
BRANCH  21  28
HETATM   28  C3  UNL     1       5.164  -0.464   0.101  1.00  0.00     0.292 C 
BRANCH  28  29
HETATM   29  O1  UNL     1       5.464   0.605  -0.708  1.00  0.00    -0.372 OA
BRANCH  29  30
HETATM   30  C4  UNL     1       6.680   1.204  -0.486  1.00  0.00     0.165 C 
HETATM   31  C5  UNL     1       6.874   1.762   0.887  1.00  0.00     0.033 C 
ENDBRANCH  29  30
ENDBRANCH  28  29
ENDBRANCH  21  28
ENDBRANCH   1   6
TORSDOF 4
