REMARK  3 active torsions:
REMARK  status: ('A' for Active; 'I' for Inactive)
REMARK    1  A    between atoms: C3_4  and  C4_5 
REMARK    2  A    between atoms: C13_16  and  C14_17 
REMARK    3  A    between atoms: N3_20  and  C17_21 
ROOT
HETATM    1  C1  UNL     1       9.247   1.135  -0.010  1.00  0.00     0.039 C 
HETATM    2  C2  UNL     1       8.928  -0.003  -0.216  1.00  0.00     0.023 C 
HETATM    3  N1  UNL     1       8.580  -1.325  -0.458  1.00  0.00    -0.211 NA
HETATM    4  C3  UNL     1       7.392  -1.783  -0.524  1.00  0.00     0.128 C 
ENDROOT
BRANCH   4   5
HETATM    5  C4  UNL     1       5.950  -1.789  -0.501  1.00  0.00     0.030 C 
HETATM    6  C5  UNL     1       5.269  -0.683  -0.280  1.00  0.00    -0.023 A 
HETATM    7  C6  UNL     1       5.787   0.681  -0.031  1.00  0.00     0.159 A 
HETATM    8  C8  UNL     1       3.818  -0.626  -0.244  1.00  0.00     0.046 A 
HETATM    9  N2  UNL     1       4.545   1.444   0.107  1.00  0.00    -0.387 N 
HETATM   10  C7  UNL     1       3.421   0.612  -0.019  1.00  0.00     0.033 A 
HETATM   11  H6  UNL     1       4.683   2.473   0.276  1.00  0.00     0.159 HD
HETATM   12  C24 UNL     1       2.020   1.074   0.088  1.00  0.00     0.024 A 
HETATM   13  C23 UNL     1       1.116  -0.071  -0.097  1.00  0.00    -0.029 A 
HETATM   14  C25 UNL     1       1.762   2.175  -0.913  1.00  0.00     0.027 C 
HETATM   15  C26 UNL     1       1.771   1.655   1.477  1.00  0.00     0.027 C 
HETATM   16  C10 UNL     1       1.423  -1.391  -0.335  1.00  0.00     0.022 A 
HETATM   17  C22 UNL     1      -0.217   0.283  -0.011  1.00  0.00     0.016 A 
HETATM   18  C9  UNL     1       2.842  -1.688  -0.413  1.00  0.00     0.195 A 
HETATM   19  C11 UNL     1       0.452  -2.356  -0.488  1.00  0.00     0.016 A 
HETATM   20  O1  UNL     1       3.198  -2.875  -0.629  1.00  0.00    -0.287 OA
HETATM   21  C12 UNL     1      -0.872  -1.979  -0.397  1.00  0.00     0.008 A 
HETATM   22  C13 UNL     1      -1.221  -0.680  -0.162  1.00  0.00    -0.053 A 
BRANCH  22  23
HETATM   23  C14 UNL     1      -2.658  -0.391  -0.086  1.00  0.00     0.021 C 
HETATM   24  C15 UNL     1      -3.389  -0.654  -1.378  1.00  0.00     0.029 C 
HETATM   25  C16 UNL     1      -4.679   0.161  -1.333  1.00  0.00     0.118 C 
HETATM   26  N3  UNL     1      -5.094   0.270   0.023  1.00  0.00    -0.404 N 
HETATM   27  C20 UNL     1      -4.889  -0.939   0.722  1.00  0.00     0.118 C 
HETATM   28  C21 UNL     1      -3.394  -1.117   1.012  1.00  0.00     0.029 C 
BRANCH  26  29
HETATM   29  C17 UNL     1      -6.229   1.049   0.287  1.00  0.00     0.126 C 
HETATM   30  C18 UNL     1      -7.536   0.654  -0.351  1.00  0.00     0.194 C 
HETATM   31  O2  UNL     1      -7.827  -0.106   0.804  1.00  0.00    -0.387 OA
HETATM   32  C19 UNL     1      -7.023   0.785   1.508  1.00  0.00     0.194 C 
ENDBRANCH  26  29
ENDBRANCH  22  23
ENDBRANCH   4   5
TORSDOF 3
