REMARK  4 active torsions:
REMARK  status: ('A' for Active; 'I' for Inactive)
REMARK    1  A    between atoms: O1_2  and  C2_3 
REMARK    2  A    between atoms: C7_8  and  O2_9 
REMARK    3  A    between atoms: C13_18  and  N4_19 
REMARK    4  A    between atoms: N4_19  and  C14_20 
ROOT
HETATM    1  C2  UNL     1       4.333   0.533   0.745  1.00  0.00     0.101 A 
HETATM    2  C3  UNL     1       3.249   1.391   0.748  1.00  0.00     0.035 A 
HETATM    3  C4  UNL     1       2.032   1.005   0.242  1.00  0.00    -0.084 A 
HETATM    4  C5  UNL     1       1.803  -0.266  -0.305  1.00  0.00    -0.042 A 
HETATM    5  C6  UNL     1       2.902  -1.136  -0.308  1.00  0.00     0.048 A 
HETATM    6  C7  UNL     1       4.141  -0.740   0.208  1.00  0.00     0.102 A 
HETATM    7  C9  UNL     1       0.654  -0.930  -0.907  1.00  0.00     0.158 C 
HETATM    8  N1  UNL     1      -0.639  -0.407  -0.672  1.00  0.00    -0.382 N 
HETATM    9  C10 UNL     1      -1.166   0.914  -0.562  1.00  0.00     0.088 A 
HETATM   10  C11 UNL     1      -0.513   2.053  -0.119  1.00  0.00     0.022 A 
HETATM   11  N2  UNL     1      -1.130   3.237  -0.069  1.00  0.00    -0.256 NA
HETATM   12  C12 UNL     1      -2.420   3.306  -0.463  1.00  0.00     0.234 A 
HETATM   13  N3  UNL     1      -3.069   2.189  -0.901  1.00  0.00    -0.222 NA
HETATM   14  C13 UNL     1      -2.479   0.982  -0.965  1.00  0.00     0.157 A 
HETATM   15  B1  UNL     1       0.988   2.160   0.373  1.00  0.00     0.258 B 
HETATM   16  H11 UNL     1      -1.436  -1.106  -0.545  1.00  0.00     0.160 HD
HETATM   17  H17 UNL     1       1.210   3.033   1.119  1.00  0.00    -0.014 HD
ENDROOT
BRANCH  14  18
HETATM   18  N4  UNL     1      -3.199  -0.156  -1.422  1.00  0.00    -0.339 N 
HETATM   19  H13 UNL     1      -2.949  -0.665  -2.274  1.00  0.00     0.167 HD
BRANCH  18  20
HETATM   20  C14 UNL     1      -4.319  -0.629  -0.679  1.00  0.00     0.035 A 
HETATM   21  C15 UNL     1      -5.086  -1.724  -1.096  1.00  0.00     0.032 A 
HETATM   22  C16 UNL     1      -6.181  -2.201  -0.409  1.00  0.00     0.046 A 
HETATM   23  C17 UNL     1      -6.567  -1.567   0.780  1.00  0.00     0.138 A 
HETATM   24  F1  UNL     1      -7.641  -2.046   1.438  1.00  0.00    -0.204 F 
HETATM   25  C18 UNL     1      -5.805  -0.495   1.177  1.00  0.00     0.074 A 
HETATM   26 CL1  UNL     1      -6.343   0.248   2.668  1.00  0.00    -0.081 Cl
HETATM   27  C19 UNL     1      -4.709  -0.012   0.497  1.00  0.00     0.056 A 
ENDBRANCH  18  20
ENDBRANCH  14  18
BRANCH   6  28
HETATM   28  O2  UNL     1       5.245  -1.581   0.218  1.00  0.00    -0.353 OA
HETATM   29  C8  UNL     1       5.100  -2.878  -0.310  1.00  0.00     0.210 C 
ENDBRANCH   6  28
BRANCH   1  30
HETATM   30  O1  UNL     1       5.573   0.871   1.238  1.00  0.00    -0.353 OA
HETATM   31  C1  UNL     1       5.921   2.101   1.804  1.00  0.00     0.210 C 
ENDBRANCH   1  30
TORSDOF 4
