REMARK  3 active torsions:
REMARK  status: ('A' for Active; 'I' for Inactive)
REMARK    1  A    between atoms: C5_5  and  C6_6 
REMARK    2  A    between atoms: N1_7  and  N2_8 
REMARK    3  A    between atoms: C7_10  and  C8_11 
ROOT
HETATM    1  N2  UNL     1      -0.971  -1.042  -0.123  1.00  0.00    -0.193 N 
HETATM    2  N3  UNL     1      -1.893  -0.035   0.169  1.00  0.00    -0.284 N 
HETATM    3  C7  UNL     1      -3.303  -0.099   0.362  1.00  0.00     0.041 C 
HETATM    4  C14 UNL     1      -4.087  -1.162   0.496  1.00  0.00     0.072 C 
HETATM    5  S1  UNL     1      -3.647  -2.900   0.482  1.00  0.00    -0.136 SA
HETATM    6  C15 UNL     1      -1.863  -3.111   0.664  1.00  0.00     0.122 C 
HETATM    7  C16 UNL     1      -1.210  -2.425  -0.506  1.00  0.00     0.117 A 
HETATM    8  C17 UNL     1       0.117  -3.019  -0.836  1.00  0.00     0.012 A 
HETATM    9  C18 UNL     1       0.491  -3.586  -1.976  1.00  0.00     0.013 A 
HETATM   10  C19 UNL     1      -0.418  -3.721  -3.168  1.00  0.00     0.215 A 
HETATM   11  F1  UNL     1       0.229  -3.131  -4.231  1.00  0.00    -0.241 F 
HETATM   12  C20 UNL     1      -1.731  -3.051  -2.885  1.00  0.00     0.013 A 
HETATM   13  C21 UNL     1      -2.072  -2.490  -1.731  1.00  0.00     0.012 A 
HETATM   14  H7  UNL     1      -1.477   0.937   0.264  1.00  0.00     0.188 HD
ENDROOT
BRANCH   1  15
HETATM   15  N1  UNL     1       0.370  -0.602  -0.018  1.00  0.00    -0.167 NA
HETATM   16  C6  UNL     1       0.740   0.203   0.920  1.00  0.00     0.151 C 
BRANCH  16  17
HETATM   17  C5  UNL     1       2.111   0.678   1.062  1.00  0.00    -0.017 A 
HETATM   18  C4  UNL     1       2.508   1.544   2.071  1.00  0.00     0.013 A 
HETATM   19  C3  UNL     1       3.840   1.927   2.105  1.00  0.00     0.008 A 
HETATM   20  C2  UNL     1       4.773   1.484   1.183  1.00  0.00    -0.056 A 
HETATM   21  C1  UNL     1       6.182   1.981   1.341  1.00  0.00     0.049 C 
HETATM   22  C23 UNL     1       4.394   0.624   0.174  1.00  0.00    -0.055 A 
HETATM   23  C22 UNL     1       3.066   0.256   0.160  1.00  0.00     0.020 A 
HETATM   24  C24 UNL     1       5.392   0.156  -0.805  1.00  0.00     0.049 C 
ENDBRANCH  16  17
ENDBRANCH   1  15
BRANCH   3  25
HETATM   25  C8  UNL     1      -3.942   1.267   0.412  1.00  0.00     0.063 A 
HETATM   26  C9  UNL     1      -3.552   1.975   1.642  1.00  0.00    -0.016 A 
HETATM   27  C10 UNL     1      -3.036   3.169   1.830  1.00  0.00    -0.004 A 
HETATM   28  C11 UNL     1      -2.802   3.940   0.620  1.00  0.00    -0.004 A 
HETATM   29  C12 UNL     1      -3.135   3.347  -0.512  1.00  0.00    -0.026 A 
HETATM   30  C13 UNL     1      -3.715   2.027  -0.849  1.00  0.00     0.041 A 
ENDBRANCH   3  25
TORSDOF 3
