REMARK  7 active torsions:
REMARK  status: ('A' for Active; 'I' for Inactive)
REMARK    1  A    between atoms: C6_6  and  N1_7 
REMARK    2  A    between atoms: N1_7  and  C8_9 
REMARK    3  A    between atoms: C9_11  and  C10_12 
REMARK    4  A    between atoms: C11_13  and  C12_14 
REMARK    5  A    between atoms: C13_15  and  C14_16 
REMARK    6  A    between atoms: C14_16  and  N3_17 
REMARK    7  A    between atoms: C17_21  and  C18_22 
ROOT
HETATM    1  C1  UNL     1      -4.801   1.118  -2.205  1.00  0.00     0.049 C 
HETATM    2  C2  UNL     1      -3.945   0.099  -1.559  1.00  0.00    -0.055 C 
HETATM    3  C3  UNL     1      -3.740  -0.840  -2.508  1.00  0.00     0.007 C 
HETATM    4  C4  UNL     1      -2.939  -2.077  -2.367  1.00  0.00    -0.001 C 
HETATM    5  C5  UNL     1      -1.878  -2.184  -1.536  1.00  0.00     0.002 C 
HETATM    6  C6  UNL     1      -1.249  -1.191  -0.597  1.00  0.00     0.132 C 
HETATM    7  C16 UNL     1      -2.283  -0.426   0.129  1.00  0.00     0.010 C 
HETATM    8  C17 UNL     1      -3.441   0.157  -0.165  1.00  0.00    -0.046 C 
ENDROOT
BRANCH   6   9
HETATM    9  N1  UNL     1      -0.281  -0.384  -1.275  1.00  0.00    -0.353 N 
HETATM   10  C7  UNL     1      -0.691   0.517  -2.352  1.00  0.00     0.152 C 
BRANCH   9  11
HETATM   11  C8  UNL     1       1.158  -0.378  -0.999  1.00  0.00     0.169 A 
HETATM   12  N2  UNL     1       1.990   0.042  -0.212  1.00  0.00    -0.224 NA
HETATM   13  C9  UNL     1       3.276  -0.151  -0.325  1.00  0.00     0.066 A 
HETATM   14  C15 UNL     1       3.709  -0.861  -1.382  1.00  0.00     0.085 A 
HETATM   15  S1  UNL     1       2.193  -1.315  -2.321  1.00  0.00    -0.062 SA
BRANCH  13  16
HETATM   16  C10 UNL     1       4.185   0.380   0.682  1.00  0.00     0.032 C 
HETATM   17  C11 UNL     1       5.502   0.308   0.692  1.00  0.00     0.002 C 
BRANCH  17  18
HETATM   18  C12 UNL     1       6.828  -0.037   0.232  1.00  0.00    -0.002 C 
HETATM   19  C13 UNL     1       8.125  -0.057   0.339  1.00  0.00     0.003 C 
BRANCH  19  20
HETATM   20  C14 UNL     1       9.081   0.458   1.345  1.00  0.00     0.294 C 
BRANCH  20  21
HETATM   21  N3  UNL     1       9.867  -0.632   1.911  1.00  0.00     0.081 N 
HETATM   22  H17 UNL     1       9.227  -1.297   2.378  1.00  0.00     0.313 HD
HETATM   23  H18 UNL     1      10.614  -0.298   2.536  1.00  0.00     0.313 HD
ENDBRANCH  20  21
ENDBRANCH  19  20
ENDBRANCH  17  18
ENDBRANCH  13  16
ENDBRANCH   9  11
ENDBRANCH   6   9
BRANCH   8  24
HETATM   24  C18 UNL     1      -4.341   0.906   0.700  1.00  0.00     0.045 A 
HETATM   25  C19 UNL     1      -5.769   0.451   0.541  1.00  0.00    -0.014 A 
HETATM   26  C20 UNL     1      -6.740   0.229   1.438  1.00  0.00     0.038 A 
HETATM   27  C21 UNL     1      -6.389   0.454   2.851  1.00  0.00     0.112 A 
HETATM   28  F1  UNL     1      -7.231   0.293   3.878  1.00  0.00    -0.206 F 
HETATM   29  C22 UNL     1      -5.140   0.836   2.985  1.00  0.00     0.016 A 
HETATM   30  C23 UNL     1      -3.967   1.105   2.113  1.00  0.00     0.043 A 
ENDBRANCH   8  24
TORSDOF 7
