REMARK  6 active torsions:
REMARK  status: ('A' for Active; 'I' for Inactive)
REMARK    1  A    between atoms: C2_2  and  C3_3 
REMARK    2  A    between atoms: C4_4  and  B1_5 
REMARK    3  A    between atoms: B1_5  and  C5_6 
REMARK    4  A    between atoms: C5_6  and  C6_7 
REMARK    5  A    between atoms: C6_7  and  C7_8 
REMARK    6  A    between atoms: C9_11  and  N1_12 
ROOT
HETATM    1  N1  UNL     1      -0.680  -1.620  -0.476  1.00  0.00    -0.236 N 
HETATM    2  N2  UNL     1      -1.399  -2.003   0.652  1.00  0.00    -0.174 NA
HETATM    3  C10 UNL     1      -2.478  -2.654   0.380  1.00  0.00     0.057 C 
HETATM    4  C11 UNL     1      -3.475  -2.486   1.456  1.00  0.00     0.029 C 
HETATM    5  C12 UNL     1      -4.339  -1.527   1.664  1.00  0.00     0.002 C 
HETATM    6  C13 UNL     1      -5.134  -0.329   1.574  1.00  0.00     0.001 C 
HETATM    7  C14 UNL     1      -5.103   0.629   0.632  1.00  0.00     0.008 C 
HETATM    8  C15 UNL     1      -4.131   0.390  -0.423  1.00  0.00    -0.050 C 
HETATM    9  C16 UNL     1      -2.964  -0.168  -0.164  1.00  0.00     0.017 C 
HETATM   10  C17 UNL     1      -2.780  -0.953  -1.398  1.00  0.00    -0.035 C 
HETATM   11  C18 UNL     1      -3.778  -0.816  -2.285  1.00  0.00    -0.009 C 
HETATM   12  C19 UNL     1      -4.187   0.612  -1.908  1.00  0.00     0.037 C 
HETATM   13  C20 UNL     1      -3.205   1.619  -2.384  1.00  0.00     0.019 C 
HETATM   14  C21 UNL     1      -1.622  -1.882  -1.546  1.00  0.00     0.151 C 
HETATM   15  C22 UNL     1      -2.098  -3.260  -0.951  1.00  0.00     0.093 C 
ENDROOT
BRANCH   1  16
HETATM   16  C9  UNL     1       0.655  -1.137  -0.760  1.00  0.00     0.190 A 
HETATM   17  S1  UNL     1       1.227  -0.468  -2.433  1.00  0.00    -0.060 SA
HETATM   18  C8  UNL     1       2.948  -0.210  -1.831  1.00  0.00     0.085 A 
HETATM   19  C7  UNL     1       2.796  -0.644  -0.557  1.00  0.00     0.072 A 
HETATM   20  N3  UNL     1       1.627  -1.067  -0.171  1.00  0.00    -0.222 NA
BRANCH  19  21
HETATM   21  C6  UNL     1       4.179  -0.441  -0.062  1.00  0.00     0.067 C 
BRANCH  21  22
HETATM   22  C5  UNL     1       4.568   0.707   0.443  1.00  0.00    -0.215 C 
BRANCH  22  23
HETATM   23  B1  UNL     1       5.018   2.044   1.496  1.00  0.00     0.263 B 
BRANCH  23  24
HETATM   24  C4  UNL     1       5.162   3.144   2.876  1.00  0.00    -0.075 C 
HETATM   25  C3  UNL     1       6.400   3.427   3.296  1.00  0.00    -0.036 C 
BRANCH  25  26
HETATM   26  C2  UNL     1       7.298   2.695   2.433  1.00  0.00     0.014 C 
HETATM   27  C1  UNL     1       8.305   2.135   1.790  1.00  0.00     0.010 C 
ENDBRANCH  25  26
ENDBRANCH  23  24
ENDBRANCH  22  23
ENDBRANCH  21  22
ENDBRANCH  19  21
ENDBRANCH   1  16
TORSDOF 6
