REMARK  3 active torsions:
REMARK  status: ('A' for Active; 'I' for Inactive)
REMARK    1  A    between atoms: B1_2  and  B2_3 
REMARK    2  A    between atoms: C7_10  and  C8_11 
REMARK    3  A    between atoms: C12_15  and  N2_16 
ROOT
HETATM    1  B2  UNL     1       3.772  -0.133  -0.758  1.00  0.00     0.269 B 
HETATM    2  C2  UNL     1       4.639  -1.458  -0.735  1.00  0.00    -0.026 C 
HETATM    3  C3  UNL     1       3.901  -2.638  -0.212  1.00  0.00    -0.010 C 
HETATM    4  C4  UNL     1       2.636  -2.319   0.161  1.00  0.00     0.021 C 
HETATM    5  C5  UNL     1       1.426  -2.964   0.728  1.00  0.00    -0.004 C 
HETATM    6  C6  UNL     1       0.456  -2.048   0.889  1.00  0.00     0.086 C 
HETATM    7  N1  UNL     1       0.038  -0.698   0.766  1.00  0.00    -0.352 N 
HETATM    8  C7  UNL     1      -0.542   0.161  -0.196  1.00  0.00     0.132 C 
HETATM    9  N5  UNL     1       0.094   0.894  -1.082  1.00  0.00    -0.228 NA
HETATM   10  C15 UNL     1       1.524   0.810  -1.067  1.00  0.00     0.209 C 
HETATM   11  N6  UNL     1       2.251  -0.235  -0.694  1.00  0.00    -0.361 NA
HETATM   12  H11 UNL     1       0.134  -0.001   1.565  1.00  0.00     0.166 HD
ENDROOT
BRANCH   8  13
HETATM   13  C8  UNL     1      -2.057   0.190  -0.145  1.00  0.00     0.187 C 
HETATM   14  C9  UNL     1      -2.646  -1.138  -0.315  1.00  0.00     0.007 C 
HETATM   15  C10 UNL     1      -3.848  -1.302   0.167  1.00  0.00     0.000 C 
HETATM   16  C11 UNL     1      -4.744  -0.381   0.831  1.00  0.00     0.022 C 
HETATM   17  C12 UNL     1      -4.811   0.892   1.149  1.00  0.00     0.004 C 
HETATM   18  C13 UNL     1      -4.598   1.767   0.042  1.00  0.00     0.082 C 
HETATM   19  C14 UNL     1      -4.493   2.569  -1.030  1.00  0.00     0.061 C 
HETATM   20  N3  UNL     1      -3.253   2.371  -1.440  1.00  0.00    -0.215 NA
HETATM   21  N4  UNL     1      -2.642   1.260  -0.780  1.00  0.00    -0.326 N 
HETATM   22  H19 UNL     1      -2.169   2.117  -1.075  1.00  0.00     0.287 HD
BRANCH  17  23
HETATM   23  N2  UNL     1      -5.061   2.266   1.596  1.00  0.00    -0.303 NA
HETATM   24  H16 UNL     1      -6.016   2.434   1.939  1.00  0.00     0.124 HD
HETATM   25  H17 UNL     1      -6.026   2.570   1.985  1.00  0.00     0.124 HD
ENDBRANCH  17  23
ENDBRANCH   8  13
BRANCH   1  26
HETATM   26  B1  UNL     1       4.461   1.334  -1.076  1.00  0.00     0.145 B 
HETATM   27  C1  UNL     1       5.606   1.871  -0.100  1.00  0.00    -0.067 C 
HETATM   28  H4  UNL     1       3.891   2.169  -1.674  1.00  0.00    -0.034 HD
ENDBRANCH   1  26
TORSDOF 3
