REMARK  1 active torsions:
REMARK  status: ('A' for Active; 'I' for Inactive)
REMARK    1  A    between atoms: C5_5  and  C6_6 
ROOT
HETATM    1  C6  UNL     1      -0.358  -0.534  -0.399  1.00  0.00     0.072 A 
HETATM    2  N1  UNL     1       0.113  -1.293  -1.316  1.00  0.00    -0.267 NA
HETATM    3  C7  UNL     1       1.508  -1.098  -1.069  1.00  0.00     0.119 A 
HETATM    4  C8  UNL     1       2.141  -0.169  -2.105  1.00  0.00     0.110 C 
HETATM    5  N2  UNL     1       3.001   0.843  -1.915  1.00  0.00    -0.323 N 
HETATM    6  C9  UNL     1       3.674   1.186  -0.638  1.00  0.00     0.138 A 
HETATM    7  C10 UNL     1       4.704   1.932  -0.560  1.00  0.00     0.158 A 
HETATM    8  S1  UNL     1       4.536   2.024  -2.368  1.00  0.00    -0.133 SA
HETATM    9  C11 UNL     1       3.035   0.573   0.526  1.00  0.00     0.000 C 
HETATM   10  C12 UNL     1       4.165  -0.067   0.813  1.00  0.00     0.011 C 
HETATM   11 BR1  UNL     1       5.796   0.628   0.894  1.00  0.00    -0.109 Br
HETATM   12  C13 UNL     1       4.037  -1.552   1.039  1.00  0.00     0.015 C 
HETATM   13  C14 UNL     1       3.086  -2.388   0.504  1.00  0.00    -0.022 C 
HETATM   14  C15 UNL     1       2.214  -2.290  -0.678  1.00  0.00     0.071 C 
HETATM   15  C16 UNL     1       1.599   0.668   0.972  1.00  0.00     0.024 C 
HETATM   16  C17 UNL     1       1.026  -0.167   0.023  1.00  0.00     0.007 A 
HETATM   17  H8  UNL     1       3.721   3.098  -2.767  1.00  0.00     0.106 HD
ENDROOT
BRANCH   1  18
HETATM   18  C5  UNL     1      -1.744  -0.247  -0.058  1.00  0.00    -0.007 A 
HETATM   19  C4  UNL     1      -2.647  -0.904  -0.858  1.00  0.00     0.014 A 
HETATM   20  C3  UNL     1      -4.004  -0.748  -0.677  1.00  0.00     0.008 A 
HETATM   21  C2  UNL     1      -4.489   0.077   0.320  1.00  0.00    -0.056 A 
HETATM   22  C1  UNL     1      -5.955   0.233   0.502  1.00  0.00     0.049 C 
HETATM   23  C19 UNL     1      -3.559   0.733   1.120  1.00  0.00    -0.055 A 
HETATM   24  C18 UNL     1      -2.196   0.582   0.943  1.00  0.00     0.021 A 
HETATM   25  C20 UNL     1      -4.054   1.619   2.191  1.00  0.00     0.049 C 
ENDBRANCH   1  18
TORSDOF 1
