REMARK  4 active torsions:
REMARK  status: ('A' for Active; 'I' for Inactive)
REMARK    1  A    between atoms: O1_2  and  C2_3 
REMARK    2  A    between atoms: C5_6  and  C6_7 
REMARK    3  A    between atoms: C8_9  and  C9_10 
REMARK    4  A    between atoms: N2_19  and  C17_20 
ROOT
HETATM    1  C6  UNL     1       1.072  -0.783   0.485  1.00  0.00     0.145 C 
HETATM    2  C7  UNL     1      -0.211  -1.415  -0.004  1.00  0.00     0.093 C 
HETATM    3  C8  UNL     1      -1.182  -0.311   0.188  1.00  0.00     0.067 C 
HETATM    4  N1  UNL     1      -0.579   0.806   0.325  1.00  0.00    -0.178 NA
HETATM    5  N2  UNL     1       0.823   0.607   0.248  1.00  0.00    -0.268 N 
ENDROOT
BRANCH   1   6
HETATM    6  C5  UNL     1       2.255  -1.330  -0.221  1.00  0.00    -0.033 A 
HETATM    7  C4  UNL     1       3.163  -2.103   0.471  1.00  0.00     0.012 A 
HETATM    8  C3  UNL     1       4.275  -2.638  -0.138  1.00  0.00     0.037 A 
HETATM    9  C2  UNL     1       4.442  -2.365  -1.479  1.00  0.00     0.068 A 
HETATM   10  C25 UNL     1       3.534  -1.590  -2.177  1.00  0.00     0.037 A 
HETATM   11  C24 UNL     1       2.409  -1.049  -1.560  1.00  0.00     0.012 A 
BRANCH   9  12
HETATM   12  O1  UNL     1       5.563  -2.898  -2.120  1.00  0.00    -0.356 OA
HETATM   13  C1  UNL     1       6.458  -3.682  -1.358  1.00  0.00     0.210 C 
ENDBRANCH   9  12
ENDBRANCH   1   6
BRANCH   5  14
HETATM   14  C17 UNL     1       1.828   1.586  -0.010  1.00  0.00     0.233 A 
HETATM   15  C18 UNL     1       2.804   1.707   1.103  1.00  0.00     0.024 A 
HETATM   16  C19 UNL     1       2.737   2.897   1.685  1.00  0.00     0.029 A 
HETATM   17  C20 UNL     1       1.700   3.661   0.993  1.00  0.00     0.036 A 
HETATM   18  C21 UNL     1       1.087   4.888   1.010  1.00  0.00     0.031 A 
HETATM   19  N3  UNL     1       1.178   2.903   0.016  1.00  0.00    -0.330 N 
HETATM   20  C22 UNL     1       0.143   4.872  -0.012  1.00  0.00     0.020 A 
HETATM   21  C23 UNL     1       0.226   3.640  -0.601  1.00  0.00     0.094 A 
ENDBRANCH   5  14
BRANCH   3  22
HETATM   22  C9  UNL     1      -2.634  -0.477   0.216  1.00  0.00    -0.009 A 
HETATM   23  C10 UNL     1      -3.243  -1.707   0.062  1.00  0.00     0.014 A 
HETATM   24  C11 UNL     1      -4.626  -1.871   0.088  1.00  0.00     0.008 A 
HETATM   25  C12 UNL     1      -5.441  -0.758   0.275  1.00  0.00    -0.056 A 
HETATM   26  C13 UNL     1      -6.926  -0.839   0.317  1.00  0.00     0.049 C 
HETATM   27  C14 UNL     1      -4.848   0.465   0.428  1.00  0.00    -0.055 A 
HETATM   28  C15 UNL     1      -5.691   1.661   0.629  1.00  0.00     0.049 C 
HETATM   29  C16 UNL     1      -3.484   0.578   0.396  1.00  0.00     0.020 A 
ENDBRANCH   3  22
TORSDOF 4
