REMARK  5 active torsions:
REMARK  status: ('A' for Active; 'I' for Inactive)
REMARK    1  A    between atoms: C2_2  and  C3_3 
REMARK    2  A    between atoms: C6_7  and  N1_8 
REMARK    3  A    between atoms: N1_8  and  N2_9 
REMARK    4  A    between atoms: C7_10  and  C8_11 
REMARK    5  A    between atoms: C9_12  and  C10_13 
ROOT
HETATM    1  N2  UNL     1       1.101  -2.783   1.302  1.00  0.00    -0.185 NA
HETATM    2  C7  UNL     1       0.408  -1.715   1.273  1.00  0.00     0.139 C 
ENDROOT
BRANCH   1   3
HETATM    3  N1  UNL     1       2.361  -2.876   1.896  1.00  0.00    -0.256 N 
HETATM    4  H7  UNL     1       2.485  -3.466   2.752  1.00  0.00     0.191 HD
BRANCH   3   5
HETATM    5  C6  UNL     1       3.489  -2.189   1.372  1.00  0.00     0.183 A 
HETATM    6  S1  UNL     1       5.204  -2.421   1.907  1.00  0.00    -0.085 SA
HETATM    7  C5  UNL     1       5.916  -1.195   0.763  1.00  0.00     0.142 A 
HETATM    8  C4  UNL     1       4.643  -0.769   0.086  1.00  0.00     0.047 A 
HETATM    9  C3  UNL     1       4.748   0.147  -0.865  1.00  0.00     0.027 C 
HETATM   10  N3  UNL     1       3.399  -1.306   0.434  1.00  0.00    -0.227 NA
BRANCH   9  11
HETATM   11  C2  UNL     1       6.107   0.626  -1.131  1.00  0.00    -0.008 C 
HETATM   12  C1  UNL     1       6.409   1.535  -2.040  1.00  0.00     0.011 C 
ENDBRANCH   9  11
ENDBRANCH   3   5
ENDBRANCH   1   3
BRANCH   2  13
HETATM   13  C8  UNL     1      -0.928  -1.551   0.661  1.00  0.00     0.022 C 
HETATM   14  C9  UNL     1      -1.540  -0.397   0.697  1.00  0.00     0.015 C 
BRANCH  14  15
HETATM   15  C10 UNL     1      -2.850  -0.126   0.130  1.00  0.00    -0.014 C 
HETATM   16  C11 UNL     1      -3.543  -1.068  -0.488  1.00  0.00     0.145 C 
HETATM   17  O1  UNL     1      -4.809  -0.998  -1.092  1.00  0.00    -0.362 OA
HETATM   18  C12 UNL     1      -5.706   0.065  -1.239  1.00  0.00     0.178 C 
HETATM   19  C13 UNL     1      -5.792   1.002  -0.087  1.00  0.00     0.060 C 
HETATM   20  C14 UNL     1      -4.586   1.766   0.207  1.00  0.00    -0.081 C 
HETATM   21  C15 UNL     1      -4.677   3.235   0.439  1.00  0.00     0.043 C 
HETATM   22  C16 UNL     1      -3.343   1.259   0.293  1.00  0.00     0.015 C 
ENDBRANCH  14  15
ENDBRANCH   2  13
TORSDOF 5
