REMARK  3 active torsions:
REMARK  status: ('A' for Active; 'I' for Inactive)
REMARK    1  A    between atoms: O1_2  and  C2_3 
REMARK    2  A    between atoms: C5_6  and  S1_7 
REMARK    3  A    between atoms: C8_10  and  C9_11 
ROOT
HETATM    1  S1  UNL     1       1.430   0.837  -0.908  1.00  0.00    -0.133 SA
HETATM    2  C6  UNL     1       0.938   0.040  -2.497  1.00  0.00     0.084 C 
HETATM    3  C7  UNL     1      -0.485   0.523  -2.446  1.00  0.00     0.071 C 
HETATM    4  C8  UNL     1      -0.994   0.411  -1.084  1.00  0.00     0.052 C 
HETATM    5  N1  UNL     1      -0.093   0.556  -0.161  1.00  0.00    -0.239 NA
HETATM    6  H6  UNL     1       1.315   2.568  -1.302  1.00  0.00     0.109 HD
ENDROOT
BRANCH   1   7
HETATM    7  C5  UNL     1       2.922   0.527  -0.270  1.00  0.00    -0.001 A 
HETATM    8  C4  UNL     1       4.089   1.223  -0.502  1.00  0.00     0.021 A 
HETATM    9  C3  UNL     1       5.300   0.910   0.063  1.00  0.00     0.038 A 
HETATM   10  C2  UNL     1       5.414  -0.160   0.927  1.00  0.00     0.068 A 
HETATM   11  C18 UNL     1       4.284  -0.888   1.194  1.00  0.00     0.038 A 
HETATM   12  C17 UNL     1       3.085  -0.536   0.601  1.00  0.00     0.021 A 
BRANCH  10  13
HETATM   13  O1  UNL     1       6.663  -0.388   1.436  1.00  0.00    -0.356 OA
HETATM   14  C1  UNL     1       6.857  -1.463   2.325  1.00  0.00     0.210 C 
ENDBRANCH  10  13
ENDBRANCH   1   7
BRANCH   4  15
HETATM   15  C9  UNL     1      -2.390   0.159  -0.728  1.00  0.00    -0.010 A 
HETATM   16  C10 UNL     1      -3.359   0.003  -1.696  1.00  0.00     0.014 A 
HETATM   17  C11 UNL     1      -4.695  -0.238  -1.439  1.00  0.00     0.008 A 
HETATM   18  C12 UNL     1      -5.107  -0.332  -0.127  1.00  0.00    -0.056 A 
HETATM   19  C13 UNL     1      -6.543  -0.591   0.169  1.00  0.00     0.049 C 
HETATM   20  C14 UNL     1      -4.176  -0.184   0.879  1.00  0.00    -0.055 A 
HETATM   21  C15 UNL     1      -4.645  -0.290   2.286  1.00  0.00     0.049 C 
HETATM   22  C16 UNL     1      -2.858   0.054   0.562  1.00  0.00     0.020 A 
ENDBRANCH   4  15
TORSDOF 3
