REMARK  0 active torsions:
REMARK  status: ('A' for Active; 'I' for Inactive)
ROOT
HETATM    1  C1  UNL     1      -2.235   2.036  -1.436  1.00  0.00     0.049 C 
HETATM    2  C2  UNL     1      -2.028   1.017  -0.375  1.00  0.00    -0.050 A 
HETATM    3  C3  UNL     1      -2.372  -0.302  -0.576  1.00  0.00     0.015 A 
HETATM    4  C4  UNL     1      -2.166  -1.224   0.428  1.00  0.00    -0.054 A 
HETATM    5  C5  UNL     1      -1.621  -0.843   1.635  1.00  0.00     0.008 A 
HETATM    6  C6  UNL     1      -1.275   0.475   1.841  1.00  0.00     0.014 A 
HETATM    7  C7  UNL     1      -1.478   1.417   0.833  1.00  0.00    -0.013 A 
HETATM    8  C8  UNL     1      -1.097   2.815   1.057  1.00  0.00     0.129 C 
HETATM    9  N1  UNL     1       0.060   2.544   0.579  1.00  0.00    -0.261 NA
HETATM   10  C9  UNL     1       1.110   3.469   0.445  1.00  0.00     0.083 A 
HETATM   11  C10 UNL     1       1.637   4.630   0.365  1.00  0.00     0.077 A 
HETATM   12  S1  UNL     1       3.299   4.171   0.188  1.00  0.00    -0.098 SA
HETATM   13  C11 UNL     1       2.320   2.710   0.338  1.00  0.00     0.339 A 
HETATM   14  N2  UNL     1       2.283   1.901  -0.863  1.00  0.00     0.120 N 
HETATM   15  C12 UNL     1       2.801   0.575  -0.659  1.00  0.00     0.194 A 
HETATM   16  C13 UNL     1       4.083   0.525   0.129  1.00  0.00     0.058 C 
HETATM   17  C14 UNL     1       2.989  -0.151  -1.940  1.00  0.00     0.021 A 
HETATM   18  C15 UNL     1       2.094  -1.120  -2.040  1.00  0.00     0.035 A 
HETATM   19  C16 UNL     1       1.269  -1.202  -0.842  1.00  0.00     0.067 A 
HETATM   20  C17 UNL     1       1.723  -0.231  -0.029  1.00  0.00     0.054 A 
HETATM   21  O1  UNL     1       0.227  -1.852  -0.199  1.00  0.00    -0.351 OA
HETATM   22  C18 UNL     1      -0.169  -3.186  -0.445  1.00  0.00     0.176 C 
HETATM   23  C19 UNL     1      -1.338  -3.555   0.445  1.00  0.00     0.036 C 
HETATM   24  C20 UNL     1      -2.528  -2.647   0.187  1.00  0.00     0.016 C 
HETATM   25  C21 UNL     1      -3.623  -3.006   1.157  1.00  0.00     0.015 C 
HETATM   26  H10 UNL     1       2.644   2.411  -1.674  1.00  0.00     0.319 HD
ENDROOT
TORSDOF 0
