REMARK  6 active torsions:
REMARK  status: ('A' for Active; 'I' for Inactive)
REMARK    1  A    between atoms: B1_1  and  C1_2 
REMARK    2  A    between atoms: C6_8  and  C7_9 
REMARK    3  A    between atoms: N1_11  and  C9_12 
REMARK    4  A    between atoms: C9_12  and  C10_13 
REMARK    5  A    between atoms: N2_21  and  C18_22 
REMARK    6  A    between atoms: C20_25  and  N3_26 
ROOT
HETATM    1  C7  UNL     1       1.820   1.402   0.857  1.00  0.00     0.123 C 
HETATM    2  C8  UNL     1       0.743   2.332   0.425  1.00  0.00     0.134 C 
HETATM    3  N1  UNL     1      -0.157   1.239   0.590  1.00  0.00    -0.242 NA
HETATM    4  N2  UNL     1       0.751   0.503   1.236  1.00  0.00    -0.219 NA
ENDROOT
BRANCH   1   5
HETATM    5  C6  UNL     1       2.689   0.804  -0.182  1.00  0.00    -0.043 A 
HETATM    6  C1  UNL     1       3.782   1.563  -0.622  1.00  0.00    -0.099 A 
HETATM    7  C2  UNL     1       4.653   1.084  -1.580  1.00  0.00     0.018 A 
HETATM    8  C3  UNL     1       4.485  -0.161  -2.142  1.00  0.00     0.033 A 
HETATM    9 CL1  UNL     1       5.538  -0.861  -3.364  1.00  0.00    -0.084 Cl
HETATM   10  C4  UNL     1       3.424  -0.943  -1.739  1.00  0.00     0.024 A 
HETATM   11  C5  UNL     1       2.590  -0.428  -0.791  1.00  0.00     0.010 A 
BRANCH   6  12
HETATM   12  B1  UNL     1       4.140   2.994  -0.096  1.00  0.00     0.175 B 
HETATM   13  H1  UNL     1       3.275   3.598   0.430  1.00  0.00    -0.026 HD
HETATM   14  H2  UNL     1       5.241   3.227   0.325  1.00  0.00    -0.026 HD
ENDBRANCH   6  12
ENDBRANCH   1   5
BRANCH   4  15
HETATM   15  C18 UNL     1       0.661   0.480   2.700  1.00  0.00     0.190 A 
HETATM   16  S1  UNL     1      -0.411   1.777   3.361  1.00  0.00    -0.112 SA
HETATM   17  C19 UNL     1      -1.169   0.216   3.744  1.00  0.00     0.074 A 
HETATM   18  C20 UNL     1      -0.256  -0.560   3.194  1.00  0.00     0.038 A 
BRANCH  18  19
HETATM   19  N3  UNL     1      -0.121  -1.973   3.086  1.00  0.00    -0.400 N 
HETATM   20  H24 UNL     1      -0.639  -2.606   3.760  1.00  0.00     0.156 HD
HETATM   21  H25 UNL     1       0.465  -2.467   2.379  1.00  0.00     0.156 HD
ENDBRANCH  18  19
ENDBRANCH   4  15
BRANCH   3  22
HETATM   22  C9  UNL     1      -0.792   0.859  -0.629  1.00  0.00     0.143 C 
BRANCH  22  23
HETATM   23  C10 UNL     1      -1.748  -0.252  -0.556  1.00  0.00    -0.056 C 
HETATM   24  C11 UNL     1      -3.046  -0.079  -0.884  1.00  0.00    -0.076 C 
HETATM   25  C12 UNL     1      -3.506   1.269  -1.329  1.00  0.00     0.044 C 
HETATM   26  C13 UNL     1      -4.037  -1.213  -0.805  1.00  0.00     0.061 C 
HETATM   27  C14 UNL     1      -3.797  -1.931   0.484  1.00  0.00    -0.026 C 
HETATM   28  C15 UNL     1      -2.513  -2.148   0.790  1.00  0.00    -0.022 C 
HETATM   29  C16 UNL     1      -1.485  -1.663  -0.162  1.00  0.00     0.034 C 
HETATM   30  C17 UNL     1      -1.387  -2.566  -1.377  1.00  0.00     0.019 C 
ENDBRANCH  22  23
ENDBRANCH   3  22
TORSDOF 6
