REMARK  3 active torsions:
REMARK  status: ('A' for Active; 'I' for Inactive)
REMARK    1  A    between atoms: C2_2  and  O1_3 
REMARK    2  A    between atoms: O1_3  and  C3_4 
REMARK    3  A    between atoms: C4_5  and  C5_6 
ROOT
HETATM    1  C5  UNL     1      -2.489  -0.333  -0.423  1.00  0.00     0.111 A 
HETATM    2  C6  UNL     1      -1.595  -1.261  -0.910  1.00  0.00     0.074 A 
HETATM    3  C7  UNL     1      -0.761  -1.432   0.172  1.00  0.00     0.080 A 
HETATM    4  N1  UNL     1      -1.120  -0.680   1.202  1.00  0.00    -0.171 NA
HETATM    5  N2  UNL     1      -2.186   0.002   0.844  1.00  0.00    -0.251 N 
HETATM    6  C8  UNL     1      -2.750   0.911   1.826  1.00  0.00     0.230 C 
HETATM    7  S1  UNL     1      -1.458   1.928   2.590  1.00  0.00    -0.120 SA
HETATM    8  C9  UNL     1      -0.686   3.038   1.421  1.00  0.00     0.046 C 
HETATM    9  C10 UNL     1       0.435   2.894   0.746  1.00  0.00     0.007 C 
HETATM   10  C11 UNL     1       1.583   3.073  -0.135  1.00  0.00    -0.002 C 
HETATM   11  C12 UNL     1       2.708   2.556  -0.595  1.00  0.00    -0.005 C 
HETATM   12  C13 UNL     1       3.156   1.227  -0.126  1.00  0.00     0.175 C 
HETATM   13  N3  UNL     1       4.434   1.281   0.536  1.00  0.00    -0.298 NA
HETATM   14  C14 UNL     1       5.080   0.178   0.605  1.00  0.00     0.110 C 
HETATM   15  C15 UNL     1       5.747  -1.103   0.644  1.00  0.00     0.015 C 
HETATM   16  C16 UNL     1       5.288  -2.219   0.138  1.00  0.00    -0.022 C 
HETATM   17  C17 UNL     1       4.119  -2.759  -0.599  1.00  0.00     0.054 C 
HETATM   18  C18 UNL     1       3.411  -3.802   0.140  1.00  0.00    -0.023 C 
HETATM   19  C19 UNL     1       2.232  -4.094   0.639  1.00  0.00    -0.004 C 
HETATM   20  C20 UNL     1       0.977  -3.401   0.660  1.00  0.00     0.002 C 
HETATM   21  C21 UNL     1       0.390  -2.304   0.273  1.00  0.00     0.033 C 
ENDROOT
BRANCH   1  22
HETATM   22  C4  UNL     1      -3.587   0.178  -1.211  1.00  0.00    -0.017 C 
HETATM   23  C3  UNL     1      -4.517   0.596  -1.855  1.00  0.00     0.061 C 
BRANCH  23  24
HETATM   24  O1  UNL     1      -5.597   1.060  -2.585  1.00  0.00    -0.304 OA
BRANCH  24  25
HETATM   25  C2  UNL     1      -6.443   2.077  -2.031  1.00  0.00     0.183 C 
HETATM   26  C1  UNL     1      -7.048   1.551  -0.733  1.00  0.00     0.035 C 
ENDBRANCH  24  25
ENDBRANCH  23  24
ENDBRANCH   1  22
TORSDOF 3
