REMARK  3 active torsions:
REMARK  status: ('A' for Active; 'I' for Inactive)
REMARK    1  A    between atoms: C3_3  and  C4_4 
REMARK    2  A    between atoms: C8_11  and  N3_12 
REMARK    3  A    between atoms: N3_12  and  C9_13 
ROOT
HETATM    1  C4  UNL     1       2.844   0.857   0.057  1.00  0.00     0.258 C 
HETATM    2  C5  UNL     1       2.074  -0.554   0.027  1.00  0.00     0.151 C 
HETATM    3  C6  UNL     1       2.004  -0.528   1.574  1.00  0.00     0.277 A 
HETATM    4 CL1  UNL     1       1.668  -2.224   2.118  1.00  0.00    -0.082 Cl
HETATM    5  C7  UNL     1       2.201   0.652   2.390  1.00  0.00     0.313 A 
HETATM    6  N1  UNL     1       1.835   1.016   1.146  1.00  0.00     0.079 N 
HETATM    7  N2  UNL     1       0.807   1.344   0.265  1.00  0.00    -0.067 NA
HETATM    8  C8  UNL     1       0.786   0.118  -0.414  1.00  0.00     0.142 C 
ENDROOT
BRANCH   8   9
HETATM    9  N3  UNL     1      -0.204  -0.376  -1.310  1.00  0.00    -0.343 N 
HETATM   10  H9  UNL     1       0.126  -1.016  -2.090  1.00  0.00     0.167 HD
BRANCH   9  11
HETATM   11  C9  UNL     1      -1.543   0.037  -1.071  1.00  0.00     0.034 A 
HETATM   12  C10 UNL     1      -2.157   1.172  -1.520  1.00  0.00     0.030 A 
HETATM   13  C11 UNL     1      -3.473   1.452  -1.221  1.00  0.00     0.009 A 
HETATM   14  C12 UNL     1      -4.255   0.615  -0.453  1.00  0.00    -0.056 A 
HETATM   15  C13 UNL     1      -5.661   0.942  -0.149  1.00  0.00     0.049 C 
HETATM   16  C14 UNL     1      -3.667  -0.523   0.008  1.00  0.00    -0.054 A 
HETATM   17  C15 UNL     1      -4.436  -1.495   0.849  1.00  0.00     0.049 C 
HETATM   18  C16 UNL     1      -2.345  -0.806  -0.293  1.00  0.00     0.036 A 
ENDBRANCH   9  11
ENDBRANCH   8   9
BRANCH   1  19
HETATM   19  C3  UNL     1       4.191   0.636   0.521  1.00  0.00     0.005 C 
HETATM   20  C2  UNL     1       4.988  -0.244  -0.120  1.00  0.00    -0.033 C 
HETATM   21  C1  UNL     1       6.398  -0.490   0.349  1.00  0.00     0.036 C 
ENDBRANCH   1  19
TORSDOF 3
