REMARK  4 active torsions:
REMARK  status: ('A' for Active; 'I' for Inactive)
REMARK    1  A    between atoms: C2_2  and  C3_3 
REMARK    2  A    between atoms: C4_4  and  C5_5 
REMARK    3  A    between atoms: C7_8  and  C8_9 
REMARK    4  A    between atoms: C14_17  and  C15_18 
ROOT
HETATM    1  C5  UNL     1       1.746  -0.067   0.489  1.00  0.00     0.054 C 
HETATM    2  C6  UNL     1       0.759   1.019   0.414  1.00  0.00     0.095 C 
HETATM    3  N1  UNL     1      -0.473   1.016   0.089  1.00  0.00    -0.273 NA
HETATM    4  C7  UNL     1      -1.205  -0.148  -0.303  1.00  0.00     0.261 C 
HETATM    5  N2  UNL     1      -1.205  -1.034   0.834  1.00  0.00    -0.265 NA
HETATM    6  C14 UNL     1      -0.132  -1.510   1.367  1.00  0.00     0.024 C 
HETATM    7  C16 UNL     1       1.281  -1.347   1.054  1.00  0.00     0.069 C 
ENDROOT
BRANCH   4   8
HETATM    8  C8  UNL     1      -2.599   0.279  -0.618  1.00  0.00    -0.013 A 
HETATM    9  C9  UNL     1      -3.286   1.147   0.213  1.00  0.00     0.013 A 
HETATM   10  C10 UNL     1      -4.569   1.563  -0.043  1.00  0.00     0.024 A 
HETATM   11  C11 UNL     1      -5.238   1.115  -1.176  1.00  0.00     0.034 A 
HETATM   12 CL1  UNL     1      -6.866   1.586  -1.587  1.00  0.00    -0.084 Cl
HETATM   13  C12 UNL     1      -4.550   0.263  -1.984  1.00  0.00     0.024 A 
HETATM   14  C13 UNL     1      -3.263  -0.175  -1.758  1.00  0.00     0.013 A 
ENDBRANCH   4   8
BRANCH   6  15
HETATM   15  C15 UNL     1      -0.458  -2.407   2.541  1.00  0.00     0.169 C 
HETATM   16 CL2  UNL     1       0.333  -1.684   3.969  1.00  0.00    -0.124 Cl
ENDBRANCH   6  15
BRANCH   1  17
HETATM   17  C4  UNL     1       2.937   0.470   1.196  1.00  0.00    -0.017 C 
HETATM   18  C3  UNL     1       4.163   0.762   0.802  1.00  0.00    -0.007 C 
BRANCH  18  19
HETATM   19  C2  UNL     1       4.588   0.577  -0.572  1.00  0.00    -0.027 C 
HETATM   20  C1  UNL     1       5.821   0.891  -0.883  1.00  0.00     0.031 C 
ENDBRANCH  18  19
ENDBRANCH   1  17
TORSDOF 4
