REMARK  1 active torsions:
REMARK  status: ('A' for Active; 'I' for Inactive)
REMARK    1  A    between atoms: C4_5  and  C5_6 
ROOT
HETATM    1  C5  UNL     1       0.470   0.689   0.047  1.00  0.00     0.057 C 
HETATM    2  C6  UNL     1       0.345   1.648  -1.120  1.00  0.00     0.062 C 
HETATM    3  C7  UNL     1      -1.032   2.107  -1.273  1.00  0.00     0.112 C 
HETATM    4  N1  UNL     1      -2.006   2.204  -2.163  1.00  0.00    -0.189 NA
HETATM    5  N2  UNL     1      -3.178   2.788  -1.594  1.00  0.00    -0.256 N 
HETATM    6  C8  UNL     1      -3.525   1.946  -0.342  1.00  0.00     0.187 A 
HETATM    7  N3  UNL     1      -2.880   1.032  -0.175  1.00  0.00    -0.222 NA
HETATM    8  C9  UNL     1      -2.743   0.071   0.645  1.00  0.00     0.077 A 
HETATM    9  C10 UNL     1      -3.757   0.185   1.736  1.00  0.00     0.086 A 
HETATM   10  S1  UNL     1      -4.626   1.748   1.169  1.00  0.00    -0.060 SA
HETATM   11  C11 UNL     1      -1.658  -0.789   0.218  1.00  0.00     0.000 A 
HETATM   12  C12 UNL     1      -2.219  -2.038   0.088  1.00  0.00     0.016 A 
HETATM   13  C13 UNL     1      -1.484  -3.161  -0.324  1.00  0.00     0.025 A 
HETATM   14  C14 UNL     1      -0.148  -2.955  -0.598  1.00  0.00     0.034 A 
HETATM   15 CL1  UNL     1       0.854  -4.290  -1.120  1.00  0.00    -0.084 Cl
HETATM   16  C15 UNL     1       0.339  -1.674  -0.443  1.00  0.00     0.032 A 
HETATM   17  C16 UNL     1      -0.343  -0.517  -0.036  1.00  0.00    -0.035 A 
HETATM   18  H7  UNL     1      -3.970   3.417  -1.458  1.00  0.00     0.191 HD
ENDROOT
BRANCH   1  19
HETATM   19  C4  UNL     1       1.920   0.324   0.222  1.00  0.00    -0.049 A 
HETATM   20  C3  UNL     1       2.284  -0.001   1.535  1.00  0.00     0.011 A 
HETATM   21  C2  UNL     1       3.540  -0.353   1.933  1.00  0.00     0.043 A 
HETATM   22  C1  UNL     1       4.538  -0.399   0.993  1.00  0.00     0.116 A 
HETATM   23  F1  UNL     1       5.825  -0.738   1.280  1.00  0.00    -0.206 F 
HETATM   24  C18 UNL     1       4.206  -0.084  -0.305  1.00  0.00     0.043 A 
HETATM   25  C17 UNL     1       2.946   0.271  -0.710  1.00  0.00     0.011 A 
ENDBRANCH   1  19
TORSDOF 1
