REMARK  5 active torsions:
REMARK  status: ('A' for Active; 'I' for Inactive)
REMARK    1  A    between atoms: C4_5  and  N1_6 
REMARK    2  A    between atoms: N1_6  and  C5_7 
REMARK    3  A    between atoms: C5_7  and  N2_8 
REMARK    4  A    between atoms: N2_8  and  C6_9 
REMARK    5  A    between atoms: C6_9  and  C7_10 
ROOT
HETATM    1  N2  UNL     1      -0.195  -0.354  -0.780  1.00  0.00     0.104 N 
HETATM    2  H6  UNL     1      -0.206  -1.378  -0.593  1.00  0.00     0.318 HD
ENDROOT
BRANCH   1   3
HETATM    3  C5  UNL     1      -0.950  -0.024  -1.995  1.00  0.00     0.393 C 
BRANCH   3   4
HETATM    4  N1  UNL     1      -2.259  -0.595  -1.888  1.00  0.00    -0.365 N 
HETATM    5  H3  UNL     1      -2.591  -1.293  -2.592  1.00  0.00     0.161 HD
BRANCH   4   6
HETATM    6  C4  UNL     1      -3.113  -0.214  -0.824  1.00  0.00     0.031 A 
HETATM    7  C3  UNL     1      -2.752   0.687   0.127  1.00  0.00     0.032 A 
HETATM    8  C2  UNL     1      -3.634   1.019   1.146  1.00  0.00     0.046 A 
HETATM    9  C1  UNL     1      -4.889   0.459   1.230  1.00  0.00     0.138 A 
HETATM   10  F1  UNL     1      -5.786   0.756   2.212  1.00  0.00    -0.204 F 
HETATM   11  C14 UNL     1      -5.292  -0.471   0.268  1.00  0.00     0.074 A 
HETATM   12  C13 UNL     1      -4.385  -0.765  -0.716  1.00  0.00     0.056 A 
HETATM   13 CL1  UNL     1      -6.876  -1.243   0.288  1.00  0.00    -0.081 Cl
ENDBRANCH   4   6
ENDBRANCH   3   4
ENDBRANCH   1   3
BRANCH   1  14
HETATM   14  C6  UNL     1       1.138   0.197  -0.831  1.00  0.00     0.312 C 
BRANCH  14  15
HETATM   15  C7  UNL     1       1.903  -0.136   0.394  1.00  0.00    -0.007 C 
HETATM   16  C8  UNL     1       2.658  -1.276   0.478  1.00  0.00     0.030 C 
HETATM   17  C9  UNL     1       3.939  -1.768   0.679  1.00  0.00     0.118 C 
HETATM   18  N3  UNL     1       4.884  -1.302  -0.158  1.00  0.00    -0.254 NA
HETATM   19  C10 UNL     1       5.479  -0.130   0.197  1.00  0.00     0.234 C 
HETATM   20  N4  UNL     1       5.246   0.569   1.323  1.00  0.00    -0.230 NA
HETATM   21  C11 UNL     1       4.067   1.180   1.555  1.00  0.00     0.259 C 
HETATM   22  O1  UNL     1       2.836   1.484   1.885  1.00  0.00    -0.315 OA
HETATM   23  C12 UNL     1       1.849   0.721   1.459  1.00  0.00     0.152 C 
ENDBRANCH  14  15
ENDBRANCH   1  14
TORSDOF 5
