REMARK  2 active torsions:
REMARK  status: ('A' for Active; 'I' for Inactive)
REMARK    1  A    between atoms: C4_5  and  C5_6 
REMARK    2  A    between atoms: C7_9  and  N1_10 
ROOT
HETATM    1  C5  UNL     1       2.599  -0.633  -0.576  1.00  0.00     0.076 A 
HETATM    2  C6  UNL     1       2.421  -1.160  -1.873  1.00  0.00     0.086 A 
HETATM    3  S1  UNL     1       0.671  -1.256  -1.972  1.00  0.00    -0.060 SA
HETATM    4  C7  UNL     1       0.398  -0.564  -0.227  1.00  0.00     0.189 A 
HETATM    5  N3  UNL     1       1.515  -0.383   0.135  1.00  0.00    -0.222 NA
ENDROOT
BRANCH   4   6
HETATM    6  N1  UNL     1      -0.966  -0.452   0.162  1.00  0.00    -0.246 N 
HETATM    7  C8  UNL     1      -2.053  -0.840  -0.716  1.00  0.00     0.162 C 
HETATM    8  C9  UNL     1      -3.075   0.213  -0.945  1.00  0.00     0.032 C 
HETATM    9  C10 UNL     1      -4.368  -0.394  -1.343  1.00  0.00    -0.024 C 
HETATM   10  C13 UNL     1      -3.444   1.066   0.207  1.00  0.00     0.003 C 
HETATM   11  C11 UNL     1      -5.404   0.340  -0.889  1.00  0.00    -0.030 C 
HETATM   12  C12 UNL     1      -4.863   1.528  -0.131  1.00  0.00     0.032 C 
HETATM   13  C14 UNL     1      -3.508   0.414   1.542  1.00  0.00     0.054 C 
HETATM   14  C15 UNL     1      -2.108   0.456   2.104  1.00  0.00     0.112 C 
HETATM   15  N2  UNL     1      -1.035   0.065   1.457  1.00  0.00    -0.187 NA
ENDBRANCH   4   6
BRANCH   1  16
HETATM   16  C4  UNL     1       3.936  -0.379  -0.050  1.00  0.00    -0.007 A 
HETATM   17  C3  UNL     1       4.213   0.131   1.196  1.00  0.00     0.015 A 
HETATM   18  C2  UNL     1       5.465   0.374   1.700  1.00  0.00     0.024 A 
HETATM   19  C1  UNL     1       6.558   0.093   0.911  1.00  0.00     0.034 A 
HETATM   20 CL1  UNL     1       8.180   0.378   1.492  1.00  0.00    -0.084 Cl
HETATM   21  C17 UNL     1       6.369  -0.419  -0.347  1.00  0.00     0.024 A 
HETATM   22  C16 UNL     1       5.081  -0.631  -0.772  1.00  0.00     0.015 A 
ENDBRANCH   1  16
TORSDOF 2
