REMARK  7 active torsions:
REMARK  status: ('A' for Active; 'I' for Inactive)
REMARK    1  A    between atoms: O1_2  and  C2_3 
REMARK    2  A    between atoms: C5_6  and  C6_7 
REMARK    3  A    between atoms: C6_7  and  C7_8 
REMARK    4  A    between atoms: C7_8  and  C8_9 
REMARK    5  A    between atoms: C8_9  and  N1_10 
REMARK    6  A    between atoms: N1_10  and  C9_11 
REMARK    7  A    between atoms: C9_11  and  S1_12 
ROOT
HETATM    1  C8  UNL     1      -0.687  -1.963   1.109  1.00  0.00     0.271 C 
ENDROOT
BRANCH   1   2
HETATM    2  C7  UNL     1       0.572  -1.432   0.564  1.00  0.00     0.034 C 
BRANCH   2   3
HETATM    3  C6  UNL     1       0.865   0.012   0.572  1.00  0.00     0.040 C 
BRANCH   3   4
HETATM    4  C5  UNL     1       2.274   0.248   0.022  1.00  0.00    -0.058 A 
HETATM    5  C4  UNL     1       2.525   0.459  -1.312  1.00  0.00     0.010 A 
HETATM    6  C3  UNL     1       3.838   0.663  -1.709  1.00  0.00     0.037 A 
HETATM    7  C2  UNL     1       4.894   0.659  -0.794  1.00  0.00     0.068 A 
HETATM    8  C16 UNL     1       4.596   0.444   0.537  1.00  0.00     0.037 A 
HETATM    9  C15 UNL     1       3.299   0.239   0.949  1.00  0.00     0.010 A 
BRANCH   7  10
HETATM   10  O1  UNL     1       6.202   0.869  -1.236  1.00  0.00    -0.356 OA
HETATM   11  C1  UNL     1       7.239   0.857  -0.278  1.00  0.00     0.210 C 
ENDBRANCH   7  10
ENDBRANCH   3   4
ENDBRANCH   2   3
ENDBRANCH   1   2
BRANCH   1  12
HETATM   12  N1  UNL     1      -1.943  -1.565   0.611  1.00  0.00     0.092 NA
HETATM   13  H12 UNL     1      -1.955  -1.726  -0.419  1.00  0.00     0.316 HD
BRANCH  12  14
HETATM   14  C9  UNL     1      -2.412  -0.282   0.932  1.00  0.00     0.341 C 
BRANCH  14  15
HETATM   15  S1  UNL     1      -4.070   0.140   0.226  1.00  0.00    -0.145 SA
HETATM   16  C10 UNL     1      -4.313   1.383  -0.783  1.00  0.00     0.041 A 
HETATM   17  C11 UNL     1      -5.693   1.540  -1.222  1.00  0.00     0.025 A 
HETATM   18  C12 UNL     1      -6.696   0.763  -0.857  1.00  0.00     0.011 A 
HETATM   19 BR1  UNL     1      -8.435   1.182  -1.579  1.00  0.00    -0.051 Br
HETATM   20  C13 UNL     1      -6.628  -0.393   0.045  1.00  0.00     0.025 A 
HETATM   21  C14 UNL     1      -5.511  -0.830   0.638  1.00  0.00     0.041 A 
ENDBRANCH  14  15
ENDBRANCH  12  14
ENDBRANCH   1  12
TORSDOF 7
