REMARK  4 active torsions:
REMARK  status: ('A' for Active; 'I' for Inactive)
REMARK    1  A    between atoms: N1_2  and  N2_3 
REMARK    2  A    between atoms: N2_3  and  C2_4 
REMARK    3  A    between atoms: N2_3  and  C9_12 
REMARK    4  A    between atoms: C2_4  and  C3_5 
ROOT
HETATM    1  C9  UNL     1      -0.028   0.609  -0.528  1.00  0.00     0.187 C 
HETATM    2  N3  UNL     1      -0.538   0.547  -1.716  1.00  0.00    -0.245 NA
HETATM    3  C10 UNL     1      -1.552  -0.297  -2.319  1.00  0.00     0.273 C 
HETATM    4  N4  UNL     1      -2.841  -0.115  -1.646  1.00  0.00    -0.371 N 
HETATM    5  C11 UNL     1      -3.180  -0.483  -0.304  1.00  0.00     0.046 A 
HETATM    6  C12 UNL     1      -4.554  -0.674  -0.148  1.00  0.00     0.030 A 
HETATM    7  C13 UNL     1      -5.066  -1.037   1.093  1.00  0.00     0.002 A 
HETATM    8  C14 UNL     1      -4.190  -1.200   2.147  1.00  0.00     0.002 A 
HETATM    9  C15 UNL     1      -2.816  -1.008   1.982  1.00  0.00     0.021 A 
HETATM   10  C16 UNL     1      -2.290  -0.647   0.757  1.00  0.00     0.035 A 
HETATM   11  S1  UNL     1      -0.513  -0.469   0.833  1.00  0.00    -0.049 SA
HETATM   12  H11 UNL     1      -3.655   0.334  -2.154  1.00  0.00     0.161 HD
ENDROOT
BRANCH   1  13
HETATM   13  N2  UNL     1       0.967   1.650  -0.460  1.00  0.00    -0.243 N 
BRANCH  13  14
HETATM   14  N1  UNL     1       0.414   2.898  -0.846  1.00  0.00    -0.194 NA
HETATM   15  C1  UNL     1       0.605   3.272  -2.069  1.00  0.00     0.173 C 
ENDBRANCH  13  14
BRANCH  13  16
HETATM   16  C2  UNL     1       2.344   1.814  -0.123  1.00  0.00     0.192 C 
BRANCH  16  17
HETATM   17  C3  UNL     1       3.030   0.571   0.298  1.00  0.00    -0.038 A 
HETATM   18  C4  UNL     1       3.690  -0.312  -0.532  1.00  0.00     0.010 A 
HETATM   19  C5  UNL     1       4.283  -1.436   0.035  1.00  0.00     0.019 A 
HETATM   20  C6  UNL     1       4.209  -1.660   1.402  1.00  0.00     0.011 A 
HETATM   21 BR1  UNL     1       5.050  -3.230   2.105  1.00  0.00    -0.051 Br
HETATM   22  C7  UNL     1       3.548  -0.779   2.251  1.00  0.00     0.019 A 
HETATM   23  C8  UNL     1       2.967   0.329   1.675  1.00  0.00     0.010 A 
ENDBRANCH  16  17
ENDBRANCH  13  16
ENDBRANCH   1  13
TORSDOF 4
