REMARK  1 active torsions:
REMARK  status: ('A' for Active; 'I' for Inactive)
REMARK    1  A    between atoms: C4_5  and  N1_6 
ROOT
HETATM    1  N1  UNL     1      -1.668  -1.170   0.117  1.00  0.00    -0.256 N 
HETATM    2  N2  UNL     1      -1.965  -2.545   0.042  1.00  0.00    -0.287 N 
HETATM    3  C5  UNL     1      -0.942  -3.495  -0.238  1.00  0.00     0.226 A 
HETATM    4  N3  UNL     1       0.293  -3.142  -0.434  1.00  0.00    -0.216 NA
HETATM    5  C6  UNL     1       0.582  -1.754  -0.356  1.00  0.00     0.197 A 
HETATM    6  C7  UNL     1      -0.303  -0.799  -0.102  1.00  0.00     0.104 A 
HETATM    7  C8  UNL     1      -0.209   0.665   0.019  1.00  0.00     0.178 C 
HETATM    8  N4  UNL     1       1.015   1.265  -0.309  1.00  0.00    -0.406 N 
HETATM    9  C9  UNL     1       2.182   0.845   0.381  1.00  0.00     0.139 A 
HETATM   10  C10 UNL     1       3.209   1.928   0.492  1.00  0.00     0.078 A 
HETATM   11  C11 UNL     1       4.503   1.592  -0.140  1.00  0.00    -0.009 A 
HETATM   12 BR1  UNL     1       5.757   3.029   0.047  1.00  0.00    -0.056 Br
HETATM   13  C12 UNL     1       4.899   0.508  -0.778  1.00  0.00     0.017 A 
HETATM   14  C13 UNL     1       3.894  -0.543  -0.882  1.00  0.00     0.036 A 
HETATM   15  C14 UNL     1       2.699  -0.345  -0.350  1.00  0.00     0.078 A 
HETATM   16  O1  UNL     1       1.930  -1.482  -0.580  1.00  0.00    -0.292 OA
HETATM   17  H3  UNL     1      -2.924  -2.935   0.183  1.00  0.00     0.188 HD
HETATM   18  H7  UNL     1       1.051   2.102  -0.877  1.00  0.00     0.154 HD
ENDROOT
BRANCH   1  19
HETATM   19  C4  UNL     1      -2.750  -0.286   0.401  1.00  0.00     0.059 A 
HETATM   20  C3  UNL     1      -3.169   0.370   1.447  1.00  0.00     0.032 A 
HETATM   21  C2  UNL     1      -4.348   1.101   1.058  1.00  0.00     0.042 A 
HETATM   22  C1  UNL     1      -4.666   0.908  -0.209  1.00  0.00     0.118 A 
HETATM   23  F1  UNL     1      -5.658   1.371  -0.990  1.00  0.00    -0.209 F 
HETATM   24  C15 UNL     1      -3.649  -0.018  -0.758  1.00  0.00     0.196 A 
HETATM   25 CL1  UNL     1      -4.482  -1.505  -1.265  1.00  0.00    -0.111 Cl
ENDBRANCH   1  19
TORSDOF 1
