REMARK  10 active torsions:
REMARK  status: ('A' for Active; 'I' for Inactive)
REMARK    1  A    between atoms: O1_2  and  C2_3 
REMARK    2  A    between atoms: C2_3  and  C3_4 
REMARK    3  A    between atoms: C3_4  and  C4_5 
REMARK    4  A    between atoms: C8_11  and  N3_12 
REMARK    5  A    between atoms: C15_19  and  O2_20 
REMARK    6  A    between atoms: C18_23  and  C19_24 
REMARK    7  A    between atoms: C19_24  and  C20_25 
REMARK    8  A    between atoms: C20_25  and  O3_26 
REMARK    9  A    between atoms: O3_26  and  C21_27 
REMARK   10  A    between atoms: C21_27  and  O4_28 
ROOT
HETATM    1  C4  UNL     1      -2.426  -0.878  -0.737  1.00  0.00    -0.048 A 
HETATM    2  C5  UNL     1      -1.824  -1.833  -1.568  1.00  0.00     0.040 A 
HETATM    3  C6  UNL     1      -0.468  -1.968  -1.748  1.00  0.00     0.072 A 
HETATM    4  N1  UNL     1       0.067  -2.899  -2.554  1.00  0.00    -0.241 NA
HETATM    5  C7  UNL     1       1.412  -3.012  -2.713  1.00  0.00     0.236 A 
HETATM    6  N2  UNL     1       2.222  -2.178  -2.053  1.00  0.00    -0.223 NA
HETATM    7  C8  UNL     1       1.695  -1.245  -1.245  1.00  0.00     0.149 A 
HETATM    8  C16 UNL     1       0.334  -1.087  -1.048  1.00  0.00     0.040 A 
HETATM    9  C17 UNL     1      -0.237  -0.151  -0.236  1.00  0.00     0.025 A 
HETATM   10  C18 UNL     1      -1.603  -0.000  -0.044  1.00  0.00    -0.049 A 
ENDROOT
BRANCH   7  11
HETATM   11  N3  UNL     1       2.580  -0.372  -0.552  1.00  0.00    -0.286 N 
HETATM   12  C9  UNL     1       2.988   0.847  -1.197  1.00  0.00     0.101 C 
HETATM   13  C10 UNL     1       4.122   1.507  -0.933  1.00  0.00     0.024 C 
HETATM   14  C11 UNL     1       5.180   1.189   0.019  1.00  0.00    -0.061 C 
HETATM   15  C12 UNL     1       6.460   1.936  -0.154  1.00  0.00     0.048 C 
HETATM   16  C13 UNL     1       5.168   0.313   1.035  1.00  0.00     0.011 C 
HETATM   17  C14 UNL     1       4.063  -0.572   1.461  1.00  0.00     0.057 C 
HETATM   18  C15 UNL     1       2.961  -0.841   0.744  1.00  0.00     0.147 C 
BRANCH  18  19
HETATM   19  O2  UNL     1       2.091  -1.706   1.394  1.00  0.00    -0.346 OA
HETATM   20  H17 UNL     1       1.733  -1.576   2.325  1.00  0.00     0.219 HD
ENDBRANCH  18  19
ENDBRANCH   7  11
BRANCH  10  21
HETATM   21  C19 UNL     1      -2.129   1.089   0.811  1.00  0.00     0.065 C 
BRANCH  21  22
HETATM   22  C20 UNL     1      -2.571   2.312   0.082  1.00  0.00     0.175 C 
BRANCH  22  23
HETATM   23  O3  UNL     1      -1.543   2.928  -0.605  1.00  0.00    -0.367 OA
BRANCH  23  24
HETATM   24  C21 UNL     1      -0.535   3.432   0.177  1.00  0.00     0.334 C 
BRANCH  24  25
HETATM   25  O4  UNL     1      -1.025   4.404   1.068  1.00  0.00    -0.377 OA
HETATM   26  H25 UNL     1      -1.825   4.841   0.679  1.00  0.00     0.212 HD
ENDBRANCH  24  25
ENDBRANCH  23  24
ENDBRANCH  22  23
ENDBRANCH  21  22
ENDBRANCH  10  21
BRANCH   1  27
HETATM   27  C3  UNL     1      -3.885  -0.947  -0.613  1.00  0.00     0.065 C 
BRANCH  27  28
HETATM   28  C2  UNL     1      -4.227  -1.805   0.613  1.00  0.00     0.171 C 
BRANCH  28  29
HETATM   29  O1  UNL     1      -5.593  -1.915   0.812  1.00  0.00    -0.396 OA
HETATM   30  C1  UNL     1      -5.835  -2.702   1.939  1.00  0.00     0.201 C 
ENDBRANCH  28  29
ENDBRANCH  27  28
ENDBRANCH   1  27
TORSDOF 10
