REMARK  2 active torsions:
REMARK  status: ('A' for Active; 'I' for Inactive)
REMARK    1  A    between atoms: C4_5  and  N1_6 
REMARK    2  A    between atoms: C11_14  and  P1_15 
ROOT
HETATM    1  N1  UNL     1       2.575  -0.635   0.092  1.00  0.00    -0.294 N 
HETATM    2  C5  UNL     1       1.793  -0.219   1.253  1.00  0.00     0.202 C 
HETATM    3  C6  UNL     1       0.418   0.068   0.763  1.00  0.00     0.040 C 
HETATM    4  C7  UNL     1      -0.216   0.888   1.551  1.00  0.00     0.007 C 
HETATM    5  C8  UNL     1      -1.581   1.431   1.445  1.00  0.00     0.084 C 
HETATM    6  C9  UNL     1      -2.529   0.491   0.758  1.00  0.00     0.019 C 
HETATM    7  N2  UNL     1      -3.670   0.487   1.342  1.00  0.00    -0.293 NA
HETATM    8  C10 UNL     1      -4.749  -0.354   0.846  1.00  0.00     0.187 C 
HETATM    9  C11 UNL     1      -4.855  -0.072  -0.613  1.00  0.00    -0.042 C 
HETATM   10  C12 UNL     1      -3.683  -0.114  -1.238  1.00  0.00    -0.005 C 
HETATM   11  C13 UNL     1      -2.480  -0.425  -0.416  1.00  0.00     0.076 C 
HETATM   12  C14 UNL     1      -1.221  -0.280  -1.233  1.00  0.00     0.159 C 
HETATM   13  N3  UNL     1      -0.061  -0.529  -0.437  1.00  0.00    -0.300 N 
HETATM   14  N4  UNL     1       0.740  -1.573  -0.970  1.00  0.00    -0.150 NA
HETATM   15  N5  UNL     1       2.067  -1.151  -1.108  1.00  0.00    -0.150 NA
HETATM   16  H16 UNL     1       0.409  -1.764  -1.951  1.00  0.00     0.168 HD
HETATM   17  H17 UNL     1       2.109  -0.430  -1.851  1.00  0.00     0.168 HD
ENDROOT
BRANCH   1  18
HETATM   18  C4  UNL     1       3.989  -0.498   0.201  1.00  0.00     0.050 A 
HETATM   19  C3  UNL     1       4.984  -1.120   0.847  1.00  0.00     0.031 A 
HETATM   20  C2  UNL     1       6.259  -0.462   0.521  1.00  0.00     0.042 A 
HETATM   21  C1  UNL     1       5.991   0.538  -0.314  1.00  0.00     0.118 A 
HETATM   22  F1  UNL     1       7.095   1.220  -0.685  1.00  0.00    -0.209 F 
HETATM   23  C15 UNL     1       4.547   0.616  -0.597  1.00  0.00     0.195 A 
HETATM   24 CL1  UNL     1       3.837   2.189  -0.163  1.00  0.00    -0.111 Cl
ENDBRANCH   1  18
BRANCH   9  25
HETATM   25  P1  UNL     1      -6.444   0.295  -1.458  1.00  0.00    -0.109 P 
HETATM   26  H10 UNL     1      -6.210   1.119  -2.639  1.00  0.00     0.059 HD
HETATM   27  H11 UNL     1      -7.168   1.182  -0.531  1.00  0.00     0.059 HD
ENDBRANCH   9  25
TORSDOF 2
