REMARK  7 active torsions:
REMARK  status: ('A' for Active; 'I' for Inactive)
REMARK    1  A    between atoms: C3_3  and  C4_4 
REMARK    2  A    between atoms: C8_9  and  C9_10 
REMARK    3  A    between atoms: C9_10  and  C10_11 
REMARK    4  A    between atoms: C10_11  and  O1_12 
REMARK    5  A    between atoms: C12_14  and  C13_15 
REMARK    6  A    between atoms: C13_15  and  C14_16 
REMARK    7  A    between atoms: C14_16  and  O2_17 
ROOT
HETATM    1  C4  UNL     1       3.037  -0.897   0.465  1.00  0.00     0.084 A 
HETATM    2  C5  UNL     1       3.723   0.036  -0.464  1.00  0.00     0.103 A 
HETATM    3  N1  UNL     1       2.885   0.857  -1.022  1.00  0.00    -0.264 NA
HETATM    4  C6  UNL     1       1.555   0.622  -0.581  1.00  0.00     0.064 A 
HETATM    5  C7  UNL     1       0.316   1.170  -0.830  1.00  0.00     0.039 A 
HETATM    6  C8  UNL     1      -0.886   0.751  -0.252  1.00  0.00    -0.048 A 
HETATM    7  C12 UNL     1      -0.770  -0.289   0.621  1.00  0.00    -0.049 A 
HETATM    8  C15 UNL     1       0.472  -0.866   0.896  1.00  0.00     0.018 A 
HETATM    9  C16 UNL     1       1.634  -0.427   0.310  1.00  0.00    -0.016 A 
ENDROOT
BRANCH   6  10
HETATM   10  C9  UNL     1      -2.035   1.571  -0.631  1.00  0.00     0.065 C 
BRANCH  10  11
HETATM   11  C10 UNL     1      -3.041   1.066  -1.579  1.00  0.00     0.171 C 
BRANCH  11  12
HETATM   12  O1  UNL     1      -3.973   2.144  -1.784  1.00  0.00    -0.396 OA
HETATM   13  C11 UNL     1      -4.942   1.688  -2.677  1.00  0.00     0.201 C 
ENDBRANCH  11  12
ENDBRANCH  10  11
ENDBRANCH   6  10
BRANCH   7  14
HETATM   14  C13 UNL     1      -1.905  -0.946   1.250  1.00  0.00     0.066 C 
BRANCH  14  15
HETATM   15  C14 UNL     1      -2.428  -2.173   0.591  1.00  0.00     0.189 C 
BRANCH  15  16
HETATM   16  O2  UNL     1      -2.826  -2.021  -0.699  1.00  0.00    -0.312 OA
HETATM   17 BR1  UNL     1      -3.465  -3.543  -1.498  1.00  0.00     0.099 Br
ENDBRANCH  15  16
ENDBRANCH  14  15
ENDBRANCH   7  14
BRANCH   1  18
HETATM   18  C3  UNL     1       3.483  -0.636   1.840  1.00  0.00    -0.016 C 
HETATM   19  C2  UNL     1       4.614  -0.160   2.372  1.00  0.00    -0.034 C 
HETATM   20  C1  UNL     1       5.810   0.259   1.601  1.00  0.00     0.036 C 
ENDBRANCH   1  18
TORSDOF 7
