REMARK  6 active torsions:
REMARK  status: ('A' for Active; 'I' for Inactive)
REMARK    1  A    between atoms: O1_2  and  C2_3 
REMARK    2  A    between atoms: C2_3  and  C3_4 
REMARK    3  A    between atoms: C3_4  and  O2_5 
REMARK    4  A    between atoms: O2_5  and  C4_6 
REMARK    5  A    between atoms: C5_7  and  C6_8 
REMARK    6  A    between atoms: C6_8  and  O3_9 
ROOT
HETATM    1  C4  UNL     1       0.217   0.628   0.569  1.00  0.00     0.076 C 
HETATM    2  C5  UNL     1      -0.239   1.610  -0.253  1.00  0.00    -0.018 C 
HETATM    3  C8  UNL     1      -1.688   1.750  -0.780  1.00  0.00     0.117 C 
HETATM    4  C9  UNL     1      -2.551   0.914   0.098  1.00  0.00     0.112 C 
HETATM    5  N1  UNL     1      -2.981   1.321   1.306  1.00  0.00    -0.229 NA
HETATM    6  C10 UNL     1      -1.998   1.404   2.411  1.00  0.00     0.229 C 
HETATM    7  N2  UNL     1      -0.896   0.754   2.755  1.00  0.00    -0.270 NA
HETATM    8  C11 UNL     1       0.080   0.061   1.939  1.00  0.00     0.174 C 
HETATM    9  C12 UNL     1      -0.248  -1.432   1.865  1.00  0.00     0.046 C 
HETATM   10  C13 UNL     1       0.947  -2.251   1.522  1.00  0.00     0.017 C 
HETATM   11  C14 UNL     1      -1.337  -1.659   0.879  1.00  0.00    -0.052 C 
HETATM   12  C15 UNL     1      -1.401  -2.021  -0.430  1.00  0.00     0.006 C 
HETATM   13  C16 UNL     1      -2.586  -1.390  -1.156  1.00  0.00     0.110 C 
HETATM   14  C17 UNL     1      -2.326  -0.873  -2.488  1.00  0.00     0.037 C 
HETATM   15  N3  UNL     1      -2.968  -0.438  -0.096  1.00  0.00    -0.337 N 
HETATM   16  C18 UNL     1      -3.790  -1.276   0.804  1.00  0.00     0.093 C 
HETATM   17  C19 UNL     1      -2.636  -1.272   1.522  1.00  0.00     0.024 C 
ENDROOT
BRANCH   1  18
HETATM   18  O2  UNL     1       1.171  -0.263   0.102  1.00  0.00    -0.351 OA
BRANCH  18  19
HETATM   19  C3  UNL     1       2.359   0.067  -0.566  1.00  0.00     0.201 C 
BRANCH  19  20
HETATM   20  C2  UNL     1       3.162  -1.192  -0.920  1.00  0.00     0.193 C 
BRANCH  20  21
HETATM   21  O1  UNL     1       4.334  -0.796  -1.584  1.00  0.00    -0.394 OA
HETATM   22  C1  UNL     1       5.107  -1.901  -1.932  1.00  0.00     0.201 C 
ENDBRANCH  20  21
ENDBRANCH  19  20
ENDBRANCH  18  19
ENDBRANCH   1  18
BRANCH   2  23
HETATM   23  C6  UNL     1       0.569   2.687  -0.772  1.00  0.00     0.204 C 
BRANCH  23  24
HETATM   24  O3  UNL     1       0.169   3.960  -0.443  1.00  0.00    -0.392 OA
HETATM   25  C7  UNL     1       0.151   4.262   0.893  1.00  0.00     0.201 C 
ENDBRANCH  23  24
ENDBRANCH   2  23
TORSDOF 6
