REMARK  0 active torsions:
REMARK  status: ('A' for Active; 'I' for Inactive)
ROOT
HETATM    1  C1  UNL     1      -1.536   2.807   0.431  1.00  0.00     0.027 C 
HETATM    2  C2  UNL     1      -0.991   1.465   0.229  1.00  0.00     0.026 C 
HETATM    3  C3  UNL     1      -0.586   0.863   1.628  1.00  0.00     0.142 C 
HETATM    4  N1  UNL     1       0.552  -0.090   1.446  1.00  0.00    -0.370 N 
HETATM    5  C4  UNL     1       0.911  -1.490   1.063  1.00  0.00     0.122 C 
HETATM    6  C5  UNL     1       0.321  -1.468  -0.163  1.00  0.00     0.101 C 
HETATM    7  C6  UNL     1      -0.917  -2.111   0.433  1.00  0.00     0.100 C 
HETATM    8  C7  UNL     1      -2.177  -2.459  -0.024  1.00  0.00     0.069 C 
HETATM    9  N2  UNL     1      -3.440  -2.700  -0.843  1.00  0.00    -0.387 N 
HETATM   10  C8  UNL     1      -3.570  -1.149  -0.663  1.00  0.00     0.052 A 
HETATM   11  C9  UNL     1      -3.268  -1.038  -1.977  1.00  0.00    -0.008 A 
HETATM   12  C10 UNL     1      -2.553  -0.230  -1.195  1.00  0.00     0.067 A 
HETATM   13  C11 UNL     1      -1.884   0.544  -0.335  1.00  0.00    -0.066 A 
HETATM   14  C12 UNL     1      -2.853  -0.323   0.210  1.00  0.00     0.067 A 
HETATM   15  C13 UNL     1      -3.773  -1.152   0.695  1.00  0.00    -0.008 A 
HETATM   16  O1  UNL     1       1.075  -0.919  -1.233  1.00  0.00    -0.243 OA
HETATM   17  N3  UNL     1       0.758   0.324  -1.784  1.00  0.00    -0.272 N 
HETATM   18  C14 UNL     1       1.409   1.430  -1.115  1.00  0.00     0.130 A 
HETATM   19  C15 UNL     1       0.334   1.529  -0.432  1.00  0.00     0.005 A 
HETATM   20  S1  UNL     1       1.665   2.139   0.674  1.00  0.00    -0.127 SA
HETATM   21  C16 UNL     1       1.744   0.651   1.809  1.00  0.00     0.166 C 
HETATM   22  C17 UNL     1       3.016   0.019   1.669  1.00  0.00     0.008 C 
HETATM   23  C18 UNL     1       4.107  -0.317   0.994  1.00  0.00    -0.001 C 
HETATM   24  C19 UNL     1       4.529  -0.033  -0.399  1.00  0.00    -0.004 C 
HETATM   25  C20 UNL     1       3.736   0.644  -1.216  1.00  0.00    -0.023 C 
HETATM   26  C21 UNL     1       2.657   1.392  -1.856  1.00  0.00     0.076 C 
HETATM   27  H9  UNL     1      -3.323  -3.763  -0.950  1.00  0.00     0.160 HD
HETATM   28  H14 UNL     1       0.196  -0.295  -2.408  1.00  0.00     0.190 HD
ENDROOT
TORSDOF 0
