REMARK  10 active torsions:
REMARK  status: ('A' for Active; 'I' for Inactive)
REMARK    1  A    between atoms: C7_7  and  N1_8 
REMARK    2  A    between atoms: N1_8  and  C8_9 
REMARK    3  A    between atoms: C10_12  and  O1_13 
REMARK    4  A    between atoms: O1_13  and  C11_14 
REMARK    5  A    between atoms: C11_14  and  C12_15 
REMARK    6  A    between atoms: C12_15  and  O2_16 
REMARK    7  A    between atoms: C14_18  and  O3_19 
REMARK    8  A    between atoms: O3_19  and  C15_20 
REMARK    9  A    between atoms: C15_20  and  C16_21 
REMARK   10  A    between atoms: C16_21  and  O4_22 
ROOT
HETATM    1  C1  UNL     1       9.087   0.811   0.290  1.00  0.00     0.018 C 
HETATM    2  C2  UNL     1       7.962   0.387   0.136  1.00  0.00    -0.078 C 
HETATM    3  C3  UNL     1       6.633  -0.136  -0.037  1.00  0.00     0.019 A 
HETATM    4  C4  UNL     1       6.452  -1.454  -0.390  1.00  0.00     0.021 A 
HETATM    5  C5  UNL     1       5.170  -1.960  -0.558  1.00  0.00     0.004 A 
HETATM    6  C6  UNL     1       4.135  -1.078  -0.353  1.00  0.00     0.029 A 
HETATM    7  C7  UNL     1       4.224   0.240  -0.002  1.00  0.00     0.035 A 
HETATM    8  C20 UNL     1       5.545   0.669   0.146  1.00  0.00     0.050 A 
ENDROOT
BRANCH   7   9
HETATM    9  N1  UNL     1       3.185   1.169   0.226  1.00  0.00    -0.341 N 
HETATM   10  H5  UNL     1       3.444   2.176   0.439  1.00  0.00     0.167 HD
BRANCH   9  11
HETATM   11  C8  UNL     1       1.811   0.900   0.194  1.00  0.00     0.123 A 
HETATM   12  N2  UNL     1       1.510  -0.270   0.569  1.00  0.00    -0.266 NA
HETATM   13  C9  UNL     1       0.365  -1.094   0.748  1.00  0.00     0.218 A 
HETATM   14  C10 UNL     1      -0.935  -0.472   0.423  1.00  0.00     0.099 A 
HETATM   15  C14 UNL     1      -1.239   0.736  -0.016  1.00  0.00     0.099 A 
HETATM   16  C18 UNL     1      -0.419   1.875  -0.335  1.00  0.00     0.043 A 
HETATM   17  C19 UNL     1       0.889   1.915  -0.234  1.00  0.00     0.053 A 
BRANCH  14  18
HETATM   18  O1  UNL     1      -1.824  -1.470   0.687  1.00  0.00    -0.349 OA
BRANCH  18  19
HETATM   19  C11 UNL     1      -3.091  -1.696   0.172  1.00  0.00     0.201 C 
BRANCH  19  20
HETATM   20  C12 UNL     1      -3.638  -3.067   0.541  1.00  0.00     0.193 C 
BRANCH  20  21
HETATM   21  O2  UNL     1      -2.861  -4.108   0.086  1.00  0.00    -0.394 OA
HETATM   22  C13 UNL     1      -2.723  -4.134  -1.279  1.00  0.00     0.201 C 
ENDBRANCH  20  21
ENDBRANCH  19  20
ENDBRANCH  18  19
ENDBRANCH  14  18
BRANCH  15  23
HETATM   23  O3  UNL     1      -2.598   0.889  -0.184  1.00  0.00    -0.346 OA
BRANCH  23  24
HETATM   24  C15 UNL     1      -3.224   2.157  -0.311  1.00  0.00     0.201 C 
BRANCH  24  25
HETATM   25  C16 UNL     1      -4.704   1.941  -0.341  1.00  0.00     0.193 C 
BRANCH  25  26
HETATM   26  O4  UNL     1      -5.464   3.072  -0.461  1.00  0.00    -0.394 OA
HETATM   27  C17 UNL     1      -5.329   4.008   0.530  1.00  0.00     0.201 C 
ENDBRANCH  25  26
ENDBRANCH  24  25
ENDBRANCH  23  24
ENDBRANCH  15  23
ENDBRANCH   9  11
ENDBRANCH   7   9
TORSDOF 10
