REMARK  2 active torsions:
REMARK  status: ('A' for Active; 'I' for Inactive)
REMARK    1  A    between atoms: C4_5  and  N1_6 
REMARK    2  A    between atoms: N1_6  and  C5_7 
ROOT
HETATM    1  C5  UNL     1      -0.834  -0.361  -0.257  1.00  0.00     0.158 A 
HETATM    2  N2  UNL     1      -1.116  -1.607  -0.652  1.00  0.00    -0.222 NA
HETATM    3  C6  UNL     1      -0.192  -2.524  -0.944  1.00  0.00     0.236 A 
HETATM    4  N3  UNL     1       1.125  -2.267  -0.866  1.00  0.00    -0.239 NA
HETATM    5  C7  UNL     1       1.488  -1.022  -0.471  1.00  0.00     0.099 A 
HETATM    6  C8  UNL     1       0.508  -0.099  -0.177  1.00  0.00     0.105 A 
HETATM    7  N4  UNL     1       1.038   1.151   0.217  1.00  0.00    -0.381 N 
HETATM    8  C9  UNL     1       2.416   1.575   0.352  1.00  0.00     0.159 A 
HETATM    9  C10 UNL     1       3.376   0.495   0.008  1.00  0.00    -0.027 A 
HETATM   10  C11 UNL     1       4.701   0.829   0.111  1.00  0.00     0.028 A 
HETATM   11  C12 UNL     1       5.642  -0.153  -0.203  1.00  0.00     0.011 A 
HETATM   12 BR1  UNL     1       7.537   0.159  -0.107  1.00  0.00    -0.051 Br
HETATM   13  C13 UNL     1       5.207  -1.417  -0.603  1.00  0.00     0.020 A 
HETATM   14  C14 UNL     1       3.864  -1.695  -0.689  1.00  0.00     0.016 A 
HETATM   15  C15 UNL     1       2.914  -0.742  -0.385  1.00  0.00     0.003 A 
HETATM   16  H5  UNL     1       0.425   1.942   0.465  1.00  0.00     0.160 HD
ENDROOT
BRANCH   1  17
HETATM   17  N1  UNL     1      -1.760   0.639   0.062  1.00  0.00    -0.339 N 
HETATM   18  H3  UNL     1      -1.454   1.565   0.365  1.00  0.00     0.167 HD
BRANCH  17  19
HETATM   19  C4  UNL     1      -3.174   0.554   0.025  1.00  0.00     0.035 A 
HETATM   20  C3  UNL     1      -3.859  -0.537  -0.403  1.00  0.00     0.032 A 
HETATM   21  C2  UNL     1      -5.227  -0.638  -0.443  1.00  0.00     0.046 A 
HETATM   22  C1  UNL     1      -6.014   0.418  -0.030  1.00  0.00     0.138 A 
HETATM   23  F1  UNL     1      -7.366   0.417  -0.032  1.00  0.00    -0.204 F 
HETATM   24  C17 UNL     1      -5.375   1.541   0.410  1.00  0.00     0.074 A 
HETATM   25  C16 UNL     1      -4.001   1.580   0.426  1.00  0.00     0.056 A 
HETATM   26 CL1  UNL     1      -6.306   2.921   0.950  1.00  0.00    -0.081 Cl
ENDBRANCH  17  19
ENDBRANCH   1  17
TORSDOF 2
