REMARK  8 active torsions:
REMARK  status: ('A' for Active; 'I' for Inactive)
REMARK    1  A    between atoms: C2_2  and  O1_3 
REMARK    2  A    between atoms: O1_3  and  C3_4 
REMARK    3  A    between atoms: C16_20  and  C17_21 
REMARK    4  A    between atoms: C16_20  and  O4_27 
REMARK    5  A    between atoms: C17_21  and  O2_22 
REMARK    6  A    between atoms: O2_22  and  C18_23 
REMARK    7  A    between atoms: C18_23  and  C19_24 
REMARK    8  A    between atoms: C19_24  and  O3_25 
ROOT
HETATM    1  C3  UNL     1      -0.896   2.586   0.214  1.00  0.00     0.167 C 
HETATM    2  C4  UNL     1      -0.217   1.653  -0.409  1.00  0.00     0.092 C 
HETATM    3  N1  UNL     1       0.516   2.701  -0.943  1.00  0.00    -0.242 NA
HETATM    4  C5  UNL     1       1.786   2.783  -1.180  1.00  0.00     0.205 C 
HETATM    5  N2  UNL     1       2.603   1.648  -0.860  1.00  0.00    -0.355 N 
HETATM    6  C6  UNL     1       3.264   0.423  -1.100  1.00  0.00     0.326 C 
HETATM    7  C7  UNL     1       3.772  -0.106   0.260  1.00  0.00     0.084 C 
HETATM    8  C8  UNL     1       5.014  -0.886   0.083  1.00  0.00    -0.023 C 
HETATM    9  C9  UNL     1       5.643  -1.599  -0.842  1.00  0.00    -0.004 C 
HETATM   10  C10 UNL     1       5.276  -1.915  -2.220  1.00  0.00    -0.003 C 
HETATM   11  C11 UNL     1       4.326  -1.633  -3.103  1.00  0.00     0.003 C 
HETATM   12  C12 UNL     1       3.086  -0.811  -3.147  1.00  0.00     0.303 C 
HETATM   13  N3  UNL     1       2.576  -0.641  -1.806  1.00  0.00     0.118 NA
HETATM   14  C13 UNL     1       1.276  -0.354  -1.781  1.00  0.00     0.304 C 
HETATM   15  C14 UNL     1       0.193  -0.625  -0.883  1.00  0.00     0.020 C 
HETATM   16  C15 UNL     1      -0.544   0.253  -0.215  1.00  0.00     0.026 C 
HETATM   17  C16 UNL     1      -1.627  -0.016   0.683  1.00  0.00     0.080 C 
HETATM   18  H8  UNL     1       2.716   2.092   0.109  1.00  0.00     0.162 HD
ENDROOT
BRANCH  17  19
HETATM   19  C17 UNL     1      -1.933  -1.260   0.878  1.00  0.00     0.040 C 
BRANCH  19  20
HETATM   20  O2  UNL     1      -2.394  -2.498   1.205  1.00  0.00     0.000 OA
BRANCH  20  21
HETATM   21  C18 UNL     1      -3.577  -2.590   2.013  1.00  0.00     0.028 C 
BRANCH  21  22
HETATM   22  C19 UNL     1      -3.700  -4.027   2.456  1.00  0.00     0.167 C 
BRANCH  22  23
HETATM   23  O3  UNL     1      -4.858  -4.089   3.243  1.00  0.00    -0.396 OA
HETATM   24  C20 UNL     1      -5.026  -5.379   3.684  1.00  0.00     0.201 C 
ENDBRANCH  22  23
ENDBRANCH  21  22
ENDBRANCH  20  21
ENDBRANCH  19  20
ENDBRANCH  17  19
BRANCH  17  25
HETATM   25  O4  UNL     1      -2.458   0.756   1.419  1.00  0.00    -0.355 OA
HETATM   26  C21 UNL     1      -3.828   1.008   1.138  1.00  0.00     0.210 C 
ENDBRANCH  17  25
BRANCH   1  27
HETATM   27  O1  UNL     1      -1.145   3.892   0.506  1.00  0.00    -0.361 OA
BRANCH  27  28
HETATM   28  C2  UNL     1      -0.969   4.993  -0.381  1.00  0.00     0.170 C 
HETATM   29  C1  UNL     1      -1.291   6.272   0.354  1.00  0.00     0.034 C 
ENDBRANCH  27  28
ENDBRANCH   1  27
TORSDOF 8
