REMARK  2 active torsions:
REMARK  status: ('A' for Active; 'I' for Inactive)
REMARK    1  A    between atoms: C3_4  and  C4_5 
REMARK    2  A    between atoms: C7_11  and  C8_12 
ROOT
HETATM    1  C4  UNL     1       1.206  -2.185  -0.502  1.00  0.00     0.077 A 
HETATM    2  N1  UNL     1       0.987  -3.057  -1.578  1.00  0.00    -0.259 NA
HETATM    3  C5  UNL     1      -0.271  -3.244  -1.854  1.00  0.00     0.178 A 
HETATM    4  S1  UNL     1      -1.591  -2.556  -1.017  1.00  0.00    -0.091 SA
HETATM    5  C6  UNL     1      -0.133  -1.740  -0.016  1.00  0.00     0.117 A 
HETATM    6  N2  UNL     1      -1.066  -0.944   0.641  1.00  0.00    -0.239 NA
HETATM    7  C7  UNL     1      -1.770  -0.033  -0.243  1.00  0.00     0.070 C 
HETATM    8  C14 UNL     1      -2.201  -0.439  -1.724  1.00  0.00     0.053 C 
HETATM    9  P1  UNL     1      -2.249  -2.325  -1.777  1.00  0.00     0.017 P 
ENDROOT
BRANCH   7  10
HETATM   10  C8  UNL     1      -2.079   1.332   0.275  1.00  0.00    -0.007 A 
HETATM   11  C9  UNL     1      -2.729   2.342  -0.346  1.00  0.00     0.015 A 
HETATM   12  C10 UNL     1      -2.913   3.538   0.295  1.00  0.00     0.020 A 
HETATM   13  C11 UNL     1      -2.459   3.757   1.560  1.00  0.00     0.011 A 
HETATM   14 BR1  UNL     1      -2.765   5.456   2.367  1.00  0.00    -0.051 Br
HETATM   15  C12 UNL     1      -1.811   2.718   2.154  1.00  0.00     0.020 A 
HETATM   16  C13 UNL     1      -1.612   1.525   1.550  1.00  0.00     0.015 A 
ENDBRANCH   7  10
BRANCH   1  17
HETATM   17  C3  UNL     1       2.156  -1.501   0.391  1.00  0.00     0.087 A 
HETATM   18  C2  UNL     1       3.170  -2.563   0.756  1.00  0.00     0.012 A 
HETATM   19  C1  UNL     1       4.285  -2.079   0.269  1.00  0.00     0.031 A 
HETATM   20 CL1  UNL     1       5.783  -2.991   0.455  1.00  0.00    -0.085 Cl
HETATM   21  C16 UNL     1       4.213  -0.796  -0.405  1.00  0.00     0.020 A 
HETATM   22  C15 UNL     1       2.937  -0.467  -0.323  1.00  0.00    -0.010 A 
ENDBRANCH   1  17
TORSDOF 2
