REMARK  6 active torsions:
REMARK  status: ('A' for Active; 'I' for Inactive)
REMARK    1  A    between atoms: C6_7  and  C7_8 
REMARK    2  A    between atoms: C9_10  and  C10_11 
REMARK    3  A    between atoms: C10_11  and  O1_12 
REMARK    4  A    between atoms: C13_16  and  C14_17 
REMARK    5  A    between atoms: C14_17  and  O3_18 
REMARK    6  A    between atoms: C16_20  and  O4_21 
ROOT
HETATM    1  C1  UNL     1       6.554  -2.942   1.653  1.00  0.00     0.017 C 
HETATM    2  C2  UNL     1       5.986  -2.091   1.021  1.00  0.00    -0.082 C 
HETATM    3  C3  UNL     1       5.327  -1.072   0.257  1.00  0.00    -0.007 A 
HETATM    4  C4  UNL     1       5.876  -0.171  -0.512  1.00  0.00    -0.020 A 
HETATM    5  C5  UNL     1       5.867   0.974  -1.429  1.00  0.00    -0.024 A 
HETATM    6  B1  UNL     1       4.158   1.563  -1.578  1.00  0.00     0.184 B 
HETATM    7  C6  UNL     1       3.225   0.098  -0.371  1.00  0.00    -0.097 A 
HETATM    8  C20 UNL     1       3.846  -1.039   0.337  1.00  0.00     0.071 A 
ENDROOT
BRANCH   7   9
HETATM    9  C7  UNL     1       1.781   0.265  -0.256  1.00  0.00     0.024 C 
HETATM   10  C8  UNL     1       1.085   1.354   0.069  1.00  0.00     0.036 C 
HETATM   11  C9  UNL     1      -0.330   1.689   0.231  1.00  0.00    -0.023 C 
HETATM   12  C12 UNL     1      -1.082   0.612  -0.013  1.00  0.00     0.187 C 
HETATM   13  O2  UNL     1      -2.318   0.185  -0.060  1.00  0.00    -0.364 OA
HETATM   14  C13 UNL     1      -3.258  -0.523  -0.710  1.00  0.00     0.204 C 
HETATM   15  C16 UNL     1      -2.873  -1.930  -0.953  1.00  0.00     0.094 C 
HETATM   16  C18 UNL     1      -1.925  -2.829  -1.044  1.00  0.00     0.152 C 
HETATM   17  N1  UNL     1      -0.874  -1.942  -0.779  1.00  0.00    -0.254 NA
HETATM   18  C19 UNL     1       0.372  -2.130  -0.975  1.00  0.00     0.207 C 
HETATM   19  N2  UNL     1       1.081  -0.942  -0.559  1.00  0.00    -0.351 N 
HETATM   20  H23 UNL     1       1.092  -0.602  -1.579  1.00  0.00     0.166 HD
BRANCH  11  21
HETATM   21  C10 UNL     1      -0.375   3.160   0.623  1.00  0.00     0.204 C 
BRANCH  21  22
HETATM   22  O1  UNL     1       0.339   3.266   1.805  1.00  0.00    -0.392 OA
HETATM   23  C11 UNL     1       0.364   4.570   2.256  1.00  0.00     0.201 C 
ENDBRANCH  21  22
ENDBRANCH  11  21
BRANCH  14  24
HETATM   24  C14 UNL     1      -4.630  -0.471  -0.033  1.00  0.00     0.205 C 
BRANCH  24  25
HETATM   25  O3  UNL     1      -5.084   0.812   0.074  1.00  0.00    -0.393 OA
HETATM   26  C15 UNL     1      -5.274   1.526  -1.069  1.00  0.00     0.201 C 
ENDBRANCH  24  25
ENDBRANCH  14  24
BRANCH  15  27
HETATM   27  O4  UNL     1      -4.026  -2.694  -1.221  1.00  0.00    -0.356 OA
HETATM   28  C17 UNL     1      -4.436  -3.773  -0.403  1.00  0.00     0.209 C 
ENDBRANCH  15  27
ENDBRANCH   7   9
TORSDOF 6
