REMARK  5 active torsions:
REMARK  status: ('A' for Active; 'I' for Inactive)
REMARK    1  A    between atoms: C2_2  and  C20_25 
REMARK    2  A    between atoms: C7_7  and  C9_9 
REMARK    3  A    between atoms: C11_12  and  N2_14 
REMARK    4  A    between atoms: C12_16  and  C13_17 
REMARK    5  A    between atoms: C16_20  and  O1_21 
ROOT
HETATM    1  N2  UNL     1      -0.255  -1.034   0.703  1.00  0.00    -0.240 N 
HETATM    2  N3  UNL     1       1.028  -1.103   0.134  1.00  0.00    -0.174 NA
HETATM    3  C12 UNL     1       1.583   0.062   0.422  1.00  0.00     0.067 C 
HETATM    4  C19 UNL     1       0.648   0.954   1.209  1.00  0.00     0.090 C 
HETATM    5  C20 UNL     1      -0.686   0.279   0.962  1.00  0.00     0.126 C 
ENDROOT
BRANCH   3   6
HETATM    6  C13 UNL     1       2.953   0.459   0.025  1.00  0.00    -0.010 A 
HETATM    7  C14 UNL     1       3.434   1.690   0.387  1.00  0.00     0.016 A 
HETATM    8  C15 UNL     1       4.706   2.094   0.032  1.00  0.00     0.037 A 
HETATM    9  C16 UNL     1       5.452   1.151  -0.719  1.00  0.00     0.065 A 
HETATM   10  C17 UNL     1       5.048  -0.097  -1.120  1.00  0.00     0.037 A 
HETATM   11  C18 UNL     1       3.741  -0.411  -0.708  1.00  0.00     0.016 A 
BRANCH   9  12
HETATM   12  O1  UNL     1       6.727   1.583  -1.064  1.00  0.00    -0.361 OA
HETATM   13  H12 UNL     1       7.025   2.527  -1.067  1.00  0.00     0.217 HD
ENDBRANCH   9  12
ENDBRANCH   3   6
BRANCH   1  14
HETATM   14  C11 UNL     1      -0.567  -2.437   0.789  1.00  0.00     0.190 A 
HETATM   15  S1  UNL     1      -0.908  -4.218   0.911  1.00  0.00    -0.020 SA
HETATM   16  C10 UNL     1      -2.823  -4.200   0.515  1.00  0.00     0.091 A 
HETATM   17  N1  UNL     1      -1.614  -2.596   0.588  1.00  0.00    -0.265 N 
HETATM   18  C9  UNL     1      -2.775  -2.791   0.368  1.00  0.00     0.042 A 
BRANCH  18  19
HETATM   19  C7  UNL     1      -3.229  -1.441   0.125  1.00  0.00     0.018 A 
HETATM   20  C6  UNL     1      -4.632  -1.465   0.042  1.00  0.00    -0.015 A 
HETATM   21  C5  UNL     1      -5.079  -0.159  -0.099  1.00  0.00    -0.003 A 
HETATM   22  C4  UNL     1      -4.267   0.984  -0.151  1.00  0.00     0.003 A 
HETATM   23  C3  UNL     1      -2.915   1.009  -0.072  1.00  0.00    -0.068 A 
HETATM   24  C2  UNL     1      -1.451   1.137   0.014  1.00  0.00     0.037 A 
HETATM   25  C8  UNL     1      -2.508  -0.205   0.070  1.00  0.00     0.086 A 
HETATM   26  C1  UNL     1      -0.806   1.285  -1.350  1.00  0.00     0.017 C 
ENDBRANCH  18  19
ENDBRANCH   1  14
TORSDOF 5
