REMARK  4 active torsions:
REMARK  status: ('A' for Active; 'I' for Inactive)
REMARK    1  A    between atoms: C2_2  and  C3_3 
REMARK    2  A    between atoms: C3_3  and  C5_5 
REMARK    3  A    between atoms: N1_12  and  N2_13 
REMARK    4  A    between atoms: N3_14  and  C11_15 
ROOT
HETATM    1  C5  UNL     1      -2.197   0.563   0.367  1.00  0.00     0.006 C 
HETATM    2  C6  UNL     1      -1.475  -0.225  -0.365  1.00  0.00     0.046 C 
HETATM    3  C7  UNL     1      -1.997  -1.443  -1.039  1.00  0.00     0.233 C 
HETATM    4  O1  UNL     1      -0.966  -2.414  -1.302  1.00  0.00    -0.348 OA
HETATM    5  C8  UNL     1       0.424  -2.180  -1.496  1.00  0.00     0.061 C 
HETATM    6  C9  UNL     1       0.886  -1.241  -2.362  1.00  0.00     0.056 C 
HETATM    7  C10 UNL     1       1.091  -0.186  -1.302  1.00  0.00     0.245 C 
HETATM    8  N1  UNL     1      -0.070   0.110  -0.524  1.00  0.00    -0.289 N 
HETATM    9  N3  UNL     1       2.233  -0.675  -0.557  1.00  0.00    -0.284 N 
HETATM   10  N4  UNL     1       2.461  -2.023  -0.209  1.00  0.00    -0.229 NA
HETATM   11  C17 UNL     1       1.512  -2.950  -0.756  1.00  0.00     0.175 C 
HETATM   12  H20 UNL     1       2.503  -2.103   0.831  1.00  0.00     0.147 HD
ENDROOT
BRANCH   9  13
HETATM   13  C11 UNL     1       3.282   0.179  -0.091  1.00  0.00     0.050 A 
HETATM   14  C12 UNL     1       3.354   1.518  -0.412  1.00  0.00     0.034 A 
HETATM   15  C13 UNL     1       4.338   2.377   0.014  1.00  0.00     0.046 A 
HETATM   16  C14 UNL     1       5.345   1.900   0.824  1.00  0.00     0.138 A 
HETATM   17  F1  UNL     1       6.333   2.697   1.271  1.00  0.00    -0.204 F 
HETATM   18  C15 UNL     1       5.327   0.572   1.178  1.00  0.00     0.074 A 
HETATM   19 CL1  UNL     1       6.581  -0.078   2.203  1.00  0.00    -0.081 Cl
HETATM   20  C16 UNL     1       4.313  -0.215   0.712  1.00  0.00     0.057 A 
ENDBRANCH   9  13
BRANCH   8  21
HETATM   21  N2  UNL     1       0.432   1.073   0.377  1.00  0.00    -0.245 NA
HETATM   22  H15 UNL     1       0.194   2.037   0.145  1.00  0.00     0.143 HD
HETATM   23  H16 UNL     1       0.225   0.794   1.356  1.00  0.00     0.143 HD
ENDBRANCH   8  21
BRANCH   1  24
HETATM   24  C3  UNL     1      -3.468   0.943   0.976  1.00  0.00     0.006 C 
HETATM   25  C4  UNL     1      -3.393   0.957   2.499  1.00  0.00     0.014 C 
BRANCH  24  26
HETATM   26  C2  UNL     1      -4.605   0.067   0.498  1.00  0.00     0.003 C 
HETATM   27  C1  UNL     1      -4.660   0.118  -1.010  1.00  0.00     0.006 C 
ENDBRANCH  24  26
ENDBRANCH   1  24
TORSDOF 4
