REMARK  7 active torsions:
REMARK  status: ('A' for Active; 'I' for Inactive)
REMARK    1  A    between atoms: C3_3  and  O1_4 
REMARK    2  A    between atoms: O1_4  and  C4_5 
REMARK    3  A    between atoms: C4_5  and  C5_6 
REMARK    4  A    between atoms: C5_6  and  C6_7 
REMARK    5  A    between atoms: C6_7  and  C7_8 
REMARK    6  A    between atoms: C7_8  and  C8_9 
REMARK    7  A    between atoms: N2_11  and  C9_12 
ROOT
HETATM    1  C8  UNL     1      -0.448  -0.745   0.308  1.00  0.00     0.035 A 
HETATM    2  N1  UNL     1      -1.725  -0.674   0.243  1.00  0.00    -0.179 NA
HETATM    3  N2  UNL     1      -2.117   0.118  -0.847  1.00  0.00    -0.247 N 
HETATM    4  C15 UNL     1      -0.929   0.522  -1.610  1.00  0.00     0.159 A 
HETATM    5  C16 UNL     1       0.195   0.019  -0.771  1.00  0.00     0.078 A 
ENDROOT
BRANCH   1   6
HETATM    6  C7  UNL     1       0.448  -1.449   1.262  1.00  0.00     0.074 C 
BRANCH   6   7
HETATM    7  C6  UNL     1       1.330  -0.485   1.950  1.00  0.00     0.075 C 
BRANCH   7   8
HETATM    8  C5  UNL     1       2.369  -0.020   1.275  1.00  0.00    -0.141 C 
BRANCH   8   9
HETATM    9  C4  UNL     1       3.421   0.206   0.500  1.00  0.00     0.234 C 
BRANCH   9  10
HETATM   10  O1  UNL     1       4.474  -0.679   0.631  1.00  0.00    -0.343 OA
BRANCH  10  11
HETATM   11  C3  UNL     1       5.557  -0.440   1.445  1.00  0.00     0.132 C 
HETATM   12  C2  UNL     1       6.768  -0.088   1.045  1.00  0.00    -0.007 C 
HETATM   13  C1  UNL     1       7.029   0.076  -0.391  1.00  0.00     0.038 C 
ENDBRANCH  10  11
ENDBRANCH   9  10
ENDBRANCH   8   9
ENDBRANCH   7   8
ENDBRANCH   6   7
ENDBRANCH   1   6
BRANCH   3  14
HETATM   14  C9  UNL     1      -3.474   0.482  -1.173  1.00  0.00     0.170 A 
HETATM   15  N3  UNL     1      -3.934   1.603  -1.441  1.00  0.00    -0.247 NA
HETATM   16  C10 UNL     1      -5.249   1.094  -1.621  1.00  0.00     0.189 A 
HETATM   17  C11 UNL     1      -6.119   1.592  -0.524  1.00  0.00     0.008 C 
HETATM   18  S1  UNL     1      -5.013  -0.490  -1.324  1.00  0.00    -0.128 SA
HETATM   19  C12 UNL     1      -6.480   0.885   0.516  1.00  0.00    -0.002 C 
HETATM   20  C13 UNL     1      -5.926  -0.444   0.468  1.00  0.00     0.068 A 
HETATM   21  C14 UNL     1      -5.276  -1.525   0.029  1.00  0.00     0.035 A 
ENDBRANCH   3  14
TORSDOF 7
