REMARK  6 active torsions:
REMARK  status: ('A' for Active; 'I' for Inactive)
REMARK    1  A    between atoms: C2_2  and  N1_3 
REMARK    2  A    between atoms: C3_5  and  C4_6 
REMARK    3  A    between atoms: C7_9  and  O1_10 
REMARK    4  A    between atoms: C12_15  and  C13_16 
REMARK    5  A    between atoms: C14_17  and  C15_18 
REMARK    6  A    between atoms: C16_19  and  C17_20 
ROOT
HETATM    1  N1  UNL     1      -1.332  -1.566  -0.595  1.00  0.00    -0.273 N 
HETATM    2  N2  UNL     1      -0.071  -0.978  -0.861  1.00  0.00    -0.176 NA
HETATM    3  C3  UNL     1       0.661  -0.929   0.191  1.00  0.00     0.067 C 
HETATM    4  C11 UNL     1      -0.121  -1.528   1.318  1.00  0.00     0.093 C 
HETATM    5  C12 UNL     1      -1.522  -1.179   0.796  1.00  0.00     0.138 C 
ENDROOT
BRANCH   3   6
HETATM    6  C4  UNL     1       2.020  -0.388   0.287  1.00  0.00    -0.010 A 
HETATM    7  C5  UNL     1       2.604   0.131  -0.849  1.00  0.00     0.016 A 
HETATM    8  C6  UNL     1       3.888   0.644  -0.765  1.00  0.00     0.037 A 
HETATM    9  C7  UNL     1       4.565   0.631   0.444  1.00  0.00     0.068 A 
HETATM   10  C9  UNL     1       3.953   0.102   1.574  1.00  0.00     0.037 A 
HETATM   11  C10 UNL     1       2.679  -0.409   1.499  1.00  0.00     0.016 A 
BRANCH   9  12
HETATM   12  O1  UNL     1       5.845   1.103   0.689  1.00  0.00    -0.356 OA
HETATM   13  C8  UNL     1       6.580   1.667  -0.373  1.00  0.00     0.210 C 
ENDBRANCH   9  12
ENDBRANCH   3   6
BRANCH   1  14
HETATM   14  C2  UNL     1      -1.971  -2.290  -1.668  1.00  0.00     0.103 C 
HETATM   15  C1  UNL     1      -2.266  -1.759  -2.826  1.00  0.00     0.031 C 
ENDBRANCH   1  14
BRANCH   5  16
HETATM   16  C13 UNL     1      -1.629   0.308   0.930  1.00  0.00     0.001 C 
HETATM   17  C14 UNL     1      -2.798   0.863   0.663  1.00  0.00    -0.002 C 
BRANCH  17  18
HETATM   18  C15 UNL     1      -3.917   0.057   0.258  1.00  0.00    -0.003 C 
HETATM   19  C16 UNL     1      -5.096   0.538  -0.021  1.00  0.00    -0.012 C 
BRANCH  19  20
HETATM   20  C17 UNL     1      -5.593   1.932  -0.006  1.00  0.00     0.141 C 
HETATM   21 CL1  UNL     1      -6.155   2.351  -1.658  1.00  0.00    -0.126 Cl
ENDBRANCH  19  20
ENDBRANCH  17  18
ENDBRANCH   5  16
TORSDOF 6
