REMARK  4 active torsions:
REMARK  status: ('A' for Active; 'I' for Inactive)
REMARK    1  A    between atoms: C2_2  and  O1_3 
REMARK    2  A    between atoms: O1_3  and  C3_4 
REMARK    3  A    between atoms: N2_11  and  C9_12 
REMARK    4  A    between atoms: C10_14  and  C11_15 
ROOT
HETATM    1  C3  UNL     1      -3.618   0.320  -0.142  1.00  0.00     0.166 A 
HETATM    2  C4  UNL     1      -3.454   0.146   1.307  1.00  0.00     0.007 A 
HETATM    3  C5  UNL     1      -2.457  -0.587   1.701  1.00  0.00     0.003 A 
HETATM    4  C6  UNL     1      -1.333  -1.370   0.973  1.00  0.00     0.073 A 
HETATM    5  C7  UNL     1      -1.518  -1.157  -0.485  1.00  0.00     0.003 A 
HETATM    6  C8  UNL     1      -2.552  -0.396  -0.928  1.00  0.00     0.007 A 
HETATM    7  N1  UNL     1      -0.159  -0.673   1.433  1.00  0.00    -0.206 NA
HETATM    8  N2  UNL     1       1.003  -0.724   0.723  1.00  0.00    -0.207 N 
HETATM    9  C18 UNL     1       0.742  -1.948   0.488  1.00  0.00     0.037 C 
HETATM   10  C19 UNL     1       0.496  -3.001   0.290  1.00  0.00    -0.030 C 
HETATM   11  C20 UNL     1       0.173  -4.278   0.054  1.00  0.00     0.085 C 
HETATM   12 CL1  UNL     1       0.459  -5.794  -0.560  1.00  0.00    -0.075 Cl
HETATM   13  C21 UNL     1      -0.994  -3.935   0.732  1.00  0.00     0.013 C 
HETATM   14  C22 UNL     1      -1.588  -2.755   1.393  1.00  0.00     0.038 C 
HETATM   15  C23 UNL     1      -3.116  -2.982   1.372  1.00  0.00     0.017 C 
HETATM   16  H11 UNL     1      -0.419   0.329   1.593  1.00  0.00     0.149 HD
ENDROOT
BRANCH   8  17
HETATM   17  C9  UNL     1       2.105   0.123   0.319  1.00  0.00     0.196 A 
HETATM   18  N3  UNL     1       3.062   0.456  -0.154  1.00  0.00    -0.222 NA
HETATM   19  C10 UNL     1       3.625   1.638  -0.135  1.00  0.00     0.076 A 
HETATM   20  C17 UNL     1       2.977   2.647   0.557  1.00  0.00     0.086 A 
HETATM   21  S1  UNL     1       1.483   1.714   1.172  1.00  0.00    -0.059 SA
BRANCH  19  22
HETATM   22  C11 UNL     1       4.890   1.829  -0.836  1.00  0.00    -0.007 A 
HETATM   23  C12 UNL     1       5.466   3.079  -0.805  1.00  0.00     0.014 A 
HETATM   24  C13 UNL     1       6.656   3.341  -1.438  1.00  0.00     0.001 A 
HETATM   25  C14 UNL     1       7.346   2.377  -2.142  1.00  0.00     0.000 A 
HETATM   26  C15 UNL     1       6.809   1.111  -2.201  1.00  0.00     0.001 A 
HETATM   27  C16 UNL     1       5.617   0.900  -1.551  1.00  0.00     0.014 A 
ENDBRANCH  19  22
ENDBRANCH   8  17
BRANCH   1  28
HETATM   28  O1  UNL     1      -3.618   1.684  -0.491  1.00  0.00    -0.379 OA
BRANCH  28  29
HETATM   29  C2  UNL     1      -4.800   2.059  -1.086  1.00  0.00     0.164 C 
HETATM   30  C1  UNL     1      -5.119   1.344  -2.367  1.00  0.00     0.033 C 
ENDBRANCH  28  29
ENDBRANCH   1  28
TORSDOF 4
