REMARK  5 active torsions:
REMARK  status: ('A' for Active; 'I' for Inactive)
REMARK    1  A    between atoms: O1_2  and  C2_3 
REMARK    2  A    between atoms: C5_6  and  C6_7 
REMARK    3  A    between atoms: C7_10  and  N3_11 
REMARK    4  A    between atoms: C7_10  and  C8_12 
REMARK    5  A    between atoms: C14_18  and  C15_19 
ROOT
HETATM    1  C6  UNL     1       0.836   0.417   0.344  1.00  0.00     0.061 C 
HETATM    2  N1  UNL     1       0.083   0.446   1.406  1.00  0.00    -0.199 NA
HETATM    3  N2  UNL     1      -1.253   0.625   1.099  1.00  0.00    -0.144 NA
HETATM    4  C7  UNL     1      -2.492   0.504   0.258  1.00  0.00     0.284 A 
HETATM    5  C14 UNL     1      -1.320  -0.079  -0.264  1.00  0.00     0.125 A 
HETATM    6  C21 UNL     1      -0.099   0.605  -0.835  1.00  0.00     0.098 C 
ENDROOT
BRANCH   4   7
HETATM    7  N3  UNL     1      -3.402  -0.444   0.951  1.00  0.00     0.111 N 
HETATM    8  H6  UNL     1      -3.486  -0.226   1.951  1.00  0.00     0.316 HD
HETATM    9  H7  UNL     1      -4.282  -0.446   0.406  1.00  0.00     0.316 HD
ENDBRANCH   4   7
BRANCH   4  10
HETATM   10  C8  UNL     1      -3.192   1.709  -0.164  1.00  0.00    -0.001 A 
HETATM   11  C9  UNL     1      -4.244   2.182   0.633  1.00  0.00     0.011 A 
HETATM   12  C10 UNL     1      -5.007   3.296   0.362  1.00  0.00     0.001 A 
HETATM   13  C11 UNL     1      -4.731   4.018  -0.780  1.00  0.00     0.000 A 
HETATM   14  C12 UNL     1      -3.713   3.622  -1.621  1.00  0.00     0.001 A 
HETATM   15  C13 UNL     1      -3.000   2.497  -1.276  1.00  0.00     0.011 A 
ENDBRANCH   4  10
BRANCH   5  16
HETATM   16  C15 UNL     1      -1.141  -1.544  -0.145  1.00  0.00    -0.029 A 
HETATM   17  C16 UNL     1      -1.654  -2.137  -1.300  1.00  0.00     0.011 A 
HETATM   18  C17 UNL     1      -1.642  -3.511  -1.501  1.00  0.00     0.019 A 
HETATM   19  C18 UNL     1      -1.100  -4.345  -0.520  1.00  0.00     0.011 A 
HETATM   20 BR1  UNL     1      -1.006  -6.245  -0.638  1.00  0.00    -0.051 Br
HETATM   21  C19 UNL     1      -0.602  -3.742   0.607  1.00  0.00     0.019 A 
HETATM   22  C20 UNL     1      -0.615  -2.393   0.803  1.00  0.00     0.011 A 
ENDBRANCH   5  16
BRANCH   1  23
HETATM   23  C5  UNL     1       2.275   0.249   0.251  1.00  0.00    -0.010 A 
HETATM   24  C4  UNL     1       2.948   0.237  -0.937  1.00  0.00     0.016 A 
HETATM   25  C3  UNL     1       4.333   0.070  -0.939  1.00  0.00     0.037 A 
HETATM   26  C2  UNL     1       5.026  -0.083   0.247  1.00  0.00     0.068 A 
HETATM   27  C23 UNL     1       4.341  -0.070   1.439  1.00  0.00     0.037 A 
HETATM   28  C22 UNL     1       2.972   0.096   1.432  1.00  0.00     0.016 A 
BRANCH  26  29
HETATM   29  O1  UNL     1       6.384  -0.239   0.116  1.00  0.00    -0.356 OA
HETATM   30  C1  UNL     1       7.290  -0.410   1.166  1.00  0.00     0.210 C 
ENDBRANCH  26  29
ENDBRANCH   1  23
TORSDOF 5
