REMARK  3 active torsions:
REMARK  status: ('A' for Active; 'I' for Inactive)
REMARK    1  A    between atoms: O1_2  and  C2_3 
REMARK    2  A    between atoms: C12_13  and  C13_14 
REMARK    3  A    between atoms: C16_17  and  O2_18 
ROOT
HETATM    1  C2  UNL     1      -2.763  -0.121   0.336  1.00  0.00     0.068 C 
HETATM    2  C3  UNL     1      -2.788  -1.318   0.907  1.00  0.00     0.037 C 
HETATM    3  C4  UNL     1      -2.729  -2.667   1.394  1.00  0.00     0.017 C 
HETATM    4  C5  UNL     1      -1.462  -2.635   1.893  1.00  0.00     0.005 C 
HETATM    5  C6  UNL     1      -0.541  -2.321   1.030  1.00  0.00     0.068 C 
HETATM    6  C7  UNL     1      -1.200  -3.251   0.078  1.00  0.00     0.033 C 
HETATM    7  C8  UNL     1      -1.828  -2.566  -0.852  1.00  0.00     0.010 C 
HETATM    8  C9  UNL     1      -1.861  -1.124  -1.119  1.00  0.00    -0.050 C 
HETATM    9  C10 UNL     1      -2.133   0.142  -0.934  1.00  0.00     0.044 C 
HETATM   10  C11 UNL     1      -0.530  -0.939  -1.857  1.00  0.00     0.099 C 
HETATM   11  C12 UNL     1       0.499  -0.930  -0.726  1.00  0.00     0.049 C 
HETATM   12  N1  UNL     1       0.603  -1.757   0.324  1.00  0.00    -0.252 NA
ENDROOT
BRANCH  11  13
HETATM   13  C13 UNL     1       1.560   0.063  -0.619  1.00  0.00    -0.011 A 
HETATM   14  C14 UNL     1       1.668   1.036  -1.573  1.00  0.00     0.016 A 
HETATM   15  C15 UNL     1       2.647   2.015  -1.528  1.00  0.00     0.037 A 
HETATM   16  C16 UNL     1       3.590   2.059  -0.490  1.00  0.00     0.068 A 
HETATM   17  C18 UNL     1       3.453   1.069   0.446  1.00  0.00     0.037 A 
HETATM   18  C19 UNL     1       2.481   0.126   0.370  1.00  0.00     0.016 A 
BRANCH  16  19
HETATM   19  O2  UNL     1       4.575   3.021  -0.417  1.00  0.00    -0.356 OA
HETATM   20  C17 UNL     1       5.525   3.043   0.652  1.00  0.00     0.210 C 
ENDBRANCH  16  19
ENDBRANCH  11  13
BRANCH   1  21
HETATM   21  O1  UNL     1      -3.234   1.146   0.633  1.00  0.00    -0.356 OA
HETATM   22  C1  UNL     1      -4.662   1.217   0.768  1.00  0.00     0.210 C 
ENDBRANCH   1  21
TORSDOF 3
