REMARK  5 active torsions:
REMARK  status: ('A' for Active; 'I' for Inactive)
REMARK    1  A    between atoms: C2_2  and  C3_3 
REMARK    2  A    between atoms: C3_3  and  C4_4 
REMARK    3  A    between atoms: C4_4  and  C5_5 
REMARK    4  A    between atoms: C7_8  and  C8_9 
REMARK    5  A    between atoms: N3_14  and  C11_15 
ROOT
HETATM    1  C8  UNL     1       0.524   0.668  -0.378  1.00  0.00     0.147 A 
HETATM    2  C9  UNL     1       0.187   1.396   0.894  1.00  0.00     0.055 C 
HETATM    3  C10 UNL     1       1.053   1.515  -1.487  1.00  0.00     0.239 A 
HETATM    4  F1  UNL     1       2.173   2.237  -1.740  1.00  0.00    -0.184 F 
HETATM    5  N2  UNL     1       0.060   1.411  -2.311  1.00  0.00    -0.140 NA
HETATM    6  N3  UNL     1      -0.548   0.597  -1.347  1.00  0.00    -0.222 N 
ENDROOT
BRANCH   6   7
HETATM    7  C11 UNL     1      -1.766  -0.117  -1.211  1.00  0.00     0.191 A 
HETATM    8  N4  UNL     1      -2.841   0.031  -0.823  1.00  0.00    -0.222 NA
HETATM    9  C12 UNL     1      -3.865  -0.773  -0.779  1.00  0.00     0.076 A 
HETATM   10  C13 UNL     1      -5.194  -0.509  -0.272  1.00  0.00    -0.007 A 
HETATM   11  C19 UNL     1      -3.540  -2.110  -1.343  1.00  0.00     0.086 A 
HETATM   12  C14 UNL     1      -5.501   0.724   0.250  1.00  0.00     0.014 A 
HETATM   13  C18 UNL     1      -6.223  -1.411  -0.260  1.00  0.00     0.014 A 
HETATM   14  C15 UNL     1      -6.699   1.111   0.759  1.00  0.00     0.001 A 
HETATM   15  C16 UNL     1      -7.691   0.153   0.740  1.00  0.00     0.000 A 
HETATM   16  C17 UNL     1      -7.475  -1.109   0.236  1.00  0.00     0.001 A 
HETATM   17  S1  UNL     1      -1.728  -1.903  -1.839  1.00  0.00    -0.060 SA
ENDBRANCH   6   7
BRANCH   1  18
HETATM   18  C7  UNL     1       1.274  -0.604  -0.209  1.00  0.00     0.041 C 
HETATM   19  C6  UNL     1       2.566  -0.537   0.071  1.00  0.00     0.027 A 
HETATM   20  C5  UNL     1       3.812   0.110   0.338  1.00  0.00     0.131 A 
HETATM   21  N1  UNL     1       3.722  -1.368   0.326  1.00  0.00    -0.382 N 
HETATM   22  H9  UNL     1       4.239  -2.265   0.443  1.00  0.00     0.160 HD
BRANCH  20  23
HETATM   23  C4  UNL     1       4.744   0.606  -0.756  1.00  0.00     0.035 C 
BRANCH  23  24
HETATM   24  C3  UNL     1       6.113   0.009  -0.497  1.00  0.00     0.028 C 
BRANCH  24  25
HETATM   25  C2  UNL     1       6.566   0.467   0.840  1.00  0.00    -0.037 C 
HETATM   26  C1  UNL     1       6.864  -0.333   1.880  1.00  0.00     0.007 C 
ENDBRANCH  24  25
ENDBRANCH  23  24
ENDBRANCH  20  23
ENDBRANCH   1  18
TORSDOF 5
