REMARK  4 active torsions:
REMARK  status: ('A' for Active; 'I' for Inactive)
REMARK    1  A    between atoms: O1_2  and  C2_3 
REMARK    2  A    between atoms: C5_6  and  C6_7 
REMARK    3  A    between atoms: N2_11  and  C9_12 
REMARK    4  A    between atoms: C10_14  and  C11_15 
ROOT
HETATM    1  C6  UNL     1       1.333  -1.296   1.244  1.00  0.00     0.139 C 
HETATM    2  C7  UNL     1       1.652  -2.765   1.070  1.00  0.00     0.048 C 
HETATM    3  C8  UNL     1       1.267  -3.009  -0.358  1.00  0.00     0.113 C 
HETATM    4  N1  UNL     1       0.317  -1.965  -0.742  1.00  0.00    -0.235 NA
HETATM    5  N2  UNL     1       0.142  -1.212   0.421  1.00  0.00    -0.281 N 
HETATM    6  H11 UNL     1       0.781  -1.319  -1.449  1.00  0.00     0.146 HD
ENDROOT
BRANCH   5   7
HETATM    7  C9  UNL     1      -1.107  -0.518   0.611  1.00  0.00     0.184 A 
HETATM    8  N3  UNL     1      -2.099  -0.380   0.039  1.00  0.00    -0.222 NA
HETATM    9  C10 UNL     1      -3.134   0.348   0.463  1.00  0.00     0.076 A 
HETATM   10  C17 UNL     1      -2.944   1.032   1.815  1.00  0.00     0.085 A 
HETATM   11  S1  UNL     1      -1.228   0.466   2.230  1.00  0.00    -0.060 SA
BRANCH   9  12
HETATM   12  C11 UNL     1      -4.405   0.561  -0.205  1.00  0.00    -0.007 A 
HETATM   13  C12 UNL     1      -5.436   1.325   0.287  1.00  0.00     0.014 A 
HETATM   14  C13 UNL     1      -6.618   1.482  -0.408  1.00  0.00     0.001 A 
HETATM   15  C14 UNL     1      -6.819   0.876  -1.631  1.00  0.00     0.000 A 
HETATM   16  C15 UNL     1      -5.805   0.093  -2.169  1.00  0.00     0.001 A 
HETATM   17  C16 UNL     1      -4.650  -0.022  -1.425  1.00  0.00     0.014 A 
ENDBRANCH   9  12
ENDBRANCH   5   7
BRANCH   1  18
HETATM   18  C5  UNL     1       2.368  -0.401   0.671  1.00  0.00    -0.034 A 
HETATM   19  C4  UNL     1       1.959   0.868   0.282  1.00  0.00     0.012 A 
HETATM   20  C3  UNL     1       2.848   1.774  -0.261  1.00  0.00     0.037 A 
HETATM   21  C2  UNL     1       4.181   1.442  -0.435  1.00  0.00     0.068 A 
HETATM   22  C19 UNL     1       4.601   0.175  -0.049  1.00  0.00     0.037 A 
HETATM   23  C18 UNL     1       3.684  -0.696   0.488  1.00  0.00     0.012 A 
BRANCH  21  24
HETATM   24  O1  UNL     1       5.115   2.313  -0.976  1.00  0.00    -0.356 OA
HETATM   25  C1  UNL     1       6.481   1.945  -1.143  1.00  0.00     0.210 C 
ENDBRANCH  21  24
ENDBRANCH   1  18
TORSDOF 4
