REMARK  4 active torsions:
REMARK  status: ('A' for Active; 'I' for Inactive)
REMARK    1  A    between atoms: C4_5  and  N1_6 
REMARK    2  A    between atoms: N1_6  and  C5_7 
REMARK    3  A    between atoms: C8_12  and  O1_13 
REMARK    4  A    between atoms: O1_13  and  C9_14 
ROOT
HETATM    1  C5  UNL     1       0.608  -1.165  -0.221  1.00  0.00     0.104 A 
HETATM    2  C6  UNL     1       1.185  -2.387  -0.460  1.00  0.00     0.152 A 
HETATM    3  N2  UNL     1       0.519  -3.543  -0.647  1.00  0.00    -0.252 NA
HETATM    4  C7  UNL     1      -0.840  -3.524  -0.599  1.00  0.00     0.235 A 
HETATM    5  N3  UNL     1      -1.422  -2.337  -0.367  1.00  0.00    -0.216 NA
HETATM    6  C8  UNL     1      -0.775  -1.178  -0.179  1.00  0.00     0.199 A 
ENDROOT
BRANCH   1   7
HETATM    7  N1  UNL     1       1.297   0.037  -0.041  1.00  0.00    -0.352 N 
HETATM    8  H3  UNL     1       0.720   0.901   0.170  1.00  0.00     0.166 HD
BRANCH   7   9
HETATM    9  C4  UNL     1       2.656   0.406  -0.078  1.00  0.00     0.034 A 
HETATM   10  C3  UNL     1       3.620  -0.100  -0.920  1.00  0.00     0.032 A 
HETATM   11  C2  UNL     1       4.949   0.246  -0.929  1.00  0.00     0.046 A 
HETATM   12  C1  UNL     1       5.347   1.189  -0.007  1.00  0.00     0.138 A 
HETATM   13  F1  UNL     1       6.646   1.569   0.030  1.00  0.00    -0.204 F 
HETATM   14  C16 UNL     1       4.484   1.766   0.882  1.00  0.00     0.074 A 
HETATM   15  C15 UNL     1       3.179   1.353   0.810  1.00  0.00     0.056 A 
HETATM   16 CL1  UNL     1       4.983   2.961   2.051  1.00  0.00    -0.081 Cl
ENDBRANCH   7   9
ENDBRANCH   1   7
BRANCH   6  17
HETATM   17  O1  UNL     1      -1.433  -0.010   0.053  1.00  0.00    -0.290 OA
BRANCH  17  18
HETATM   18  C9  UNL     1      -2.780   0.225   0.140  1.00  0.00     0.078 A 
HETATM   19  C10 UNL     1      -3.905  -0.564   0.034  1.00  0.00     0.039 A 
HETATM   20  C11 UNL     1      -5.166  -0.027   0.172  1.00  0.00     0.022 A 
HETATM   21  C12 UNL     1      -5.354   1.317   0.420  1.00  0.00     0.011 A 
HETATM   22 BR1  UNL     1      -7.146   1.952   0.593  1.00  0.00    -0.051 Br
HETATM   23  C13 UNL     1      -4.252   2.138   0.532  1.00  0.00     0.022 A 
HETATM   24  C14 UNL     1      -2.978   1.590   0.392  1.00  0.00     0.039 A 
ENDBRANCH  17  18
ENDBRANCH   6  17
TORSDOF 4
