REMARK  3 active torsions:
REMARK  status: ('A' for Active; 'I' for Inactive)
REMARK    1  A    between atoms: O1_2  and  C2_3 
REMARK    2  A    between atoms: C5_6  and  C6_7 
REMARK    3  A    between atoms: C8_9  and  C9_10 
ROOT
HETATM    1  C6  UNL     1       0.438   0.271   0.938  1.00  0.00     0.160 C 
HETATM    2  C7  UNL     1      -0.612  -0.720   0.488  1.00  0.00     0.094 C 
HETATM    3  C8  UNL     1      -1.818   0.157   0.357  1.00  0.00     0.067 C 
HETATM    4  N1  UNL     1      -1.422   1.381   0.324  1.00  0.00    -0.166 NA
HETATM    5  N2  UNL     1      -0.045   1.522   0.417  1.00  0.00    -0.195 N 
HETATM    6  C15 UNL     1       0.589   2.711   0.037  1.00  0.00     0.202 C 
HETATM    7  N3  UNL     1       1.111   3.688  -0.297  1.00  0.00    -0.170 NA
ENDROOT
BRANCH   1   8
HETATM    8  C5  UNL     1       1.788  -0.090   0.510  1.00  0.00    -0.032 A 
HETATM    9  C4  UNL     1       2.871   0.749   0.506  1.00  0.00     0.012 A 
HETATM   10  C3  UNL     1       4.146   0.414   0.101  1.00  0.00     0.037 A 
HETATM   11  C2  UNL     1       4.366  -0.887  -0.343  1.00  0.00     0.068 A 
HETATM   12  C17 UNL     1       3.314  -1.779  -0.361  1.00  0.00     0.037 A 
HETATM   13  C16 UNL     1       2.042  -1.378   0.062  1.00  0.00     0.012 A 
BRANCH  11  14
HETATM   14  O1  UNL     1       5.621  -1.299  -0.766  1.00  0.00    -0.356 OA
HETATM   15  C1  UNL     1       6.715  -0.397  -0.754  1.00  0.00     0.210 C 
ENDBRANCH  11  14
ENDBRANCH   1   8
BRANCH   3  16
HETATM   16  C9  UNL     1      -3.240  -0.265   0.274  1.00  0.00    -0.003 A 
HETATM   17  C10 UNL     1      -3.431  -1.564   0.325  1.00  0.00     0.013 A 
HETATM   18  C11 UNL     1      -4.785  -2.090   0.253  1.00  0.00     0.025 A 
HETATM   19  C12 UNL     1      -5.719  -1.174   0.139  1.00  0.00     0.135 A 
HETATM   20  O2  UNL     1      -5.548   0.192   0.083  1.00  0.00    -0.353 OA
HETATM   21  C13 UNL     1      -4.270   0.760   0.148  1.00  0.00     0.158 A 
HETATM   22  C14 UNL     1      -4.078   1.646  -1.063  1.00  0.00     0.045 C 
ENDBRANCH   3  16
TORSDOF 3
