REMARK  6 active torsions:
REMARK  status: ('A' for Active; 'I' for Inactive)
REMARK    1  A    between atoms: C2_2  and  C3_3 
REMARK    2  A    between atoms: C3_3  and  C4_4 
REMARK    3  A    between atoms: C4_4  and  C5_5 
REMARK    4  A    between atoms: N2_7  and  C6_8 
REMARK    5  A    between atoms: C15_19  and  C16_20 
REMARK    6  A    between atoms: C19_23  and  O1_24 
ROOT
HETATM    1  C3  UNL     1      -3.737  -2.842  -0.375  1.00  0.00     0.148 C 
HETATM    2  O2  UNL     1      -4.420  -1.893  -0.805  1.00  0.00    -0.387 OA
HETATM    3  C24 UNL     1      -5.102  -0.946  -1.239  1.00  0.00     0.202 C 
ENDROOT
BRANCH   1   4
HETATM    4  C2  UNL     1      -4.554  -4.044   0.137  1.00  0.00    -0.005 C 
HETATM    5  C1  UNL     1      -4.914  -3.863   1.404  1.00  0.00     0.009 C 
ENDBRANCH   1   4
BRANCH   1   6
HETATM    6  C4  UNL     1      -2.644  -2.659   0.670  1.00  0.00     0.092 C 
BRANCH   6   7
HETATM    7  C5  UNL     1      -1.720  -1.548   0.361  1.00  0.00     0.038 C 
HETATM    8  N1  UNL     1      -0.476  -1.788   0.118  1.00  0.00    -0.179 NA
HETATM    9  N2  UNL     1       0.284  -0.661  -0.158  1.00  0.00    -0.237 N 
HETATM   10  C15 UNL     1      -0.680   0.367  -0.553  1.00  0.00     0.151 C 
HETATM   11  C23 UNL     1      -1.884  -0.077   0.248  1.00  0.00     0.088 C 
BRANCH   9  12
HETATM   12  C6  UNL     1       1.735  -0.751  -0.009  1.00  0.00     0.181 C 
HETATM   13  N3  UNL     1       1.998  -0.831   1.324  1.00  0.00    -0.261 NA
HETATM   14  C7  UNL     1       3.373  -0.707   1.954  1.00  0.00     0.190 C 
HETATM   15  C8  UNL     1       4.318  -0.723   0.728  1.00  0.00    -0.038 A 
HETATM   16  C9  UNL     1       4.370  -2.073   0.887  1.00  0.00     0.009 A 
HETATM   17  C13 UNL     1       4.309   0.393  -0.125  1.00  0.00     0.016 A 
HETATM   18  C10 UNL     1       4.435  -2.730  -0.369  1.00  0.00     0.001 A 
HETATM   19  C11 UNL     1       4.414  -1.880  -1.497  1.00  0.00     0.008 A 
HETATM   20  C12 UNL     1       4.351  -0.555  -1.167  1.00  0.00    -0.048 A 
HETATM   21  C14 UNL     1       3.517  -0.299  -2.441  1.00  0.00     0.121 C 
HETATM   22  S1  UNL     1       1.805  -0.668  -1.812  1.00  0.00    -0.086 SA
ENDBRANCH   9  12
BRANCH  10  23
HETATM   23  C16 UNL     1      -0.284   1.696  -0.063  1.00  0.00    -0.033 A 
HETATM   24  C17 UNL     1       0.131   1.976   1.215  1.00  0.00     0.012 A 
HETATM   25  C18 UNL     1       0.491   3.246   1.606  1.00  0.00     0.037 A 
HETATM   26  C19 UNL     1       0.454   4.306   0.739  1.00  0.00     0.068 A 
HETATM   27  C21 UNL     1       0.041   4.077  -0.566  1.00  0.00     0.037 A 
HETATM   28  C22 UNL     1      -0.309   2.796  -0.916  1.00  0.00     0.012 A 
BRANCH  26  29
HETATM   29  O1  UNL     1       0.811   5.588   1.108  1.00  0.00    -0.356 OA
HETATM   30  C20 UNL     1       0.763   6.680   0.180  1.00  0.00     0.210 C 
ENDBRANCH  26  29
ENDBRANCH  10  23
ENDBRANCH   6   7
ENDBRANCH   1   6
TORSDOF 6
