REMARK  3 active torsions:
REMARK  status: ('A' for Active; 'I' for Inactive)
REMARK    1  A    between atoms: C5_5  and  C6_6 
REMARK    2  A    between atoms: C8_8  and  C9_9 
REMARK    3  A    between atoms: N2_17  and  C15_18 
ROOT
HETATM    1  C6  UNL     1       0.494   0.242   0.886  1.00  0.00     0.151 C 
HETATM    2  C7  UNL     1      -0.438  -0.794   0.293  1.00  0.00     0.089 C 
HETATM    3  C8  UNL     1      -1.555   0.005  -0.289  1.00  0.00     0.046 C 
HETATM    4  N1  UNL     1      -1.232   1.230  -0.324  1.00  0.00    -0.178 NA
HETATM    5  N2  UNL     1       0.074   1.420   0.199  1.00  0.00    -0.237 N 
ENDROOT
BRANCH   1   6
HETATM    6  C5  UNL     1       1.881  -0.184   0.643  1.00  0.00    -0.033 A 
HETATM    7  C4  UNL     1       2.142  -1.545   0.449  1.00  0.00     0.010 A 
HETATM    8  C3  UNL     1       3.400  -2.079   0.207  1.00  0.00     0.007 A 
HETATM    9  C2  UNL     1       4.485  -1.232   0.150  1.00  0.00    -0.062 A 
HETATM   10  C1  UNL     1       5.841  -1.753  -0.103  1.00  0.00     0.048 C 
HETATM   11  C19 UNL     1       4.269   0.115   0.336  1.00  0.00     0.007 A 
HETATM   12  C18 UNL     1       3.009   0.624   0.575  1.00  0.00     0.010 A 
ENDBRANCH   1   6
BRANCH   5  13
HETATM   13  C15 UNL     1       0.690   2.732  -0.056  1.00  0.00     0.189 A 
HETATM   14  N3  UNL     1       1.294   3.489  -0.688  1.00  0.00    -0.235 NA
HETATM   15  C16 UNL     1       1.599   4.730  -0.371  1.00  0.00     0.127 A 
HETATM   16  C17 UNL     1       1.114   5.192   0.927  1.00  0.00     0.072 A 
HETATM   17  S1  UNL     1       0.246   3.685   1.523  1.00  0.00    -0.061 SA
ENDBRANCH   5  13
BRANCH   3  18
HETATM   18  C9  UNL     1      -2.781  -0.703  -0.709  1.00  0.00     0.082 C 
HETATM   19  C10 UNL     1      -3.406  -1.402   0.454  1.00  0.00    -0.014 C 
HETATM   20  C11 UNL     1      -4.560  -2.039   0.581  1.00  0.00    -0.004 C 
HETATM   21  C12 UNL     1      -5.592  -2.243  -0.442  1.00  0.00     0.201 C 
HETATM   22  O1  UNL     1      -5.656  -1.266  -1.437  1.00  0.00    -0.360 OA
HETATM   23  C13 UNL     1      -5.034  -0.048  -1.652  1.00  0.00     0.132 C 
HETATM   24  C14 UNL     1      -3.775   0.188  -1.330  1.00  0.00     0.012 C 
ENDBRANCH   3  18
TORSDOF 3
