REMARK  5 active torsions:
REMARK  status: ('A' for Active; 'I' for Inactive)
REMARK    1  A    between atoms: C10_10  and  C11_11 
REMARK    2  A    between atoms: C11_11  and  N1_12 
REMARK    3  A    between atoms: C15_16  and  N2_17 
REMARK    4  A    between atoms: C15_16  and  C16_18 
REMARK    5  A    between atoms: C17_20  and  C18_21 
ROOT
HETATM    1  C1  UNL     1      -4.831   3.885   1.623  1.00  0.00     0.048 C 
HETATM    2  C2  UNL     1      -3.830   2.884   1.201  1.00  0.00    -0.061 A 
HETATM    3  C3  UNL     1      -2.519   3.236   0.975  1.00  0.00     0.007 A 
HETATM    4  C4  UNL     1      -1.653   2.237   0.586  1.00  0.00     0.008 A 
HETATM    5  C5  UNL     1      -2.056   0.933   0.423  1.00  0.00    -0.048 A 
HETATM    6  C6  UNL     1      -3.348   0.527   0.632  1.00  0.00    -0.029 A 
HETATM    7  C7  UNL     1      -4.170   1.562   1.019  1.00  0.00     0.018 A 
HETATM    8  C8  UNL     1      -3.947  -0.788   0.513  1.00  0.00     0.012 C 
HETATM    9  C9  UNL     1      -3.399  -1.983   0.539  1.00  0.00     0.010 C 
HETATM   10  C10 UNL     1      -2.640  -3.228   0.588  1.00  0.00    -0.031 C 
HETATM   11  C12 UNL     1      -1.320  -3.442   0.722  1.00  0.00     0.009 C 
HETATM   12  C13 UNL     1       0.137  -3.254   0.878  1.00  0.00    -0.001 C 
HETATM   13  C14 UNL     1       0.917  -2.160   0.981  1.00  0.00     0.021 C 
HETATM   14  C15 UNL     1       1.332  -0.727   1.053  1.00  0.00     0.223 C 
HETATM   15  C25 UNL     1       0.121   0.106   1.182  1.00  0.00     0.057 C 
HETATM   16  C26 UNL     1      -0.851   0.112   0.060  1.00  0.00     0.042 C 
ENDROOT
BRANCH  14  17
HETATM   17  N2  UNL     1       2.159  -0.453   2.237  1.00  0.00     0.098 N 
HETATM   18  H16 UNL     1       2.139  -1.313   2.849  1.00  0.00     0.314 HD
HETATM   19  H17 UNL     1       3.160  -0.357   1.954  1.00  0.00     0.314 HD
ENDBRANCH  14  17
BRANCH  14  20
HETATM   20  C16 UNL     1       2.120  -0.309  -0.135  1.00  0.00     0.118 A 
HETATM   21  N3  UNL     1       3.099   0.319  -0.488  1.00  0.00    -0.242 NA
HETATM   22  C17 UNL     1       3.472   0.432  -1.747  1.00  0.00     0.074 A 
HETATM   23  C24 UNL     1       2.690  -0.216  -2.773  1.00  0.00     0.084 A 
HETATM   24  S1  UNL     1       1.413  -0.973  -1.758  1.00  0.00    -0.081 SA
BRANCH  22  25
HETATM   25  C18 UNL     1       4.654   1.198  -2.129  1.00  0.00    -0.007 A 
HETATM   26  C19 UNL     1       5.465   1.855  -1.229  1.00  0.00     0.014 A 
HETATM   27  C20 UNL     1       6.586   2.589  -1.543  1.00  0.00     0.001 A 
HETATM   28  C21 UNL     1       6.946   2.685  -2.886  1.00  0.00     0.000 A 
HETATM   29  C22 UNL     1       6.177   2.052  -3.837  1.00  0.00     0.001 A 
HETATM   30  C23 UNL     1       5.071   1.339  -3.428  1.00  0.00     0.014 A 
ENDBRANCH  22  25
ENDBRANCH  14  20
BRANCH  10  31
HETATM   31  C11 UNL     1      -3.494  -4.458   0.474  1.00  0.00     0.305 C 
BRANCH  31  32
HETATM   32  N1  UNL     1      -4.224  -4.478  -0.773  1.00  0.00     0.082 N 
HETATM   33  H11 UNL     1      -4.030  -3.589  -1.296  1.00  0.00     0.313 HD
HETATM   34  H12 UNL     1      -5.235  -4.474  -0.553  1.00  0.00     0.313 HD
ENDBRANCH  31  32
ENDBRANCH  10  31
TORSDOF 5
