REMARK  1 active torsions:
REMARK  status: ('A' for Active; 'I' for Inactive)
REMARK    1  A    between atoms: C6_7  and  C7_8 
ROOT
HETATM    1  C7  UNL     1      -2.236   0.598  -1.557  1.00  0.00     0.065 C 
HETATM    2  N1  UNL     1      -2.038   0.604  -0.325  1.00  0.00    -0.180 NA
HETATM    3  N2  UNL     1      -1.119  -0.286   0.222  1.00  0.00    -0.292 N 
HETATM    4  C8  UNL     1      -0.424  -0.058   1.477  1.00  0.00     0.175 C 
HETATM    5  C9  UNL     1       0.886  -0.575   1.733  1.00  0.00     0.027 C 
HETATM    6  C10 UNL     1       2.198  -0.935   2.050  1.00  0.00     0.066 C 
HETATM    7  C11 UNL     1       2.857   0.112   2.756  1.00  0.00    -0.008 A 
HETATM    8  C12 UNL     1       2.735   1.348   3.197  1.00  0.00     0.014 A 
HETATM    9  C13 UNL     1       3.411   2.251   3.939  1.00  0.00     0.001 A 
HETATM   10  C14 UNL     1       4.654   1.674   4.385  1.00  0.00     0.000 A 
HETATM   11  C15 UNL     1       4.920   0.358   3.989  1.00  0.00     0.001 A 
HETATM   12  C16 UNL     1       4.087  -0.472   3.189  1.00  0.00     0.014 A 
HETATM   13  N3  UNL     1       2.619  -2.066   1.431  1.00  0.00    -0.236 NA
HETATM   14  C17 UNL     1       3.664  -2.725   1.110  1.00  0.00     0.259 C 
HETATM   15  O2  UNL     1       3.332  -3.969   0.368  1.00  0.00    -0.304 OA
HETATM   16  C18 UNL     1       1.884  -3.841   0.082  1.00  0.00     0.076 A 
HETATM   17  C19 UNL     1       0.657  -4.437   0.203  1.00  0.00     0.038 A 
HETATM   18  C20 UNL     1      -0.349  -3.649  -0.192  1.00  0.00     0.012 A 
HETATM   19  C21 UNL     1      -0.362  -2.394  -0.694  1.00  0.00    -0.033 A 
HETATM   20  C22 UNL     1       0.744  -1.660  -0.920  1.00  0.00     0.012 A 
HETATM   21  C23 UNL     1       1.756  -2.525  -0.480  1.00  0.00     0.038 A 
HETATM   22  C24 UNL     1      -1.309  -1.350  -0.871  1.00  0.00     0.143 C 
HETATM   23  C25 UNL     1      -1.303  -0.487  -2.081  1.00  0.00     0.093 C 
ENDROOT
BRANCH   1  24
HETATM   24  C6  UNL     1      -3.214   1.514  -2.176  1.00  0.00    -0.003 A 
HETATM   25  C2  UNL     1      -4.041   2.452  -1.351  1.00  0.00     0.158 A 
HETATM   26  C1  UNL     1      -3.148   3.654  -0.972  1.00  0.00     0.045 C 
HETATM   27  O1  UNL     1      -5.024   3.069  -2.170  1.00  0.00    -0.353 OA
HETATM   28  C3  UNL     1      -5.058   2.902  -3.532  1.00  0.00     0.135 A 
HETATM   29  C4  UNL     1      -4.303   2.100  -4.349  1.00  0.00     0.025 A 
HETATM   30  C5  UNL     1      -3.352   1.402  -3.439  1.00  0.00     0.013 A 
ENDBRANCH   1  24
TORSDOF 1
