REMARK  3 active torsions:
REMARK  status: ('A' for Active; 'I' for Inactive)
REMARK    1  A    between atoms: C6_7  and  C7_8 
REMARK    2  A    between atoms: N2_10  and  C8_11 
REMARK    3  A    between atoms: C9_13  and  C10_14 
ROOT
HETATM    1  C8  UNL     1      -0.411   0.349  -0.141  1.00  0.00     0.196 A 
HETATM    2  N3  UNL     1      -1.521   0.145  -0.088  1.00  0.00    -0.222 NA
HETATM    3  C9  UNL     1      -2.539   0.955  -0.021  1.00  0.00     0.076 A 
HETATM    4  C16 UNL     1      -2.150   2.348  -0.012  1.00  0.00     0.086 A 
HETATM    5  S1  UNL     1      -0.299   2.236  -0.108  1.00  0.00    -0.060 SA
ENDROOT
BRANCH   1   6
HETATM    6  N2  UNL     1       0.942  -0.241  -0.252  1.00  0.00    -0.186 N 
HETATM    7  C7  UNL     1       2.220  -0.702  -0.248  1.00  0.00     0.182 A 
HETATM    8  N1  UNL     1       1.370  -1.205  -1.149  1.00  0.00    -0.143 NA
BRANCH   7   9
HETATM    9  C6  UNL     1       3.483  -0.540   0.435  1.00  0.00     0.020 A 
HETATM   10  C2  UNL     1       4.499  -1.434  -0.236  1.00  0.00     0.160 A 
HETATM   11  C1  UNL     1       4.456  -1.020  -1.712  1.00  0.00     0.045 C 
HETATM   12  O1  UNL     1       5.754  -1.348   0.330  1.00  0.00    -0.353 OA
HETATM   13  C3  UNL     1       6.086  -0.547   1.389  1.00  0.00     0.135 A 
HETATM   14  C4  UNL     1       5.172   0.224   1.952  1.00  0.00     0.025 A 
HETATM   15  C5  UNL     1       3.799   0.235   1.456  1.00  0.00     0.015 A 
ENDBRANCH   7   9
ENDBRANCH   1   6
BRANCH   3  16
HETATM   16  C10 UNL     1      -3.935   0.554   0.044  1.00  0.00    -0.007 A 
HETATM   17  C11 UNL     1      -4.950   1.476   0.107  1.00  0.00     0.014 A 
HETATM   18  C12 UNL     1      -6.289   1.152   0.170  1.00  0.00     0.001 A 
HETATM   19  C13 UNL     1      -6.619  -0.196   0.167  1.00  0.00     0.000 A 
HETATM   20  C14 UNL     1      -5.659  -1.176   0.104  1.00  0.00     0.001 A 
HETATM   21  C15 UNL     1      -4.347  -0.763   0.044  1.00  0.00     0.014 A 
ENDBRANCH   3  16
TORSDOF 3
