REMARK  3 active torsions:
REMARK  status: ('A' for Active; 'I' for Inactive)
REMARK    1  A    between atoms: C2_2  and  O1_3 
REMARK    2  A    between atoms: O1_3  and  C3_4 
REMARK    3  A    between atoms: C19_22  and  O2_23 
ROOT
HETATM    1  C3  UNL     1       1.625   0.520  -0.353  1.00  0.00     0.080 C 
HETATM    2  C4  UNL     1       1.389   1.774  -0.828  1.00  0.00     0.141 C 
HETATM    3  C5  UNL     1       0.042   2.310  -0.987  1.00  0.00    -0.066 A 
HETATM    4  C6  UNL     1      -1.233   2.597  -1.056  1.00  0.00     0.094 A 
HETATM    5  C7  UNL     1      -2.520   3.214  -1.260  1.00  0.00    -0.006 C 
HETATM    6  C8  UNL     1      -3.543   2.541  -0.802  1.00  0.00     0.028 C 
HETATM    7  C9  UNL     1      -3.304   1.292  -0.108  1.00  0.00     0.050 A 
HETATM    8  N1  UNL     1      -2.448   1.969   0.630  1.00  0.00    -0.290 N 
HETATM    9  C10 UNL     1      -1.689   1.780   1.593  1.00  0.00     0.246 A 
HETATM   10  N2  UNL     1      -1.897   0.486   1.863  1.00  0.00    -0.245 NA
HETATM   11  C11 UNL     1      -2.715  -0.352   1.227  1.00  0.00     0.041 A 
HETATM   12  C12 UNL     1      -3.514  -0.023   0.160  1.00  0.00    -0.010 A 
HETATM   13  C13 UNL     1      -4.496  -0.358  -0.837  1.00  0.00     0.052 C 
HETATM   14  C14 UNL     1      -2.885  -1.774   1.447  1.00  0.00     0.064 C 
HETATM   15  C15 UNL     1      -2.015  -2.633   0.544  1.00  0.00     0.044 C 
HETATM   16  C16 UNL     1      -0.581  -2.376   0.650  1.00  0.00    -0.057 A 
HETATM   17  C17 UNL     1       0.415  -3.149   1.242  1.00  0.00     0.010 A 
HETATM   18  C18 UNL     1       1.733  -2.739   1.272  1.00  0.00     0.038 A 
HETATM   19  C19 UNL     1       2.237  -1.580   0.759  1.00  0.00     0.077 A 
HETATM   20  C21 UNL     1       1.269  -0.830   0.185  1.00  0.00     0.006 A 
HETATM   21  C22 UNL     1      -0.043  -1.194   0.128  1.00  0.00     0.019 A 
HETATM   22  S1  UNL     1      -1.745   3.428   0.720  1.00  0.00    -0.105 SA
HETATM   23  C23 UNL     1      -0.086   3.550  -0.132  1.00  0.00     0.119 A 
ENDROOT
BRANCH   1  24
HETATM   24  O1  UNL     1       3.020   0.750  -0.495  1.00  0.00    -0.380 OA
BRANCH  24  25
HETATM   25  C2  UNL     1       3.604   0.361  -1.724  1.00  0.00     0.164 C 
HETATM   26  C1  UNL     1       5.099   0.641  -1.668  1.00  0.00     0.033 C 
ENDBRANCH  24  25
ENDBRANCH   1  24
BRANCH  19  27
HETATM   27  O2  UNL     1       3.549  -1.177   0.793  1.00  0.00    -0.355 OA
HETATM   28  C20 UNL     1       4.505  -2.017   1.411  1.00  0.00     0.210 C 
ENDBRANCH  19  27
TORSDOF 3
