REMARK  4 active torsions:
REMARK  status: ('A' for Active; 'I' for Inactive)
REMARK    1  A    between atoms: O1_2  and  C2_3 
REMARK    2  A    between atoms: C5_6  and  C6_7 
REMARK    3  A    between atoms: N2_9  and  C7_10 
REMARK    4  A    between atoms: C16_21  and  O2_22 
ROOT
HETATM    1  C6  UNL     1      -0.243  -0.149   0.375  1.00  0.00     0.100 C 
HETATM    2  N1  UNL     1       0.913   0.469   0.271  1.00  0.00    -0.164 NA
HETATM    3  N2  UNL     1       2.230  -0.074   0.241  1.00  0.00    -0.213 N 
HETATM    4  C12 UNL     1       2.487  -1.131   1.216  1.00  0.00     0.237 C 
HETATM    5  N4  UNL     1       1.788  -2.195   1.594  1.00  0.00    -0.241 NA
HETATM    6  C13 UNL     1       0.494  -2.498   1.005  1.00  0.00     0.071 A 
HETATM    7  C14 UNL     1       0.181  -3.832   0.973  1.00  0.00     0.035 A 
HETATM    8  C15 UNL     1      -1.006  -4.208   0.335  1.00  0.00     0.039 A 
HETATM    9  C16 UNL     1      -1.867  -3.279  -0.263  1.00  0.00     0.069 A 
HETATM   10  C18 UNL     1      -1.559  -1.938  -0.235  1.00  0.00     0.053 A 
HETATM   11  C19 UNL     1      -0.384  -1.602   0.405  1.00  0.00     0.027 A 
ENDROOT
BRANCH   1  12
HETATM   12  C5  UNL     1      -1.367   0.732   0.382  1.00  0.00    -0.005 A 
HETATM   13  C4  UNL     1      -1.107   2.076   0.072  1.00  0.00     0.016 A 
HETATM   14  C3  UNL     1      -2.026   3.102   0.100  1.00  0.00     0.037 A 
HETATM   15  C2  UNL     1      -3.328   2.831   0.459  1.00  0.00     0.068 A 
HETATM   16  C21 UNL     1      -3.667   1.537   0.780  1.00  0.00     0.037 A 
HETATM   17  C20 UNL     1      -2.679   0.589   0.722  1.00  0.00     0.016 A 
BRANCH  15  18
HETATM   18  O1  UNL     1      -4.288   3.805   0.505  1.00  0.00    -0.356 OA
HETATM   19  C1  UNL     1      -4.047   5.163   0.195  1.00  0.00     0.210 C 
ENDBRANCH  15  18
ENDBRANCH   1  12
BRANCH   3  20
HETATM   20  C7  UNL     1       3.263   0.353  -0.625  1.00  0.00     0.127 C 
HETATM   21  N3  UNL     1       3.599   1.303   0.211  1.00  0.00    -0.271 NA
HETATM   22  C8  UNL     1       4.691   2.211  -0.076  1.00  0.00     0.178 C 
HETATM   23  C9  UNL     1       5.840   1.461  -0.696  1.00  0.00    -0.009 C 
HETATM   24  C10 UNL     1       5.457   0.501  -1.555  1.00  0.00    -0.022 C 
HETATM   25  C11 UNL     1       4.006   0.214  -1.859  1.00  0.00     0.107 C 
ENDBRANCH   3  20
BRANCH   9  26
HETATM   26  O2  UNL     1      -3.042  -3.650  -0.897  1.00  0.00    -0.356 OA
HETATM   27  C17 UNL     1      -3.438  -5.015  -0.973  1.00  0.00     0.210 C 
ENDBRANCH   9  26
TORSDOF 4
