REMARK  1 active torsions:
REMARK  status: ('A' for Active; 'I' for Inactive)
REMARK    1  A    between atoms: C4_5  and  C5_6 
ROOT
HETATM    1  C5  UNL     1       1.637   0.364  -1.111  1.00  0.00     0.097 A 
HETATM    2  N1  UNL     1       1.934   0.826  -2.361  1.00  0.00    -0.239 NA
HETATM    3  C6  UNL     1       1.036   1.444  -3.134  1.00  0.00     0.236 A 
HETATM    4  N2  UNL     1      -0.229   1.665  -2.752  1.00  0.00    -0.215 NA
HETATM    5  C7  UNL     1      -0.626   1.242  -1.514  1.00  0.00     0.200 A 
HETATM    6  C8  UNL     1       0.335   0.603  -0.733  1.00  0.00     0.112 A 
HETATM    7  N3  UNL     1       0.128   0.189   0.619  1.00  0.00    -0.380 N 
HETATM    8  C9  UNL     1      -1.010  -0.477   1.211  1.00  0.00     0.161 C 
HETATM    9  C10 UNL     1      -2.291  -0.069   0.667  1.00  0.00    -0.005 A 
HETATM   10  C11 UNL     1      -3.255  -0.740   1.429  1.00  0.00     0.030 A 
HETATM   11  C12 UNL     1      -4.618  -0.566   1.163  1.00  0.00     0.011 A 
HETATM   12 BR1  UNL     1      -5.961  -1.466   2.184  1.00  0.00    -0.051 Br
HETATM   13  C13 UNL     1      -5.048   0.266   0.149  1.00  0.00     0.022 A 
HETATM   14  C14 UNL     1      -4.101   0.944  -0.623  1.00  0.00     0.039 A 
HETATM   15  C15 UNL     1      -2.762   0.763  -0.349  1.00  0.00     0.086 A 
HETATM   16  O1  UNL     1      -1.964   1.525  -1.228  1.00  0.00    -0.289 OA
HETATM   17  H4  UNL     1       1.014   0.500   1.155  1.00  0.00     0.160 HD
ENDROOT
BRANCH   1  18
HETATM   18  C4  UNL     1       2.642  -0.317  -0.315  1.00  0.00    -0.002 A 
HETATM   19  C3  UNL     1       2.772  -1.054   0.741  1.00  0.00     0.014 A 
HETATM   20  C2  UNL     1       4.096  -1.476   1.103  1.00  0.00     0.040 A 
HETATM   21  C1  UNL     1       4.890  -0.958   0.190  1.00  0.00     0.116 A 
HETATM   22  F1  UNL     1       6.220  -1.036   0.046  1.00  0.00    -0.209 F 
HETATM   23  C16 UNL     1       4.083  -0.201  -0.750  1.00  0.00     0.179 A 
HETATM   24 CL1  UNL     1       4.610   1.497  -0.680  1.00  0.00    -0.112 Cl
ENDBRANCH   1  18
TORSDOF 1
