REMARK  4 active torsions:
REMARK  status: ('A' for Active; 'I' for Inactive)
REMARK    1  A    between atoms: O1_2  and  C2_3 
REMARK    2  A    between atoms: C5_6  and  C6_7 
REMARK    3  A    between atoms: N2_9  and  C7_10 
REMARK    4  A    between atoms: C15_20  and  C16_21 
ROOT
HETATM    1  C6  UNL     1       1.213   0.117   0.286  1.00  0.00     0.067 C 
HETATM    2  N1  UNL     1       0.504   1.072  -0.141  1.00  0.00    -0.180 NA
HETATM    3  N2  UNL     1      -0.780   1.031   0.338  1.00  0.00    -0.286 N 
HETATM    4  C15 UNL     1      -0.989  -0.318   0.914  1.00  0.00     0.134 C 
HETATM    5  C23 UNL     1       0.432  -0.754   1.187  1.00  0.00     0.093 C 
ENDROOT
BRANCH   3   6
HETATM    6  C7  UNL     1      -1.798   2.096   0.277  1.00  0.00     0.157 C 
HETATM    7  C8  UNL     1      -2.704   1.387  -0.680  1.00  0.00     0.014 C 
HETATM    8  C9  UNL     1      -3.896   0.903  -0.291  1.00  0.00    -0.031 C 
HETATM    9  C10 UNL     1      -4.697   1.972  -0.008  1.00  0.00    -0.005 C 
HETATM   10  C11 UNL     1      -4.097   3.170  -0.707  1.00  0.00     0.049 A 
HETATM   11  C12 UNL     1      -3.999   4.211  -1.668  1.00  0.00     0.038 A 
HETATM   12  C13 UNL     1      -2.928   4.247  -0.855  1.00  0.00    -0.042 A 
HETATM   13  C14 UNL     1      -2.010   4.255  -0.159  1.00  0.00     0.049 A 
HETATM   14  N3  UNL     1      -0.945   4.240   0.649  1.00  0.00    -0.220 NA
HETATM   15  O2  UNL     1      -1.094   3.156  -0.174  1.00  0.00     0.000 OA
HETATM   16  H11 UNL     1      -1.221   5.172   1.046  1.00  0.00     0.147 HD
ENDBRANCH   3   6
BRANCH   4  17
HETATM   17  C16 UNL     1      -1.616  -1.198  -0.081  1.00  0.00     0.004 C 
HETATM   18  C17 UNL     1      -1.807  -2.197   0.665  1.00  0.00    -0.066 A 
HETATM   19  C18 UNL     1      -2.555  -3.174  -0.626  1.00  0.00     0.068 A 
HETATM   20  C22 UNL     1      -1.926  -3.471   2.068  1.00  0.00     0.070 A 
HETATM   21  C19 UNL     1      -3.206  -4.576  -0.959  1.00  0.00     0.040 A 
HETATM   22  C21 UNL     1      -2.400  -3.902   0.977  1.00  0.00    -0.060 A 
HETATM   23  C20 UNL     1      -2.753  -4.206   0.141  1.00  0.00    -0.058 A 
ENDBRANCH   4  17
BRANCH   1  24
HETATM   24  C5  UNL     1       2.591   0.081  -0.174  1.00  0.00    -0.010 A 
HETATM   25  C4  UNL     1       3.167   0.997  -1.022  1.00  0.00     0.016 A 
HETATM   26  C3  UNL     1       4.510   0.832  -1.383  1.00  0.00     0.037 A 
HETATM   27  C2  UNL     1       5.234  -0.234  -0.890  1.00  0.00     0.068 A 
HETATM   28  C25 UNL     1       4.630  -1.137  -0.042  1.00  0.00     0.037 A 
HETATM   29  C24 UNL     1       3.288  -0.972   0.318  1.00  0.00     0.016 A 
BRANCH  27  30
HETATM   30  O1  UNL     1       6.559  -0.327  -1.295  1.00  0.00    -0.356 OA
HETATM   31  C1  UNL     1       7.456  -1.324  -0.912  1.00  0.00     0.210 C 
ENDBRANCH  27  30
ENDBRANCH   1  24
TORSDOF 4
