REMARK  4 active torsions:
REMARK  status: ('A' for Active; 'I' for Inactive)
REMARK    1  A    between atoms: C3_4  and  C4_5 
REMARK    2  A    between atoms: C10_12  and  N2_13 
REMARK    3  A    between atoms: C22_26  and  O2_27 
REMARK    4  A    between atoms: C24_29  and  N3_30 
ROOT
HETATM    1  N2  UNL     1      -0.577  -0.709  -0.322  1.00  0.00    -0.333 N 
HETATM    2  C11 UNL     1      -0.748  -2.012  -0.877  1.00  0.00     0.075 C 
HETATM    3  C12 UNL     1      -0.249  -2.134  -2.293  1.00  0.00     0.004 C 
HETATM    4  C13 UNL     1      -0.143  -3.425  -2.675  1.00  0.00    -0.003 C 
HETATM    5  C14 UNL     1      -0.462  -4.615  -1.854  1.00  0.00     0.195 C 
HETATM    6  O1  UNL     1      -0.714  -4.322  -0.537  1.00  0.00    -0.385 OA
HETATM    7  C15 UNL     1      -0.102  -3.125  -0.107  1.00  0.00     0.203 C 
HETATM    8  C16 UNL     1      -2.242  -2.248  -0.883  1.00  0.00     0.040 C 
HETATM    9  C17 UNL     1      -2.662  -1.540   0.375  1.00  0.00     0.037 C 
HETATM   10  C18 UNL     1      -1.796  -0.275   0.367  1.00  0.00     0.072 C 
HETATM   11  C19 UNL     1      -1.532   0.041   1.815  1.00  0.00     0.060 C 
HETATM   12  C20 UNL     1      -0.947   1.400   1.958  1.00  0.00    -0.025 C 
HETATM   13  C21 UNL     1      -1.519   2.362   1.239  1.00  0.00     0.003 C 
HETATM   14  C22 UNL     1      -2.672   2.086   0.351  1.00  0.00     0.178 C 
HETATM   15  C24 UNL     1      -2.556   0.770  -0.376  1.00  0.00     0.278 C 
ENDROOT
BRANCH   1  16
HETATM   16  C10 UNL     1       0.535   0.180  -0.335  1.00  0.00     0.164 A 
HETATM   17  S1  UNL     1       0.808   1.626  -1.356  1.00  0.00    -0.111 SA
HETATM   18  C1  UNL     1       1.126   1.226  -2.879  1.00  0.00     0.065 C 
HETATM   19  C2  UNL     1       2.402   1.984  -0.614  1.00  0.00     0.078 A 
HETATM   20  C3  UNL     1       2.551   1.019   0.284  1.00  0.00     0.076 A 
HETATM   21  N1  UNL     1       1.557   0.053   0.437  1.00  0.00    -0.224 NA
BRANCH  20  22
HETATM   22  C4  UNL     1       3.750   0.958   1.116  1.00  0.00    -0.007 A 
HETATM   23  C5  UNL     1       4.743   1.904   0.978  1.00  0.00     0.014 A 
HETATM   24  C6  UNL     1       5.903   1.911   1.729  1.00  0.00     0.001 A 
HETATM   25  C7  UNL     1       6.121   0.950   2.669  1.00  0.00     0.000 A 
HETATM   26  C8  UNL     1       5.161  -0.019   2.846  1.00  0.00     0.001 A 
HETATM   27  C9  UNL     1       4.017   0.007   2.079  1.00  0.00     0.014 A 
ENDBRANCH  20  22
ENDBRANCH   1  16
BRANCH  15  28
HETATM   28  N3  UNL     1      -1.995   1.009  -1.696  1.00  0.00     0.088 N 
HETATM   29  H28 UNL     1      -2.432   0.408  -2.431  1.00  0.00     0.313 HD
HETATM   30  H29 UNL     1      -2.138   2.022  -1.943  1.00  0.00     0.313 HD
ENDBRANCH  15  28
BRANCH  14  31
HETATM   31  O2  UNL     1      -3.811   2.143   1.122  1.00  0.00    -0.385 OA
HETATM   32  C23 UNL     1      -4.666   3.171   0.758  1.00  0.00     0.202 C 
ENDBRANCH  14  31
TORSDOF 4
