REMARK  3 active torsions:
REMARK  status: ('A' for Active; 'I' for Inactive)
REMARK    1  A    between atoms: C2_2  and  C3_3 
REMARK    2  A    between atoms: C6_6  and  O1_7 
REMARK    3  A    between atoms: C17_20  and  O2_21 
ROOT
HETATM    1  C3  UNL     1      -2.199  -0.904   0.081  1.00  0.00     0.061 C 
HETATM    2  C4  UNL     1      -2.715  -1.863   1.085  1.00  0.00     0.042 C 
HETATM    3  C5  UNL     1      -2.115  -3.056   0.963  1.00  0.00     0.033 C 
HETATM    4  C6  UNL     1      -1.107  -2.961  -0.134  1.00  0.00     0.153 C 
HETATM    5  C7  UNL     1      -0.931  -1.435  -0.291  1.00  0.00     0.079 C 
HETATM    6  C8  UNL     1       0.245  -1.058   0.506  1.00  0.00     0.099 C 
HETATM    7  N1  UNL     1       0.884  -0.073  -0.021  1.00  0.00    -0.263 NA
HETATM    8  C9  UNL     1       2.034   0.551   0.444  1.00  0.00     0.072 C 
HETATM    9  C10 UNL     1       3.337  -0.052   0.385  1.00  0.00    -0.007 A 
HETATM   10  C11 UNL     1       3.439  -1.331  -0.169  1.00  0.00     0.014 A 
HETATM   11  C12 UNL     1       4.643  -1.996  -0.272  1.00  0.00     0.001 A 
HETATM   12  C13 UNL     1       5.812  -1.417   0.176  1.00  0.00     0.000 A 
HETATM   13  C14 UNL     1       5.743  -0.156   0.729  1.00  0.00     0.001 A 
HETATM   14  C15 UNL     1       4.523   0.470   0.811  1.00  0.00     0.014 A 
HETATM   15  C16 UNL     1       1.903   1.758   0.962  1.00  0.00     0.081 C 
HETATM   16  S1  UNL     1       0.439   2.752   1.169  1.00  0.00    -0.093 SA
HETATM   17  C17 UNL     1      -0.519   2.931  -0.332  1.00  0.00     0.150 C 
HETATM   18  C19 UNL     1      -1.661   3.839  -0.022  1.00  0.00     0.028 C 
HETATM   19  C20 UNL     1      -2.350   3.027   0.775  1.00  0.00     0.013 C 
HETATM   20  C21 UNL     1      -2.064   1.655   0.302  1.00  0.00    -0.009 C 
HETATM   21  C22 UNL     1      -1.238   1.696  -0.733  1.00  0.00     0.040 C 
HETATM   22  C23 UNL     1      -2.519   0.355   0.779  1.00  0.00     0.080 C 
HETATM   23  N2  UNL     1      -3.239   0.115   1.849  1.00  0.00    -0.177 NA
HETATM   24  N3  UNL     1      -3.461  -1.225   2.103  1.00  0.00    -0.281 N 
HETATM   25  H23 UNL     1      -4.056  -1.568   2.886  1.00  0.00     0.189 HD
ENDROOT
BRANCH  17  26
HETATM   26  O2  UNL     1       0.235   3.450  -1.376  1.00  0.00    -0.367 OA
HETATM   27  C18 UNL     1       0.724   4.703  -1.036  1.00  0.00     0.204 C 
ENDBRANCH  17  26
BRANCH   1  28
HETATM   28  C2  UNL     1      -3.209  -0.942  -1.096  1.00  0.00     0.019 C 
HETATM   29  C1  UNL     1      -3.370  -2.270  -1.699  1.00  0.00     0.006 C 
ENDBRANCH   1  28
BRANCH   4  30
HETATM   30  O1  UNL     1       0.107  -3.503   0.352  1.00  0.00    -0.391 OA
HETATM   31  H8  UNL     1      -0.177  -4.344   0.809  1.00  0.00     0.210 HD
ENDBRANCH   4  30
TORSDOF 3
