REMARK  9 active torsions:
REMARK  status: ('A' for Active; 'I' for Inactive)
REMARK    1  A    between atoms: C2_2  and  C3_3 
REMARK    2  A    between atoms: C6_6  and  C7_7 
REMARK    3  A    between atoms: C8_10  and  S1_12 
REMARK    4  A    between atoms: S1_12  and  C10_13 
REMARK    5  A    between atoms: C10_13  and  B1_14 
REMARK    6  A    between atoms: B1_14  and  C11_15 
REMARK    7  A    between atoms: C16_20  and  C17_21 
REMARK    8  A    between atoms: C20_24  and  O1_25 
REMARK    9  A    between atoms: O1_25  and  N3_26 
ROOT
HETATM    1  C7  UNL     1      -1.094  -0.505  -0.594  1.00  0.00     0.076 C 
HETATM    2  N1  UNL     1      -0.496  -0.855  -1.687  1.00  0.00    -0.181 NA
HETATM    3  N2  UNL     1       0.796  -0.313  -1.742  1.00  0.00    -0.292 N 
HETATM    4  C8  UNL     1       1.186   0.016  -0.373  1.00  0.00     0.107 C 
HETATM    5  C9  UNL     1       1.815  -1.156   0.325  1.00  0.00     0.053 C 
HETATM    6  C16 UNL     1      -0.174   0.350   0.202  1.00  0.00     0.113 C 
HETATM    7  H8  UNL     1       1.340  -0.189  -2.641  1.00  0.00     0.184 HD
ENDROOT
BRANCH   6   8
HETATM    8  C17 UNL     1      -0.481   1.779   0.152  1.00  0.00    -0.045 A 
HETATM    9  C18 UNL     1      -0.530   2.434  -1.060  1.00  0.00     0.011 A 
HETATM   10  C19 UNL     1      -0.820   3.790  -1.132  1.00  0.00     0.039 A 
HETATM   11  C20 UNL     1      -1.053   4.438   0.073  1.00  0.00     0.091 A 
HETATM   12  C21 UNL     1      -1.007   3.799   1.292  1.00  0.00     0.039 A 
HETATM   13  C22 UNL     1      -0.722   2.470   1.343  1.00  0.00     0.011 A 
BRANCH  11  14
HETATM   14  O1  UNL     1      -1.350   5.809   0.054  1.00  0.00    -0.267 OA
BRANCH  14  15
HETATM   15  N3  UNL     1      -0.261   6.658   0.130  1.00  0.00    -0.209 NA
HETATM   16  H21 UNL     1      -0.536   7.625  -0.101  1.00  0.00     0.150 HD
HETATM   17  H22 UNL     1       0.483   6.255  -0.488  1.00  0.00     0.150 HD
ENDBRANCH  14  15
ENDBRANCH  11  14
ENDBRANCH   6   8
BRANCH   1  18
HETATM   18  C6  UNL     1      -2.455  -0.927  -0.271  1.00  0.00    -0.009 A 
HETATM   19  C5  UNL     1      -3.116  -1.730  -1.178  1.00  0.00     0.014 A 
HETATM   20  C4  UNL     1      -4.420  -2.187  -0.961  1.00  0.00     0.008 A 
HETATM   21  C3  UNL     1      -5.052  -1.800   0.224  1.00  0.00    -0.059 A 
HETATM   22  C24 UNL     1      -4.374  -0.985   1.139  1.00  0.00     0.008 A 
HETATM   23  C23 UNL     1      -3.068  -0.538   0.903  1.00  0.00     0.014 A 
BRANCH  21  24
HETATM   24  C2  UNL     1      -6.434  -2.258   0.501  1.00  0.00     0.034 C 
HETATM   25  C1  UNL     1      -6.493  -3.570   1.249  1.00  0.00     0.010 C 
ENDBRANCH  21  24
ENDBRANCH   1  18
BRANCH   4  26
HETATM   26  S1  UNL     1       2.285   1.430  -0.439  1.00  0.00    -0.124 SA
BRANCH  26  27
HETATM   27  C10 UNL     1       3.794   0.914  -1.268  1.00  0.00    -0.041 C 
BRANCH  27  28
HETATM   28  B1  UNL     1       5.056   0.012  -0.326  1.00  0.00     0.191 B 
BRANCH  28  29
HETATM   29  C11 UNL     1       6.352  -0.849   0.413  1.00  0.00    -0.012 A 
HETATM   30  C12 UNL     1       5.946  -2.274   0.686  1.00  0.00    -0.028 A 
HETATM   31  C13 UNL     1       6.747  -3.075  -0.011  1.00  0.00    -0.004 A 
HETATM   32  C14 UNL     1       7.687  -2.247  -0.752  1.00  0.00    -0.004 A 
HETATM   33  C15 UNL     1       7.480  -0.973  -0.525  1.00  0.00    -0.028 A 
ENDBRANCH  28  29
ENDBRANCH  27  28
ENDBRANCH  26  27
ENDBRANCH   4  26
TORSDOF 9
