REMARK  4 active torsions:
REMARK  status: ('A' for Active; 'I' for Inactive)
REMARK    1  A    between atoms: O1_2  and  C2_3 
REMARK    2  A    between atoms: C5_6  and  C6_7 
REMARK    3  A    between atoms: C10_15  and  C11_16 
REMARK    4  A    between atoms: C12_17  and  C13_18 
ROOT
HETATM    1  C6  UNL     1      -0.402  -0.149   0.834  1.00  0.00     0.058 C 
HETATM    2  N1  UNL     1       0.261  -0.651   1.834  1.00  0.00    -0.181 NA
HETATM    3  N2  UNL     1       1.525  -1.245   1.950  1.00  0.00    -0.293 N 
HETATM    4  C7  UNL     1       1.267  -2.252   2.994  1.00  0.00     0.203 C 
HETATM    5  S1  UNL     1       0.774  -3.830   2.304  1.00  0.00    -0.212 SA
HETATM    6  C8  UNL     1      -0.151  -3.684   0.773  1.00  0.00     0.060 C 
HETATM    7  B1  UNL     1       0.069  -2.893  -0.874  1.00  0.00     0.215 B 
HETATM    8  C9  UNL     1       1.249  -1.303  -0.523  1.00  0.00    -0.108 C 
HETATM    9  C10 UNL     1       2.510  -1.156  -0.261  1.00  0.00    -0.047 C 
HETATM   10  C15 UNL     1       2.685  -0.848   1.180  1.00  0.00     0.183 C 
HETATM   11  C16 UNL     1       0.068  -0.363  -0.595  1.00  0.00     0.083 C 
ENDROOT
BRANCH   1  12
HETATM   12  C5  UNL     1      -1.580   0.586   1.239  1.00  0.00     0.040 C 
HETATM   13  C4  UNL     1      -2.531   1.251   0.628  1.00  0.00    -0.032 A 
HETATM   14  C3  UNL     1      -2.641   1.431  -0.810  1.00  0.00     0.043 A 
HETATM   15  C17 UNL     1      -3.600   1.898   1.356  1.00  0.00     0.008 A 
HETATM   16  C2  UNL     1      -3.585   2.098  -1.439  1.00  0.00     0.050 A 
HETATM   17  C19 UNL     1      -4.641   2.733  -0.663  1.00  0.00     0.091 A 
HETATM   18  C18 UNL     1      -4.568   2.576   0.780  1.00  0.00    -0.019 A 
BRANCH  16  19
HETATM   19  O1  UNL     1      -3.666   2.253  -2.815  1.00  0.00    -0.360 OA
HETATM   20  C1  UNL     1      -4.902   2.478  -3.478  1.00  0.00     0.209 C 
ENDBRANCH  16  19
ENDBRANCH   1  12
BRANCH   9  21
HETATM   21  C11 UNL     1       3.761  -1.228  -1.059  1.00  0.00     0.009 C 
HETATM   22  C12 UNL     1       4.911  -1.016  -0.451  1.00  0.00     0.015 C 
BRANCH  22  23
HETATM   23  C13 UNL     1       6.094  -1.102  -1.291  1.00  0.00    -0.011 C 
HETATM   24  C14 UNL     1       7.344  -0.937  -0.941  1.00  0.00     0.051 C 
HETATM   25 BR1  UNL     1       6.126  -1.486  -3.161  1.00  0.00    -0.056 Br
ENDBRANCH  22  23
ENDBRANCH   9  21
TORSDOF 4
