REMARK  0 active torsions:
REMARK  status: ('A' for Active; 'I' for Inactive)
ROOT
HETATM    1  C1  UNL     1       4.718  -1.594   0.377  1.00  0.00     0.000 C 
HETATM    2  O1  UNL     1       3.541  -1.158  -0.315  1.00  0.00     0.000 OA
HETATM    3  C2  UNL     1       3.576   0.151  -0.740  1.00  0.00    -0.042 A 
HETATM    4  C3  UNL     1       2.364  -0.292  -0.606  1.00  0.00     0.062 A 
HETATM    5  C4  UNL     1       1.689  -1.513  -0.216  1.00  0.00    -0.051 A 
HETATM    6  C5  UNL     1       1.967  -2.773  -0.504  1.00  0.00    -0.019 A 
HETATM    7  C6  UNL     1       0.854  -3.379   0.247  1.00  0.00     0.057 A 
HETATM    8  C7  UNL     1       0.525  -1.932   0.537  1.00  0.00     0.114 A 
HETATM    9  N1  UNL     1      -0.741  -1.646  -0.125  1.00  0.00    -0.389 N 
HETATM   10  C8  UNL     1      -1.324  -0.384  -0.220  1.00  0.00     0.096 C 
HETATM   11  C9  UNL     1      -1.951   0.750  -0.223  1.00  0.00    -0.001 C 
HETATM   12  C10 UNL     1      -2.928   0.336   0.737  1.00  0.00    -0.002 A 
HETATM   13  C11 UNL     1      -2.879  -0.624   1.698  1.00  0.00     0.014 A 
HETATM   14  C12 UNL     1      -3.947  -1.004   2.512  1.00  0.00     0.001 A 
HETATM   15  C13 UNL     1      -5.145  -0.362   2.334  1.00  0.00     0.002 A 
HETATM   16  C14 UNL     1      -5.230   0.617   1.365  1.00  0.00     0.024 A 
HETATM   17  C15 UNL     1      -4.158   0.969   0.577  1.00  0.00     0.045 A 
HETATM   18 CL1  UNL     1      -4.741   2.200  -0.553  1.00  0.00    -0.083 Cl
HETATM   19  C16 UNL     1      -1.700   1.980  -0.864  1.00  0.00     0.085 C 
HETATM   20  S1  UNL     1      -1.179   3.243  -1.705  1.00  0.00     0.005 SA
HETATM   21  F1  UNL     1      -2.112   4.757  -1.641  1.00  0.00    -0.169 F 
HETATM   22  C17 UNL     1       0.642   3.534  -1.823  1.00  0.00     0.054 C 
HETATM   23  C18 UNL     1       1.476   2.507  -1.488  1.00  0.00     0.050 C 
HETATM   24  C19 UNL     1       2.967   2.529  -1.506  1.00  0.00    -0.016 C 
HETATM   25  C20 UNL     1       3.699   1.518  -1.182  1.00  0.00     0.005 C 
HETATM   26  H9  UNL     1      -1.353  -2.379  -0.602  1.00  0.00     0.159 HD
ENDROOT
TORSDOF 0
