REMARK  4 active torsions:
REMARK  status: ('A' for Active; 'I' for Inactive)
REMARK    1  A    between atoms: O1_2  and  C2_3 
REMARK    2  A    between atoms: C7_8  and  C8_9 
REMARK    3  A    between atoms: N1_10  and  C9_11 
REMARK    4  A    between atoms: C10_13  and  C11_14 
ROOT
HETATM    1  C9  UNL     1       1.333   0.245  -1.208  1.00  0.00     0.193 A 
HETATM    2  N2  UNL     1       2.073   0.012  -0.282  1.00  0.00    -0.222 NA
HETATM    3  C10 UNL     1       3.260   0.571  -0.111  1.00  0.00     0.076 A 
HETATM    4  C17 UNL     1       3.661   1.559  -1.180  1.00  0.00     0.086 A 
HETATM    5  S1  UNL     1       2.225   1.524  -2.290  1.00  0.00    -0.060 SA
ENDROOT
BRANCH   1   6
HETATM    6  N1  UNL     1       0.058  -0.206  -1.603  1.00  0.00    -0.234 NA
HETATM    7  C8  UNL     1      -0.995   0.053  -0.889  1.00  0.00     0.129 C 
BRANCH   7   8
HETATM    8  C7  UNL     1      -2.290  -0.436  -1.341  1.00  0.00    -0.008 A 
HETATM    9  C2  UNL     1      -3.586  -0.230  -0.648  1.00  0.00     0.184 A 
HETATM   10  C3  UNL     1      -4.582  -0.919  -1.510  1.00  0.00    -0.051 A 
HETATM   11  C4  UNL     1      -6.042  -0.998  -1.243  1.00  0.00     0.046 C 
HETATM   12  C5  UNL     1      -3.951  -1.445  -2.549  1.00  0.00     0.006 A 
HETATM   13  C6  UNL     1      -2.518  -1.140  -2.438  1.00  0.00     0.012 A 
BRANCH   9  14
HETATM   14  O1  UNL     1      -3.879   1.091  -0.408  1.00  0.00    -0.382 OA
HETATM   15  C1  UNL     1      -4.002   1.380   0.949  1.00  0.00     0.202 C 
ENDBRANCH   9  14
ENDBRANCH   7   8
ENDBRANCH   1   6
BRANCH   3  16
HETATM   16  C11 UNL     1       4.145   0.287   1.005  1.00  0.00    -0.007 A 
HETATM   17  C12 UNL     1       5.375   0.852   1.202  1.00  0.00     0.015 A 
HETATM   18  C13 UNL     1       6.192   0.561   2.273  1.00  0.00     0.024 A 
HETATM   19  C14 UNL     1       5.778  -0.349   3.221  1.00  0.00     0.034 A 
HETATM   20 CL1  UNL     1       6.782  -0.751   4.599  1.00  0.00    -0.084 Cl
HETATM   21  C15 UNL     1       4.550  -0.944   3.068  1.00  0.00     0.024 A 
HETATM   22  C16 UNL     1       3.784  -0.612   1.980  1.00  0.00     0.015 A 
ENDBRANCH   3  16
TORSDOF 4
