REMARK  2 active torsions:
REMARK  status: ('A' for Active; 'I' for Inactive)
REMARK    1  A    between atoms: O1_2  and  C2_3 
REMARK    2  A    between atoms: C10_11  and  C11_12 
ROOT
HETATM    1  C2  UNL     1      -2.395   2.782   1.389  1.00  0.00     0.069 A 
HETATM    2  C3  UNL     1      -3.061   2.298   0.298  1.00  0.00     0.044 A 
HETATM    3  C4  UNL     1      -2.601   1.141  -0.214  1.00  0.00    -0.045 A 
HETATM    4  C5  UNL     1      -1.527   0.273   0.158  1.00  0.00    -0.038 A 
HETATM    5  C6  UNL     1      -0.938   0.920   1.277  1.00  0.00    -0.033 A 
HETATM    6  C7  UNL     1      -1.308   2.090   1.897  1.00  0.00     0.045 A 
HETATM    7  C8  UNL     1       0.435   0.586   1.638  1.00  0.00     0.121 A 
HETATM    8  C9  UNL     1       0.968  -0.657   1.976  1.00  0.00     0.023 A 
HETATM    9  C10 UNL     1       1.902  -1.080   1.146  1.00  0.00     0.067 A 
HETATM   10  N1  UNL     1       2.016  -0.106   0.115  1.00  0.00    -0.227 NA
HETATM   11  C17 UNL     1       1.207   0.890   0.280  1.00  0.00     0.158 A 
HETATM   12  O2  UNL     1       1.162   1.988  -0.724  1.00  0.00    -0.295 OA
HETATM   13  C18 UNL     1       0.689   1.324  -1.940  1.00  0.00     0.075 C 
HETATM   14  C19 UNL     1       1.648   1.051  -2.814  1.00  0.00     0.043 C 
HETATM   15  C20 UNL     1       1.564   0.351  -4.047  1.00  0.00     0.200 C 
HETATM   16  N2  UNL     1       0.703  -0.582  -3.674  1.00  0.00    -0.130 NA
HETATM   17  N3  UNL     1       0.111  -0.867  -2.581  1.00  0.00    -0.322 NA
HETATM   18  C21 UNL     1      -0.401  -1.302  -1.548  1.00  0.00     0.188 C 
HETATM   19  C22 UNL     1      -1.214  -1.055  -0.351  1.00  0.00     0.101 C 
HETATM   20  C23 UNL     1      -0.791   1.049  -2.147  1.00  0.00     0.033 C 
HETATM   21  C24 UNL     1      -2.066   0.733  -2.524  1.00  0.00    -0.019 C 
HETATM   22  C25 UNL     1      -3.233   0.906  -1.580  1.00  0.00     0.066 C 
ENDROOT
BRANCH   9  23
HETATM   23  C11 UNL     1       2.678  -2.312   1.179  1.00  0.00    -0.007 A 
HETATM   24  C12 UNL     1       3.623  -2.624   0.258  1.00  0.00     0.015 A 
HETATM   25  C13 UNL     1       4.387  -3.772   0.234  1.00  0.00     0.024 A 
HETATM   26  C14 UNL     1       4.180  -4.714   1.247  1.00  0.00     0.034 A 
HETATM   27 CL1  UNL     1       5.082  -6.210   1.328  1.00  0.00    -0.084 Cl
HETATM   28  C15 UNL     1       3.210  -4.414   2.207  1.00  0.00     0.024 A 
HETATM   29  C16 UNL     1       2.468  -3.236   2.181  1.00  0.00     0.015 A 
ENDBRANCH   9  23
BRANCH   1  30
HETATM   30  O1  UNL     1      -2.775   3.949   2.008  1.00  0.00    -0.356 OA
HETATM   31  C1  UNL     1      -3.819   4.802   1.684  1.00  0.00     0.210 C 
ENDBRANCH   1  30
TORSDOF 2
