REMARK  1 active torsions:
REMARK  status: ('A' for Active; 'I' for Inactive)
REMARK    1  A    between atoms: C4_5  and  C5_6 
ROOT
HETATM    1  C5  UNL     1       2.179   0.552   0.289  1.00  0.00     0.075 C 
HETATM    2  C6  UNL     1       1.282  -0.372   0.670  1.00  0.00     0.079 C 
HETATM    3  S1  UNL     1       1.154  -2.071   1.126  1.00  0.00    -0.118 SA
HETATM    4  C7  UNL     1       0.542  -3.098  -0.201  1.00  0.00     0.226 C 
HETATM    5  N1  UNL     1      -0.855  -2.856  -0.484  1.00  0.00    -0.267 N 
HETATM    6  N2  UNL     1      -1.543  -2.180  -1.638  1.00  0.00    -0.180 NA
HETATM    7  C8  UNL     1      -2.635  -1.782  -1.009  1.00  0.00     0.067 C 
HETATM    8  C9  UNL     1      -3.023  -3.246  -0.809  1.00  0.00     0.114 C 
HETATM    9  C10 UNL     1      -2.002  -3.298   0.394  1.00  0.00     0.247 C 
HETATM   10  O1  UNL     1      -2.302  -2.230   1.203  1.00  0.00    -0.362 OA
HETATM   11  C11 UNL     1      -3.599  -1.705   1.095  1.00  0.00     0.208 C 
HETATM   12  C12 UNL     1      -3.755  -0.969  -0.303  1.00  0.00     0.195 C 
HETATM   13  O2  UNL     1      -3.351   0.252  -0.140  1.00  0.00    -0.373 OA
HETATM   14  C13 UNL     1      -3.922   1.444  -0.308  1.00  0.00     0.207 C 
HETATM   15  C14 UNL     1      -2.765   2.425   0.027  1.00  0.00    -0.034 A 
HETATM   16  C15 UNL     1      -2.560   3.362   0.997  1.00  0.00     0.012 A 
HETATM   17  C16 UNL     1      -1.301   3.885   0.963  1.00  0.00     0.038 A 
HETATM   18  C17 UNL     1      -0.368   3.504   0.053  1.00  0.00     0.076 A 
HETATM   19  C18 UNL     1      -0.478   2.581  -0.962  1.00  0.00     0.038 A 
HETATM   20  C19 UNL     1      -1.759   2.077  -0.890  1.00  0.00     0.012 A 
HETATM   21  O3  UNL     1       0.975   3.949  -0.081  1.00  0.00    -0.304 OA
HETATM   22  C20 UNL     1       1.976   2.966   0.247  1.00  0.00     0.259 C 
HETATM   23  N3  UNL     1       1.558   1.782   0.092  1.00  0.00    -0.236 NA
ENDROOT
BRANCH   1  24
HETATM   24  C4  UNL     1       3.588   0.264   0.134  1.00  0.00    -0.007 A 
HETATM   25  C3  UNL     1       4.469   1.237  -0.273  1.00  0.00     0.015 A 
HETATM   26  C2  UNL     1       5.814   1.013  -0.433  1.00  0.00     0.024 A 
HETATM   27  C1  UNL     1       6.366  -0.222  -0.189  1.00  0.00     0.034 A 
HETATM   28 CL1  UNL     1       8.078  -0.528  -0.386  1.00  0.00    -0.084 Cl
HETATM   29  C22 UNL     1       5.519  -1.229   0.221  1.00  0.00     0.024 A 
HETATM   30  C21 UNL     1       4.176  -0.953   0.366  1.00  0.00     0.015 A 
ENDBRANCH   1  24
TORSDOF 1
