REMARK  2 active torsions:
REMARK  status: ('A' for Active; 'I' for Inactive)
REMARK    1  A    between atoms: C4_5  and  N1_6 
REMARK    2  A    between atoms: N1_6  and  C5_7 
ROOT
HETATM    1  C5  UNL     1      -0.970  -0.537  -0.068  1.00  0.00     0.160 A 
HETATM    2  N2  UNL     1      -1.523  -1.446   0.750  1.00  0.00    -0.222 NA
HETATM    3  C6  UNL     1      -0.858  -2.465   1.310  1.00  0.00     0.238 A 
HETATM    4  N3  UNL     1       0.458  -2.635   1.071  1.00  0.00    -0.215 NA
HETATM    5  C7  UNL     1       1.068  -1.746   0.251  1.00  0.00     0.202 A 
HETATM    6  C8  UNL     1       0.352  -0.707  -0.312  1.00  0.00     0.129 A 
HETATM    7  N4  UNL     1       0.844   0.280  -1.188  1.00  0.00    -0.379 N 
HETATM    8  C9  UNL     1       2.148   0.878  -1.335  1.00  0.00     0.161 C 
HETATM    9  C10 UNL     1       3.235   0.180  -0.684  1.00  0.00    -0.005 A 
HETATM   10  C11 UNL     1       4.343   1.032  -0.737  1.00  0.00     0.030 A 
HETATM   11  C12 UNL     1       5.574   0.698  -0.207  1.00  0.00     0.011 A 
HETATM   12 BR1  UNL     1       7.080   1.844  -0.271  1.00  0.00    -0.051 Br
HETATM   13  C13 UNL     1       5.718  -0.521   0.396  1.00  0.00     0.022 A 
HETATM   14  C14 UNL     1       4.666  -1.418   0.487  1.00  0.00     0.039 A 
HETATM   15  C15 UNL     1       3.430  -1.057  -0.057  1.00  0.00     0.086 A 
HETATM   16  O1  UNL     1       2.431  -2.030   0.083  1.00  0.00    -0.289 OA
HETATM   17  H5  UNL     1       0.117   0.638  -1.859  1.00  0.00     0.160 HD
ENDROOT
BRANCH   1  18
HETATM   18  N1  UNL     1      -1.762   0.499  -0.587  1.00  0.00    -0.339 N 
HETATM   19  H3  UNL     1      -1.531   1.321  -1.179  1.00  0.00     0.167 HD
BRANCH  18  20
HETATM   20  C4  UNL     1      -3.162   0.592  -0.350  1.00  0.00     0.035 A 
HETATM   21  C3  UNL     1      -3.984  -0.505  -0.163  1.00  0.00     0.032 A 
HETATM   22  C2  UNL     1      -5.332  -0.430   0.094  1.00  0.00     0.046 A 
HETATM   23  C1  UNL     1      -5.940   0.816   0.178  1.00  0.00     0.138 A 
HETATM   24  F1  UNL     1      -7.262   0.939   0.430  1.00  0.00    -0.204 F 
HETATM   25  C17 UNL     1      -5.204   1.973   0.006  1.00  0.00     0.074 A 
HETATM   26  C16 UNL     1      -3.876   1.789  -0.245  1.00  0.00     0.056 A 
HETATM   27 CL1  UNL     1      -5.877   3.585   0.097  1.00  0.00    -0.081 Cl
ENDBRANCH  18  20
ENDBRANCH   1  18
TORSDOF 2
