REMARK  6 active torsions:
REMARK  status: ('A' for Active; 'I' for Inactive)
REMARK    1  A    between atoms: N1_2  and  C2_3 
REMARK    2  A    between atoms: C4_5  and  C5_6 
REMARK    3  A    between atoms: C8_9  and  O1_10 
REMARK    4  A    between atoms: N3_15  and  C12_16 
REMARK    5  A    between atoms: C12_16  and  S1_17 
REMARK    6  A    between atoms: C13_18  and  N4_19 
ROOT
HETATM    1  C2  UNL     1       0.103  -0.171  -1.192  1.00  0.00     0.203 C 
HETATM    2  C3  UNL     1       1.524   0.265  -1.171  1.00  0.00     0.109 C 
HETATM    3  C4  UNL     1       2.028  -0.236   0.121  1.00  0.00     0.068 C 
HETATM    4  N2  UNL     1       1.037  -0.613   0.856  1.00  0.00    -0.178 NA
HETATM    5  N3  UNL     1      -0.169  -0.431   0.209  1.00  0.00    -0.273 N 
ENDROOT
BRANCH   5   6
HETATM    6  C12 UNL     1      -1.373  -0.530   1.003  1.00  0.00     0.220 C 
BRANCH   6   7
HETATM    7  S1  UNL     1      -2.833  -0.259  -0.058  1.00  0.00    -0.136 SA
HETATM    8  C13 UNL     1      -4.221   0.376   0.547  1.00  0.00     0.020 C 
HETATM    9  C14 UNL     1      -5.226   0.494  -0.519  1.00  0.00     0.035 C 
HETATM   10  C15 UNL     1      -6.472   1.114   0.062  1.00  0.00     0.017 C 
HETATM   11  C16 UNL     1      -5.566  -0.851  -1.119  1.00  0.00     0.038 C 
HETATM   12  C17 UNL     1      -4.424  -1.504  -1.780  1.00  0.00    -0.020 C 
HETATM   13  C18 UNL     1      -3.132  -1.382  -1.471  1.00  0.00     0.037 C 
BRANCH   8  14
HETATM   14  N4  UNL     1      -4.480   0.775   1.863  1.00  0.00    -0.301 NA
HETATM   15  H17 UNL     1      -3.662   1.142   2.426  1.00  0.00     0.124 HD
HETATM   16  H18 UNL     1      -4.514   1.104   2.838  1.00  0.00     0.124 HD
ENDBRANCH   8  14
ENDBRANCH   6   7
ENDBRANCH   5   6
BRANCH   1  17
HETATM   17  N1  UNL     1      -0.823   0.829  -1.639  1.00  0.00    -0.404 N 
HETATM   18  C1  UNL     1      -0.839   2.017  -0.846  1.00  0.00     0.142 C 
HETATM   19  H4  UNL     1      -0.852   0.982  -2.654  1.00  0.00     0.154 HD
ENDBRANCH   1  17
BRANCH   3  20
HETATM   20  C5  UNL     1       3.457  -0.284   0.486  1.00  0.00    -0.009 A 
HETATM   21  C6  UNL     1       4.441   0.153  -0.393  1.00  0.00     0.016 A 
HETATM   22  C7  UNL     1       5.753   0.078   0.015  1.00  0.00     0.037 A 
HETATM   23  C8  UNL     1       6.117  -0.411   1.252  1.00  0.00     0.068 A 
HETATM   24  C10 UNL     1       5.156  -0.847   2.132  1.00  0.00     0.037 A 
HETATM   25  C11 UNL     1       3.826  -0.772   1.722  1.00  0.00     0.016 A 
BRANCH  23  26
HETATM   26  O1  UNL     1       7.414  -0.510   1.716  1.00  0.00    -0.356 OA
HETATM   27  C9  UNL     1       8.505  -0.099   0.918  1.00  0.00     0.210 C 
ENDBRANCH  23  26
ENDBRANCH   3  20
TORSDOF 6
