REMARK  4 active torsions:
REMARK  status: ('A' for Active; 'I' for Inactive)
REMARK    1  A    between atoms: C2_2  and  C3_3 
REMARK    2  A    between atoms: C8_10  and  C9_11 
REMARK    3  A    between atoms: C15_19  and  S1_20 
REMARK    4  A    between atoms: C20_26  and  O2_27 
ROOT
HETATM    1  C3  UNL     1      -2.910  -1.864  -0.162  1.00  0.00     0.166 C 
HETATM    2  C4  UNL     1      -2.101  -3.029  -0.515  1.00  0.00     0.011 C 
HETATM    3  C5  UNL     1      -0.834  -3.123  -0.858  1.00  0.00     0.035 C 
HETATM    4  C6  UNL     1       0.138  -2.045  -0.982  1.00  0.00     0.112 C 
HETATM    5  N1  UNL     1      -0.009  -0.809  -1.412  1.00  0.00    -0.170 NA
HETATM    6  N2  UNL     1       0.318   0.343  -0.637  1.00  0.00    -0.277 N 
HETATM    7  C7  UNL     1       1.608   0.454   0.011  1.00  0.00     0.144 C 
HETATM    8  C8  UNL     1       2.612  -0.404   0.094  1.00  0.00     0.085 C 
HETATM    9  N3  UNL     1       2.461  -1.817  -0.023  1.00  0.00    -0.238 NA
HETATM   10  C15 UNL     1       1.479  -2.481  -0.529  1.00  0.00     0.121 C 
HETATM   11  C16 UNL     1      -0.395   1.555  -0.298  1.00  0.00     0.164 C 
HETATM   12  C17 UNL     1      -1.840   1.555  -0.649  1.00  0.00     0.028 A 
HETATM   13  C18 UNL     1      -2.499   0.230  -0.762  1.00  0.00     0.183 C 
HETATM   14  O1  UNL     1      -2.144  -0.719   0.161  1.00  0.00    -0.377 OA
HETATM   15  C19 UNL     1      -2.320   2.549  -1.720  1.00  0.00     0.048 A 
HETATM   16  C20 UNL     1      -2.667   2.723  -0.249  1.00  0.00     0.134 A 
ENDROOT
BRANCH   8  17
HETATM   17  C9  UNL     1       3.981   0.049   0.315  1.00  0.00    -0.006 A 
HETATM   18  C10 UNL     1       4.392   1.352   0.447  1.00  0.00     0.015 A 
HETATM   19  C11 UNL     1       5.694   1.751   0.658  1.00  0.00     0.024 A 
HETATM   20  C12 UNL     1       6.679   0.790   0.747  1.00  0.00     0.034 A 
HETATM   21 CL1  UNL     1       8.327   1.321   1.016  1.00  0.00    -0.084 Cl
HETATM   22  C13 UNL     1       6.305  -0.531   0.620  1.00  0.00     0.024 A 
HETATM   23  C14 UNL     1       4.989  -0.882   0.410  1.00  0.00     0.015 A 
ENDBRANCH   8  17
BRANCH  10  24
HETATM   24  S1  UNL     1       1.772  -4.253  -0.727  1.00  0.00    -0.121 SA
HETATM   25  H12 UNL     1       1.190  -4.927   0.359  1.00  0.00     0.108 HD
ENDBRANCH  10  24
BRANCH  16  26
HETATM   26  O2  UNL     1      -2.105   3.834   0.335  1.00  0.00    -0.390 OA
HETATM   27  C21 UNL     1      -2.970   4.474   1.221  1.00  0.00     0.202 C 
ENDBRANCH  16  26
BRANCH   1  28
HETATM   28  C2  UNL     1      -3.820  -2.217   0.952  1.00  0.00    -0.002 C 
HETATM   29  C1  UNL     1      -4.324  -3.437   0.885  1.00  0.00     0.010 C 
ENDBRANCH   1  28
TORSDOF 4
