REMARK  2 active torsions:
REMARK  status: ('A' for Active; 'I' for Inactive)
REMARK    1  A    between atoms: O1_2  and  C2_3 
REMARK    2  A    between atoms: C17_22  and  O2_23 
ROOT
HETATM    1  C2  UNL     1       0.012   2.531  -0.053  1.00  0.00     0.069 C 
HETATM    2  C3  UNL     1       1.190   1.880  -0.109  1.00  0.00     0.082 C 
HETATM    3  C4  UNL     1       1.894   1.262   0.971  1.00  0.00    -0.003 C 
HETATM    4  C5  UNL     1       3.010   0.623   0.970  1.00  0.00     0.000 C 
HETATM    5  C6  UNL     1       4.167   0.095   0.279  1.00  0.00     0.139 C 
HETATM    6  C7  UNL     1       4.064  -0.041  -1.208  1.00  0.00     0.080 C 
HETATM    7  C8  UNL     1       4.920  -1.260  -1.479  1.00  0.00     0.114 C 
HETATM    8  N1  UNL     1       5.140  -1.930  -0.370  1.00  0.00    -0.187 NA
HETATM    9  N2  UNL     1       4.503  -1.281   0.686  1.00  0.00    -0.255 N 
HETATM   10  C9  UNL     1       4.268  -1.950   1.920  1.00  0.00     0.228 C 
HETATM   11  N3  UNL     1       3.058  -2.396   1.994  1.00  0.00    -0.255 NA
HETATM   12  C10 UNL     1       2.119  -2.215   0.947  1.00  0.00     0.114 C 
HETATM   13  C11 UNL     1       1.504  -2.210  -0.227  1.00  0.00    -0.000 C 
HETATM   14  C12 UNL     1       0.138  -1.600  -0.245  1.00  0.00     0.097 C 
HETATM   15  C13 UNL     1      -0.545  -1.563  -1.422  1.00  0.00     0.039 C 
HETATM   16 CL1  UNL     1      -0.629  -1.931  -3.196  1.00  0.00    -0.123 Cl
HETATM   17  C14 UNL     1      -1.750  -0.915  -0.987  1.00  0.00    -0.013 C 
HETATM   18  C15 UNL     1      -2.786  -0.774  -2.119  1.00  0.00     0.018 C 
HETATM   19  C16 UNL     1      -2.477  -1.465   0.214  1.00  0.00     0.075 C 
HETATM   20  C17 UNL     1      -3.624  -0.461   0.237  1.00  0.00     0.043 C 
HETATM   21  C19 UNL     1      -3.059   0.703  -0.152  1.00  0.00     0.011 C 
HETATM   22  C20 UNL     1      -1.545   0.540  -0.441  1.00  0.00     0.025 C 
HETATM   23  C21 UNL     1      -1.026   0.404   0.829  1.00  0.00     0.004 C 
HETATM   24  C22 UNL     1      -1.086   1.344   1.773  1.00  0.00    -0.033 C 
HETATM   25  C23 UNL     1      -0.510   2.477   1.340  1.00  0.00     0.066 C 
ENDROOT
BRANCH   1  26
HETATM   26  O1  UNL     1      -1.186   3.221  -0.121  1.00  0.00    -0.386 OA
HETATM   27  C1  UNL     1      -1.412   4.191  -1.139  1.00  0.00     0.202 C 
ENDBRANCH   1  26
BRANCH  20  28
HETATM   28  O2  UNL     1      -4.970  -0.513   0.542  1.00  0.00    -0.361 OA
HETATM   29  C18 UNL     1      -5.461  -0.931   1.798  1.00  0.00     0.209 C 
ENDBRANCH  20  28
TORSDOF 2
