REMARK  3 active torsions:
REMARK  status: ('A' for Active; 'I' for Inactive)
REMARK    1  A    between atoms: N1_9  and  C8_10 
REMARK    2  A    between atoms: C11_17  and  C12_18 
REMARK    3  A    between atoms: C12_18  and  N6_19 
ROOT
HETATM    1  C1  UNL     1       1.883   2.222   2.353  1.00  0.00     0.033 C 
HETATM    2  C2  UNL     1       1.906   1.825   1.118  1.00  0.00     0.005 C 
HETATM    3  C3  UNL     1       1.895   1.281  -0.223  1.00  0.00     0.054 A 
HETATM    4  C4  UNL     1       2.311   2.242  -1.038  1.00  0.00     0.042 A 
HETATM    5 CL1  UNL     1       2.731   3.793  -0.330  1.00  0.00    -0.086 Cl
HETATM    6  C5  UNL     1       2.395   1.945  -2.497  1.00  0.00     0.082 A 
HETATM    7  C6  UNL     1       1.963   0.544  -2.691  1.00  0.00    -0.004 A 
HETATM    8  C7  UNL     1       1.551  -0.407  -1.878  1.00  0.00     0.095 A 
HETATM    9  N1  UNL     1       1.500  -0.043  -0.517  1.00  0.00    -0.304 N 
ENDROOT
BRANCH   9  10
HETATM   10  C8  UNL     1       1.108  -0.938   0.498  1.00  0.00     0.166 A 
HETATM   11  N2  UNL     1       2.118  -1.532   1.076  1.00  0.00    -0.220 NA
HETATM   12  C9  UNL     1       1.883  -2.480   2.137  1.00  0.00     0.259 A 
HETATM   13  N3  UNL     1       0.679  -2.757   2.530  1.00  0.00    -0.149 NA
HETATM   14  N4  UNL     1      -0.415  -2.123   1.913  1.00  0.00    -0.191 N 
HETATM   15  N5  UNL     1      -1.752  -2.310   2.234  1.00  0.00    -0.212 NA
HETATM   16  C14 UNL     1      -0.269  -1.180   0.866  1.00  0.00     0.123 A 
HETATM   17  C10 UNL     1      -2.464  -1.448   1.321  1.00  0.00     0.151 A 
HETATM   18  H9  UNL     1      -2.103  -3.281   2.091  1.00  0.00     0.149 HD
HETATM   19  C11 UNL     1      -1.452  -0.748   0.503  1.00  0.00    -0.004 A 
BRANCH  19  20
HETATM   20  C12 UNL     1      -1.711   0.268  -0.518  1.00  0.00     0.307 C 
BRANCH  20  21
HETATM   21  N6  UNL     1      -2.499  -0.158  -1.641  1.00  0.00     0.083 N 
HETATM   22  C13 UNL     1      -3.868  -0.436  -1.349  1.00  0.00     0.307 C 
HETATM   23  H14 UNL     1      -2.330   0.480  -2.438  1.00  0.00     0.315 HD
ENDBRANCH  20  21
ENDBRANCH  19  20
ENDBRANCH   9  10
TORSDOF 3
