REMARK  7 active torsions:
REMARK  status: ('A' for Active; 'I' for Inactive)
REMARK    1  A    between atoms: C2_2  and  C3_3 
REMARK    2  A    between atoms: C4_4  and  C5_5 
REMARK    3  A    between atoms: N2_7  and  C6_8 
REMARK    4  A    between atoms: C6_8  and  S1_9 
REMARK    5  A    between atoms: S1_9  and  C7_10 
REMARK    6  A    between atoms: C13_18  and  C14_19 
REMARK    7  A    between atoms: C17_22  and  O1_23 
ROOT
HETATM    1  C5  UNL     1      -1.795  -2.229  -0.301  1.00  0.00     0.056 C 
HETATM    2  N1  UNL     1      -0.695  -1.843   0.229  1.00  0.00    -0.180 NA
HETATM    3  N2  UNL     1      -0.669  -0.446   0.423  1.00  0.00    -0.286 N 
HETATM    4  C13 UNL     1      -2.074  -0.181   0.642  1.00  0.00     0.143 C 
HETATM    5  C21 UNL     1      -2.640  -1.022  -0.511  1.00  0.00     0.093 C 
ENDROOT
BRANCH   3   6
HETATM    6  C6  UNL     1       0.494   0.421   0.395  1.00  0.00     0.223 C 
BRANCH   6   7
HETATM    7  S1  UNL     1       1.368   0.397  -1.172  1.00  0.00    -0.118 SA
BRANCH   7   8
HETATM    8  C7  UNL     1       2.762   1.506  -1.047  1.00  0.00     0.071 C 
HETATM    9  C8  UNL     1       3.962   1.120  -0.659  1.00  0.00     0.015 C 
HETATM   10  C9  UNL     1       4.167  -0.309  -0.308  1.00  0.00     0.085 C 
HETATM   11  N3  UNL     1       4.978   2.111  -0.606  1.00  0.00    -0.387 N 
HETATM   12  C10 UNL     1       5.440  -0.476   0.472  1.00  0.00     0.000 C 
HETATM   13  C11 UNL     1       6.403   0.440   0.383  1.00  0.00     0.026 C 
HETATM   14 CL1  UNL     1       7.860   0.143   1.345  1.00  0.00    -0.087 Cl
HETATM   15  C12 UNL     1       6.346   1.673  -0.451  1.00  0.00     0.170 C 
HETATM   16  H16 UNL     1       4.708   3.134  -0.680  1.00  0.00     0.159 HD
ENDBRANCH   7   8
ENDBRANCH   6   7
ENDBRANCH   3   6
BRANCH   4  17
HETATM   17  C14 UNL     1      -2.462   1.222   0.572  1.00  0.00    -0.033 A 
HETATM   18  C15 UNL     1      -3.308   1.771   1.529  1.00  0.00     0.012 A 
HETATM   19  C16 UNL     1      -3.647   3.109   1.418  1.00  0.00     0.037 A 
HETATM   20  C17 UNL     1      -3.177   3.931   0.387  1.00  0.00     0.068 A 
HETATM   21  C19 UNL     1      -2.336   3.346  -0.547  1.00  0.00     0.037 A 
HETATM   22  C20 UNL     1      -1.987   2.009  -0.450  1.00  0.00     0.012 A 
BRANCH  20  23
HETATM   23  O1  UNL     1      -3.582   5.260   0.372  1.00  0.00    -0.356 OA
HETATM   24  C18 UNL     1      -3.104   6.081  -0.669  1.00  0.00     0.210 C 
ENDBRANCH  20  23
ENDBRANCH   4  17
BRANCH   1  25
HETATM   25  C4  UNL     1      -2.169  -3.597  -0.643  1.00  0.00     0.025 C 
HETATM   26  C3  UNL     1      -1.326  -4.591  -0.406  1.00  0.00    -0.025 C 
BRANCH  26  27
HETATM   27  C2  UNL     1      -1.712  -5.999  -0.758  1.00  0.00     0.022 C 
HETATM   28  C1  UNL     1      -1.718  -6.894   0.459  1.00  0.00     0.009 C 
ENDBRANCH  26  27
ENDBRANCH   1  25
TORSDOF 7
