REMARK  8 active torsions:
REMARK  status: ('A' for Active; 'I' for Inactive)
REMARK    1  A    between atoms: O1_2  and  C2_3 
REMARK    2  A    between atoms: C5_6  and  C6_7 
REMARK    3  A    between atoms: N2_9  and  C7_10 
REMARK    4  A    between atoms: C7_10  and  S1_11 
REMARK    5  A    between atoms: S1_11  and  C8_12 
REMARK    6  A    between atoms: C8_12  and  C9_13 
REMARK    7  A    between atoms: C9_13  and  C10_14 
REMARK    8  A    between atoms: C10_14  and  C11_15 
ROOT
HETATM    1  C6  UNL     1      -0.965   0.548   0.360  1.00  0.00     0.066 C 
HETATM    2  N1  UNL     1       0.090  -0.008  -0.113  1.00  0.00    -0.180 NA
HETATM    3  N2  UNL     1       1.228   0.319   0.610  1.00  0.00    -0.295 N 
HETATM    4  C12 UNL     1       0.898   1.567   1.286  1.00  0.00     0.152 C 
HETATM    5  C13 UNL     1      -0.581   1.363   1.543  1.00  0.00     0.083 C 
ENDROOT
BRANCH   1   6
HETATM    6  C5  UNL     1      -2.318   0.408  -0.169  1.00  0.00    -0.010 A 
HETATM    7  C4  UNL     1      -3.393   1.048   0.411  1.00  0.00     0.016 A 
HETATM    8  C3  UNL     1      -4.673   0.890  -0.124  1.00  0.00     0.037 A 
HETATM    9  C2  UNL     1      -4.864   0.082  -1.249  1.00  0.00     0.068 A 
HETATM   10  C15 UNL     1      -3.795  -0.569  -1.844  1.00  0.00     0.037 A 
HETATM   11  C14 UNL     1      -2.551  -0.380  -1.277  1.00  0.00     0.016 A 
BRANCH   9  12
HETATM   12  O1  UNL     1      -6.102  -0.113  -1.821  1.00  0.00    -0.356 OA
HETATM   13  C1  UNL     1      -7.271   0.500  -1.301  1.00  0.00     0.210 C 
ENDBRANCH   9  12
ENDBRANCH   1   6
BRANCH   3  14
HETATM   14  C7  UNL     1       2.446  -0.447   0.649  1.00  0.00     0.222 C 
BRANCH  14  15
HETATM   15  S1  UNL     1       3.193  -0.618  -1.013  1.00  0.00    -0.120 SA
BRANCH  15  16
HETATM   16  C8  UNL     1       4.689  -1.574  -0.873  1.00  0.00     0.046 C 
BRANCH  16  17
HETATM   17  C9  UNL     1       5.915  -1.950  -0.568  1.00  0.00     0.009 C 
BRANCH  17  18
HETATM   18  C10 UNL     1       6.769  -1.063   0.179  1.00  0.00     0.030 C 
BRANCH  18  19
HETATM   19  C11 UNL     1       8.003  -1.375   0.516  1.00  0.00     0.188 C 
HETATM   20  F1  UNL     1       8.824  -0.569   1.212  1.00  0.00    -0.219 F 
ENDBRANCH  18  19
ENDBRANCH  17  18
ENDBRANCH  16  17
ENDBRANCH  15  16
ENDBRANCH  14  15
ENDBRANCH   3  14
TORSDOF 8
