REMARK  5 active torsions:
REMARK  status: ('A' for Active; 'I' for Inactive)
REMARK    1  A    between atoms: C2_2  and  C3_3 
REMARK    2  A    between atoms: C5_6  and  N1_7 
REMARK    3  A    between atoms: C8_12  and  C9_13 
REMARK    4  A    between atoms: C10_14  and  C11_15 
REMARK    5  A    between atoms: C12_16  and  C14_18 
ROOT
HETATM    1  N1  UNL     1       0.925   1.939  -0.099  1.00  0.00    -0.228 N 
HETATM    2  N2  UNL     1       0.327   3.075   0.450  1.00  0.00    -0.161 NA
HETATM    3  C6  UNL     1      -0.490   3.608  -0.393  1.00  0.00     0.127 C 
HETATM    4 CL1  UNL     1      -1.473   5.041  -0.170  1.00  0.00    -0.065 Cl
HETATM    5  C7  UNL     1      -0.537   2.844  -1.684  1.00  0.00     0.114 C 
HETATM    6  C8  UNL     1       0.259   1.611  -1.310  1.00  0.00     0.198 C 
ENDROOT
BRANCH   1   7
HETATM    7  C5  UNL     1       2.048   1.213   0.480  1.00  0.00     0.191 A 
HETATM    8  S1  UNL     1       2.878   1.605   1.970  1.00  0.00    -0.060 SA
HETATM    9  C4  UNL     1       4.061   0.251   1.906  1.00  0.00     0.085 A 
HETATM   10  C3  UNL     1       3.632  -0.346   0.683  1.00  0.00     0.065 A 
HETATM   11  N3  UNL     1       2.626   0.091  -0.079  1.00  0.00    -0.223 NA
BRANCH  10  12
HETATM   12  C2  UNL     1       4.298  -1.533   0.161  1.00  0.00     0.022 C 
HETATM   13  C1  UNL     1       5.306  -2.118   0.757  1.00  0.00     0.013 C 
ENDBRANCH  10  12
ENDBRANCH   1   7
BRANCH   6  14
HETATM   14  C9  UNL     1      -0.642   0.487  -1.046  1.00  0.00    -0.074 C 
HETATM   15  C10 UNL     1      -1.367  -0.449  -0.834  1.00  0.00    -0.076 C 
BRANCH  15  16
HETATM   16  C11 UNL     1      -2.220  -1.576  -0.601  1.00  0.00     0.067 C 
HETATM   17  C12 UNL     1      -3.422  -1.522  -0.058  1.00  0.00    -0.066 C 
HETATM   18  C13 UNL     1      -4.262  -2.734   0.159  1.00  0.00     0.044 C 
BRANCH  17  19
HETATM   19  C14 UNL     1      -4.231  -0.386   0.454  1.00  0.00     0.119 C 
HETATM   20 BR1  UNL     1      -3.287   1.279   0.255  1.00  0.00    -0.092 Br
ENDBRANCH  17  19
ENDBRANCH  15  16
ENDBRANCH   6  14
TORSDOF 5
