REMARK  1 active torsions:
REMARK  status: ('A' for Active; 'I' for Inactive)
REMARK    1  A    between atoms: S1_2  and  C2_3 
ROOT
HETATM    1  C2  UNL     1       3.322   0.396  -0.202  1.00  0.00    -0.016 C 
HETATM    2  C3  UNL     1       2.413   1.208  -0.791  1.00  0.00    -0.006 C 
HETATM    3  C4  UNL     1       1.366   1.427  -1.821  1.00  0.00     0.084 C 
HETATM    4  C5  UNL     1       0.013   1.549  -1.228  1.00  0.00     0.039 C 
HETATM    5  N1  UNL     1      -0.808   2.363  -0.571  1.00  0.00    -0.179 NA
HETATM    6  N2  UNL     1      -1.881   1.620  -0.139  1.00  0.00    -0.241 N 
HETATM    7  C6  UNL     1      -3.197   1.831   0.219  1.00  0.00     0.120 C 
HETATM    8  N3  UNL     1      -4.003   2.521  -0.560  1.00  0.00    -0.273 NA
HETATM    9  C7  UNL     1      -5.148   1.582  -0.865  1.00  0.00     0.181 C 
HETATM   10  C8  UNL     1      -4.894   0.499   0.206  1.00  0.00     0.080 C 
HETATM   11 CL1  UNL     1      -6.421  -0.051   0.823  1.00  0.00    -0.113 Cl
HETATM   12  C9  UNL     1      -3.950  -0.527  -0.211  1.00  0.00     0.010 C 
HETATM   13  C10 UNL     1      -2.629  -0.739  -0.220  1.00  0.00    -0.029 C 
HETATM   14  C11 UNL     1      -2.141  -2.105  -0.344  1.00  0.00     0.008 C 
HETATM   15  C12 UNL     1      -0.823  -2.340  -0.167  1.00  0.00     0.006 C 
HETATM   16  C13 UNL     1       0.069  -1.495   0.653  1.00  0.00     0.150 C 
HETATM   17  O1  UNL     1       1.210  -1.199  -0.001  1.00  0.00    -0.381 OA
HETATM   18  C14 UNL     1       2.379  -1.827   0.251  1.00  0.00     0.182 C 
HETATM   19  C15 UNL     1       3.398  -1.051  -0.652  1.00  0.00     0.007 C 
HETATM   20  C16 UNL     1       3.081  -1.242  -2.100  1.00  0.00     0.023 C 
HETATM   21  C17 UNL     1       4.728  -1.687  -0.356  1.00  0.00     0.023 C 
HETATM   22  C18 UNL     1      -0.674  -0.200   1.042  1.00  0.00     0.050 C 
HETATM   23  C19 UNL     1      -1.485  -0.556   2.238  1.00  0.00     0.016 C 
HETATM   24  C20 UNL     1      -1.497   0.201  -0.119  1.00  0.00     0.095 C 
HETATM   25  C21 UNL     1      -0.741   0.251  -1.444  1.00  0.00     0.095 C 
HETATM   26  C22 UNL     1      -4.239   1.488   1.225  1.00  0.00     0.111 C 
ENDROOT
BRANCH   1  27
HETATM   27  S1  UNL     1       4.464   0.696   1.180  1.00  0.00    -0.138 SA
HETATM   28  C1  UNL     1       4.369   2.421   1.713  1.00  0.00     0.095 C 
ENDBRANCH   1  27
TORSDOF 1
