REMARK  0 active torsions:
REMARK  status: ('A' for Active; 'I' for Inactive)
ROOT
HETATM    1  C1  UNL     1      -3.135  -2.340   0.874  1.00  0.00     0.049 C 
HETATM    2  C2  UNL     1      -1.758  -1.913   0.478  1.00  0.00    -0.053 C 
HETATM    3  C3  UNL     1      -0.785  -2.846   0.480  1.00  0.00    -0.013 C 
HETATM    4  C4  UNL     1       0.475  -2.186   0.063  1.00  0.00     0.020 C 
HETATM    5  C5  UNL     1       1.791  -2.407  -0.172  1.00  0.00    -0.012 C 
HETATM    6  C6  UNL     1       2.620  -1.215  -0.608  1.00  0.00    -0.044 C 
HETATM    7  B1  UNL     1       3.845  -1.060   0.633  1.00  0.00     0.212 B 
HETATM    8  C7  UNL     1       4.935   0.385   0.553  1.00  0.00     0.014 C 
HETATM    9  N1  UNL     1       4.253   1.476   0.458  1.00  0.00    -0.190 NA
HETATM   10  N2  UNL     1       3.373   1.608  -0.648  1.00  0.00    -0.256 N 
HETATM   11  C8  UNL     1       2.239   2.412  -0.198  1.00  0.00     0.187 A 
HETATM   12  N3  UNL     1       1.127   2.114  -0.079  1.00  0.00    -0.222 NA
HETATM   13  C9  UNL     1       0.088   2.776   0.314  1.00  0.00     0.076 A 
HETATM   14  C10 UNL     1       0.263   4.056   0.669  1.00  0.00     0.085 A 
HETATM   15  S1  UNL     1       2.165   4.145   0.338  1.00  0.00    -0.060 SA
HETATM   16  C11 UNL     1      -0.811   1.648   0.115  1.00  0.00    -0.006 A 
HETATM   17  C12 UNL     1      -1.861   2.152  -0.665  1.00  0.00     0.015 A 
HETATM   18  C13 UNL     1      -2.905   1.314  -1.078  1.00  0.00     0.026 A 
HETATM   19  C14 UNL     1      -2.788   0.005  -0.651  1.00  0.00     0.044 A 
HETATM   20 CL1  UNL     1      -4.084  -1.084  -1.164  1.00  0.00    -0.083 Cl
HETATM   21  C15 UNL     1      -1.747  -0.499   0.126  1.00  0.00    -0.008 A 
HETATM   22  C16 UNL     1      -0.760   0.332   0.506  1.00  0.00     0.027 A 
HETATM   23  H9  UNL     1       3.054   1.475  -1.619  1.00  0.00     0.191 HD
ENDROOT
TORSDOF 0
