REMARK  4 active torsions:
REMARK  status: ('A' for Active; 'I' for Inactive)
REMARK    1  A    between atoms: C2_2  and  C3_3 
REMARK    2  A    between atoms: C4_4  and  C5_5 
REMARK    3  A    between atoms: C8_9  and  N1_10 
REMARK    4  A    between atoms: C12_16  and  C13_17 
ROOT
HETATM    1  N1  UNL     1      -0.940  -1.639   1.012  1.00  0.00    -0.211 N 
HETATM    2  N2  UNL     1      -1.111  -2.853   1.673  1.00  0.00    -0.139 NA
HETATM    3  C9  UNL     1      -2.321  -3.104   1.959  1.00  0.00     0.211 A 
HETATM    4  F1  UNL     1      -2.921  -4.157   2.591  1.00  0.00    -0.187 F 
HETATM    5  C10 UNL     1      -3.236  -2.000   1.491  1.00  0.00     0.153 A 
HETATM    6  C11 UNL     1      -2.239  -1.081   0.885  1.00  0.00     0.047 A 
HETATM    7  C12 UNL     1      -2.491   0.080   0.309  1.00  0.00     0.039 C 
ENDROOT
BRANCH   1   8
HETATM    8  C8  UNL     1       0.338  -1.181   0.601  1.00  0.00     0.190 C 
HETATM    9  S1  UNL     1       0.403  -0.370  -0.991  1.00  0.00    -0.084 SA
HETATM   10  C7  UNL     1       2.163   0.169  -0.874  1.00  0.00     0.142 C 
HETATM   11  C6  UNL     1       2.510  -0.628   0.344  1.00  0.00     0.047 C 
HETATM   12  C5  UNL     1       3.834  -0.696   0.588  1.00  0.00     0.028 C 
HETATM   13  N3  UNL     1       1.509  -1.217   1.128  1.00  0.00    -0.227 NA
BRANCH  12  14
HETATM   14  C4  UNL     1       4.749  -0.017  -0.313  1.00  0.00     0.002 C 
HETATM   15  C3  UNL     1       6.013  -0.141  -0.013  1.00  0.00    -0.001 C 
BRANCH  15  16
HETATM   16  C2  UNL     1       6.855   0.559  -0.950  1.00  0.00    -0.010 C 
HETATM   17  C1  UNL     1       8.086   0.856  -1.269  1.00  0.00     0.011 C 
ENDBRANCH  15  16
ENDBRANCH  12  14
ENDBRANCH   1   8
BRANCH   7  18
HETATM   18  C13 UNL     1      -3.715   0.804   0.084  1.00  0.00    -0.034 A 
HETATM   19  C14 UNL     1      -4.757   0.986   0.967  1.00  0.00     0.011 A 
HETATM   20  C15 UNL     1      -5.921   1.648   0.748  1.00  0.00     0.001 A 
HETATM   21  C16 UNL     1      -6.086   2.206  -0.507  1.00  0.00     0.000 A 
HETATM   22  C17 UNL     1      -5.134   2.104  -1.481  1.00  0.00     0.001 A 
HETATM   23  C18 UNL     1      -3.988   1.410  -1.154  1.00  0.00     0.011 A 
ENDBRANCH   7  18
TORSDOF 4
