REMARK  3 active torsions:
REMARK  status: ('A' for Active; 'I' for Inactive)
REMARK    1  A    between atoms: C4_5  and  C5_6 
REMARK    2  A    between atoms: N2_10  and  C8_11 
REMARK    3  A    between atoms: C9_13  and  C10_14 
ROOT
HETATM    1  C5  UNL     1      -1.687  -0.854   0.192  1.00  0.00     0.139 C 
HETATM    2  C6  UNL     1      -1.490  -0.283   1.603  1.00  0.00     0.048 C 
HETATM    3  C7  UNL     1      -1.760   1.192   1.270  1.00  0.00     0.113 C 
HETATM    4  N1  UNL     1      -1.752   1.279  -0.197  1.00  0.00    -0.235 NA
HETATM    5  N2  UNL     1      -0.904   0.205  -0.489  1.00  0.00    -0.281 N 
HETATM    6  H8  UNL     1      -1.357   2.194  -0.512  1.00  0.00     0.146 HD
ENDROOT
BRANCH   5   7
HETATM    7  C8  UNL     1       0.369   0.024  -1.187  1.00  0.00     0.184 A 
HETATM    8  N3  UNL     1       1.458   0.030  -0.420  1.00  0.00    -0.222 NA
HETATM    9  C9  UNL     1       2.606  -0.131  -1.044  1.00  0.00     0.076 A 
HETATM   10  C16 UNL     1       2.725  -0.298  -2.404  1.00  0.00     0.085 A 
HETATM   11  S1  UNL     1       0.939  -0.223  -2.943  1.00  0.00    -0.060 SA
BRANCH   9  12
HETATM   12  C10 UNL     1       3.819  -0.136  -0.179  1.00  0.00    -0.007 A 
HETATM   13  C11 UNL     1       3.758   0.022   1.198  1.00  0.00     0.014 A 
HETATM   14  C12 UNL     1       4.838   0.013   2.061  1.00  0.00     0.001 A 
HETATM   15  C13 UNL     1       6.072  -0.171   1.481  1.00  0.00     0.000 A 
HETATM   16  C14 UNL     1       6.213  -0.334   0.121  1.00  0.00     0.001 A 
HETATM   17  C15 UNL     1       5.078  -0.311  -0.662  1.00  0.00     0.014 A 
ENDBRANCH   9  12
ENDBRANCH   5   7
BRANCH   1  18
HETATM   18  C4  UNL     1      -3.109  -0.658  -0.172  1.00  0.00    -0.034 A 
HETATM   19  C3  UNL     1      -4.198  -0.725   0.672  1.00  0.00     0.012 A 
HETATM   20  C2  UNL     1      -5.504  -0.529   0.280  1.00  0.00     0.043 A 
HETATM   21  C1  UNL     1      -5.782  -0.245  -1.040  1.00  0.00     0.116 A 
HETATM   22  F1  UNL     1      -7.086  -0.065  -1.344  1.00  0.00    -0.206 F 
HETATM   23  C18 UNL     1      -4.714  -0.168  -1.927  1.00  0.00     0.043 A 
HETATM   24  C17 UNL     1      -3.424  -0.372  -1.489  1.00  0.00     0.012 A 
ENDBRANCH   1  18
TORSDOF 3
