REMARK  2 active torsions:
REMARK  status: ('A' for Active; 'I' for Inactive)
REMARK    1  A    between atoms: C14_18  and  C15_19 
REMARK    2  A    between atoms: C16_20  and  O1_21 
ROOT
HETATM    1  C1  UNL     1      -2.234   1.748  -2.690  1.00  0.00     0.068 C 
HETATM    2  C2  UNL     1      -2.434   0.714  -1.597  1.00  0.00     0.033 C 
HETATM    3  N1  UNL     1      -3.033   1.515  -0.892  1.00  0.00    -0.182 NA
HETATM    4  N2  UNL     1      -3.676   1.781   0.267  1.00  0.00    -0.256 N 
HETATM    5  C3  UNL     1      -2.560   2.240   1.126  1.00  0.00     0.179 C 
HETATM    6  N3  UNL     1      -2.087   3.352   0.614  1.00  0.00    -0.277 NA
HETATM    7  S1  UNL     1      -1.694   1.748   2.671  1.00  0.00    -0.063 SA
HETATM    8  C4  UNL     1       0.053   2.098   2.524  1.00  0.00     0.050 C 
HETATM    9  C5  UNL     1       0.968   1.139   2.321  1.00  0.00    -0.010 C 
HETATM   10  C6  UNL     1       0.999  -0.283   2.163  1.00  0.00     0.041 C 
HETATM   11  C7  UNL     1      -0.359  -0.874   2.019  1.00  0.00     0.013 C 
HETATM   12  C8  UNL     1      -0.863  -0.656   0.649  1.00  0.00     0.002 C 
HETATM   13  C9  UNL     1      -0.317   0.284  -0.316  1.00  0.00     0.009 C 
HETATM   14  C10 UNL     1      -0.397  -0.569  -1.649  1.00  0.00     0.017 C 
HETATM   15  C11 UNL     1       0.461  -1.684  -1.167  1.00  0.00    -0.021 C 
HETATM   16  C12 UNL     1       1.423  -1.766  -0.179  1.00  0.00     0.004 C 
HETATM   17  C13 UNL     1       1.772  -0.927   1.038  1.00  0.00    -0.051 C 
HETATM   18  C14 UNL     1       3.097  -0.720   1.104  1.00  0.00     0.009 C 
HETATM   19  C17 UNL     1      -1.830  -0.676  -1.835  1.00  0.00     0.038 C 
HETATM   20  C18 UNL     1      -2.663  -1.798  -1.444  1.00  0.00     0.017 C 
HETATM   21  H4  UNL     1      -4.678   1.707   0.550  1.00  0.00     0.191 HD
HETATM   22  H5  UNL     1      -1.304   3.845   1.053  1.00  0.00     0.189 HD
ENDROOT
BRANCH  18  23
HETATM   23  C15 UNL     1       4.194  -1.127   0.275  1.00  0.00     0.024 C 
HETATM   24  C16 UNL     1       5.487  -0.849   0.458  1.00  0.00     0.131 C 
BRANCH  24  25
HETATM   25  O1  UNL     1       6.375  -1.346  -0.468  1.00  0.00    -0.373 OA
HETATM   26  H21 UNL     1       7.112  -0.835  -0.909  1.00  0.00     0.216 HD
ENDBRANCH  24  25
ENDBRANCH  18  23
TORSDOF 2
