REMARK  7 active torsions:
REMARK  status: ('A' for Active; 'I' for Inactive)
REMARK    1  A    between atoms: N1_1  and  C1_2 
REMARK    2  A    between atoms: C1_2  and  C2_3 
REMARK    3  A    between atoms: C2_3  and  C3_4 
REMARK    4  A    between atoms: C4_5  and  C5_6 
REMARK    5  A    between atoms: C5_6  and  C6_7 
REMARK    6  A    between atoms: C8_10  and  N2_11 
REMARK    7  A    between atoms: C14_18  and  C15_19 
ROOT
HETATM    1  N2  UNL     1      -1.497  -1.034   0.464  1.00  0.00    -0.343 N 
HETATM    2  C9  UNL     1      -1.547  -2.232   1.294  1.00  0.00     0.167 A 
HETATM    3  C10 UNL     1      -2.734  -2.934   0.705  1.00  0.00    -0.010 A 
HETATM    4  C11 UNL     1      -3.225  -2.250  -0.333  1.00  0.00    -0.020 A 
HETATM    5  C12 UNL     1      -4.282  -3.193  -0.599  1.00  0.00     0.034 A 
HETATM    6  C13 UNL     1      -3.816  -3.886   0.421  1.00  0.00     0.043 A 
HETATM    7 CL1  UNL     1      -4.261  -5.398   1.216  1.00  0.00    -0.084 Cl
HETATM    8  C14 UNL     1      -2.471  -1.002  -0.610  1.00  0.00     0.154 A 
ENDROOT
BRANCH   1   9
HETATM    9  C8  UNL     1      -0.706   0.173   0.435  1.00  0.00     0.170 A 
HETATM   10  S1  UNL     1      -1.256   1.829   1.181  1.00  0.00    -0.062 SA
HETATM   11  C7  UNL     1       0.343   2.660   0.664  1.00  0.00     0.080 A 
HETATM   12  C6  UNL     1       1.013   1.501   0.008  1.00  0.00     0.047 A 
HETATM   13  N3  UNL     1       0.441   0.323  -0.066  1.00  0.00    -0.228 NA
BRANCH  12  14
HETATM   14  C5  UNL     1       2.392   1.696  -0.578  1.00  0.00     0.086 C 
BRANCH  14  15
HETATM   15  C4  UNL     1       3.422   1.426   0.427  1.00  0.00    -0.025 C 
HETATM   16  C3  UNL     1       4.468   0.645   0.661  1.00  0.00    -0.029 C 
BRANCH  16  17
HETATM   17  C2  UNL     1       5.199  -0.438  -0.013  1.00  0.00     0.056 C 
BRANCH  17  18
HETATM   18  C1  UNL     1       6.660  -0.080  -0.251  1.00  0.00     0.270 C 
BRANCH  18  19
HETATM   19  N1  UNL     1       7.310  -1.196  -0.907  1.00  0.00     0.078 N 
HETATM   20  H1  UNL     1       7.114  -1.241  -1.917  1.00  0.00     0.312 HD
HETATM   21  H2  UNL     1       7.056  -2.054  -0.377  1.00  0.00     0.312 HD
ENDBRANCH  18  19
ENDBRANCH  17  18
ENDBRANCH  16  17
ENDBRANCH  14  15
ENDBRANCH  12  14
ENDBRANCH   1   9
BRANCH   8  22
HETATM   22  C15 UNL     1      -3.347   0.190  -0.576  1.00  0.00    -0.031 A 
HETATM   23  C16 UNL     1      -3.893   0.459   0.680  1.00  0.00     0.011 A 
HETATM   24  C17 UNL     1      -4.743   1.549   0.909  1.00  0.00     0.019 A 
HETATM   25  C18 UNL     1      -5.040   2.378  -0.164  1.00  0.00     0.011 A 
HETATM   26 BR1  UNL     1      -6.188   3.860   0.116  1.00  0.00    -0.051 Br
HETATM   27  C19 UNL     1      -4.502   2.116  -1.407  1.00  0.00     0.019 A 
HETATM   28  C20 UNL     1      -3.665   1.040  -1.622  1.00  0.00     0.011 A 
ENDBRANCH   8  22
TORSDOF 7
