REMARK  9 active torsions:
REMARK  status: ('A' for Active; 'I' for Inactive)
REMARK    1  A    between atoms: C2_2  and  C3_3 
REMARK    2  A    between atoms: C7_7  and  C8_8 
REMARK    3  A    between atoms: C8_8  and  C9_9 
REMARK    4  A    between atoms: C9_9  and  C10_10 
REMARK    5  A    between atoms: C10_10  and  N1_11 
REMARK    6  A    between atoms: N1_11  and  C11_12 
REMARK    7  A    between atoms: C11_12  and  N2_15 
REMARK    8  A    between atoms: C12_13  and  S1_14 
REMARK    9  A    between atoms: N2_15  and  C13_16 
ROOT
HETATM    1  N1  UNL     1       0.620   0.481  -0.072  1.00  0.00    -0.322 N 
HETATM    2  H14 UNL     1      -0.004   1.301  -0.209  1.00  0.00     0.166 HD
ENDROOT
BRANCH   1   3
HETATM    3  C10 UNL     1       0.272  -0.478   0.932  1.00  0.00     0.284 A 
HETATM    4  N3  UNL     1       1.333  -1.021   1.709  1.00  0.00    -0.104 NA
HETATM    5  N4  UNL     1       1.244  -2.157   1.175  1.00  0.00    -0.020 NA
HETATM    6  O1  UNL     1       0.214  -1.774   0.363  1.00  0.00    -0.180 OA
BRANCH   3   7
HETATM    7  C9  UNL     1      -0.992  -0.140   1.721  1.00  0.00     0.093 C 
BRANCH   7   8
HETATM    8  C8  UNL     1      -2.127  -0.071   0.709  1.00  0.00     0.020 C 
BRANCH   8   9
HETATM    9  C7  UNL     1      -3.419   0.260   1.414  1.00  0.00     0.037 A 
HETATM   10  C3  UNL     1      -4.545   0.331   0.455  1.00  0.00    -0.073 A 
HETATM   11  C4  UNL     1      -5.461  -0.576   0.845  1.00  0.00     0.003 A 
HETATM   12  C5  UNL     1      -5.046  -1.301   2.038  1.00  0.00    -0.003 A 
HETATM   13  C6  UNL     1      -3.863  -0.801   2.348  1.00  0.00    -0.018 A 
BRANCH  10  14
HETATM   14  C2  UNL     1      -4.791   1.162  -0.734  1.00  0.00     0.030 C 
HETATM   15  C1  UNL     1      -3.792   1.004  -1.837  1.00  0.00     0.010 C 
ENDBRANCH  10  14
ENDBRANCH   8   9
ENDBRANCH   7   8
ENDBRANCH   3   7
ENDBRANCH   1   3
BRANCH   1  16
HETATM   16  C11 UNL     1       1.749   0.443  -0.930  1.00  0.00     0.111 C 
HETATM   17  C12 UNL     1       2.284   1.585  -1.347  1.00  0.00     0.181 C 
BRANCH  17  18
HETATM   18  S1  UNL     1       1.764   3.251  -0.966  1.00  0.00    -0.223 SA
HETATM   19  H16 UNL     1       0.741   3.172   0.002  1.00  0.00     0.086 HD
ENDBRANCH  17  18
BRANCH  16  20
HETATM   20  N2  UNL     1       2.707  -0.309  -1.651  1.00  0.00    -0.342 N 
HETATM   21  H17 UNL     1       2.428  -0.691  -2.604  1.00  0.00     0.167 HD
BRANCH  20  22
HETATM   22  C13 UNL     1       4.026  -0.570  -1.134  1.00  0.00     0.033 A 
HETATM   23  C14 UNL     1       4.382  -1.688  -0.414  1.00  0.00     0.031 A 
HETATM   24  C15 UNL     1       5.659  -1.884   0.063  1.00  0.00     0.026 A 
HETATM   25  C16 UNL     1       6.647  -0.950  -0.166  1.00  0.00     0.034 A 
HETATM   26 CL1  UNL     1       8.248  -1.264   0.473  1.00  0.00    -0.084 Cl
HETATM   27  C17 UNL     1       6.331   0.197  -0.890  1.00  0.00     0.026 A 
HETATM   28  C18 UNL     1       5.027   0.352  -1.353  1.00  0.00     0.031 A 
ENDBRANCH  20  22
ENDBRANCH  16  20
ENDBRANCH   1  16
TORSDOF 9
