REMARK  5 active torsions:
REMARK  status: ('A' for Active; 'I' for Inactive)
REMARK    1  A    between atoms: C4_4  and  C5_5 
REMARK    2  A    between atoms: C5_5  and  C6_6 
REMARK    3  A    between atoms: C6_6  and  N2_9 
REMARK    4  A    between atoms: N2_9  and  C8_10 
REMARK    5  A    between atoms: C9_12  and  C10_13 
ROOT
HETATM    1  C1  UNL     1      -6.267   2.934   1.752  1.00  0.00     0.017 C 
HETATM    2  C2  UNL     1      -5.640   1.910   1.636  1.00  0.00    -0.090 C 
HETATM    3  C3  UNL     1      -4.900   0.689   1.488  1.00  0.00     0.059 C 
HETATM    4  C4  UNL     1      -3.614   0.569   1.866  1.00  0.00    -0.015 C 
ENDROOT
BRANCH   4   5
HETATM    5  C5  UNL     1      -2.860  -0.668   1.717  1.00  0.00     0.068 C 
BRANCH   5   6
HETATM    6  C6  UNL     1      -1.644  -0.568   0.853  1.00  0.00     0.194 C 
HETATM    7  C7  UNL     1      -0.711   0.425   1.421  1.00  0.00     0.085 C 
HETATM    8  N1  UNL     1       0.018   1.201   1.879  1.00  0.00    -0.195 NA
BRANCH   6   9
HETATM    9  N2  UNL     1      -1.913  -0.184  -0.498  1.00  0.00    -0.352 N 
HETATM   10  H7  UNL     1      -2.833   0.032  -0.938  1.00  0.00     0.163 HD
BRANCH   9  11
HETATM   11  C8  UNL     1      -0.673  -0.128  -1.235  1.00  0.00     0.168 A 
HETATM   12  N3  UNL     1       0.449  -0.292  -1.085  1.00  0.00    -0.224 NA
HETATM   13  C9  UNL     1       1.454  -0.184  -1.920  1.00  0.00     0.076 A 
HETATM   14  C16 UNL     1       1.012   0.220  -3.264  1.00  0.00     0.085 A 
HETATM   15  S1  UNL     1      -0.792   0.368  -3.064  1.00  0.00    -0.062 SA
BRANCH  13  16
HETATM   16  C10 UNL     1       2.854  -0.419  -1.620  1.00  0.00    -0.007 A 
HETATM   17  C11 UNL     1       3.859  -0.286  -2.548  1.00  0.00     0.015 A 
HETATM   18  C12 UNL     1       5.199  -0.509  -2.270  1.00  0.00     0.024 A 
HETATM   19  C13 UNL     1       5.575  -0.887  -0.998  1.00  0.00     0.034 A 
HETATM   20 CL1  UNL     1       7.256  -1.169  -0.643  1.00  0.00    -0.084 Cl
HETATM   21  C14 UNL     1       4.600  -1.037  -0.021  1.00  0.00     0.024 A 
HETATM   22  C15 UNL     1       3.289  -0.798  -0.372  1.00  0.00     0.015 A 
ENDBRANCH  13  16
ENDBRANCH   9  11
ENDBRANCH   6   9
ENDBRANCH   5   6
ENDBRANCH   4   5
TORSDOF 5
