REMARK  10 active torsions:
REMARK  status: ('A' for Active; 'I' for Inactive)
REMARK    1  A    between atoms: C3_3  and  C5_5 
REMARK    2  A    between atoms: C5_5  and  O1_6 
REMARK    3  A    between atoms: C5_5  and  C6_7 
REMARK    4  A    between atoms: C6_7  and  C8_9 
REMARK    5  A    between atoms: C8_9  and  C9_10 
REMARK    6  A    between atoms: C10_11  and  C11_12 
REMARK    7  A    between atoms: C11_12  and  C12_13 
REMARK    8  A    between atoms: C12_13  and  C14_15 
REMARK    9  A    between atoms: C15_16  and  C16_17 
REMARK   10  A    between atoms: C22_24  and  O3_25 
ROOT
HETATM    1  C12 UNL     1       0.492  -0.861  -1.421  1.00  0.00     0.007 C 
HETATM    2  C13 UNL     1       0.343  -2.102  -2.305  1.00  0.00     0.014 C 
ENDROOT
BRANCH   1   3
HETATM    3  C11 UNL     1       1.036   0.220  -2.297  1.00  0.00     0.035 C 
BRANCH   3   4
HETATM    4  C10 UNL     1       1.257   1.511  -1.638  1.00  0.00    -0.030 C 
HETATM    5  C9  UNL     1       2.384   2.159  -1.519  1.00  0.00    -0.030 C 
BRANCH   5   6
HETATM    6  C8  UNL     1       3.718   1.787  -2.000  1.00  0.00     0.034 C 
BRANCH   6   7
HETATM    7  C6  UNL     1       4.703   1.670  -0.846  1.00  0.00     0.018 C 
HETATM    8  C7  UNL     1       6.013   1.242  -1.467  1.00  0.00     0.013 C 
BRANCH   7   9
HETATM    9  C5  UNL     1       4.237   0.621   0.119  1.00  0.00     0.150 C 
BRANCH   9  10
HETATM   10  C3  UNL     1       5.161   0.351   1.237  1.00  0.00    -0.059 C 
HETATM   11  C2  UNL     1       4.735   0.586   2.498  1.00  0.00    -0.026 C 
HETATM   12  C1  UNL     1       5.358   0.444   3.821  1.00  0.00     0.036 C 
HETATM   13  C4  UNL     1       6.539  -0.145   1.311  1.00  0.00     0.046 C 
ENDBRANCH   9  10
BRANCH   9  14
HETATM   14  O1  UNL     1       3.988  -0.583  -0.567  1.00  0.00    -0.391 OA
HETATM   15  H9  UNL     1       4.807  -1.128  -0.467  1.00  0.00     0.210 HD
ENDBRANCH   9  14
ENDBRANCH   7   9
ENDBRANCH   6   7
ENDBRANCH   5   6
ENDBRANCH   3   4
ENDBRANCH   1   3
BRANCH   1  16
HETATM   16  C14 UNL     1      -0.820  -0.512  -0.821  1.00  0.00    -0.022 C 
HETATM   17  C15 UNL     1      -1.968  -1.143  -0.991  1.00  0.00     0.005 C 
BRANCH  17  18
HETATM   18  C16 UNL     1      -3.286  -0.850  -0.431  1.00  0.00    -0.038 C 
HETATM   19  C17 UNL     1      -4.223  -1.689  -0.811  1.00  0.00    -0.010 C 
HETATM   20  C18 UNL     1      -5.612  -2.143  -0.787  1.00  0.00     0.111 C 
HETATM   21  C19 UNL     1      -6.571  -1.214  -0.151  1.00  0.00     0.163 C 
HETATM   22  O2  UNL     1      -7.670  -1.168  -0.797  1.00  0.00    -0.292 OA
HETATM   23  C20 UNL     1      -6.593  -0.339   1.015  1.00  0.00     0.042 C 
HETATM   24  C21 UNL     1      -7.969  -0.048   1.510  1.00  0.00     0.057 C 
HETATM   25  C22 UNL     1      -5.603   0.230   1.688  1.00  0.00     0.190 C 
HETATM   26  O4  UNL     1      -4.201   0.215   1.548  1.00  0.00    -0.326 OA
HETATM   27  C24 UNL     1      -3.319   0.335   0.453  1.00  0.00     0.216 C 
BRANCH  25  28
HETATM   28  O3  UNL     1      -6.222   0.965   2.721  1.00  0.00    -0.335 OA
HETATM   29  C23 UNL     1      -6.311   0.324   3.976  1.00  0.00     0.212 C 
ENDBRANCH  25  28
ENDBRANCH  17  18
ENDBRANCH   1  16
TORSDOF 10
