REMARK  0 active torsions:
REMARK  status: ('A' for Active; 'I' for Inactive)
ROOT
HETATM    1  C1  UNL     1       2.016   2.366   2.062  1.00  0.00     0.049 C 
HETATM    2  C2  UNL     1       1.437   1.962   0.766  1.00  0.00    -0.055 A 
HETATM    3  C3  UNL     1       0.966   0.644   0.934  1.00  0.00    -0.054 A 
HETATM    4  C4  UNL     1       0.600   0.438  -0.416  1.00  0.00     0.047 A 
HETATM    5  C5  UNL     1       0.239   0.265  -1.801  1.00  0.00     0.031 A 
HETATM    6  C6  UNL     1       0.766   1.381  -1.339  1.00  0.00     0.015 A 
HETATM    7  C7  UNL     1       1.325   2.394  -0.508  1.00  0.00    -0.066 A 
HETATM    8  C8  UNL     1       1.592   3.514  -1.408  1.00  0.00     0.045 C 
HETATM    9  C9  UNL     1      -0.576   0.996  -0.471  1.00  0.00     0.045 A 
HETATM   10  C10 UNL     1      -1.681   0.412   0.103  1.00  0.00    -0.070 C 
HETATM   11  C11 UNL     1      -2.513  -0.891   0.056  1.00  0.00     0.028 C 
HETATM   12  C12 UNL     1      -1.874  -1.795  -0.829  1.00  0.00     0.182 C 
HETATM   13  F1  UNL     1      -2.989  -2.403  -0.366  1.00  0.00    -0.230 F 
HETATM   14  C13 UNL     1      -1.986  -3.064  -1.502  1.00  0.00     0.021 C 
HETATM   15  C14 UNL     1      -0.748  -3.198  -2.090  1.00  0.00    -0.009 C 
HETATM   16  C15 UNL     1       0.311  -2.130  -1.900  1.00  0.00     0.126 C 
HETATM   17  C16 UNL     1      -0.322  -0.921  -2.301  1.00  0.00     0.030 C 
HETATM   18  N1  UNL     1      -1.325  -0.832  -3.126  1.00  0.00    -0.307 NA
HETATM   19  C17 UNL     1       1.084  -2.407  -0.746  1.00  0.00     0.120 C 
HETATM   20  N2  UNL     1       1.359  -2.003   0.375  1.00  0.00    -0.423 NA
HETATM   21  C18 UNL     1       1.600  -1.596   1.437  1.00  0.00     0.036 C 
HETATM   22  B1  UNL     1       3.010  -2.736   1.412  1.00  0.00     0.310 B 
HETATM   23  S1  UNL     1       2.263  -3.754  -0.531  1.00  0.00    -0.161 SA
HETATM   24  C19 UNL     1       0.579  -0.616   1.726  1.00  0.00     0.086 C 
HETATM   25  C20 UNL     1       0.057  -0.156   2.978  1.00  0.00    -0.015 C 
HETATM   26  C21 UNL     1      -1.114   0.611   2.590  1.00  0.00    -0.025 C 
HETATM   27  C22 UNL     1      -1.965   1.082   1.413  1.00  0.00     0.061 C 
HETATM   28  H13 UNL     1      -1.600   0.190  -3.319  1.00  0.00     0.186 HD
ENDROOT
TORSDOF 0
