REMARK  1 active torsions:
REMARK  status: ('A' for Active; 'I' for Inactive)
REMARK    1  A    between atoms: O1_2  and  C2_3 
ROOT
HETATM    1  C2  UNL     1       2.105   0.659  -3.144  1.00  0.00     0.185 C 
HETATM    2  C3  UNL     1       2.947  -0.238  -2.732  1.00  0.00     0.119 C 
HETATM    3  C4  UNL     1       3.950  -1.248  -2.327  1.00  0.00     0.182 C 
HETATM    4  O2  UNL     1       5.019  -1.472  -2.994  1.00  0.00    -0.288 OA
HETATM    5  C5  UNL     1       3.736  -2.047  -1.134  1.00  0.00    -0.012 C 
HETATM    6  C6  UNL     1       4.892  -2.927  -0.846  1.00  0.00     0.052 C 
HETATM    7  C7  UNL     1       2.742  -2.194  -0.228  1.00  0.00     0.010 C 
HETATM    8  C8  UNL     1       1.407  -1.561  -0.108  1.00  0.00    -0.003 C 
HETATM    9  C9  UNL     1       0.617  -1.948   0.952  1.00  0.00    -0.022 C 
HETATM   10  C10 UNL     1      -0.051  -2.455   2.080  1.00  0.00     0.007 C 
HETATM   11  C11 UNL     1      -1.155  -3.488   1.691  1.00  0.00     0.014 C 
HETATM   12  C12 UNL     1      -0.534  -1.627   3.188  1.00  0.00     0.035 C 
HETATM   13  C13 UNL     1      -1.629  -0.687   3.023  1.00  0.00    -0.030 C 
HETATM   14  C14 UNL     1      -2.496  -0.122   2.234  1.00  0.00    -0.030 C 
HETATM   15  C15 UNL     1      -3.582   0.707   1.730  1.00  0.00     0.031 C 
HETATM   16  C16 UNL     1      -3.382   1.779   0.782  1.00  0.00    -0.015 C 
HETATM   17  C17 UNL     1      -4.803   2.443   0.647  1.00  0.00     0.010 C 
HETATM   18  C18 UNL     1      -2.919   1.639  -0.596  1.00  0.00     0.006 C 
HETATM   19  C19 UNL     1      -1.500   1.220  -0.797  1.00  0.00     0.027 C 
HETATM   20  C20 UNL     1      -0.560   2.133  -0.026  1.00  0.00     0.170 C 
HETATM   21  O3  UNL     1       0.729   1.862  -0.100  1.00  0.00    -0.366 OA
HETATM   22  C21 UNL     1       1.387   1.895  -1.248  1.00  0.00     0.347 C 
HETATM   23  O4  UNL     1       0.989   0.997  -2.303  1.00  0.00    -0.305 OA
ENDROOT
BRANCH   1  24
HETATM   24  O1  UNL     1       1.507   1.615  -3.923  1.00  0.00    -0.335 OA
HETATM   25  C1  UNL     1       2.283   2.567  -4.603  1.00  0.00     0.212 C 
ENDBRANCH   1  24
TORSDOF 1
