REMARK  5 active torsions:
REMARK  status: ('A' for Active; 'I' for Inactive)
REMARK    1  A    between atoms: S1_1  and  C1_2 
REMARK    2  A    between atoms: C2_3  and  N1_4 
REMARK    3  A    between atoms: C2_3  and  C10_15 
REMARK    4  A    between atoms: N1_4  and  N2_5 
REMARK    5  A    between atoms: C3_7  and  C4_8 
ROOT
HETATM    1  N1  UNL     1      -0.593   0.422   0.497  1.00  0.00    -0.275 N 
HETATM    2  H3  UNL     1      -0.598   0.508   1.534  1.00  0.00     0.189 HD
ENDROOT
BRANCH   1   3
HETATM    3  C2  UNL     1      -1.649  -0.292  -0.137  1.00  0.00     0.066 C 
HETATM    4  C1  UNL     1      -1.272  -1.266  -0.946  1.00  0.00     0.073 C 
BRANCH   4   5
HETATM    5  S1  UNL     1       0.444  -1.616  -1.188  1.00  0.00    -0.152 SA
HETATM    6  H1  UNL     1       0.986  -2.241  -0.049  1.00  0.00     0.106 HD
ENDBRANCH   4   5
BRANCH   3   7
HETATM    7  C10 UNL     1      -3.047   0.037   0.097  1.00  0.00    -0.007 A 
HETATM    8  C11 UNL     1      -3.383   1.067   0.955  1.00  0.00     0.014 A 
HETATM    9  C12 UNL     1      -4.721   1.342   1.146  1.00  0.00     0.001 A 
HETATM   10  C13 UNL     1      -5.739   0.647   0.528  1.00  0.00     0.000 A 
HETATM   11  C14 UNL     1      -5.309  -0.367  -0.313  1.00  0.00     0.001 A 
HETATM   12  C15 UNL     1      -4.001  -0.719  -0.569  1.00  0.00     0.014 A 
ENDBRANCH   3   7
ENDBRANCH   1   3
BRANCH   1  13
HETATM   13  N2  UNL     1       0.446   1.006  -0.263  1.00  0.00    -0.150 N 
HETATM   14  N3  UNL     1       1.037   1.862  -1.210  1.00  0.00    -0.127 NA
HETATM   15  C3  UNL     1       1.829   0.937  -0.440  1.00  0.00     0.201 A 
BRANCH  15  16
HETATM   16  C4  UNL     1       3.181   0.439  -0.189  1.00  0.00     0.015 A 
HETATM   17  C5  UNL     1       3.431  -0.014   1.090  1.00  0.00     0.017 A 
HETATM   18  C6  UNL     1       4.712  -0.483   1.318  1.00  0.00     0.020 A 
HETATM   19  C7  UNL     1       5.736  -0.535   0.395  1.00  0.00     0.011 A 
HETATM   20 BR1  UNL     1       7.450  -1.198   0.819  1.00  0.00    -0.051 Br
HETATM   21  C8  UNL     1       5.387  -0.055  -0.872  1.00  0.00     0.020 A 
HETATM   22  C9  UNL     1       4.134   0.430  -1.186  1.00  0.00     0.017 A 
ENDBRANCH  15  16
ENDBRANCH   1  13
TORSDOF 5
