REMARK  4 active torsions:
REMARK  status: ('A' for Active; 'I' for Inactive)
REMARK    1  A    between atoms: C5_5  and  C6_6 
REMARK    2  A    between atoms: C8_8  and  C9_9 
REMARK    3  A    between atoms: N2_12  and  C10_13 
REMARK    4  A    between atoms: C11_15  and  C12_16 
ROOT
HETATM    1  C6  UNL     1      -1.520  -1.632   1.049  1.00  0.00     0.151 C 
HETATM    2  C7  UNL     1      -1.831  -3.001   0.562  1.00  0.00     0.096 C 
HETATM    3  C8  UNL     1      -1.124  -3.072  -0.730  1.00  0.00     0.094 C 
HETATM    4  N1  UNL     1      -0.256  -2.113  -0.784  1.00  0.00    -0.171 NA
HETATM    5  N2  UNL     1      -0.274  -1.350   0.362  1.00  0.00    -0.236 N 
ENDROOT
BRANCH   5   6
HETATM    6  C10 UNL     1       0.767  -0.472   0.740  1.00  0.00     0.190 A 
HETATM    7  N3  UNL     1       1.838  -0.178   0.225  1.00  0.00    -0.222 NA
HETATM    8  C11 UNL     1       2.693   0.676   0.732  1.00  0.00     0.076 A 
HETATM    9  C18 UNL     1       2.346   1.298   1.962  1.00  0.00     0.086 A 
HETATM   10  S1  UNL     1       0.655   0.488   2.261  1.00  0.00    -0.060 SA
BRANCH   8  11
HETATM   11  C12 UNL     1       3.946   0.961   0.044  1.00  0.00    -0.007 A 
HETATM   12  C13 UNL     1       4.323   0.382  -1.148  1.00  0.00     0.014 A 
HETATM   13  C14 UNL     1       5.487   0.613  -1.837  1.00  0.00     0.001 A 
HETATM   14  C15 UNL     1       6.378   1.514  -1.292  1.00  0.00     0.000 A 
HETATM   15  C16 UNL     1       6.067   2.134  -0.100  1.00  0.00     0.001 A 
HETATM   16  C17 UNL     1       4.877   1.849   0.535  1.00  0.00     0.014 A 
ENDBRANCH   8  11
ENDBRANCH   5   6
BRANCH   1  17
HETATM   17  C5  UNL     1      -2.484  -0.592   0.640  1.00  0.00    -0.033 A 
HETATM   18  C4  UNL     1      -2.610  -0.221  -0.663  1.00  0.00     0.010 A 
HETATM   19  C3  UNL     1      -3.537   0.757  -0.937  1.00  0.00     0.007 A 
HETATM   20  C2  UNL     1      -4.338   1.384  -0.005  1.00  0.00    -0.062 A 
HETATM   21  C1  UNL     1      -5.315   2.435  -0.404  1.00  0.00     0.048 C 
HETATM   22  C20 UNL     1      -4.178   0.975   1.322  1.00  0.00     0.007 A 
HETATM   23  C19 UNL     1      -3.251  -0.014   1.658  1.00  0.00     0.010 A 
ENDBRANCH   1  17
BRANCH   3  24
HETATM   24  C9  UNL     1      -1.325  -4.048  -1.820  1.00  0.00     0.287 C 
HETATM   25  O1  UNL     1      -0.596  -3.917  -2.850  1.00  0.00    -0.300 OA
ENDBRANCH   3  24
TORSDOF 4
