REMARK  5 active torsions:
REMARK  status: ('A' for Active; 'I' for Inactive)
REMARK    1  A    between atoms: C3_3  and  C5_5 
REMARK    2  A    between atoms: C5_5  and  O1_6 
REMARK    3  A    between atoms: C5_5  and  C6_7 
REMARK    4  A    between atoms: C7_8  and  C8_9 
REMARK    5  A    between atoms: C19_22  and  C20_23 
ROOT
HETATM    1  C8  UNL     1      -2.023   0.243  -0.765  1.00  0.00     0.005 C 
HETATM    2  C9  UNL     1      -1.062  -0.652  -0.468  1.00  0.00    -0.054 C 
HETATM    3  C10 UNL     1      -1.057  -1.027   0.983  1.00  0.00     0.202 C 
HETATM    4  O2  UNL     1       0.092  -0.744   1.607  1.00  0.00    -0.386 OA
HETATM    5  C11 UNL     1       0.316  -0.990   2.926  1.00  0.00     0.176 C 
HETATM    6  C12 UNL     1       1.853  -0.487   3.098  1.00  0.00     0.028 C 
HETATM    7  C13 UNL     1       1.767   0.978   2.750  1.00  0.00     0.016 C 
HETATM    8  C14 UNL     1       2.481  -1.360   2.128  1.00  0.00    -0.015 C 
HETATM    9  C15 UNL     1       2.954  -1.459   0.906  1.00  0.00    -0.049 C 
HETATM   10  C16 UNL     1       2.909  -0.281  -0.040  1.00  0.00     0.203 C 
HETATM   11  O3  UNL     1       1.564  -0.215  -0.395  1.00  0.00    -0.378 OA
HETATM   12  C17 UNL     1       1.177  -0.776  -1.539  1.00  0.00     0.149 C 
HETATM   13  C18 UNL     1       2.030  -1.831  -2.141  1.00  0.00     0.016 C 
HETATM   14  C19 UNL     1       3.049  -2.692  -1.996  1.00  0.00    -0.013 C 
HETATM   15  C22 UNL     1       3.703  -3.079  -0.753  1.00  0.00     0.163 C 
HETATM   16  O4  UNL     1       4.709  -3.788  -1.008  1.00  0.00    -0.292 OA
HETATM   17  C23 UNL     1       3.478  -2.850   0.702  1.00  0.00     0.087 C 
HETATM   18  C24 UNL     1       2.566  -3.889   1.289  1.00  0.00     0.023 C 
HETATM   19  C25 UNL     1      -0.276  -1.105  -1.605  1.00  0.00     0.072 C 
ENDROOT
BRANCH   1  20
HETATM   20  C7  UNL     1      -2.970   0.808   0.178  1.00  0.00    -0.001 C 
HETATM   21  C6  UNL     1      -3.887   1.683  -0.192  1.00  0.00     0.009 C 
BRANCH  21  22
HETATM   22  C5  UNL     1      -4.988   2.493   0.309  1.00  0.00     0.169 C 
BRANCH  22  23
HETATM   23  C3  UNL     1      -4.840   3.963   0.052  1.00  0.00    -0.056 C 
HETATM   24  C2  UNL     1      -4.796   4.883   1.013  1.00  0.00    -0.026 C 
HETATM   25  C1  UNL     1      -4.645   6.290   0.556  1.00  0.00     0.036 C 
HETATM   26  C4  UNL     1      -4.746   4.307  -1.397  1.00  0.00     0.046 C 
ENDBRANCH  22  23
BRANCH  22  27
HETATM   27  O1  UNL     1      -5.073   2.292   1.705  1.00  0.00    -0.387 OA
HETATM   28  H9  UNL     1      -4.163   2.525   2.042  1.00  0.00     0.210 HD
ENDBRANCH  22  27
ENDBRANCH  21  22
ENDBRANCH   1  20
BRANCH  14  29
HETATM   29  C20 UNL     1       3.567  -3.313  -3.221  1.00  0.00     0.037 C 
HETATM   30  C21 UNL     1       5.013  -3.039  -3.508  1.00  0.00     0.010 C 
ENDBRANCH  14  29
TORSDOF 5
