REMARK  6 active torsions:
REMARK  status: ('A' for Active; 'I' for Inactive)
REMARK    1  A    between atoms: C3_3  and  C5_5 
REMARK    2  A    between atoms: C5_5  and  O1_6 
REMARK    3  A    between atoms: C5_5  and  C6_7 
REMARK    4  A    between atoms: C6_7  and  C8_9 
REMARK    5  A    between atoms: C9_10  and  C10_11 
REMARK    6  A    between atoms: C20_22  and  O2_24 
ROOT
HETATM    1  C10 UNL     1      -0.235  -0.728  -0.446  1.00  0.00     0.006 C 
HETATM    2  C11 UNL     1      -1.510  -0.472  -0.616  1.00  0.00    -0.044 C 
HETATM    3  C12 UNL     1      -2.023   0.884  -1.228  1.00  0.00     0.057 C 
HETATM    4  C13 UNL     1      -2.868   1.342  -0.186  1.00  0.00     0.126 C 
HETATM    5  N1  UNL     1      -3.778   2.304   0.206  1.00  0.00    -0.394 N 
HETATM    6  C14 UNL     1      -3.438   3.663   0.378  1.00  0.00     0.148 C 
HETATM    7  C15 UNL     1      -5.148   1.814   0.506  1.00  0.00     0.085 C 
HETATM    8  C16 UNL     1      -5.676   0.625   0.851  1.00  0.00     0.017 C 
HETATM    9  C17 UNL     1      -5.542  -0.797   1.162  1.00  0.00    -0.003 C 
HETATM   10  C18 UNL     1      -4.650  -1.817   1.298  1.00  0.00    -0.023 C 
HETATM   11  C19 UNL     1      -3.347  -1.155   1.027  1.00  0.00     0.069 C 
HETATM   12  C20 UNL     1      -2.570  -1.462  -0.175  1.00  0.00     0.083 C 
HETATM   13  C21 UNL     1      -3.434  -1.845  -1.374  1.00  0.00     0.051 C 
ENDROOT
BRANCH   1  14
HETATM   14  C9  UNL     1       1.186  -0.548  -0.459  1.00  0.00    -0.003 C 
HETATM   15  C8  UNL     1       2.425  -0.926  -0.237  1.00  0.00    -0.020 C 
BRANCH  15  16
HETATM   16  C6  UNL     1       3.491   0.036  -0.605  1.00  0.00     0.037 C 
HETATM   17  C7  UNL     1       4.341  -0.703  -1.647  1.00  0.00     0.017 C 
BRANCH  16  18
HETATM   18  C5  UNL     1       4.330   0.396   0.605  1.00  0.00     0.153 C 
BRANCH  18  19
HETATM   19  C3  UNL     1       5.455   1.270   0.223  1.00  0.00    -0.059 C 
HETATM   20  C2  UNL     1       6.714   0.865   0.446  1.00  0.00    -0.026 C 
HETATM   21  C1  UNL     1       7.361  -0.326   1.025  1.00  0.00     0.036 C 
HETATM   22  C4  UNL     1       5.103   2.577  -0.402  1.00  0.00     0.046 C 
ENDBRANCH  18  19
BRANCH  18  23
HETATM   23  O1  UNL     1       3.470   1.116   1.454  1.00  0.00    -0.391 OA
HETATM   24  H9  UNL     1       3.129   1.930   1.019  1.00  0.00     0.210 HD
ENDBRANCH  18  23
ENDBRANCH  16  18
ENDBRANCH  15  16
ENDBRANCH   1  14
BRANCH  12  25
HETATM   25  O2  UNL     1      -1.837  -2.617   0.065  1.00  0.00    -0.381 OA
HETATM   26  C22 UNL     1      -2.495  -3.720   0.475  1.00  0.00     0.203 C 
ENDBRANCH  12  25
TORSDOF 6
