REMARK  5 active torsions:
REMARK  status: ('A' for Active; 'I' for Inactive)
REMARK    1  A    between atoms: C8_11  and  S1_12 
REMARK    2  A    between atoms: C9_15  and  N6_16 
REMARK    3  A    between atoms: N6_16  and  C10_17 
REMARK    4  A    between atoms: C11_18  and  C12_19 
REMARK    5  A    between atoms: N7_21  and  S2_22 
ROOT
HETATM    1  C1  UNL     1      -0.092  -0.445   2.191  1.00  0.00     0.017 C 
HETATM    2  C2  UNL     1      -0.820  -0.301   0.879  1.00  0.00     0.012 C 
HETATM    3  C3  UNL     1      -1.937  -1.033   1.216  1.00  0.00     0.145 C 
HETATM    4  N1  UNL     1      -3.175  -1.433   0.573  1.00  0.00    -0.410 N 
HETATM    5  C4  UNL     1      -4.422  -0.854   0.003  1.00  0.00     0.156 C 
HETATM    6  C5  UNL     1      -4.010   0.202  -0.973  1.00  0.00    -0.004 A 
HETATM    7  C6  UNL     1      -4.534   1.465  -1.143  1.00  0.00     0.149 A 
HETATM    8  N2  UNL     1      -3.777   2.048  -2.090  1.00  0.00    -0.182 NA
HETATM    9  N3  UNL     1      -2.833   1.226  -2.501  1.00  0.00    -0.244 N 
HETATM   10  C7  UNL     1      -2.942   0.042  -1.826  1.00  0.00     0.126 A 
HETATM   11  C8  UNL     1      -1.649   1.083  -3.366  1.00  0.00     0.313 C 
HETATM   12  N4  UNL     1      -0.514   0.776  -2.466  1.00  0.00    -0.157 NA
HETATM   13  N5  UNL     1      -0.762   0.762  -1.278  1.00  0.00    -0.169 NA
HETATM   14  C9  UNL     1      -0.010   0.527  -0.127  1.00  0.00     0.234 C 
HETATM   15  H5  UNL     1      -3.156  -2.508   0.518  1.00  0.00     0.154 HD
ENDROOT
BRANCH  14  16
HETATM   16  N6  UNL     1       1.256  -0.097  -0.357  1.00  0.00    -0.375 N 
HETATM   17  H13 UNL     1       1.472  -0.398  -1.351  1.00  0.00     0.161 HD
BRANCH  16  18
HETATM   18  C10 UNL     1       2.408  -0.474   0.373  1.00  0.00     0.087 C 
HETATM   19  C11 UNL     1       3.527   0.235   0.399  1.00  0.00     0.044 C 
BRANCH  19  20
HETATM   20  C12 UNL     1       4.665  -0.211   1.167  1.00  0.00     0.040 C 
HETATM   21  C13 UNL     1       4.590  -1.480   1.943  1.00  0.00     0.071 C 
HETATM   22  N7  UNL     1       5.736   0.500   1.172  1.00  0.00    -0.224 NA
BRANCH  22  23
HETATM   23  S2  UNL     1       7.178   0.057   2.068  1.00  0.00    -0.042 SA
HETATM   24  H19 UNL     1       8.184   1.013   1.768  1.00  0.00     0.128 HD
ENDBRANCH  22  23
ENDBRANCH  19  20
ENDBRANCH  16  18
ENDBRANCH  14  16
BRANCH  11  25
HETATM   25  S1  UNL     1      -1.293   2.559  -4.310  1.00  0.00    -0.131 SA
HETATM   26  H11 UNL     1      -1.631   3.694  -3.586  1.00  0.00     0.105 HD
ENDBRANCH  11  25
TORSDOF 5
