REMARK  5 active torsions:
REMARK  status: ('A' for Active; 'I' for Inactive)
REMARK    1  A    between atoms: C1_2  and  C2_3 
REMARK    2  A    between atoms: C7_9  and  O1_10 
REMARK    3  A    between atoms: O1_10  and  C8_11 
REMARK    4  A    between atoms: C10_13  and  N2_14 
REMARK    5  A    between atoms: N2_14  and  C11_15 
ROOT
HETATM    1  C8  UNL     1       1.162  -1.159   1.402  1.00  0.00     0.174 A 
HETATM    2  C9  UNL     1       0.310  -0.532   0.534  1.00  0.00     0.108 A 
HETATM    3  C10 UNL     1      -0.973  -0.166   0.875  1.00  0.00     0.133 A 
HETATM    4  N3  UNL     1      -1.305  -0.479   2.128  1.00  0.00    -0.224 NA
HETATM    5  C17 UNL     1      -0.542  -1.085   3.033  1.00  0.00     0.238 A 
HETATM    6  N4  UNL     1       0.701  -1.419   2.645  1.00  0.00    -0.217 NA
ENDROOT
BRANCH   1   7
HETATM    7  O1  UNL     1       2.439  -1.569   1.193  1.00  0.00    -0.291 OA
BRANCH   7   8
HETATM    8  C7  UNL     1       3.209  -1.443   0.056  1.00  0.00     0.089 A 
HETATM    9  C2  UNL     1       3.598  -0.266  -0.542  1.00  0.00     0.016 A 
HETATM   10  C3  UNL     1       4.367  -0.138  -1.677  1.00  0.00     0.034 A 
HETATM   11  C4  UNL     1       4.766  -1.331  -2.239  1.00  0.00     0.011 A 
HETATM   12 BR1  UNL     1       5.840  -1.289  -3.822  1.00  0.00    -0.051 Br
HETATM   13  C5  UNL     1       4.389  -2.522  -1.658  1.00  0.00     0.022 A 
HETATM   14  C6  UNL     1       3.628  -2.618  -0.534  1.00  0.00     0.039 A 
BRANCH   9  15
HETATM   15  C1  UNL     1       3.184   0.985   0.066  1.00  0.00     0.121 C 
HETATM   16  N1  UNL     1       2.632   1.785   0.880  1.00  0.00    -0.311 NA
HETATM   17  H1  UNL     1       2.064   1.560   1.721  1.00  0.00     0.186 HD
ENDBRANCH   9  15
ENDBRANCH   7   8
ENDBRANCH   1   7
BRANCH   3  18
HETATM   18  N2  UNL     1      -1.783   0.479  -0.093  1.00  0.00    -0.341 N 
HETATM   19  H7  UNL     1      -1.355   0.651  -1.046  1.00  0.00     0.167 HD
BRANCH  18  20
HETATM   20  C11 UNL     1      -3.118   0.936   0.046  1.00  0.00     0.035 A 
HETATM   21  C12 UNL     1      -3.786   1.554  -0.999  1.00  0.00     0.032 A 
HETATM   22  C13 UNL     1      -5.078   2.010  -0.902  1.00  0.00     0.046 A 
HETATM   23  C14 UNL     1      -5.786   1.868   0.271  1.00  0.00     0.138 A 
HETATM   24  F1  UNL     1      -7.059   2.326   0.338  1.00  0.00    -0.204 F 
HETATM   25  C15 UNL     1      -5.167   1.264   1.327  1.00  0.00     0.074 A 
HETATM   26 CL1  UNL     1      -6.067   1.082   2.821  1.00  0.00    -0.081 Cl
HETATM   27  C16 UNL     1      -3.871   0.821   1.190  1.00  0.00     0.056 A 
ENDBRANCH  18  20
ENDBRANCH   3  18
TORSDOF 5
