REMARK  2 active torsions:
REMARK  status: ('A' for Active; 'I' for Inactive)
REMARK    1  A    between atoms: S1_2  and  C2_3 
REMARK    2  A    between atoms: N4_13  and  S2_14 
ROOT
HETATM    1  C2  UNL     1       1.854  -0.562   0.740  1.00  0.00     0.110 C 
HETATM    2  C3  UNL     1       0.734  -1.288   0.489  1.00  0.00     0.129 C 
HETATM    3  N1  UNL     1      -0.019  -0.720  -0.605  1.00  0.00    -0.336 N 
HETATM    4  C4  UNL     1       0.792  -0.164  -1.713  1.00  0.00     0.205 C 
HETATM    5  C5  UNL     1       1.542   0.967  -1.047  1.00  0.00     0.124 C 
HETATM    6  N2  UNL     1       2.259   0.592  -0.050  1.00  0.00    -0.225 NA
HETATM    7  N3  UNL     1       1.884   2.372  -0.972  1.00  0.00    -0.339 N 
HETATM    8  C6  UNL     1       1.105   3.396  -0.049  1.00  0.00     0.084 A 
HETATM    9  C7  UNL     1      -0.248   3.060   0.556  1.00  0.00     0.199 A 
HETATM   10  C8  UNL     1      -1.397   2.774   1.069  1.00  0.00     0.117 A 
HETATM   11  N4  UNL     1      -1.037   3.974   1.438  1.00  0.00    -0.220 NA
HETATM   12  S2  UNL     1       0.562   4.477   0.773  1.00  0.00    -0.071 SA
HETATM   13  C9  UNL     1      -1.436   1.451   0.461  1.00  0.00     0.120 C 
HETATM   14  N5  UNL     1      -1.784   0.828  -0.615  1.00  0.00    -0.251 NA
HETATM   15  C10 UNL     1      -1.494  -0.647  -0.586  1.00  0.00     0.224 C 
HETATM   16  C11 UNL     1      -2.112  -1.164   0.616  1.00  0.00     0.065 C 
HETATM   17  C12 UNL     1      -3.328  -1.639   0.295  1.00  0.00     0.103 C 
HETATM   18  N6  UNL     1      -3.470  -1.416  -1.109  1.00  0.00    -0.327 N 
HETATM   19  N7  UNL     1      -2.163  -1.265  -1.656  1.00  0.00    -0.183 NA
HETATM   20  C13 UNL     1      -1.685  -2.637  -1.821  1.00  0.00     0.141 C 
HETATM   21  H7  UNL     1       2.535   3.021  -1.344  1.00  0.00     0.167 HD
HETATM   22  H12 UNL     1      -4.134  -1.321  -1.877  1.00  0.00     0.180 HD
ENDROOT
BRANCH   1  23
HETATM   23  S1  UNL     1       2.731  -1.270   2.143  1.00  0.00    -0.113 SA
HETATM   24  C1  UNL     1       4.272  -0.259   2.267  1.00  0.00     0.097 C 
ENDBRANCH   1  23
TORSDOF 2
