REMARK  2 active torsions:
REMARK  status: ('A' for Active; 'I' for Inactive)
REMARK    1  A    between atoms: C2_2  and  C3_4 
REMARK    2  A    between atoms: C17_20  and  C18_21 
ROOT
HETATM    1  C3  UNL     1      -2.237  -0.348   0.014  1.00  0.00     0.004 C 
HETATM    2  C4  UNL     1      -1.448  -1.333  -0.138  1.00  0.00    -0.052 C 
HETATM    3  C5  UNL     1      -1.764  -2.742  -0.322  1.00  0.00     0.049 C 
HETATM    4  C6  UNL     1      -0.033  -1.436  -0.093  1.00  0.00     0.003 C 
HETATM    5  C7  UNL     1       1.157  -1.929  -0.135  1.00  0.00    -0.025 C 
HETATM    6  C8  UNL     1       2.611  -1.925  -0.066  1.00  0.00     0.035 C 
HETATM    7  C9  UNL     1       3.295  -0.642   0.232  1.00  0.00     0.007 C 
HETATM    8  C10 UNL     1       4.801  -0.973   0.326  1.00  0.00     0.014 C 
HETATM    9  C11 UNL     1       3.214   0.255  -0.951  1.00  0.00    -0.024 C 
HETATM   10  C12 UNL     1       2.785   1.494  -1.113  1.00  0.00    -0.005 C 
HETATM   11  C13 UNL     1       2.247   2.262   0.046  1.00  0.00     0.196 C 
HETATM   12  O2  UNL     1       0.894   2.636  -0.207  1.00  0.00    -0.369 OA
HETATM   13  C14 UNL     1      -0.065   2.570   0.779  1.00  0.00     0.117 A 
HETATM   14  C15 UNL     1      -0.617   2.883   2.105  1.00  0.00     0.055 C 
HETATM   15  C16 UNL     1      -0.966   1.809   0.190  1.00  0.00    -0.025 A 
HETATM   16  O3  UNL     1       0.131   2.034  -0.615  1.00  0.00     0.000 OA
HETATM   17  C17 UNL     1      -2.233   1.115   0.164  1.00  0.00     0.089 C 
HETATM   18  H22 UNL     1      -0.039   1.837  -1.623  1.00  0.00     0.000 HD
ENDROOT
BRANCH   1  19
HETATM   19  C2  UNL     1      -3.661  -0.776   0.002  1.00  0.00     0.153 C 
HETATM   20  C1  UNL     1      -4.617  -1.849  -0.093  1.00  0.00     0.096 C 
HETATM   21  O1  UNL     1      -4.471   0.221   0.135  1.00  0.00    -0.293 OA
ENDBRANCH   1  19
BRANCH  17  22
HETATM   22  C18 UNL     1      -3.092   1.634  -0.982  1.00  0.00     0.404 C 
HETATM   23  O4  UNL     1      -3.800   1.653  -1.972  1.00  0.00    -0.429 OA
ENDBRANCH  17  22
TORSDOF 2
