REMARK  0 active torsions:
REMARK  status: ('A' for Active; 'I' for Inactive)
ROOT
HETATM    1  C1  UNL     1       3.185  -0.976   2.267  1.00  0.00     0.119 C 
HETATM    2  S1  UNL     1       2.106  -2.266   1.582  1.00  0.00     0.071 SA
HETATM    3  C2  UNL     1       1.223  -1.525   0.215  1.00  0.00     0.251 A 
HETATM    4  C3  UNL     1       1.251  -0.346  -0.311  1.00  0.00     0.164 C 
HETATM    5  N1  UNL     1       0.771   0.553  -1.290  1.00  0.00    -0.154 N 
HETATM    6  C4  UNL     1       0.123   0.296  -2.438  1.00  0.00     0.071 A 
HETATM    7  C5  UNL     1      -0.129   1.405  -3.182  1.00  0.00     0.164 A 
HETATM    8  N2  UNL     1       0.408   2.351  -2.396  1.00  0.00    -0.075 NA
HETATM    9  C6  UNL     1       0.944   1.883  -1.275  1.00  0.00     0.707 A 
HETATM   10  N3  UNL     1       1.535   2.726  -0.267  1.00  0.00    -0.213 N 
HETATM   11  C7  UNL     1       0.383   2.566   0.635  1.00  0.00     0.238 C 
HETATM   12  S2  UNL     1      -1.105   2.915  -0.339  1.00  0.00    -0.010 SA
HETATM   13  N4  UNL     1      -2.572   2.584   0.479  1.00  0.00    -0.231 NA
HETATM   14  C8  UNL     1      -2.804   1.523   1.136  1.00  0.00     0.104 C 
HETATM   15  C9  UNL     1      -2.197   0.251   1.536  1.00  0.00     0.103 C 
HETATM   16  C10 UNL     1      -1.764  -0.631   0.433  1.00  0.00     0.037 C 
HETATM   17  N5  UNL     1      -1.883  -0.578  -0.821  1.00  0.00    -0.188 NA
HETATM   18  N6  UNL     1      -1.493  -1.378  -1.855  1.00  0.00    -0.308 N 
HETATM   19  C11 UNL     1      -0.187  -1.161  -2.476  1.00  0.00     0.201 C 
HETATM   20  C12 UNL     1      -1.069  -1.777   1.107  1.00  0.00     0.062 C 
HETATM   21  O1  UNL     1      -0.529  -2.544   0.076  1.00  0.00     0.000 OA
HETATM   22  N7  UNL     1       0.765  -2.870   0.313  1.00  0.00     0.187 N 
HETATM   23  H6  UNL     1       2.472   3.118  -0.497  1.00  0.00     0.178 HD
HETATM   24  H12 UNL     1      -2.137  -2.129  -2.181  1.00  0.00     0.182 HD
HETATM   25  H17 UNL     1      -0.004  -3.558   0.268  1.00  0.00     0.341 HD
ENDROOT
TORSDOF 0
