REMARK  4 active torsions:
REMARK  status: ('A' for Active; 'I' for Inactive)
REMARK    1  A    between atoms: C2_2  and  C3_3 
REMARK    2  A    between atoms: C6_6  and  C7_7 
REMARK    3  A    between atoms: C10_11  and  N2_12 
REMARK       I    between atoms: N2_12  and  C11_13 
REMARK    4  A    between atoms: C13_17  and  C14_18 
ROOT
HETATM    1  C7  UNL     1       0.487  -0.840  -1.025  1.00  0.00     0.171 A 
HETATM    2  N1  UNL     1       1.209  -1.252  -2.013  1.00  0.00     0.011 N 
HETATM    3  C8  UNL     1       2.630  -1.168  -1.416  1.00  0.00     0.232 A 
HETATM    4  C9  UNL     1       3.945  -1.113  -0.928  1.00  0.00     0.048 A 
HETATM    5  C10 UNL     1       3.715  -0.641   0.350  1.00  0.00     0.033 A 
HETATM    6  C12 UNL     1       2.325  -0.550   0.260  1.00  0.00     0.050 A 
HETATM    7  C13 UNL     1       1.938  -0.995  -1.101  1.00  0.00     0.237 A 
HETATM    8  C14 UNL     1       2.009  -1.486  -2.476  1.00  0.00     0.290 A 
ENDROOT
BRANCH   1   9
HETATM    9  C6  UNL     1      -0.734  -0.496  -0.375  1.00  0.00    -0.002 A 
HETATM   10  C5  UNL     1      -1.767  -0.698  -1.256  1.00  0.00     0.014 A 
HETATM   11  C4  UNL     1      -3.054  -0.433  -0.863  1.00  0.00     0.008 A 
HETATM   12  C3  UNL     1      -3.195   0.027   0.427  1.00  0.00    -0.059 A 
HETATM   13  C16 UNL     1      -2.174   0.232   1.316  1.00  0.00     0.008 A 
HETATM   14  C15 UNL     1      -0.902  -0.044   0.887  1.00  0.00     0.014 A 
BRANCH  12  15
HETATM   15  C2  UNL     1      -4.560   0.335   0.922  1.00  0.00     0.034 C 
HETATM   16  C1  UNL     1      -4.951   1.775   0.662  1.00  0.00     0.010 C 
ENDBRANCH  12  15
ENDBRANCH   1   9
BRANCH   5  17
HETATM   17  N2  UNL     1       4.846  -0.468   1.116  1.00  0.00    -0.314 N 
HETATM   18  C11 UNL     1       5.399   0.831   0.962  1.00  0.00     0.319 C 
HETATM   19  O1  UNL     1       4.831   1.644   0.189  1.00  0.00    -0.254 OA
HETATM   20 CL1  UNL     1       6.852   0.995   1.965  1.00  0.00    -0.020 Cl
HETATM   21  H9  UNL     1       5.031  -1.348   1.635  1.00  0.00     0.170 HD
ENDBRANCH   5  17
TORSDOF 4
