REMARK  1 active torsions:
REMARK  status: ('A' for Active; 'I' for Inactive)
REMARK    1  A    between atoms: S1_2  and  C2_3 
ROOT
HETATM    1  C2  UNL     1      -2.836  -0.475   0.151  1.00  0.00     0.261 C 
HETATM    2  N1  UNL     1      -2.402  -0.901  -1.176  1.00  0.00    -0.360 N 
HETATM    3  C3  UNL     1      -1.076  -1.325  -0.989  1.00  0.00     0.044 C 
HETATM    4  C4  UNL     1      -0.507  -0.341  -1.713  1.00  0.00     0.142 C 
HETATM    5  N2  UNL     1      -0.505   0.852  -2.533  1.00  0.00    -0.273 NA
HETATM    6  C5  UNL     1      -1.307   1.820  -2.195  1.00  0.00     0.110 C 
HETATM    7  C6  UNL     1      -2.265   1.937  -1.077  1.00  0.00     0.190 C 
HETATM    8  N3  UNL     1      -1.685   1.620   0.157  1.00  0.00    -0.314 N 
HETATM    9  C7  UNL     1      -0.761   2.493   0.756  1.00  0.00     0.241 C 
HETATM   10  S2  UNL     1       0.758   2.664  -0.159  1.00  0.00    -0.009 SA
HETATM   11  N4  UNL     1       1.816   1.323  -0.149  1.00  0.00    -0.231 NA
HETATM   12  C8  UNL     1       2.975   1.217   0.350  1.00  0.00     0.098 C 
HETATM   13  C9  UNL     1       4.245   0.533   0.690  1.00  0.00     0.053 C 
HETATM   14  C10 UNL     1       4.512  -0.688  -0.125  1.00  0.00     0.053 C 
HETATM   15  C11 UNL     1       3.529  -1.776   0.009  1.00  0.00     0.111 C 
HETATM   16  N5  UNL     1       2.387  -2.304  -0.187  1.00  0.00    -0.196 NA
HETATM   17  N6  UNL     1       1.312  -1.714  -0.887  1.00  0.00    -0.309 N 
HETATM   18  C12 UNL     1      -0.001  -2.162  -0.484  1.00  0.00     0.199 C 
HETATM   19  N7  UNL     1      -1.967   0.454   0.777  1.00  0.00    -0.305 N 
HETATM   20  H5  UNL     1      -2.907  -0.927  -2.113  1.00  0.00     0.162 HD
HETATM   21  H18 UNL     1       1.823  -1.086  -1.547  1.00  0.00     0.182 HD
HETATM   22  H21 UNL     1      -1.242   0.099   1.404  1.00  0.00     0.183 HD
ENDROOT
BRANCH   1  23
HETATM   23  S1  UNL     1      -3.001  -2.007   1.133  1.00  0.00    -0.126 SA
HETATM   24  C1  UNL     1      -3.668  -1.537   2.754  1.00  0.00     0.093 C 
ENDBRANCH   1  23
TORSDOF 1
