REMARK  8 active torsions:
REMARK  status: ('A' for Active; 'I' for Inactive)
REMARK    1  A    between atoms: C3_3  and  C4_5 
REMARK    2  A    between atoms: C4_5  and  C5_6 
REMARK    3  A    between atoms: C5_6  and  C6_7 
REMARK    4  A    between atoms: C6_7  and  C7_8 
REMARK    5  A    between atoms: C7_8  and  C8_9 
REMARK    6  A    between atoms: C9_11  and  C10_12 
REMARK    7  A    between atoms: C10_12  and  S1_13 
REMARK    8  A    between atoms: S1_13  and  C11_14 
ROOT
HETATM    1  C10 UNL     1       1.269  -1.080  -2.376  1.00  0.00     0.109 C 
ENDROOT
BRANCH   1   2
HETATM    2  C9  UNL     1       0.398  -1.244  -1.156  1.00  0.00     0.003 C 
HETATM    3  C8  UNL     1      -0.794  -1.842  -1.180  1.00  0.00     0.015 C 
HETATM    4 BR1  UNL     1      -1.374  -2.503  -2.877  1.00  0.00    -0.051 Br
BRANCH   3   5
HETATM    5  C7  UNL     1      -1.652  -2.012  -0.022  1.00  0.00     0.070 C 
BRANCH   5   6
HETATM    6  C6  UNL     1      -2.964  -1.955  -0.213  1.00  0.00    -0.148 C 
BRANCH   6   7
HETATM    7  C5  UNL     1      -4.203  -1.685  -0.605  1.00  0.00     0.077 C 
BRANCH   7   8
HETATM    8  C4  UNL     1      -4.617  -0.276  -0.617  1.00  0.00     0.069 C 
BRANCH   8   9
HETATM    9  C3  UNL     1      -5.259   0.106   0.655  1.00  0.00     0.009 C 
HETATM   10  C2  UNL     1      -6.500   0.548   0.647  1.00  0.00    -0.012 C 
HETATM   11  C1  UNL     1      -7.321   0.980   1.798  1.00  0.00     0.037 C 
HETATM   12 CL1  UNL     1      -4.440  -0.001   2.188  1.00  0.00    -0.089 Cl
ENDBRANCH   8   9
ENDBRANCH   7   8
ENDBRANCH   6   7
ENDBRANCH   5   6
ENDBRANCH   3   5
ENDBRANCH   1   2
BRANCH   1  13
HETATM   13  S1  UNL     1       1.531   0.692  -2.632  1.00  0.00    -0.105 SA
BRANCH  13  14
HETATM   14  C11 UNL     1       2.473   1.400  -1.313  1.00  0.00     0.110 C 
HETATM   15  C12 UNL     1       3.098   2.233  -0.554  1.00  0.00     0.122 C 
HETATM   16  N1  UNL     1       3.845   2.560   0.568  1.00  0.00    -0.395 N 
HETATM   17  C13 UNL     1       4.188   1.800   1.728  1.00  0.00     0.146 C 
HETATM   18  H13 UNL     1       4.163   3.554   0.440  1.00  0.00     0.159 HD
HETATM   19  C14 UNL     1       5.140   0.677   1.526  1.00  0.00     0.196 C 
HETATM   20  O1  UNL     1       4.758  -0.336   0.657  1.00  0.00    -0.343 OA
HETATM   21  C15 UNL     1       5.515  -1.487   0.429  1.00  0.00     0.252 C 
HETATM   22  N2  UNL     1       4.736  -1.536  -0.596  1.00  0.00    -0.230 NA
HETATM   23  C16 UNL     1       3.786  -0.485  -0.712  1.00  0.00     0.236 C 
HETATM   24  N3  UNL     1       2.773   0.286  -0.479  1.00  0.00    -0.234 NA
ENDBRANCH  13  14
ENDBRANCH   1  13
TORSDOF 8
