REMARK  2 active torsions:
REMARK  status: ('A' for Active; 'I' for Inactive)
REMARK    1  A    between atoms: C9_11  and  N3_12 
REMARK       I    between atoms: N3_12  and  C10_13 
REMARK    2  A    between atoms: C10_13  and  C11_15 
ROOT
HETATM    1  C1  UNL     1      -3.729  -1.204   0.808  1.00  0.00     0.018 C 
HETATM    2  C2  UNL     1      -3.372  -0.819  -0.608  1.00  0.00     0.046 C 
HETATM    3  C3  UNL     1      -4.433   0.044  -1.174  1.00  0.00    -0.021 C 
HETATM    4  C4  UNL     1      -4.439   1.269  -0.615  1.00  0.00    -0.011 C 
HETATM    5  C5  UNL     1      -3.470   1.621   0.425  1.00  0.00     0.147 C 
HETATM    6  N1  UNL     1      -2.193   1.006   0.346  1.00  0.00    -0.373 N 
HETATM    7  C6  UNL     1      -1.212   1.777   0.918  1.00  0.00     0.243 C 
HETATM    8  N2  UNL     1       0.167   1.588   0.651  1.00  0.00    -0.372 N 
HETATM    9  C7  UNL     1       0.891   0.349   0.489  1.00  0.00     0.058 A 
HETATM   10  C8  UNL     1       2.223   0.486   0.737  1.00  0.00     0.061 A 
HETATM   11  C9  UNL     1       3.017  -0.653   0.609  1.00  0.00     0.037 A 
HETATM   12  C12 UNL     1       2.424  -1.837   0.246  1.00  0.00     0.032 A 
HETATM   13  C13 UNL     1       1.089  -1.962   0.001  1.00  0.00     0.034 A 
HETATM   14  C14 UNL     1       0.276  -0.855   0.118  1.00  0.00     0.056 A 
HETATM   15  N4  UNL     1      -1.117  -1.108  -0.165  1.00  0.00    -0.366 N 
HETATM   16  C15 UNL     1      -2.041  -0.058  -0.515  1.00  0.00     0.188 C 
HETATM   17  H11 UNL     1       0.781   2.451   0.550  1.00  0.00     0.161 HD
HETATM   18  H18 UNL     1      -1.366  -2.139  -0.085  1.00  0.00     0.161 HD
ENDROOT
BRANCH  11  19
HETATM   19  N3  UNL     1       4.397  -0.512   0.866  1.00  0.00    -0.326 N 
HETATM   20  C10 UNL     1       5.180  -0.174  -0.262  1.00  0.00     0.235 C 
HETATM   21  O1  UNL     1       4.670  -0.014  -1.403  1.00  0.00    -0.272 OA
HETATM   22  H13 UNL     1       4.792  -0.651   1.824  1.00  0.00     0.169 HD
BRANCH  20  23
HETATM   23  C11 UNL     1       6.649   0.003  -0.126  1.00  0.00     0.217 C 
HETATM   24 CL1  UNL     1       7.326   0.421  -1.721  1.00  0.00    -0.121 Cl
ENDBRANCH  20  23
ENDBRANCH  11  19
TORSDOF 2
