REMARK  2 active torsions:
REMARK  status: ('A' for Active; 'I' for Inactive)
REMARK    1  A    between atoms: C5_5  and  C6_6 
REMARK    2  A    between atoms: C6_6  and  C7_7 
ROOT
HETATM    1  C1  UNL     1       2.562   3.703   0.793  1.00  0.00     0.045 C 
HETATM    2  C2  UNL     1       2.006   2.415   0.311  1.00  0.00    -0.066 C 
HETATM    3  C3  UNL     1       0.651   2.515   0.505  1.00  0.00     0.005 C 
HETATM    4  C4  UNL     1      -0.573   1.776   0.324  1.00  0.00     0.008 C 
HETATM    5  C5  UNL     1      -1.767   1.262   0.243  1.00  0.00    -0.044 C 
HETATM    6  C8  UNL     1      -2.238  -0.023  -0.281  1.00  0.00    -0.016 A 
HETATM    7  C9  UNL     1      -3.216   0.218  -1.235  1.00  0.00     0.013 A 
HETATM    8  C10 UNL     1      -3.956  -0.633  -2.037  1.00  0.00     0.001 A 
HETATM    9  C11 UNL     1      -3.641  -1.991  -1.826  1.00  0.00     0.001 A 
HETATM   10  C12 UNL     1      -2.653  -2.271  -0.865  1.00  0.00     0.016 A 
HETATM   11  C13 UNL     1      -1.937  -1.376  -0.087  1.00  0.00     0.026 A 
HETATM   12  C14 UNL     1      -1.091  -2.362   0.617  1.00  0.00     0.195 C 
HETATM   13  O2  UNL     1      -1.263  -3.230   1.462  1.00  0.00    -0.287 OA
HETATM   14  C15 UNL     1       0.318  -2.255   0.153  1.00  0.00     0.041 A 
HETATM   15  C16 UNL     1       0.714  -3.001  -0.935  1.00  0.00     0.135 A 
HETATM   16  N1  UNL     1       1.957  -2.552  -1.234  1.00  0.00    -0.239 N 
HETATM   17  N2  UNL     1       2.852  -2.777  -2.144  1.00  0.00    -0.161 NA
HETATM   18  C17 UNL     1       4.015  -2.118  -2.254  1.00  0.00     0.258 A 
HETATM   19  N3  UNL     1       4.304  -1.122  -1.353  1.00  0.00    -0.221 NA
HETATM   20  C18 UNL     1       3.357  -0.861  -0.371  1.00  0.00     0.154 A 
HETATM   21  C19 UNL     1       2.159  -1.619  -0.321  1.00  0.00     0.110 A 
HETATM   22  C20 UNL     1       1.221  -1.325   0.633  1.00  0.00    -0.014 A 
HETATM   23  C21 UNL     1       0.851  -0.622   1.865  1.00  0.00     0.052 C 
HETATM   24  N4  UNL     1       3.381   0.306   0.520  1.00  0.00    -0.369 N 
HETATM   25  C22 UNL     1       2.493   1.165  -0.230  1.00  0.00     0.155 C 
HETATM   26  H18 UNL     1       4.020  -0.177   1.156  1.00  0.00     0.161 HD
ENDROOT
BRANCH   5  27
HETATM   27  C6  UNL     1      -2.734   2.209   0.819  1.00  0.00     0.076 C 
BRANCH  27  28
HETATM   28  C7  UNL     1      -3.374   1.402   1.950  1.00  0.00     0.395 C 
HETATM   29  O1  UNL     1      -3.923   0.583   2.668  1.00  0.00    -0.429 OA
ENDBRANCH  27  28
ENDBRANCH   5  27
TORSDOF 2
