REMARK  2 active torsions:
REMARK  status: ('A' for Active; 'I' for Inactive)
REMARK    1  A    between atoms: C5_5  and  C6_6 
REMARK       I    between atoms: C6_6  and  N1_7 
REMARK    2  A    between atoms: C13_15  and  N2_16 
ROOT
HETATM    1  C1  UNL     1      -0.718  -2.399   2.313  1.00  0.00     0.044 C 
HETATM    2  C2  UNL     1      -0.158  -2.084   0.985  1.00  0.00    -0.078 C 
HETATM    3  C3  UNL     1       0.987  -1.461   0.840  1.00  0.00     0.003 C 
HETATM    4  C4  UNL     1       1.952  -0.939  -0.054  1.00  0.00     0.013 C 
HETATM    5  C5  UNL     1       3.096  -0.286  -0.111  1.00  0.00     0.013 C 
HETATM    6  C7  UNL     1       3.681   0.171   1.151  1.00  0.00     0.079 C 
HETATM    7  C8  UNL     1       3.777   1.667   1.193  1.00  0.00    -0.065 A 
HETATM    8  C9  UNL     1       2.909   2.562   0.836  1.00  0.00    -0.051 A 
HETATM    9  C10 UNL     1       1.591   2.525   0.291  1.00  0.00     0.004 C 
HETATM   10  C11 UNL     1       0.332   2.832   0.080  1.00  0.00    -0.024 C 
HETATM   11  C12 UNL     1      -0.584   2.132  -0.902  1.00  0.00     0.064 C 
HETATM   12  C13 UNL     1      -1.754   1.595  -0.117  1.00  0.00     0.248 C 
HETATM   13  C14 UNL     1      -2.616   0.734  -1.028  1.00  0.00     0.174 A 
HETATM   14  N3  UNL     1      -3.752   0.127  -0.282  1.00  0.00    -0.277 N 
HETATM   15  N4  UNL     1      -4.843  -0.438   0.436  1.00  0.00    -0.169 NA
HETATM   16  C15 UNL     1      -4.540  -1.640   0.925  1.00  0.00     0.254 C 
HETATM   17  N5  UNL     1      -3.280  -2.134   0.627  1.00  0.00    -0.246 NA
HETATM   18  C16 UNL     1      -2.320  -1.677  -0.080  1.00  0.00     0.049 C 
HETATM   19  C17 UNL     1      -0.990  -2.397  -0.235  1.00  0.00     0.091 C 
HETATM   20  C18 UNL     1      -2.659  -0.616  -1.015  1.00  0.00     0.112 A 
HETATM   21  C19 UNL     1      -3.214  -1.225  -2.396  1.00  0.00     0.049 C 
HETATM   22  C20 UNL     1       4.167   3.112   1.359  1.00  0.00     0.073 A 
ENDROOT
BRANCH   5  23
HETATM   23  C6  UNL     1       3.610  -0.048  -1.449  1.00  0.00     0.245 C 
HETATM   24  N1  UNL     1       2.904  -0.502  -2.594  1.00  0.00    -0.366 N 
HETATM   25  H6  UNL     1       2.863  -1.479  -2.985  1.00  0.00     0.159 HD
HETATM   26  H7  UNL     1       2.277  -0.101  -3.335  1.00  0.00     0.159 HD
HETATM   27  O1  UNL     1       4.699   0.576  -1.441  1.00  0.00    -0.268 OA
ENDBRANCH   5  23
BRANCH  12  28
HETATM   28  N2  UNL     1      -1.306   0.841   1.003  1.00  0.00     0.085 N 
HETATM   29  H15 UNL     1      -2.070   0.767   1.717  1.00  0.00     0.313 HD
HETATM   30  H16 UNL     1      -0.481   1.345   1.429  1.00  0.00     0.313 HD
ENDBRANCH  12  28
TORSDOF 2
