REMARK  3 active torsions:
REMARK  status: ('A' for Active; 'I' for Inactive)
REMARK    1  A    between atoms: N1_3  and  C2_4 
REMARK    2  A    between atoms: C5_10  and  C6_11 
REMARK    3  A    between atoms: C6_11  and  C7_13 
ROOT
HETATM    1  B1  UNL     1      -4.896  -2.422  -1.948  1.00  0.00     0.222 B 
HETATM    2  C1  UNL     1      -4.155  -1.537  -0.420  1.00  0.00    -0.157 C 
HETATM    3  N1  UNL     1      -3.595  -0.863   0.699  1.00  0.00    -0.322 N 
HETATM    4  H1  UNL     1      -3.659  -1.544   1.511  1.00  0.00     0.175 HD
ENDROOT
BRANCH   3   5
HETATM    5  C2  UNL     1      -3.142   0.452   0.410  1.00  0.00     0.164 A 
HETATM    6  N2  UNL     1      -4.051   1.435   0.454  1.00  0.00    -0.220 NA
HETATM    7  C3  UNL     1      -3.716   2.696   0.203  1.00  0.00     0.258 A 
HETATM    8  N3  UNL     1      -2.436   2.958  -0.097  1.00  0.00    -0.161 NA
HETATM    9  N4  UNL     1      -1.537   1.985  -0.141  1.00  0.00    -0.239 N 
HETATM   10  C4  UNL     1      -0.236   2.130  -0.423  1.00  0.00     0.134 A 
HETATM   11  C14 UNL     1      -1.825   0.712   0.102  1.00  0.00     0.111 A 
HETATM   12  C5  UNL     1       0.327   0.866  -0.352  1.00  0.00     0.037 A 
HETATM   13  C12 UNL     1      -0.661  -0.013  -0.027  1.00  0.00    -0.014 A 
HETATM   14  C13 UNL     1      -0.701  -1.468   0.174  1.00  0.00     0.052 C 
BRANCH  12  15
HETATM   15  C6  UNL     1       1.727   0.578  -0.565  1.00  0.00     0.172 C 
HETATM   16  O1  UNL     1       2.464   1.566  -0.910  1.00  0.00    -0.291 OA
BRANCH  15  17
HETATM   17  C7  UNL     1       2.557  -0.612  -0.482  1.00  0.00     0.106 A 
HETATM   18  C8  UNL     1       2.703  -1.027   0.957  1.00  0.00    -0.010 A 
HETATM   19  C9  UNL     1       3.980  -1.054   1.312  1.00  0.00    -0.003 A 
HETATM   20  C10 UNL     1       4.793  -0.665   0.164  1.00  0.00    -0.003 A 
HETATM   21  C11 UNL     1       3.983  -0.421  -0.833  1.00  0.00    -0.010 A 
ENDBRANCH  15  17
ENDBRANCH  12  15
ENDBRANCH   3   5
TORSDOF 3
