REMARK  6 active torsions:
REMARK  status: ('A' for Active; 'I' for Inactive)
REMARK    1  A    between atoms: C1_2  and  C2_3 
REMARK       I    between atoms: C1_2  and  N1_5 
REMARK    2  A    between atoms: N1_5  and  C3_6 
REMARK    3  A    between atoms: C4_7  and  C5_8 
REMARK    4  A    between atoms: N2_12  and  C9_13 
REMARK    5  A    between atoms: C12_16  and  C13_17 
REMARK    6  A    between atoms: C13_17  and  P1_18 
ROOT
HETATM    1  C5  UNL     1      -1.226   0.002   0.371  1.00  0.00     0.040 A 
HETATM    2  C6  UNL     1      -0.949  -1.091   1.064  1.00  0.00     0.057 A 
HETATM    3  C7  UNL     1      -0.300  -2.223   1.728  1.00  0.00     0.046 A 
HETATM    4  C8  UNL     1       0.460  -1.362   1.035  1.00  0.00     0.103 A 
HETATM    5  N2  UNL     1       1.080  -0.326   0.246  1.00  0.00    -0.278 N 
HETATM    6  N3  UNL     1       0.019   0.481  -0.138  1.00  0.00    -0.300 N 
HETATM    7  H13 UNL     1       0.100   1.342  -0.728  1.00  0.00     0.187 HD
ENDROOT
BRANCH   5   8
HETATM    8  C9  UNL     1       2.457  -0.158  -0.073  1.00  0.00     0.052 A 
HETATM    9  C10 UNL     1       2.894   0.910  -0.856  1.00  0.00     0.032 A 
HETATM   10  C11 UNL     1       4.237   1.032  -1.139  1.00  0.00     0.014 A 
HETATM   11  C12 UNL     1       5.103   0.085  -0.633  1.00  0.00    -0.035 A 
HETATM   12  C14 UNL     1       4.703  -0.986   0.147  1.00  0.00     0.014 A 
HETATM   13  C15 UNL     1       3.352  -1.081   0.414  1.00  0.00     0.032 A 
BRANCH  11  14
HETATM   14  C13 UNL     1       6.502   0.242  -0.948  1.00  0.00     0.020 C 
BRANCH  14  15
HETATM   15  P1  UNL     1       7.235   1.717  -1.135  1.00  0.00    -0.075 P 
HETATM   16  H10 UNL     1       6.397   2.902  -0.967  1.00  0.00     0.066 HD
ENDBRANCH  14  15
ENDBRANCH  11  14
ENDBRANCH   5   8
BRANCH   1  17
HETATM   17  C4  UNL     1      -2.532   0.615   0.155  1.00  0.00     0.044 C 
HETATM   18  C3  UNL     1      -3.588   0.064   0.683  1.00  0.00     0.093 C 
BRANCH  18  19
HETATM   19  N1  UNL     1      -4.885   0.618   0.505  1.00  0.00    -0.336 N 
HETATM   20  C1  UNL     1      -5.818  -0.261  -0.141  1.00  0.00     0.235 C 
HETATM   21  O1  UNL     1      -5.451  -1.423  -0.497  1.00  0.00    -0.272 OA
HETATM   22  H3  UNL     1      -5.382   1.530   0.719  1.00  0.00     0.168 HD
BRANCH  20  23
HETATM   23  C2  UNL     1      -7.246  -0.076  -0.509  1.00  0.00     0.217 C 
HETATM   24 CL1  UNL     1      -7.866   1.519  -0.057  1.00  0.00    -0.121 Cl
ENDBRANCH  20  23
ENDBRANCH  18  19
ENDBRANCH   1  17
TORSDOF 6
