REMARK  2 active torsions:
REMARK  status: ('A' for Active; 'I' for Inactive)
REMARK    1  A    between atoms: O1_2  and  C2_3 
REMARK    2  A    between atoms: C16_22  and  C17_23 
ROOT
HETATM    1  C2  UNL     1       3.522  -0.435   0.223  1.00  0.00     0.103 A 
HETATM    2  C3  UNL     1       3.814   0.794  -0.336  1.00  0.00     0.072 A 
HETATM    3  C4  UNL     1       2.837   1.744  -0.597  1.00  0.00     0.075 A 
HETATM    4  N1  UNL     1       3.186   2.905  -1.139  1.00  0.00    -0.241 NA
HETATM    5  C5  UNL     1       2.250   3.835  -1.402  1.00  0.00     0.236 A 
HETATM    6  N2  UNL     1       0.960   3.586  -1.116  1.00  0.00    -0.224 NA
HETATM    7  C6  UNL     1       0.578   2.419  -0.566  1.00  0.00     0.142 A 
HETATM    8  C7  UNL     1       1.518   1.482  -0.299  1.00  0.00     0.042 A 
HETATM    9  C8  UNL     1       1.272   0.249   0.256  1.00  0.00     0.057 A 
HETATM   10  C9  UNL     1       2.213  -0.722   0.530  1.00  0.00     0.103 A 
HETATM   11  O2  UNL     1       1.712  -1.918   1.104  1.00  0.00    -0.348 OA
HETATM   12  C10 UNL     1       0.333  -2.230   0.953  1.00  0.00     0.177 C 
HETATM   13  C11 UNL     1      -0.065  -2.381  -0.490  1.00  0.00     0.057 C 
HETATM   14  C12 UNL     1      -1.583  -2.593  -0.584  1.00  0.00     0.275 C 
HETATM   15  N3  UNL     1      -2.288  -1.486  -0.038  1.00  0.00     0.096 N 
HETATM   16  C13 UNL     1      -3.634  -1.821   0.281  1.00  0.00     0.299 C 
HETATM   17  C14 UNL     1      -4.525  -0.573   0.314  1.00  0.00     0.205 C 
HETATM   18  O3  UNL     1      -3.732   0.473   0.844  1.00  0.00    -0.350 OA
HETATM   19  C15 UNL     1      -2.602   0.826   0.130  1.00  0.00     0.098 C 
HETATM   20  C16 UNL     1      -1.987   1.977   0.341  1.00  0.00     0.056 C 
HETATM   21  N4  UNL     1      -0.825   2.371  -0.368  1.00  0.00    -0.341 N 
HETATM   22  C18 UNL     1      -2.261  -0.276  -0.842  1.00  0.00     0.338 C 
HETATM   23  H19 UNL     1      -1.482   2.851  -1.055  1.00  0.00     0.167 HD
ENDROOT
BRANCH   1  24
HETATM   24  O1  UNL     1       4.439  -1.436   0.513  1.00  0.00    -0.353 OA
HETATM   25  C1  UNL     1       5.819  -1.358   0.284  1.00  0.00     0.210 C 
ENDBRANCH   1  24
BRANCH  20  26
HETATM   26  C17 UNL     1      -2.541   2.888   1.371  1.00  0.00     0.174 C 
HETATM   27 CL1  UNL     1      -1.375   3.219   2.662  1.00  0.00    -0.124 Cl
ENDBRANCH  20  26
TORSDOF 2
