REMARK  3 active torsions:
REMARK  status: ('A' for Active; 'I' for Inactive)
REMARK    1  A    between atoms: N1_1  and  C1_2 
REMARK    2  A    between atoms: C5_7  and  N3_8 
REMARK       I    between atoms: N3_8  and  C6_9 
REMARK    3  A    between atoms: C6_9  and  C7_11 
ROOT
HETATM    1  C1  UNL     1      -1.811   1.266   0.552  1.00  0.00     0.148 C 
HETATM    2  N2  UNL     1      -0.717   1.002  -0.064  1.00  0.00    -0.241 NA
HETATM    3  C2  UNL     1       0.325   1.949  -0.239  1.00  0.00     0.131 C 
HETATM    4  C3  UNL     1       0.826   1.525  -1.391  1.00  0.00    -0.005 C 
HETATM    5  C4  UNL     1       1.013   0.220  -1.543  1.00  0.00     0.043 C 
HETATM    6  C5  UNL     1       1.296  -0.408  -0.274  1.00  0.00     0.035 C 
HETATM    7  C8  UNL     1       1.016  -1.016   0.902  1.00  0.00     0.031 C 
HETATM    8  C9  UNL     1      -0.165  -1.441   1.624  1.00  0.00     0.020 C 
HETATM    9  C10 UNL     1      -1.446  -1.552   1.706  1.00  0.00     0.097 C 
HETATM   10  N4  UNL     1      -2.552  -1.202   0.882  1.00  0.00    -0.330 N 
HETATM   11  C11 UNL     1      -3.637  -1.821   0.384  1.00  0.00     0.097 A 
HETATM   12  C12 UNL     1      -4.423  -0.989  -0.387  1.00  0.00     0.020 A 
HETATM   13  C13 UNL     1      -3.738   0.236  -0.340  1.00  0.00     0.035 A 
HETATM   14  C14 UNL     1      -2.594   0.043   0.456  1.00  0.00     0.084 A 
ENDROOT
BRANCH   6  15
HETATM   15  N3  UNL     1       2.724  -0.306  -0.500  1.00  0.00    -0.326 N 
HETATM   16  C6  UNL     1       3.765   0.627  -0.648  1.00  0.00     0.235 C 
HETATM   17  O1  UNL     1       3.483   1.833  -0.577  1.00  0.00    -0.272 OA
HETATM   18  H5  UNL     1       3.079  -1.311  -0.584  1.00  0.00     0.169 HD
BRANCH  16  19
HETATM   19  C7  UNL     1       5.176   0.227  -0.883  1.00  0.00     0.217 C 
HETATM   20 CL1  UNL     1       5.281  -1.551  -0.942  1.00  0.00    -0.121 Cl
ENDBRANCH  16  19
ENDBRANCH   6  15
BRANCH   1  21
HETATM   21  N1  UNL     1      -2.306   2.429   1.193  1.00  0.00    -0.382 N 
HETATM   22  H1  UNL     1      -2.824   2.862   0.369  1.00  0.00     0.157 HD
HETATM   23  H2  UNL     1      -1.818   2.071   2.062  1.00  0.00     0.157 HD
ENDBRANCH   1  21
TORSDOF 3
