REMARK  9 active torsions:
REMARK  status: ('A' for Active; 'I' for Inactive)
REMARK    1  A    between atoms: O1_2  and  C2_3 
REMARK    2  A    between atoms: C2_3  and  C3_4 
REMARK    3  A    between atoms: C3_4  and  C4_5 
REMARK    4  A    between atoms: C3_4  and  O2_13 
REMARK    5  A    between atoms: C4_5  and  C5_6 
REMARK    6  A    between atoms: O2_13  and  C9_14 
REMARK    7  A    between atoms: C9_14  and  C10_15 
REMARK    8  A    between atoms: C10_15  and  C11_16 
REMARK    9  A    between atoms: C11_16  and  N3_17 
ROOT
HETATM    1  C3  UNL     1       1.762  -0.437  -0.308  1.00  0.00     0.069 C 
ENDROOT
BRANCH   1   2
HETATM    2  C2  UNL     1       2.485  -1.695  -0.606  1.00  0.00     0.231 C 
BRANCH   2   3
HETATM    3  O1  UNL     1       2.380  -2.602   0.455  1.00  0.00    -0.390 OA
HETATM    4  C1  UNL     1       3.111  -3.734   0.021  1.00  0.00     0.201 C 
ENDBRANCH   2   3
ENDBRANCH   1   2
BRANCH   1   5
HETATM    5  C4  UNL     1       2.396   0.712  -0.273  1.00  0.00     0.033 C 
BRANCH   5   6
HETATM    6  C5  UNL     1       3.378   1.738  -0.317  1.00  0.00    -0.050 C 
HETATM    7  B1  UNL     1       3.063   3.607  -1.224  1.00  0.00     0.348 B 
HETATM    8  N1  UNL     1       3.354   4.556   0.656  1.00  0.00    -0.350 NA
HETATM    9  C6  UNL     1       4.548   3.997   0.918  1.00  0.00     0.208 C 
HETATM   10  N2  UNL     1       5.209   2.832   0.765  1.00  0.00    -0.249 NA
HETATM   11  C7  UNL     1       4.661   1.754   0.180  1.00  0.00     0.029 C 
HETATM   12  C8  UNL     1       5.347   0.452  -0.000  1.00  0.00     0.070 C 
ENDBRANCH   5   6
ENDBRANCH   1   5
BRANCH   1  13
HETATM   13  O2  UNL     1       0.414  -0.674  -0.094  1.00  0.00    -0.353 OA
BRANCH  13  14
HETATM   14  C9  UNL     1      -0.347  -1.028  -1.234  1.00  0.00     0.177 C 
BRANCH  14  15
HETATM   15  C10 UNL     1      -1.820  -1.052  -0.877  1.00  0.00     0.046 C 
BRANCH  15  16
HETATM   16  C11 UNL     1      -2.239   0.337  -0.389  1.00  0.00     0.119 C 
BRANCH  16  17
HETATM   17  N3  UNL     1      -3.606   0.324  -0.074  1.00  0.00    -0.408 N 
HETATM   18  C12 UNL     1      -4.222   1.496   0.410  1.00  0.00     0.143 C 
HETATM   19  C13 UNL     1      -5.727   1.439   0.417  1.00  0.00     0.187 C 
HETATM   20  O3  UNL     1      -6.202   0.169   0.097  1.00  0.00    -0.388 OA
HETATM   21  C14 UNL     1      -5.527  -0.756   0.867  1.00  0.00     0.187 C 
HETATM   22  C15 UNL     1      -4.140  -0.915   0.316  1.00  0.00     0.143 C 
ENDBRANCH  16  17
ENDBRANCH  15  16
ENDBRANCH  14  15
ENDBRANCH  13  14
ENDBRANCH   1  13
TORSDOF 9
