REMARK  5 active torsions:
REMARK  status: ('A' for Active; 'I' for Inactive)
REMARK    1  A    between atoms: C2_2  and  C3_4 
REMARK    2  A    between atoms: C3_4  and  C4_5 
REMARK    3  A    between atoms: C4_5  and  C5_6 
REMARK    4  A    between atoms: C5_6  and  N1_7 
REMARK    5  A    between atoms: N3_21  and  C16_22 
ROOT
HETATM    1  N1  UNL     1       0.890   0.520   0.589  1.00  0.00    -0.255 NA
HETATM    2  C6  UNL     1      -0.263   0.945   0.047  1.00  0.00     0.065 A 
HETATM    3  C7  UNL     1      -0.116  -0.301   0.685  1.00  0.00     0.107 A 
HETATM    4  C8  UNL     1      -0.266   0.949   0.044  1.00  0.00     0.143 A 
HETATM    5  O1  UNL     1      -0.613   0.058  -1.273  1.00  0.00     0.000 OA
HETATM    6  C9  UNL     1      -2.124  -0.356  -0.995  1.00  0.00     0.048 A 
HETATM    7  C10 UNL     1      -1.999   0.946  -1.804  1.00  0.00     0.287 A 
HETATM    8  C11 UNL     1      -3.282   0.741  -1.514  1.00  0.00     0.205 A 
HETATM    9  C12 UNL     1      -4.499   0.300  -1.097  1.00  0.00     0.051 A 
HETATM   10 CL1  UNL     1      -5.670   1.448  -1.458  1.00  0.00    -0.086 Cl
HETATM   11  C13 UNL     1      -4.275  -0.902  -0.425  1.00  0.00     0.027 A 
HETATM   12  C14 UNL     1      -3.006  -1.336  -0.310  1.00  0.00    -0.052 A 
HETATM   13  C15 UNL     1      -2.078  -2.312   0.354  1.00  0.00     0.151 C 
HETATM   14  N2  UNL     1      -0.923  -1.448   0.995  1.00  0.00    -0.396 N 
HETATM   15  N3  UNL     1      -2.459   2.029  -1.131  1.00  0.00    -0.046 N 
HETATM   16  C16 UNL     1      -1.086   2.129  -0.782  1.00  0.00     0.239 A 
HETATM   17  H12 UNL     1      -0.264  -1.261   1.784  1.00  0.00     0.155 HD
HETATM   18  H13 UNL     1      -3.159   2.775  -1.172  1.00  0.00     0.282 HD
ENDROOT
BRANCH   1  19
HETATM   19  C5  UNL     1       2.017   0.261   0.239  1.00  0.00     0.062 C 
BRANCH  19  20
HETATM   20  C4  UNL     1       3.340  -0.028  -0.269  1.00  0.00     0.009 C 
BRANCH  20  21
HETATM   21  C3  UNL     1       3.764  -0.252   1.004  1.00  0.00    -0.010 C 
BRANCH  21  22
HETATM   22  C2  UNL     1       5.253  -0.644   1.050  1.00  0.00     0.021 A 
HETATM   23  C1  UNL     1       6.414  -0.981   1.523  1.00  0.00     0.149 A 
HETATM   24 BR1  UNL     1       5.904  -0.920   2.900  1.00  0.00    -0.157 Br
ENDBRANCH  21  22
ENDBRANCH  20  21
ENDBRANCH  19  20
ENDBRANCH   1  19
TORSDOF 5
