REMARK  6 active torsions:
REMARK  status: ('A' for Active; 'I' for Inactive)
REMARK    1  A    between atoms: C2_2  and  C3_3 
REMARK    2  A    between atoms: C2_2  and  O1_18 
REMARK    3  A    between atoms: C3_3  and  C4_4 
REMARK    4  A    between atoms: C5_5  and  C6_6 
REMARK    5  A    between atoms: C9_10  and  C10_11 
REMARK    6  A    between atoms: O1_18  and  C15_19 
ROOT
HETATM    1  C6  UNL     1      -0.453   0.803  -1.502  1.00  0.00     0.026 C 
HETATM    2  C7  UNL     1       0.845   0.793  -1.274  1.00  0.00     0.030 A 
HETATM    3  C8  UNL     1       1.914   1.025  -2.276  1.00  0.00     0.208 A 
HETATM    4  N1  UNL     1       3.116   0.898  -1.488  1.00  0.00    -0.265 NA
HETATM    5  C9  UNL     1       2.846   0.641  -0.255  1.00  0.00     0.150 A 
HETATM    6  N3  UNL     1       1.439   0.553  -0.010  1.00  0.00    -0.341 N 
HETATM    7  H18 UNL     1       1.003   0.352   0.920  1.00  0.00     0.167 HD
ENDROOT
BRANCH   1   8
HETATM    8  C5  UNL     1      -1.421   0.563  -0.449  1.00  0.00    -0.002 C 
HETATM    9  C4  UNL     1      -2.738   0.555  -0.589  1.00  0.00    -0.024 C 
BRANCH   9  10
HETATM   10  C3  UNL     1      -3.672   0.300   0.542  1.00  0.00     0.058 C 
BRANCH  10  11
HETATM   11  C2  UNL     1      -4.481  -0.910   0.206  1.00  0.00     0.122 C 
HETATM   12  C1  UNL     1      -3.554  -2.073   0.017  1.00  0.00     0.040 C 
BRANCH  11  13
HETATM   13  O1  UNL     1      -5.476  -1.213   1.086  1.00  0.00    -0.371 OA
BRANCH  13  14
HETATM   14  C15 UNL     1      -6.750  -1.198   0.580  1.00  0.00     0.282 C 
HETATM   15 CL1  UNL     1      -6.818  -2.403  -0.734  1.00  0.00    -0.102 Cl
ENDBRANCH  13  14
ENDBRANCH  11  13
ENDBRANCH  10  11
ENDBRANCH   9  10
ENDBRANCH   1   8
BRANCH   5  16
HETATM   16  C10 UNL     1       3.857   0.459   0.777  1.00  0.00     0.080 A 
HETATM   17  C11 UNL     1       3.662   0.181   2.123  1.00  0.00     0.035 A 
HETATM   18  C12 UNL     1       4.855   0.077   2.801  1.00  0.00     0.020 A 
HETATM   19  C13 UNL     1       5.807   0.299   1.833  1.00  0.00     0.091 A 
HETATM   20  N2  UNL     1       5.194   0.522   0.652  1.00  0.00    -0.358 N 
HETATM   21  C14 UNL     1       5.943   0.785  -0.545  1.00  0.00     0.156 C 
ENDBRANCH   5  16
TORSDOF 6
