REMARK  10 active torsions:
REMARK  status: ('A' for Active; 'I' for Inactive)
REMARK    1  A    between atoms: C2_2  and  O1_3 
REMARK    2  A    between atoms: O1_3  and  C3_4 
REMARK    3  A    between atoms: C3_4  and  C4_5 
REMARK    4  A    between atoms: C4_5  and  C5_6 
REMARK    5  A    between atoms: C5_6  and  C6_7 
REMARK    6  A    between atoms: C6_7  and  O2_8 
REMARK    7  A    between atoms: O2_8  and  C7_9 
REMARK    8  A    between atoms: C7_9  and  C8_10 
REMARK    9  A    between atoms: C12_16  and  N3_17 
REMARK   10  A    between atoms: N3_17  and  C13_18 
ROOT
HETATM    1  C8  UNL     1      -0.041   0.531  -1.216  1.00  0.00     0.078 C 
HETATM    2  C9  UNL     1       0.569  -0.625  -0.942  1.00  0.00     0.067 C 
HETATM    3  C10 UNL     1       1.957  -0.774  -0.523  1.00  0.00     0.074 A 
HETATM    4  N1  UNL     1       2.411  -2.032  -0.725  1.00  0.00    -0.241 NA
HETATM    5  C11 UNL     1       3.698  -2.337  -0.388  1.00  0.00     0.236 A 
HETATM    6  N2  UNL     1       4.516  -1.422   0.135  1.00  0.00    -0.224 NA
HETATM    7  C12 UNL     1       4.127  -0.164   0.358  1.00  0.00     0.142 A 
HETATM    8  C19 UNL     1       2.841   0.135   0.020  1.00  0.00     0.041 A 
HETATM    9  C20 UNL     1       2.500   1.521   0.304  1.00  0.00     0.042 C 
HETATM   10  C21 UNL     1       1.491   2.246  -0.213  1.00  0.00     0.143 C 
HETATM   11  O3  UNL     1       0.531   1.818  -1.153  1.00  0.00    -0.325 OA
ENDROOT
BRANCH   7  12
HETATM   12  N3  UNL     1       5.034   0.772   0.911  1.00  0.00    -0.340 N 
HETATM   13  H18 UNL     1       4.990   1.765   1.204  1.00  0.00     0.167 HD
BRANCH  12  14
HETATM   14  C13 UNL     1       6.392   0.476   1.200  1.00  0.00     0.035 A 
HETATM   15  C14 UNL     1       7.204   0.962   2.205  1.00  0.00     0.032 A 
HETATM   16  C15 UNL     1       8.524   0.648   2.417  1.00  0.00     0.046 A 
HETATM   17  C16 UNL     1       9.112  -0.242   1.545  1.00  0.00     0.138 A 
HETATM   18  F1  UNL     1      10.412  -0.532   1.779  1.00  0.00    -0.204 F 
HETATM   19  C17 UNL     1       8.347  -0.755   0.525  1.00  0.00     0.074 A 
HETATM   20 CL1  UNL     1       9.252  -1.879  -0.501  1.00  0.00    -0.081 Cl
HETATM   21  C18 UNL     1       7.022  -0.424   0.333  1.00  0.00     0.056 A 
ENDBRANCH  12  14
ENDBRANCH   7  12
BRANCH   1  22
HETATM   22  C7  UNL     1      -1.488   0.458  -1.634  1.00  0.00     0.232 C 
BRANCH  22  23
HETATM   23  O2  UNL     1      -2.242   1.168  -0.744  1.00  0.00    -0.385 OA
BRANCH  23  24
HETATM   24  C6  UNL     1      -3.604   1.223  -0.996  1.00  0.00     0.168 C 
BRANCH  24  25
HETATM   25  C5  UNL     1      -4.178  -0.150  -0.981  1.00  0.00     0.028 C 
BRANCH  25  26
HETATM   26  C4  UNL     1      -5.671  -0.212  -1.234  1.00  0.00     0.028 C 
BRANCH  26  27
HETATM   27  C3  UNL     1      -6.373   0.560  -0.175  1.00  0.00     0.167 C 
BRANCH  27  28
HETATM   28  O1  UNL     1      -7.757   0.559  -0.304  1.00  0.00    -0.391 OA
BRANCH  28  29
HETATM   29  C2  UNL     1      -8.333  -0.683  -0.255  1.00  0.00     0.163 C 
HETATM   30  C1  UNL     1      -8.069  -1.419   1.045  1.00  0.00     0.033 C 
ENDBRANCH  28  29
ENDBRANCH  27  28
ENDBRANCH  26  27
ENDBRANCH  25  26
ENDBRANCH  24  25
ENDBRANCH  23  24
ENDBRANCH  22  23
ENDBRANCH   1  22
TORSDOF 10
