REMARK  8 active torsions:
REMARK  status: ('A' for Active; 'I' for Inactive)
REMARK    1  A    between atoms: C2_2  and  C3_3 
REMARK    2  A    between atoms: C3_3  and  N1_4 
REMARK    3  A    between atoms: N1_4  and  C5_6 
REMARK    4  A    between atoms: C5_6  and  C6_7 
REMARK    5  A    between atoms: C8_11  and  C9_12 
REMARK    6  A    between atoms: C10_13  and  N3_15 
REMARK    7  A    between atoms: N3_15  and  C12_16 
REMARK    8  A    between atoms: C12_16  and  C13_17 
ROOT
HETATM    1  C6  UNL     1       2.426   0.140  -1.311  1.00  0.00     0.146 A 
HETATM    2  N2  UNL     1       1.481  -0.677  -1.582  1.00  0.00    -0.113 NA
HETATM    3  O1  UNL     1       0.223  -0.490  -1.072  1.00  0.00    -0.215 OA
HETATM    4  C7  UNL     1      -0.052   0.578  -0.258  1.00  0.00     0.096 A 
HETATM    5  C8  UNL     1      -1.333   0.646   0.125  1.00  0.00     0.038 C 
HETATM    6  C14 UNL     1       0.959   1.567   0.162  1.00  0.00     0.188 A 
HETATM    7  N4  UNL     1       2.207   1.266  -0.478  1.00  0.00    -0.369 N 
HETATM    8  H21 UNL     1       2.937   1.980  -0.254  1.00  0.00     0.161 HD
ENDROOT
BRANCH   5   9
HETATM    9  C9  UNL     1      -2.311  -0.321  -0.289  1.00  0.00     0.027 C 
HETATM   10  C10 UNL     1      -3.612  -0.345   0.038  1.00  0.00     0.001 C 
HETATM   11  C11 UNL     1      -4.202   0.696   0.918  1.00  0.00     0.068 C 
BRANCH  10  12
HETATM   12  N3  UNL     1      -4.426  -1.389  -0.467  1.00  0.00    -0.392 N 
HETATM   13  H14 UNL     1      -4.065  -1.823  -1.361  1.00  0.00     0.159 HD
BRANCH  12  14
HETATM   14  C12 UNL     1      -5.644  -1.920   0.053  1.00  0.00     0.134 C 
BRANCH  14  15
HETATM   15  C13 UNL     1      -6.836  -1.027  -0.018  1.00  0.00     0.134 C 
HETATM   16 CL1  UNL     1      -8.209  -1.935   0.690  1.00  0.00    -0.129 Cl
ENDBRANCH  14  15
ENDBRANCH  12  14
ENDBRANCH  10  12
ENDBRANCH   5   9
BRANCH   1  17
HETATM   17  C5  UNL     1       3.783  -0.082  -1.875  1.00  0.00     0.202 C 
BRANCH  17  18
HETATM   18  N1  UNL     1       4.685  -0.211  -0.723  1.00  0.00    -0.381 N 
HETATM   19  C4  UNL     1       5.668   0.854  -0.504  1.00  0.00     0.150 C 
BRANCH  18  20
HETATM   20  C3  UNL     1       4.622  -1.301   0.143  1.00  0.00     0.137 C 
BRANCH  20  21
HETATM   21  C2  UNL     1       5.013  -1.179   1.397  1.00  0.00    -0.138 C 
HETATM   22  C1  UNL     1       5.487  -0.815   2.580  1.00  0.00     0.098 C 
ENDBRANCH  20  21
ENDBRANCH  18  20
ENDBRANCH  17  18
ENDBRANCH   1  17
TORSDOF 8
