REMARK  0 active torsions:
REMARK  status: ('A' for Active; 'I' for Inactive)
ROOT
HETATM    1  F1  UNL     1      -2.356  -2.269   0.446  1.00  0.00    -0.205 F 
HETATM    2  C1  UNL     1      -1.822  -1.583  -0.627  1.00  0.00     0.136 C 
HETATM    3  C2  UNL     1      -2.944  -0.950  -0.435  1.00  0.00     0.023 C 
HETATM    4  C3  UNL     1      -3.089   0.164  -1.414  1.00  0.00     0.089 C 
HETATM    5  C4  UNL     1      -2.892   1.465  -0.684  1.00  0.00     0.039 C 
HETATM    6  C5  UNL     1      -1.655   1.981  -0.838  1.00  0.00     0.041 C 
HETATM    7  C6  UNL     1      -0.869   2.629   0.200  1.00  0.00    -0.003 C 
HETATM    8  C7  UNL     1       0.228   3.170   0.637  1.00  0.00     0.146 C 
HETATM    9  O1  UNL     1       1.075   3.066  -0.444  1.00  0.00    -0.362 OA
HETATM   10  C8  UNL     1       2.491   2.992  -0.317  1.00  0.00     0.174 C 
HETATM   11  C9  UNL     1       2.896   1.887  -1.299  1.00  0.00     0.029 C 
HETATM   12  C10 UNL     1       2.242   0.595  -0.800  1.00  0.00     0.028 C 
HETATM   13  C11 UNL     1       2.454  -0.533  -1.759  1.00  0.00     0.167 C 
HETATM   14  O2  UNL     1       1.890  -1.716  -1.423  1.00  0.00    -0.391 OA
HETATM   15  C12 UNL     1       2.354  -2.420  -0.335  1.00  0.00     0.173 C 
HETATM   16  C13 UNL     1       1.355  -3.630  -0.241  1.00  0.00     0.084 C 
HETATM   17  C14 UNL     1       0.106  -2.976   0.206  1.00  0.00     0.033 C 
HETATM   18  C15 UNL     1      -0.594  -2.309  -0.731  1.00  0.00     0.094 C 
HETATM   19 CL1  UNL     1      -0.723  -1.821  -2.430  1.00  0.00    -0.079 Cl
HETATM   20  N1  UNL     1      -0.602  -2.811   1.458  1.00  0.00    -0.370 N 
HETATM   21  C16 UNL     1      -0.385  -1.490   2.001  1.00  0.00     0.290 C 
HETATM   22  O3  UNL     1      -1.264  -1.107   3.029  1.00  0.00    -0.364 OA
HETATM   23  C17 UNL     1      -1.576   0.298   2.976  1.00  0.00     0.162 C 
HETATM   24  C18 UNL     1      -1.821   1.449   2.270  1.00  0.00     0.065 C 
HETATM   25  C19 UNL     1      -2.010   2.378   1.128  1.00  0.00    -0.007 C 
HETATM   26  C20 UNL     1      -3.285   2.805   1.182  1.00  0.00     0.094 C 
HETATM   27  N2  UNL     1      -3.845   2.166   0.166  1.00  0.00    -0.250 NA
HETATM   28  H18 UNL     1      -1.230  -3.422   2.062  1.00  0.00     0.161 HD
ENDROOT
TORSDOF 0
