REMARK  4 active torsions:
REMARK  status: ('A' for Active; 'I' for Inactive)
REMARK    1  A    between atoms: O1_2  and  C2_3 
REMARK    2  A    between atoms: C6_9  and  C7_10 
REMARK    3  A    between atoms: C7_10  and  N3_11 
REMARK    4  A    between atoms: N3_11  and  C8_12 
ROOT
HETATM    1  C2  UNL     1      -3.240   1.050  -0.651  1.00  0.00     0.077 A 
HETATM    2  C3  UNL     1      -3.501   0.664  -1.889  1.00  0.00     0.070 A 
HETATM    3  C4  UNL     1      -2.359  -0.166  -2.239  1.00  0.00     0.074 A 
HETATM    4  N1  UNL     1      -2.177  -0.795  -3.427  1.00  0.00    -0.241 NA
HETATM    5  C5  UNL     1      -1.106  -1.547  -3.687  1.00  0.00     0.234 A 
HETATM    6  N2  UNL     1      -0.182  -1.678  -2.739  1.00  0.00    -0.240 NA
HETATM    7  C6  UNL     1      -0.349  -1.059  -1.557  1.00  0.00     0.086 A 
HETATM    8  C14 UNL     1      -1.430  -0.271  -1.223  1.00  0.00     0.032 A 
HETATM    9  C15 UNL     1      -1.943   0.456  -0.254  1.00  0.00    -0.014 A 
HETATM   10  C16 UNL     1      -1.194   0.584   1.046  1.00  0.00     0.052 C 
ENDROOT
BRANCH   7  11
HETATM   11  C7  UNL     1       0.579  -1.222  -0.647  1.00  0.00     0.121 C 
BRANCH  11  12
HETATM   12  N3  UNL     1       1.313  -1.140   0.552  1.00  0.00    -0.364 N 
HETATM   13  H7  UNL     1       1.017  -1.635   1.447  1.00  0.00     0.165 HD
BRANCH  12  14
HETATM   14  C8  UNL     1       2.499  -0.449   0.865  1.00  0.00     0.033 A 
HETATM   15  C9  UNL     1       3.618  -1.219   0.504  1.00  0.00     0.032 A 
HETATM   16  C10 UNL     1       4.915  -0.757   0.714  1.00  0.00     0.046 A 
HETATM   17  C11 UNL     1       5.108   0.488   1.289  1.00  0.00     0.138 A 
HETATM   18  F1  UNL     1       6.346   1.013   1.528  1.00  0.00    -0.204 F 
HETATM   19  C12 UNL     1       4.044   1.270   1.655  1.00  0.00     0.074 A 
HETATM   20 CL1  UNL     1       4.141   2.856   2.388  1.00  0.00    -0.081 Cl
HETATM   21  C13 UNL     1       2.805   0.765   1.425  1.00  0.00     0.056 A 
ENDBRANCH  12  14
ENDBRANCH  11  12
ENDBRANCH   7  11
BRANCH   1  22
HETATM   22  O1  UNL     1      -3.880   1.849   0.315  1.00  0.00    -0.355 OA
HETATM   23  C1  UNL     1      -4.633   1.192   1.347  1.00  0.00     0.210 C 
ENDBRANCH   1  22
TORSDOF 4
