REMARK  2 active torsions:
REMARK  status: ('A' for Active; 'I' for Inactive)
REMARK    1  A    between atoms: C4_6  and  N2_7 
REMARK    2  A    between atoms: N2_7  and  C5_8 
ROOT
HETATM    1 CL1  UNL     1      -3.889  -0.797   1.834  1.00  0.00    -0.121 Cl
HETATM    2  C1  UNL     1      -3.701   0.720   0.940  1.00  0.00     0.124 C 
HETATM    3  C2  UNL     1      -2.336   1.310   1.103  1.00  0.00     0.142 C 
HETATM    4  N1  UNL     1      -1.289   0.617   0.420  1.00  0.00    -0.382 N 
HETATM    5  C3  UNL     1      -1.262  -0.567  -0.355  1.00  0.00     0.128 A 
HETATM    6  C4  UNL     1      -0.009  -1.166  -0.447  1.00  0.00     0.160 A 
HETATM    7  N3  UNL     1       0.136  -2.293  -1.168  1.00  0.00    -0.222 NA
HETATM    8  C11 UNL     1      -0.920  -2.838  -1.794  1.00  0.00     0.238 A 
HETATM    9  N4  UNL     1      -2.124  -2.271  -1.711  1.00  0.00    -0.216 NA
HETATM   10  C12 UNL     1      -2.323  -1.148  -1.008  1.00  0.00     0.196 A 
HETATM   11  O1  UNL     1      -3.666  -0.708  -1.046  1.00  0.00    -0.331 OA
HETATM   12  C13 UNL     1      -4.136   0.485  -0.470  1.00  0.00     0.199 C 
HETATM   13  H4  UNL     1      -0.362   1.103   0.526  1.00  0.00     0.160 HD
ENDROOT
BRANCH   6  14
HETATM   14  N2  UNL     1       1.048  -0.540   0.268  1.00  0.00    -0.339 N 
HETATM   15  H5  UNL     1       0.751  -0.342   1.272  1.00  0.00     0.167 HD
BRANCH  14  16
HETATM   16  C5  UNL     1       2.384  -0.100   0.189  1.00  0.00     0.035 A 
HETATM   17  C6  UNL     1       3.347  -0.970  -0.252  1.00  0.00     0.029 A 
HETATM   18  C7  UNL     1       4.653  -0.530  -0.350  1.00  0.00     0.004 A 
HETATM   19  C8  UNL     1       4.926   0.769   0.001  1.00  0.00     0.019 A 
HETATM   20  C9  UNL     1       3.985   1.661   0.445  1.00  0.00     0.013 A 
HETATM   21 BR1  UNL     1       4.415   3.453   0.946  1.00  0.00    -0.051 Br
HETATM   22  C10 UNL     1       2.691   1.217   0.540  1.00  0.00     0.048 A 
ENDBRANCH  14  16
ENDBRANCH   6  14
TORSDOF 2
