REMARK  5 active torsions:
REMARK  status: ('A' for Active; 'I' for Inactive)
REMARK    1  A    between atoms: O1_2  and  C2_3 
REMARK    2  A    between atoms: C5_6  and  C6_7 
REMARK    3  A    between atoms: C7_8  and  C8_9 
REMARK       I    between atoms: C8_9  and  N1_11 
REMARK    4  A    between atoms: N1_11  and  C9_12 
REMARK    5  A    between atoms: C18_23  and  C19_25 
ROOT
HETATM    1  C9  UNL     1      -2.262   0.690   0.634  1.00  0.00     0.180 C 
HETATM    2  C10 UNL     1      -2.928  -0.458   1.099  1.00  0.00     0.053 C 
HETATM    3  C11 UNL     1      -3.076  -1.922   0.726  1.00  0.00     0.023 C 
HETATM    4  C12 UNL     1      -4.008  -2.783   0.056  1.00  0.00     0.071 A 
HETATM    5  N2  UNL     1      -5.178  -3.131  -0.648  1.00  0.00    -0.250 NA
HETATM    6  C13 UNL     1      -6.068  -2.594  -1.344  1.00  0.00     0.149 A 
HETATM    7  N3  UNL     1      -6.341  -1.235  -1.807  1.00  0.00    -0.379 N 
HETATM    8  C14 UNL     1      -5.218  -0.511  -1.227  1.00  0.00     0.059 A 
HETATM    9  C15 UNL     1      -4.990   0.905  -1.586  1.00  0.00     0.056 A 
HETATM   10  C16 UNL     1      -3.912   1.946  -1.448  1.00  0.00     0.067 A 
HETATM   11  C17 UNL     1      -4.019   0.730  -1.102  1.00  0.00     0.118 A 
HETATM   12  C18 UNL     1      -4.191  -0.494  -0.782  1.00  0.00     0.048 A 
HETATM   13 BR1  UNL     1      -2.367  -1.491  -1.505  1.00  0.00    -0.086 Br
HETATM   14  C19 UNL     1      -4.609  -1.645  -0.583  1.00  0.00     0.083 A 
HETATM   15  N4  UNL     1      -2.645   1.578  -0.592  1.00  0.00    -0.389 N 
HETATM   16  H14 UNL     1      -7.082  -0.742  -2.398  1.00  0.00     0.160 HD
HETATM   17  H17 UNL     1      -1.893   2.133  -1.042  1.00  0.00     0.156 HD
ENDROOT
BRANCH   1  18
HETATM   18  N1  UNL     1      -0.838   0.736   0.618  1.00  0.00    -0.337 N 
HETATM   19  C8  UNL     1       0.050   1.624   1.232  1.00  0.00     0.242 C 
HETATM   20  O2  UNL     1      -0.568   2.520   1.911  1.00  0.00    -0.269 OA
HETATM   21  H8  UNL     1      -0.278   0.011   0.074  1.00  0.00     0.164 HD
BRANCH  19  22
HETATM   22  C7  UNL     1       1.482   1.633   1.179  1.00  0.00     0.075 C 
HETATM   23  C6  UNL     1       2.253   0.774   0.537  1.00  0.00     0.017 C 
BRANCH  23  24
HETATM   24  C5  UNL     1       3.701   0.714   0.434  1.00  0.00    -0.036 A 
HETATM   25  C4  UNL     1       4.304  -0.319  -0.297  1.00  0.00     0.014 A 
HETATM   26  C3  UNL     1       5.674  -0.340  -0.382  1.00  0.00     0.037 A 
HETATM   27  C2  UNL     1       6.478   0.603   0.215  1.00  0.00     0.068 A 
HETATM   28  C21 UNL     1       5.895   1.620   0.934  1.00  0.00     0.037 A 
HETATM   29  C20 UNL     1       4.524   1.654   1.028  1.00  0.00     0.014 A 
BRANCH  27  30
HETATM   30  O1  UNL     1       7.844   0.444   0.036  1.00  0.00    -0.356 OA
HETATM   31  C1  UNL     1       8.324  -0.628  -0.716  1.00  0.00     0.210 C 
ENDBRANCH  27  30
ENDBRANCH  23  24
ENDBRANCH  19  22
ENDBRANCH   1  18
TORSDOF 5
