REMARK  1 active torsions:
REMARK  status: ('A' for Active; 'I' for Inactive)
REMARK    1  A    between atoms: C12_15  and  N3_16 
ROOT
HETATM    1  O1  UNL     1      -2.658   3.763   1.526  1.00  0.00    -0.269 OA
HETATM    2  C1  UNL     1      -2.918   2.693   0.903  1.00  0.00     0.241 C 
HETATM    3  C2  UNL     1      -4.022   1.957   0.244  1.00  0.00     0.075 C 
HETATM    4  C3  UNL     1      -4.138   0.755  -0.285  1.00  0.00     0.017 C 
HETATM    5  C4  UNL     1      -3.215  -0.327  -0.411  1.00  0.00    -0.027 A 
HETATM    6  C5  UNL     1      -3.920  -1.448   0.081  1.00  0.00     0.012 A 
HETATM    7  C6  UNL     1      -3.472  -2.764   0.206  1.00  0.00     0.001 A 
HETATM    8  C7  UNL     1      -2.172  -2.972  -0.211  1.00  0.00     0.001 A 
HETATM    9  C8  UNL     1      -1.443  -1.910  -0.700  1.00  0.00     0.010 A 
HETATM   10  C9  UNL     1      -1.943  -0.636  -0.797  1.00  0.00    -0.019 A 
HETATM   11  C10 UNL     1      -0.891   0.264  -1.375  1.00  0.00     0.179 C 
HETATM   12  N1  UNL     1      -0.491  -0.336  -2.649  1.00  0.00    -0.268 NA
HETATM   13  C11 UNL     1       0.632  -0.792  -2.921  1.00  0.00     0.230 C 
HETATM   14  N2  UNL     1       1.737  -0.796  -2.035  1.00  0.00    -0.224 NA
HETATM   15  C12 UNL     1       1.556  -0.256  -0.851  1.00  0.00     0.139 C 
HETATM   16  C18 UNL     1       0.283   0.461  -0.542  1.00  0.00     0.015 C 
HETATM   17  C19 UNL     1       0.527   1.283   0.519  1.00  0.00     0.006 C 
HETATM   18  C20 UNL     1      -0.110   2.321   1.373  1.00  0.00     0.151 C 
HETATM   19  N4  UNL     1      -1.525   2.508   1.136  1.00  0.00    -0.354 N 
HETATM   20  H17 UNL     1      -1.669   1.640   0.624  1.00  0.00     0.163 HD
ENDROOT
BRANCH  15  21
HETATM   21  N3  UNL     1       2.755  -0.365  -0.094  1.00  0.00    -0.337 N 
HETATM   22  C13 UNL     1       2.926  -1.256   1.008  1.00  0.00     0.112 A 
HETATM   23  C14 UNL     1       4.084  -1.303   1.673  1.00  0.00     0.026 A 
HETATM   24 BR1  UNL     1       4.260  -2.504   3.129  1.00  0.00    -0.050 Br
HETATM   25  C15 UNL     1       5.205  -0.436   1.281  1.00  0.00     0.018 A 
HETATM   26  C16 UNL     1       5.045   0.386   0.265  1.00  0.00    -0.005 A 
HETATM   27  C17 UNL     1       3.818   0.527  -0.545  1.00  0.00     0.157 A 
ENDBRANCH  15  21
TORSDOF 1
