REMARK  7 active torsions:
REMARK  status: ('A' for Active; 'I' for Inactive)
REMARK    1  A    between atoms: C3_3  and  C4_4 
REMARK    2  A    between atoms: C5_5  and  C6_6 
REMARK    3  A    between atoms: C6_6  and  C7_7 
REMARK       I    between atoms: C7_7  and  N1_9 
REMARK    4  A    between atoms: N1_9  and  C8_10 
REMARK    5  A    between atoms: C8_10  and  C9_11 
REMARK    6  A    between atoms: C13_17  and  N4_18 
REMARK    7  A    between atoms: N4_18  and  C14_19 
ROOT
HETATM    1  C9  UNL     1      -0.820   1.637  -0.549  1.00  0.00     0.005 C 
HETATM    2  C10 UNL     1      -2.053   1.849  -1.033  1.00  0.00     0.005 A 
HETATM    3  C11 UNL     1      -2.357   3.088  -1.758  1.00  0.00     0.192 A 
HETATM    4  N2  UNL     1      -3.722   3.071  -2.171  1.00  0.00    -0.278 NA
HETATM    5  C12 UNL     1      -4.553   2.140  -1.952  1.00  0.00     0.229 A 
HETATM    6  N3  UNL     1      -4.259   0.939  -1.248  1.00  0.00    -0.224 NA
HETATM    7  C13 UNL     1      -3.052   0.811  -0.810  1.00  0.00     0.137 A 
ENDROOT
BRANCH   1   8
HETATM    8  C8  UNL     1       0.261   2.641  -0.732  1.00  0.00     0.150 C 
BRANCH   8   9
HETATM    9  N1  UNL     1       1.332   2.007  -1.470  1.00  0.00    -0.357 N 
HETATM   10  C7  UNL     1       1.979   0.877  -0.941  1.00  0.00     0.221 C 
HETATM   11  O1  UNL     1       1.744   0.306   0.149  1.00  0.00    -0.273 OA
HETATM   12  H10 UNL     1       1.730   2.274  -2.399  1.00  0.00     0.162 HD
BRANCH  10  13
HETATM   13  C6  UNL     1       3.089   0.094  -1.545  1.00  0.00     0.130 C 
BRANCH  13  14
HETATM   14  C5  UNL     1       3.398  -0.993  -0.607  1.00  0.00    -0.018 C 
HETATM   15  C4  UNL     1       4.512  -1.283   0.032  1.00  0.00    -0.004 C 
BRANCH  15  16
HETATM   16  C3  UNL     1       5.735  -0.513  -0.088  1.00  0.00    -0.005 C 
HETATM   17  C2  UNL     1       6.867  -0.774   0.537  1.00  0.00    -0.031 C 
HETATM   18  C1  UNL     1       7.115  -1.886   1.473  1.00  0.00     0.036 C 
ENDBRANCH  15  16
ENDBRANCH  13  14
ENDBRANCH  10  13
ENDBRANCH   8   9
ENDBRANCH   1   8
BRANCH   7  19
HETATM   19  N4  UNL     1      -2.771  -0.392  -0.111  1.00  0.00    -0.340 N 
HETATM   20  H17 UNL     1      -1.786  -0.781  -0.221  1.00  0.00     0.167 HD
BRANCH  19  21
HETATM   21  C14 UNL     1      -3.675  -1.107   0.712  1.00  0.00     0.035 A 
HETATM   22  C15 UNL     1      -3.264  -2.309   1.303  1.00  0.00     0.029 A 
HETATM   23  C16 UNL     1      -4.063  -3.064   2.115  1.00  0.00     0.004 A 
HETATM   24  C17 UNL     1      -5.349  -2.663   2.397  1.00  0.00     0.019 A 
HETATM   25  C18 UNL     1      -5.793  -1.485   1.836  1.00  0.00     0.013 A 
HETATM   26 BR1  UNL     1      -7.557  -0.921   2.215  1.00  0.00    -0.051 Br
HETATM   27  C19 UNL     1      -4.954  -0.769   1.032  1.00  0.00     0.048 A 
ENDBRANCH  19  21
ENDBRANCH   7  19
TORSDOF 7
