REMARK  2 active torsions:
REMARK  status: ('A' for Active; 'I' for Inactive)
REMARK    1  A    between atoms: N2_8  and  C7_9 
REMARK    2  A    between atoms: N3_10  and  C8_11 
ROOT
HETATM    1  C8  UNL     1      -0.733   0.367   0.553  1.00  0.00     0.165 C 
HETATM    2  C9  UNL     1      -0.567   1.815   0.326  1.00  0.00     0.003 C 
HETATM    3  C10 UNL     1      -0.752   3.149   0.003  1.00  0.00    -0.009 C 
HETATM    4  C11 UNL     1      -2.176   3.501  -0.540  1.00  0.00     0.150 C 
HETATM    5  N4  UNL     1      -2.877   2.213  -0.422  1.00  0.00    -0.354 N 
HETATM    6  C12 UNL     1      -3.108   1.718   0.868  1.00  0.00     0.241 C 
HETATM    7  O1  UNL     1      -2.694   2.810   1.305  1.00  0.00    -0.269 OA
HETATM    8  C13 UNL     1      -3.380   1.089   2.129  1.00  0.00     0.075 C 
HETATM    9  C14 UNL     1      -3.464  -0.105   1.615  1.00  0.00     0.017 C 
HETATM   10  C15 UNL     1      -3.299  -0.523   0.253  1.00  0.00    -0.027 A 
HETATM   11  C16 UNL     1      -4.200  -1.099  -0.585  1.00  0.00     0.012 A 
HETATM   12  C17 UNL     1      -3.848  -1.472  -1.861  1.00  0.00     0.001 A 
HETATM   13  C18 UNL     1      -2.557  -1.244  -2.263  1.00  0.00     0.001 A 
HETATM   14  C19 UNL     1      -1.678  -0.660  -1.384  1.00  0.00     0.010 A 
HETATM   15  C20 UNL     1      -1.957  -0.248  -0.064  1.00  0.00    -0.020 A 
HETATM   16  H12 UNL     1      -3.183   1.780  -1.298  1.00  0.00     0.163 HD
ENDROOT
BRANCH   1  17
HETATM   17  N3  UNL     1       0.428  -0.343   0.117  1.00  0.00    -0.269 NA
HETATM   18  C7  UNL     1       1.292  -0.889   0.868  1.00  0.00     0.230 C 
BRANCH  18  19
HETATM   19  N2  UNL     1       2.500  -1.635   0.920  1.00  0.00    -0.222 NA
HETATM   20  C6  UNL     1       3.534  -1.243   0.286  1.00  0.00     0.156 A 
HETATM   21  C2  UNL     1       4.685  -2.146   0.461  1.00  0.00    -0.010 A 
HETATM   22  N1  UNL     1       3.776  -0.122  -0.540  1.00  0.00    -0.241 NA
HETATM   23  C1  UNL     1       4.642  -3.243   1.198  1.00  0.00     0.047 C 
HETATM   24  C3  UNL     1       5.962  -1.873  -0.184  1.00  0.00     0.012 A 
HETATM   25  C4  UNL     1       6.079  -0.795  -0.935  1.00  0.00     0.020 A 
HETATM   26  C5  UNL     1       4.913   0.066  -1.078  1.00  0.00     0.119 A 
ENDBRANCH  18  19
ENDBRANCH   1  17
TORSDOF 2
