REMARK  5 active torsions:
REMARK  status: ('A' for Active; 'I' for Inactive)
REMARK    1  A    between atoms: O1_2  and  C2_3 
REMARK    2  A    between atoms: C2_3  and  C3_4 
REMARK    3  A    between atoms: C4_5  and  C5_6 
REMARK    4  A    between atoms: C13_14  and  N1_15 
REMARK    5  A    between atoms: N1_15  and  C14_16 
ROOT
HETATM    1  C5  UNL     1      -3.020  -1.348  -0.193  1.00  0.00    -0.012 C 
HETATM    2  C6  UNL     1      -1.866  -1.838   0.416  1.00  0.00     0.052 C 
HETATM    3  C7  UNL     1      -0.667  -2.364   1.191  1.00  0.00     0.045 C 
HETATM    4  C8  UNL     1       0.510  -1.601   0.583  1.00  0.00    -0.012 A 
HETATM    5  C9  UNL     1       0.092  -1.977  -0.658  1.00  0.00     0.293 A 
HETATM    6  C10 UNL     1       0.804  -0.872  -1.168  1.00  0.00     0.160 A 
HETATM    7  C11 UNL     1       1.593   0.188  -0.953  1.00  0.00     0.053 A 
HETATM    8  C12 UNL     1       1.851   0.262   0.458  1.00  0.00     0.041 A 
HETATM    9  C13 UNL     1       2.608   1.300   0.867  1.00  0.00     0.142 A 
HETATM   10  N2  UNL     1       2.736   1.306   2.250  1.00  0.00    -0.224 NA
HETATM   11  C20 UNL     1       2.140   0.370   2.985  1.00  0.00     0.236 A 
HETATM   12  N3  UNL     1       1.348  -0.712   2.605  1.00  0.00    -0.241 NA
HETATM   13  C21 UNL     1       1.227  -0.721   1.226  1.00  0.00     0.077 A 
HETATM   14  N4  UNL     1      -0.256  -1.201  -2.039  1.00  0.00     0.037 N 
HETATM   15  C22 UNL     1      -1.296  -1.587  -2.989  1.00  0.00     0.345 C 
HETATM   16  O2  UNL     1      -0.480  -2.142  -3.704  1.00  0.00    -0.260 OA
HETATM   17  C23 UNL     1      -2.771  -1.312  -2.850  1.00  0.00     0.079 C 
HETATM   18  C24 UNL     1      -3.287  -1.223  -1.641  1.00  0.00    -0.012 C 
HETATM   19  H19 UNL     1      -0.815  -0.279  -1.798  1.00  0.00     0.298 HD
ENDROOT
BRANCH   9  20
HETATM   20  N1  UNL     1       3.214   2.171  -0.059  1.00  0.00    -0.340 N 
HETATM   21  H13 UNL     1       2.688   2.895  -0.612  1.00  0.00     0.167 HD
BRANCH  20  22
HETATM   22  C14 UNL     1       4.642   1.921  -0.149  1.00  0.00     0.035 A 
HETATM   23  C15 UNL     1       5.543   2.933   0.013  1.00  0.00     0.029 A 
HETATM   24  C16 UNL     1       6.932   2.717  -0.094  1.00  0.00     0.004 A 
HETATM   25  C17 UNL     1       7.470   1.470  -0.371  1.00  0.00     0.019 A 
HETATM   26  C18 UNL     1       6.570   0.424  -0.530  1.00  0.00     0.013 A 
HETATM   27 BR1  UNL     1       7.244  -1.318  -0.915  1.00  0.00    -0.051 Br
HETATM   28  C19 UNL     1       5.209   0.691  -0.412  1.00  0.00     0.048 A 
ENDBRANCH  20  22
ENDBRANCH   9  20
BRANCH   1  29
HETATM   29  C4  UNL     1      -3.703  -1.288   1.043  1.00  0.00    -0.019 C 
HETATM   30  C3  UNL     1      -4.849  -0.686   1.482  1.00  0.00    -0.004 C 
BRANCH  30  31
HETATM   31  C2  UNL     1      -5.458   0.136   0.454  1.00  0.00     0.194 C 
BRANCH  31  32
HETATM   32  O1  UNL     1      -6.660   0.056  -0.036  1.00  0.00    -0.392 OA
HETATM   33  C1  UNL     1      -7.189   1.418   0.022  1.00  0.00     0.201 C 
ENDBRANCH  31  32
ENDBRANCH  30  31
ENDBRANCH   1  29
TORSDOF 5
