REMARK  6 active torsions:
REMARK  status: ('A' for Active; 'I' for Inactive)
REMARK    1  A    between atoms: O1_2  and  C2_3 
REMARK    2  A    between atoms: C6_7  and  C7_8 
REMARK    3  A    between atoms: C8_9  and  C9_10 
REMARK       I    between atoms: C9_10  and  N1_12 
REMARK    4  A    between atoms: N1_12  and  C10_13 
REMARK    5  A    between atoms: C14_19  and  N4_20 
REMARK    6  A    between atoms: N4_20  and  C15_21 
ROOT
HETATM    1  C10 UNL     1      -0.785   0.878  -0.451  1.00  0.00     0.049 A 
HETATM    2  C11 UNL     1      -1.166   2.004  -1.017  1.00  0.00     0.035 A 
HETATM    3  C12 UNL     1      -2.457   2.184  -1.037  1.00  0.00     0.085 A 
HETATM    4  N2  UNL     1      -3.279   3.169  -1.509  1.00  0.00    -0.240 NA
HETATM    5  C13 UNL     1      -4.624   3.041  -1.358  1.00  0.00     0.236 A 
HETATM    6  N3  UNL     1      -5.166   1.980  -0.760  1.00  0.00    -0.224 NA
HETATM    7  C14 UNL     1      -4.454   0.967  -0.266  1.00  0.00     0.142 A 
HETATM    8  C21 UNL     1      -3.092   1.125  -0.435  1.00  0.00     0.042 A 
HETATM    9  C22 UNL     1      -2.078   0.320  -0.077  1.00  0.00     0.048 A 
ENDROOT
BRANCH   1  10
HETATM   10  N1  UNL     1       0.507   0.327  -0.238  1.00  0.00    -0.323 N 
HETATM   11  C9  UNL     1       1.667   1.047  -0.677  1.00  0.00     0.245 C 
HETATM   12  O2  UNL     1       1.354   2.131  -1.220  1.00  0.00    -0.268 OA
HETATM   13  H9  UNL     1       0.549  -0.589   0.235  1.00  0.00     0.169 HD
BRANCH  11  14
HETATM   14  C8  UNL     1       2.904   0.394  -0.408  1.00  0.00     0.075 C 
HETATM   15  C7  UNL     1       3.710  -0.524   0.018  1.00  0.00     0.017 C 
BRANCH  15  16
HETATM   16  C6  UNL     1       5.139  -0.741   0.056  1.00  0.00    -0.033 A 
HETATM   17  C5  UNL     1       5.454  -1.940   0.653  1.00  0.00     0.011 A 
HETATM   18  C4  UNL     1       6.826  -2.170   0.701  1.00  0.00     0.004 A 
HETATM   19  C3  UNL     1       7.768  -1.269   0.192  1.00  0.00     0.037 A 
HETATM   20  C2  UNL     1       7.349  -0.108  -0.380  1.00  0.00     0.069 A 
HETATM   21  C23 UNL     1       6.007   0.186  -0.462  1.00  0.00     0.048 A 
BRANCH  20  22
HETATM   22  O1  UNL     1       8.278   0.802  -0.892  1.00  0.00    -0.356 OA
HETATM   23  C1  UNL     1       9.630   0.470  -0.789  1.00  0.00     0.210 C 
ENDBRANCH  20  22
ENDBRANCH  15  16
ENDBRANCH  11  14
ENDBRANCH   1  10
BRANCH   7  24
HETATM   24  N4  UNL     1      -4.933  -0.191   0.390  1.00  0.00    -0.340 N 
HETATM   25  H11 UNL     1      -4.232  -0.904   0.690  1.00  0.00     0.167 HD
BRANCH  24  26
HETATM   26  C15 UNL     1      -6.280  -0.496   0.687  1.00  0.00     0.035 A 
HETATM   27  C16 UNL     1      -7.377   0.263   0.360  1.00  0.00     0.029 A 
HETATM   28  C17 UNL     1      -8.690  -0.020   0.650  1.00  0.00     0.004 A 
HETATM   29  C18 UNL     1      -8.967  -1.198   1.350  1.00  0.00     0.019 A 
HETATM   30  C19 UNL     1      -7.884  -1.974   1.687  1.00  0.00     0.013 A 
HETATM   31 BR1  UNL     1      -8.212  -3.606   2.657  1.00  0.00    -0.051 Br
HETATM   32  C20 UNL     1      -6.593  -1.663   1.383  1.00  0.00     0.048 A 
ENDBRANCH  24  26
ENDBRANCH   7  24
TORSDOF 6
