REMARK  6 active torsions:
REMARK  status: ('A' for Active; 'I' for Inactive)
REMARK    1  A    between atoms: O1_2  and  C2_3 
REMARK    2  A    between atoms: C6_7  and  O2_8 
REMARK    3  A    between atoms: C7_9  and  C8_10 
REMARK    4  A    between atoms: C8_10  and  C9_11 
REMARK    5  A    between atoms: C11_14  and  C12_15 
REMARK    6  A    between atoms: C20_24  and  N2_25 
ROOT
HETATM    1  C9  UNL     1       0.649  -1.239   0.149  1.00  0.00     0.042 C 
HETATM    2  C10 UNL     1      -0.462  -0.545  -0.030  1.00  0.00     0.120 C 
HETATM    3  N1  UNL     1      -1.444   0.429   0.458  1.00  0.00    -0.246 NA
HETATM    4  C11 UNL     1      -2.699   0.106   0.145  1.00  0.00     0.067 C 
HETATM    5  C18 UNL     1      -2.913  -0.913  -0.915  1.00  0.00     0.033 C 
HETATM    6  C19 UNL     1      -1.912  -1.510  -1.611  1.00  0.00     0.045 C 
HETATM    7  C20 UNL     1      -0.503  -1.161  -1.373  1.00  0.00     0.293 C 
HETATM    8  N3  UNL     1       0.494  -2.065  -1.034  1.00  0.00    -0.349 N 
HETATM    9  H18 UNL     1       0.723  -2.870  -1.652  1.00  0.00     0.162 HD
ENDROOT
BRANCH   1  10
HETATM   10  C8  UNL     1       1.734  -1.444   1.142  1.00  0.00     0.103 C 
BRANCH  10  11
HETATM   11  C7  UNL     1       3.062  -1.113   0.616  1.00  0.00     0.014 A 
HETATM   12  C2  UNL     1       3.559   0.160   0.429  1.00  0.00     0.077 A 
HETATM   13  C3  UNL     1       4.818   0.420  -0.069  1.00  0.00     0.037 A 
HETATM   14  C4  UNL     1       5.650  -0.620  -0.410  1.00  0.00     0.005 A 
HETATM   15  C5  UNL     1       5.228  -1.931  -0.254  1.00  0.00     0.037 A 
HETATM   16  C6  UNL     1       3.946  -2.131   0.254  1.00  0.00     0.075 A 
BRANCH  12  17
HETATM   17  O1  UNL     1       2.724   1.220   0.772  1.00  0.00    -0.355 OA
HETATM   18  C1  UNL     1       3.170   2.562   0.606  1.00  0.00     0.210 C 
ENDBRANCH  12  17
BRANCH  16  19
HETATM   19  O2  UNL     1       3.498  -3.450   0.420  1.00  0.00    -0.360 OA
HETATM   20  H7  UNL     1       2.632  -3.782   0.064  1.00  0.00     0.217 HD
ENDBRANCH  16  19
ENDBRANCH  10  11
ENDBRANCH   1  10
BRANCH   7  21
HETATM   21  N2  UNL     1      -0.050  -0.103  -2.329  1.00  0.00     0.117 N 
HETATM   22  H16 UNL     1      -0.833   0.514  -2.588  1.00  0.00     0.317 HD
HETATM   23  H17 UNL     1       0.401  -0.553  -3.154  1.00  0.00     0.317 HD
ENDBRANCH   7  21
BRANCH   4  24
HETATM   24  C12 UNL     1      -3.950   0.775   0.456  1.00  0.00    -0.006 A 
HETATM   25  C13 UNL     1      -5.260   0.485   0.168  1.00  0.00     0.014 A 
HETATM   26  C14 UNL     1      -6.238   1.340   0.612  1.00  0.00     0.002 A 
HETATM   27  C15 UNL     1      -6.012   2.478   1.332  1.00  0.00     0.019 A 
HETATM   28  C16 UNL     1      -4.698   2.771   1.622  1.00  0.00     0.011 A 
HETATM   29 BR1  UNL     1      -4.403   4.374   2.632  1.00  0.00    -0.051 Br
HETATM   30  C17 UNL     1      -3.681   1.937   1.194  1.00  0.00     0.032 A 
ENDBRANCH   4  24
TORSDOF 6
