REMARK  6 active torsions:
REMARK  status: ('A' for Active; 'I' for Inactive)
REMARK    1  A    between atoms: O1_2  and  C2_3 
REMARK    2  A    between atoms: C6_7  and  C7_8 
REMARK    3  A    between atoms: C8_9  and  C9_10 
REMARK    4  A    between atoms: C9_10  and  C10_12 
REMARK    5  A    between atoms: C11_13  and  C12_14 
REMARK    6  A    between atoms: C15_17  and  C16_18 
ROOT
HETATM    1  C10 UNL     1      -0.741   1.422   0.064  1.00  0.00     0.055 C 
HETATM    2  C11 UNL     1       0.550   1.695  -0.001  1.00  0.00     0.006 C 
ENDROOT
BRANCH   2   3
HETATM    3  C12 UNL     1       1.625   0.717  -0.048  1.00  0.00     0.027 C 
HETATM    4  C13 UNL     1       2.934   0.914  -0.109  1.00  0.00     0.041 A 
HETATM    5  C14 UNL     1       3.881  -0.239  -0.151  1.00  0.00     0.119 A 
HETATM    6  N2  UNL     1       3.356   2.291  -0.135  1.00  0.00    -0.246 NA
HETATM    7  C15 UNL     1       5.242   0.286  -0.227  1.00  0.00     0.051 A 
HETATM    8  N1  UNL     1       5.611   1.542  -0.252  1.00  0.00    -0.245 NA
HETATM    9  C22 UNL     1       4.624   2.563  -0.203  1.00  0.00     0.233 A 
BRANCH   7  10
HETATM   10  C16 UNL     1       6.323  -0.696  -0.286  1.00  0.00    -0.010 A 
HETATM   11  C17 UNL     1       7.653  -0.265  -0.369  1.00  0.00     0.013 A 
HETATM   12  C18 UNL     1       8.726  -1.135  -0.425  1.00  0.00     0.002 A 
HETATM   13  C19 UNL     1       8.493  -2.498  -0.401  1.00  0.00     0.019 A 
HETATM   14  C20 UNL     1       7.184  -2.924  -0.320  1.00  0.00     0.011 A 
HETATM   15 BR1  UNL     1       6.840  -4.809  -0.285  1.00  0.00    -0.051 Br
HETATM   16  C21 UNL     1       6.115  -2.058  -0.263  1.00  0.00     0.032 A 
ENDBRANCH   7  10
ENDBRANCH   2   3
BRANCH   1  17
HETATM   17  C9  UNL     1      -1.758   0.408   0.121  1.00  0.00     0.172 C 
HETATM   18  O2  UNL     1      -0.973  -0.587   0.081  1.00  0.00    -0.289 OA
BRANCH  17  19
HETATM   19  C8  UNL     1      -3.205   0.267   0.198  1.00  0.00     0.055 C 
HETATM   20  C7  UNL     1      -4.051   1.277   0.244  1.00  0.00     0.015 C 
BRANCH  20  21
HETATM   21  C6  UNL     1      -5.499   1.147   0.322  1.00  0.00    -0.034 A 
HETATM   22  C5  UNL     1      -6.316   2.278   0.364  1.00  0.00     0.011 A 
HETATM   23  C4  UNL     1      -7.690   2.128   0.443  1.00  0.00     0.004 A 
HETATM   24  C3  UNL     1      -8.298   0.868   0.482  1.00  0.00     0.037 A 
HETATM   25  C2  UNL     1      -7.516  -0.281   0.442  1.00  0.00     0.069 A 
HETATM   26  C23 UNL     1      -6.157  -0.061   0.364  1.00  0.00     0.048 A 
BRANCH  25  27
HETATM   27  O1  UNL     1      -8.029  -1.574   0.475  1.00  0.00    -0.356 OA
HETATM   28  C1  UNL     1      -7.109  -2.659   0.428  1.00  0.00     0.210 C 
ENDBRANCH  25  27
ENDBRANCH  20  21
ENDBRANCH  17  19
ENDBRANCH   1  17
TORSDOF 6
