REMARK  6 active torsions:
REMARK  status: ('A' for Active; 'I' for Inactive)
REMARK    1  A    between atoms: O1_2  and  C2_3 
REMARK    2  A    between atoms: C6_7  and  C7_8 
REMARK    3  A    between atoms: C8_9  and  C9_10 
REMARK       I    between atoms: C9_10  and  N1_12 
REMARK    4  A    between atoms: N1_12  and  C10_13 
REMARK    5  A    between atoms: C10_13  and  C12_15 
REMARK    6  A    between atoms: C16_21  and  C17_22 
ROOT
HETATM    1  C10 UNL     1      -1.529  -0.946   0.851  1.00  0.00     0.104 C 
HETATM    2  C11 UNL     1      -2.058  -1.473   2.171  1.00  0.00     0.036 C 
ENDROOT
BRANCH   1   3
HETATM    3  N1  UNL     1      -0.491   0.034   1.080  1.00  0.00    -0.350 N 
HETATM    4  C9  UNL     1       0.944   0.057   1.035  1.00  0.00     0.241 C 
HETATM    5  O2  UNL     1       1.046  -1.175   0.707  1.00  0.00    -0.269 OA
HETATM    6  H9  UNL     1      -1.093   0.888   1.336  1.00  0.00     0.163 HD
BRANCH   4   7
HETATM    7  C8  UNL     1       1.584   1.320   1.346  1.00  0.00     0.075 C 
HETATM    8  C7  UNL     1       2.816   1.742   1.424  1.00  0.00     0.017 C 
BRANCH   8   9
HETATM    9  C6  UNL     1       4.127   1.178   1.247  1.00  0.00    -0.033 A 
HETATM   10  C5  UNL     1       5.274   1.928   1.353  1.00  0.00     0.011 A 
HETATM   11  C4  UNL     1       6.559   1.469   1.216  1.00  0.00     0.004 A 
HETATM   12  C3  UNL     1       6.742   0.130   0.944  1.00  0.00     0.037 A 
HETATM   13  C2  UNL     1       5.637  -0.695   0.821  1.00  0.00     0.069 A 
HETATM   14  C22 UNL     1       4.399  -0.134   0.977  1.00  0.00     0.048 A 
BRANCH  13  15
HETATM   15  O1  UNL     1       5.942  -2.001   0.553  1.00  0.00    -0.356 OA
HETATM   16  C1  UNL     1       7.249  -2.496   0.411  1.00  0.00     0.210 C 
ENDBRANCH  13  15
ENDBRANCH   8   9
ENDBRANCH   4   7
ENDBRANCH   1   3
BRANCH   1  17
HETATM   17  C12 UNL     1      -2.565  -0.544  -0.107  1.00  0.00     0.009 C 
HETATM   18  C13 UNL     1      -3.657  -1.000  -0.647  1.00  0.00    -0.011 A 
HETATM   19  C14 UNL     1      -3.823  -2.325  -0.060  1.00  0.00     0.191 A 
HETATM   20  C16 UNL     1      -4.409  -0.236  -1.622  1.00  0.00     0.073 A 
HETATM   21  N2  UNL     1      -4.992  -2.922  -0.720  1.00  0.00    -0.278 NA
HETATM   22  C15 UNL     1      -5.645  -2.244  -1.598  1.00  0.00     0.227 A 
HETATM   23  N3  UNL     1      -5.396  -0.944  -2.056  1.00  0.00    -0.241 NA
BRANCH  20  24
HETATM   24  C17 UNL     1      -4.165   1.113  -2.105  1.00  0.00    -0.011 A 
HETATM   25  C18 UNL     1      -3.380   2.161  -1.987  1.00  0.00     0.011 A 
HETATM   26  C19 UNL     1      -3.637   3.329  -2.798  1.00  0.00    -0.002 A 
HETATM   27  C20 UNL     1      -4.693   2.945  -3.480  1.00  0.00    -0.006 A 
HETATM   28  C21 UNL     1      -5.136   1.590  -3.159  1.00  0.00     0.115 A 
HETATM   29 BR1  UNL     1      -6.937   1.555  -2.450  1.00  0.00    -0.082 Br
ENDBRANCH  20  24
ENDBRANCH   1  17
TORSDOF 6
