REMARK  3 active torsions:
REMARK  status: ('A' for Active; 'I' for Inactive)
REMARK    1  A    between atoms: N3_12  and  C8_13 
REMARK    2  A    between atoms: C9_14  and  N4_15 
REMARK    3  A    between atoms: N4_15  and  C10_16 
ROOT
HETATM    1  C1  UNL     1      -3.420  -3.341   0.363  1.00  0.00     0.020 C 
HETATM    2  C2  UNL     1      -3.731  -2.057   0.277  1.00  0.00    -0.051 A 
HETATM    3  C3  UNL     1      -4.985  -1.481   0.884  1.00  0.00     0.068 A 
HETATM    4  C4  UNL     1      -4.792  -0.058   0.511  1.00  0.00     0.015 A 
HETATM    5  C5  UNL     1      -3.673   0.207  -0.198  1.00  0.00     0.075 A 
HETATM    6  O1  UNL     1      -3.599   1.458  -0.469  1.00  0.00    -0.348 OA
HETATM    7  C6  UNL     1      -3.525   2.726  -0.744  1.00  0.00     0.202 C 
HETATM    8  O2  UNL     1      -2.831   3.544   0.189  1.00  0.00     0.000 OA
HETATM    9  N1  UNL     1      -1.565   3.157   0.326  1.00  0.00    -0.292 N 
HETATM   10  C7  UNL     1      -0.223   2.626   0.396  1.00  0.00     0.245 C 
HETATM   11  N2  UNL     1      -0.688   1.702  -0.286  1.00  0.00    -0.167 NA
HETATM   12  N3  UNL     1      -0.100   0.560  -0.795  1.00  0.00    -0.275 N 
HETATM   13  C16 UNL     1      -1.196   0.091  -1.586  1.00  0.00     0.178 C 
HETATM   14  C17 UNL     1      -1.760  -1.131  -0.950  1.00  0.00     0.009 C 
HETATM   15  C18 UNL     1      -2.951  -1.026  -0.389  1.00  0.00     0.001 A 
HETATM   16  H8  UNL     1      -2.038   3.991   0.708  1.00  0.00     0.188 HD
ENDROOT
BRANCH  12  17
HETATM   17  C8  UNL     1       1.178  -0.012  -0.599  1.00  0.00     0.129 C 
HETATM   18  C9  UNL     1       1.646  -1.048   0.076  1.00  0.00     0.107 C 
BRANCH  18  19
HETATM   19  N4  UNL     1       2.998  -1.480   0.157  1.00  0.00    -0.364 N 
HETATM   20  H12 UNL     1       3.226  -2.501   0.098  1.00  0.00     0.165 HD
BRANCH  19  21
HETATM   21  C10 UNL     1       4.281  -0.873   0.311  1.00  0.00     0.033 A 
HETATM   22  C11 UNL     1       4.919  -0.595   1.518  1.00  0.00     0.029 A 
HETATM   23  C12 UNL     1       6.165  -0.003   1.540  1.00  0.00     0.004 A 
HETATM   24  C13 UNL     1       6.753   0.301   0.340  1.00  0.00     0.019 A 
HETATM   25  C14 UNL     1       6.159   0.043  -0.873  1.00  0.00     0.013 A 
HETATM   26 BR1  UNL     1       7.041   0.495  -2.507  1.00  0.00    -0.051 Br
HETATM   27  C15 UNL     1       4.909  -0.550  -0.887  1.00  0.00     0.048 A 
ENDBRANCH  19  21
ENDBRANCH  18  19
ENDBRANCH  12  17
TORSDOF 3
