REMARK  5 active torsions:
REMARK  status: ('A' for Active; 'I' for Inactive)
REMARK    1  A    between atoms: C7_10  and  N4_11 
REMARK    2  A    between atoms: N4_11  and  C8_12 
REMARK    3  A    between atoms: C9_13  and  C10_14 
REMARK    4  A    between atoms: C11_15  and  C12_16 
REMARK    5  A    between atoms: C12_16  and  C13_17 
ROOT
HETATM    1  C1  UNL     1       3.138  -2.234   2.430  1.00  0.00     0.045 C 
HETATM    2  C2  UNL     1       3.884  -0.896   2.126  1.00  0.00     0.157 C 
HETATM    3  C3  UNL     1       2.918   0.080   1.570  1.00  0.00     0.117 C 
HETATM    4  N1  UNL     1       2.007   0.054   0.667  1.00  0.00    -0.275 NA
HETATM    5  C4  UNL     1       1.598  -1.009  -0.154  1.00  0.00     0.233 C 
HETATM    6  C5  UNL     1       0.099  -1.233   0.112  1.00  0.00     0.190 C 
HETATM    7  N2  UNL     1      -0.193  -0.984   1.469  1.00  0.00    -0.269 NA
HETATM    8  C6  UNL     1      -1.065  -0.220   1.991  1.00  0.00     0.230 C 
HETATM    9  N3  UNL     1      -1.902   0.532   1.081  1.00  0.00    -0.224 NA
HETATM   10  C7  UNL     1      -1.725   0.410  -0.200  1.00  0.00     0.136 C 
HETATM   11  C14 UNL     1      -0.666  -0.387  -0.830  1.00  0.00     0.014 C 
HETATM   12  C15 UNL     1      -0.447  -0.283  -2.123  1.00  0.00     0.006 C 
HETATM   13  C16 UNL     1       0.718  -1.184  -2.400  1.00  0.00     0.147 C 
HETATM   14  N5  UNL     1       1.817  -0.837  -1.521  1.00  0.00    -0.382 N 
HETATM   15  C17 UNL     1       2.724   0.090  -2.041  1.00  0.00     0.147 C 
HETATM   16  C18 UNL     1       4.138  -0.316  -1.934  1.00  0.00    -0.008 C 
HETATM   17  C19 UNL     1       5.417  -0.674  -1.914  1.00  0.00    -0.003 C 
HETATM   18  C20 UNL     1       6.603  -1.100  -1.187  1.00  0.00    -0.002 C 
HETATM   19  C21 UNL     1       6.881  -1.368   0.054  1.00  0.00    -0.001 C 
HETATM   20  C22 UNL     1       6.124  -1.399   1.360  1.00  0.00     0.196 C 
HETATM   21  O1  UNL     1       4.855  -1.130   1.237  1.00  0.00    -0.377 OA
ENDROOT
BRANCH  10  22
HETATM   22  N4  UNL     1      -2.592   1.172  -1.030  1.00  0.00    -0.353 N 
HETATM   23  H9  UNL     1      -2.282   1.573  -1.921  1.00  0.00     0.166 HD
BRANCH  22  24
HETATM   24  C8  UNL     1      -3.971   1.425  -0.674  1.00  0.00     0.072 C 
HETATM   25  C9  UNL     1      -5.204   1.178  -0.334  1.00  0.00     0.059 C 
BRANCH  25  26
HETATM   26  C10 UNL     1      -6.378   0.415   0.014  1.00  0.00    -0.020 C 
HETATM   27  C11 UNL     1      -7.278   1.400   0.208  1.00  0.00    -0.029 C 
BRANCH  27  28
HETATM   28  C12 UNL     1      -7.318   2.861   0.149  1.00  0.00     0.037 C 
BRANCH  28  29
HETATM   29  C13 UNL     1      -8.353   3.287  -0.899  1.00  0.00     0.089 C 
HETATM   30 BR1  UNL     1      -8.430   5.216  -0.983  1.00  0.00    -0.096 Br
ENDBRANCH  28  29
ENDBRANCH  27  28
ENDBRANCH  25  26
ENDBRANCH  22  24
ENDBRANCH  10  22
TORSDOF 5
