REMARK  7 active torsions:
REMARK  status: ('A' for Active; 'I' for Inactive)
REMARK    1  A    between atoms: C2_2  and  C3_3 
REMARK    2  A    between atoms: C3_3  and  N1_4 
REMARK    3  A    between atoms: N1_4  and  C4_5 
REMARK    4  A    between atoms: C7_10  and  C8_11 
REMARK       I    between atoms: N4_16  and  C12_17 
REMARK    5  A    between atoms: C12_17  and  C13_19 
REMARK    6  A    between atoms: C13_19  and  C14_20 
REMARK    7  A    between atoms: C18_24  and  O2_25 
ROOT
HETATM    1  C4  UNL     1      -3.640   0.273  -0.748  1.00  0.00     0.132 C 
HETATM    2  N2  UNL     1      -3.927  -0.263   0.431  1.00  0.00    -0.225 NA
HETATM    3  C5  UNL     1      -3.214  -1.125   1.331  1.00  0.00     0.231 C 
HETATM    4  N3  UNL     1      -1.988  -1.593   1.152  1.00  0.00    -0.256 NA
HETATM    5  C6  UNL     1      -1.002  -1.722   0.145  1.00  0.00     0.220 C 
HETATM    6  C7  UNL     1      -1.406  -2.245  -1.186  1.00  0.00     0.063 C 
HETATM    7  C9  UNL     1      -1.984  -1.203  -2.075  1.00  0.00    -0.005 C 
HETATM    8  C10 UNL     1      -2.269  -0.094  -1.273  1.00  0.00     0.002 C 
HETATM    9  C11 UNL     1      -0.896   0.543  -0.936  1.00  0.00     0.170 C 
HETATM   10  N4  UNL     1      -0.204  -0.512  -0.137  1.00  0.00    -0.324 N 
HETATM   11  C12 UNL     1       1.133  -0.319   0.307  1.00  0.00     0.226 C 
HETATM   12  O1  UNL     1       1.690  -1.233   0.972  1.00  0.00    -0.273 OA
ENDROOT
BRANCH  11  13
HETATM   13  C13 UNL     1       1.791   0.940  -0.036  1.00  0.00     0.141 C 
BRANCH  13  14
HETATM   14  C14 UNL     1       3.161   0.937   0.505  1.00  0.00    -0.047 A 
HETATM   15  C15 UNL     1       3.354   1.433   1.796  1.00  0.00     0.007 A 
HETATM   16  C16 UNL     1       4.616   1.445   2.324  1.00  0.00     0.003 A 
HETATM   17  C17 UNL     1       5.671   0.969   1.573  1.00  0.00     0.037 A 
HETATM   18  C18 UNL     1       5.519   0.479   0.312  1.00  0.00     0.068 A 
HETATM   19  C20 UNL     1       4.246   0.471  -0.209  1.00  0.00     0.044 A 
BRANCH  18  20
HETATM   20  O2  UNL     1       6.519  -0.016  -0.510  1.00  0.00    -0.356 OA
HETATM   21  C19 UNL     1       7.834  -0.034  -0.041  1.00  0.00     0.210 C 
ENDBRANCH  18  20
ENDBRANCH  13  14
ENDBRANCH  11  13
BRANCH   6  22
HETATM   22  C8  UNL     1      -2.322  -3.452  -1.095  1.00  0.00     0.097 C 
HETATM   23 BR1  UNL     1      -2.782  -4.047  -2.880  1.00  0.00    -0.096 Br
ENDBRANCH   6  22
BRANCH   1  24
HETATM   24  N1  UNL     1      -4.702   1.063  -1.232  1.00  0.00    -0.371 N 
HETATM   25  H6  UNL     1      -4.410   1.517  -2.101  1.00  0.00     0.161 HD
BRANCH  24  26
HETATM   26  C3  UNL     1      -5.920   1.070  -0.440  1.00  0.00     0.148 C 
BRANCH  26  27
HETATM   27  C2  UNL     1      -5.749   1.749   0.851  1.00  0.00    -0.018 C 
HETATM   28  C1  UNL     1      -4.621   2.306   1.279  1.00  0.00     0.008 C 
ENDBRANCH  26  27
ENDBRANCH  24  26
ENDBRANCH   1  24
TORSDOF 7
