REMARK  5 active torsions:
REMARK  status: ('A' for Active; 'I' for Inactive)
REMARK    1  A    between atoms: O1_2  and  C2_3 
REMARK    2  A    between atoms: C6_7  and  C7_8 
REMARK    3  A    between atoms: C8_9  and  C9_10 
REMARK       I    between atoms: C9_10  and  N1_12 
REMARK    4  A    between atoms: C15_18  and  N2_19 
REMARK    5  A    between atoms: N2_19  and  C16_20 
ROOT
HETATM    1  C9  UNL     1       1.428   1.080   0.912  1.00  0.00     0.248 C 
HETATM    2  O2  UNL     1       1.694   2.215   1.311  1.00  0.00    -0.268 OA
HETATM    3  N1  UNL     1       0.143   0.886   1.484  1.00  0.00    -0.308 N 
HETATM    4  C10 UNL     1      -0.674   1.717   2.301  1.00  0.00     0.104 C 
HETATM    5  C11 UNL     1      -1.964   1.338   2.569  1.00  0.00    -0.023 C 
HETATM    6  C12 UNL     1      -2.507  -0.025   3.012  1.00  0.00     0.008 C 
HETATM    7  C13 UNL     1      -1.210  -0.451   2.869  1.00  0.00     0.007 C 
HETATM    8  C14 UNL     1      -0.745  -0.294   1.381  1.00  0.00     0.184 C 
HETATM    9  C15 UNL     1      -1.954   0.157   0.551  1.00  0.00     0.126 C 
HETATM   10  N3  UNL     1      -2.940   1.143   0.483  1.00  0.00    -0.270 NA
HETATM   11  C23 UNL     1      -3.102   1.995   1.820  1.00  0.00     0.191 C 
ENDROOT
BRANCH   1  12
HETATM   12  C8  UNL     1       2.012   0.026   0.111  1.00  0.00     0.072 C 
HETATM   13  C7  UNL     1       3.195   0.083  -0.474  1.00  0.00    -0.006 C 
BRANCH  13  14
HETATM   14  C6  UNL     1       4.421   0.863  -0.740  1.00  0.00     0.088 A 
HETATM   15  C2  UNL     1       5.639   0.171  -0.235  1.00  0.00     0.057 A 
HETATM   16  C3  UNL     1       6.304   0.923   0.649  1.00  0.00     0.033 A 
HETATM   17  C4  UNL     1       5.554   2.175   0.782  1.00  0.00    -0.001 A 
HETATM   18  C5  UNL     1       4.481   2.143  -0.009  1.00  0.00    -0.011 A 
BRANCH  15  19
HETATM   19  O1  UNL     1       5.955  -1.120  -0.702  1.00  0.00    -0.359 OA
HETATM   20  C1  UNL     1       6.561  -1.316  -1.971  1.00  0.00     0.209 C 
ENDBRANCH  15  19
ENDBRANCH  13  14
ENDBRANCH   1  12
BRANCH   9  21
HETATM   21  N2  UNL     1      -2.162  -0.742  -0.592  1.00  0.00    -0.342 N 
HETATM   22  H14 UNL     1      -1.404  -1.387  -0.912  1.00  0.00     0.167 HD
BRANCH  21  23
HETATM   23  C16 UNL     1      -3.409  -0.775  -1.316  1.00  0.00     0.040 A 
HETATM   24  C17 UNL     1      -3.513   0.075  -2.380  1.00  0.00     0.030 A 
HETATM   25  C18 UNL     1      -4.710   0.049  -3.081  1.00  0.00     0.004 A 
HETATM   26  C19 UNL     1      -5.754  -0.797  -2.724  1.00  0.00     0.020 A 
HETATM   27  C20 UNL     1      -5.583  -1.629  -1.640  1.00  0.00     0.019 A 
HETATM   28 BR1  UNL     1      -6.940  -2.835  -1.052  1.00  0.00    -0.051 Br
HETATM   29  C21 UNL     1      -4.410  -1.641  -0.909  1.00  0.00    -0.018 A 
HETATM   30  C22 UNL     1      -4.136  -2.503   0.275  1.00  0.00     0.052 C 
ENDBRANCH  21  23
ENDBRANCH   9  21
TORSDOF 5
