REMARK  5 active torsions:
REMARK  status: ('A' for Active; 'I' for Inactive)
REMARK    1  A    between atoms: O1_2  and  C2_3 
REMARK    2  A    between atoms: C6_7  and  C7_8 
REMARK    3  A    between atoms: C8_9  and  C9_10 
REMARK       I    between atoms: C9_10  and  N1_12 
REMARK    4  A    between atoms: N1_12  and  C10_13 
REMARK    5  A    between atoms: C15_20  and  N4_21 
ROOT
HETATM    1  C10 UNL     1      -2.330  -1.939  -0.435  1.00  0.00     0.029 A 
HETATM    2  C11 UNL     1      -2.189  -3.274  -0.273  1.00  0.00     0.028 A 
HETATM    3  C12 UNL     1      -3.353  -3.977  -0.849  1.00  0.00     0.030 A 
HETATM    4  C13 UNL     1      -4.147  -3.036  -1.334  1.00  0.00     0.053 A 
HETATM    5  N2  UNL     1      -5.411  -3.021  -2.019  1.00  0.00    -0.245 NA
HETATM    6  C14 UNL     1      -5.716  -1.957  -2.737  1.00  0.00     0.235 C 
HETATM    7  N3  UNL     1      -4.814  -0.900  -2.775  1.00  0.00    -0.227 NA
HETATM    8  C15 UNL     1      -3.687  -0.734  -2.196  1.00  0.00     0.123 C 
HETATM    9  C21 UNL     1      -3.616  -1.690  -1.103  1.00  0.00     0.157 A 
ENDROOT
BRANCH   1  10
HETATM   10  N1  UNL     1      -1.164  -1.309   0.142  1.00  0.00    -0.326 N 
HETATM   11  C9  UNL     1      -1.187  -0.407   1.235  1.00  0.00     0.245 C 
HETATM   12  O2  UNL     1      -2.342  -0.170   1.704  1.00  0.00    -0.268 OA
HETATM   13  H9  UNL     1      -0.184  -1.486  -0.234  1.00  0.00     0.169 HD
BRANCH  11  14
HETATM   14  C8  UNL     1      -0.003   0.220   1.804  1.00  0.00     0.075 C 
HETATM   15  C7  UNL     1       1.261   0.136   1.502  1.00  0.00     0.017 C 
BRANCH  15  16
HETATM   16  C6  UNL     1       2.411   0.790   2.109  1.00  0.00    -0.033 A 
HETATM   17  C5  UNL     1       2.270   1.652   3.174  1.00  0.00     0.011 A 
HETATM   18  C4  UNL     1       3.351   2.267   3.745  1.00  0.00     0.004 A 
HETATM   19  C3  UNL     1       4.606   1.998   3.220  1.00  0.00     0.037 A 
HETATM   20  C2  UNL     1       4.740   1.127   2.146  1.00  0.00     0.069 A 
HETATM   21  C22 UNL     1       3.658   0.522   1.587  1.00  0.00     0.048 A 
BRANCH  20  22
HETATM   22  O1  UNL     1       5.982   0.836   1.597  1.00  0.00    -0.356 OA
HETATM   23  C1  UNL     1       7.190   1.408   2.097  1.00  0.00     0.210 C 
ENDBRANCH  20  22
ENDBRANCH  15  16
ENDBRANCH  11  14
ENDBRANCH   1  10
BRANCH   8  24
HETATM   24  N4  UNL     1      -2.589   0.157  -2.051  1.00  0.00    -0.340 N 
HETATM   25  C16 UNL     1      -2.802   1.272  -1.183  1.00  0.00     0.111 A 
HETATM   26  C17 UNL     1      -1.736   2.072  -1.057  1.00  0.00     0.026 A 
HETATM   27 BR1  UNL     1      -1.904   3.592   0.079  1.00  0.00    -0.050 Br
HETATM   28  C18 UNL     1      -0.469   1.856  -1.740  1.00  0.00     0.018 A 
HETATM   29  C19 UNL     1      -0.348   0.798  -2.546  1.00  0.00    -0.005 A 
HETATM   30  C20 UNL     1      -1.434  -0.202  -2.810  1.00  0.00     0.157 A 
ENDBRANCH   8  24
TORSDOF 5
