REMARK  4 active torsions:
REMARK  status: ('A' for Active; 'I' for Inactive)
REMARK    1  A    between atoms: N1_2  and  C1_3 
REMARK    2  A    between atoms: C6_10  and  O1_11 
REMARK    3  A    between atoms: O1_11  and  N4_12 
REMARK    4  A    between atoms: N4_12  and  C7_13 
ROOT
HETATM    1  C1  UNL     1      -3.413  -0.935   0.805  1.00  0.00     0.044 A 
HETATM    2  C2  UNL     1      -4.365   0.064   0.783  1.00  0.00     0.033 A 
HETATM    3  C3  UNL     1      -3.975   1.221   0.140  1.00  0.00     0.035 A 
HETATM    4  C4  UNL     1      -2.729   1.386  -0.444  1.00  0.00     0.072 A 
HETATM    5  N2  UNL     1      -2.392   2.538  -1.063  1.00  0.00    -0.241 NA
HETATM    6  C5  UNL     1      -1.165   2.695  -1.636  1.00  0.00     0.236 A 
HETATM    7  N3  UNL     1      -0.257   1.678  -1.589  1.00  0.00    -0.215 NA
HETATM    8  C6  UNL     1      -0.601   0.518  -0.964  1.00  0.00     0.205 A 
HETATM    9  C13 UNL     1      -1.836   0.334  -0.376  1.00  0.00     0.050 A 
HETATM   10  C14 UNL     1      -2.154  -0.861   0.253  1.00  0.00     0.048 A 
ENDROOT
BRANCH   8  11
HETATM   11  O1  UNL     1       0.303  -0.539  -0.899  1.00  0.00    -0.216 OA
BRANCH  11  12
HETATM   12  N4  UNL     1       1.559  -0.482  -1.442  1.00  0.00    -0.259 N 
HETATM   13  H5  UNL     1       1.681  -0.497  -2.476  1.00  0.00     0.195 HD
BRANCH  12  14
HETATM   14  C7  UNL     1       2.690  -0.403  -0.581  1.00  0.00     0.056 A 
HETATM   15  C8  UNL     1       2.435  -0.388   0.778  1.00  0.00     0.031 A 
HETATM   16  C9  UNL     1       3.527  -0.311   1.626  1.00  0.00     0.004 A 
HETATM   17  C10 UNL     1       4.815  -0.252   1.116  1.00  0.00     0.019 A 
HETATM   18  C11 UNL     1       5.047  -0.268  -0.255  1.00  0.00     0.013 A 
HETATM   19 BR1  UNL     1       6.832  -0.184  -0.889  1.00  0.00    -0.051 Br
HETATM   20  C12 UNL     1       3.948  -0.345  -1.111  1.00  0.00     0.050 A 
ENDBRANCH  12  14
ENDBRANCH  11  12
ENDBRANCH   8  11
BRANCH   1  21
HETATM   21  N1  UNL     1      -3.747  -2.158   1.452  1.00  0.00    -0.299 N 
HETATM   22 CL1  UNL     1      -5.240  -2.524   2.222  1.00  0.00     0.011 Cl
HETATM   23  H1  UNL     1      -3.118  -2.973   1.530  1.00  0.00     0.180 HD
ENDBRANCH   1  21
TORSDOF 4
