REMARK  3 active torsions:
REMARK  status: ('A' for Active; 'I' for Inactive)
REMARK    1  A    between atoms: O1_2  and  C2_3 
REMARK    2  A    between atoms: C12_15  and  N3_16 
REMARK    3  A    between atoms: N3_16  and  C13_17 
ROOT
HETATM    1  C2  UNL     1      -3.073   1.277  -0.396  1.00  0.00     0.075 A 
HETATM    2  C3  UNL     1      -3.944   2.008   0.369  1.00  0.00     0.037 A 
HETATM    3  C4  UNL     1      -4.729   1.575   1.410  1.00  0.00     0.004 A 
HETATM    4  C5  UNL     1      -4.558   0.227   1.647  1.00  0.00     0.012 A 
HETATM    5  C6  UNL     1      -3.697  -0.619   0.930  1.00  0.00    -0.027 A 
HETATM    6  C7  UNL     1      -2.963  -0.057  -0.093  1.00  0.00    -0.014 A 
HETATM    7  C8  UNL     1      -1.964  -0.811  -0.940  1.00  0.00     0.045 C 
HETATM    8  C9  UNL     1      -0.622  -0.769  -0.297  1.00  0.00     0.045 C 
HETATM    9  C10 UNL     1       0.390  -1.682  -1.007  1.00  0.00     0.109 A 
HETATM   10  N1  UNL     1       0.737  -1.196  -2.302  1.00  0.00    -0.264 NA
HETATM   11  C11 UNL     1       1.830  -0.432  -2.382  1.00  0.00     0.230 C 
HETATM   12  N2  UNL     1       2.798   0.016  -1.409  1.00  0.00    -0.224 NA
HETATM   13  C12 UNL     1       2.631  -0.415  -0.177  1.00  0.00     0.138 C 
HETATM   14  C19 UNL     1       1.700  -1.598  -0.232  1.00  0.00     0.019 A 
HETATM   15  C20 UNL     1       1.590  -2.903   0.147  1.00  0.00     0.015 A 
HETATM   16  C21 UNL     1       0.331  -3.078  -0.599  1.00  0.00     0.143 A 
HETATM   17  N4  UNL     1      -0.836  -3.386   0.185  1.00  0.00    -0.347 N 
HETATM   18  C22 UNL     1      -2.009  -3.700   0.974  1.00  0.00     0.241 C 
HETATM   19  O2  UNL     1      -1.406  -4.812   0.976  1.00  0.00    -0.269 OA
HETATM   20  C23 UNL     1      -3.268  -3.148   1.535  1.00  0.00     0.075 C 
HETATM   21  C24 UNL     1      -3.760  -1.972   1.427  1.00  0.00     0.017 C 
HETATM   22  H19 UNL     1      -1.312  -2.521   0.432  1.00  0.00     0.163 HD
ENDROOT
BRANCH  13  23
HETATM   23  N3  UNL     1       3.266  -0.246   1.081  1.00  0.00    -0.340 N 
HETATM   24  H12 UNL     1       3.181  -0.925   1.861  1.00  0.00     0.167 HD
BRANCH  23  25
HETATM   25  C13 UNL     1       4.000   1.001   1.007  1.00  0.00     0.035 A 
HETATM   26  C14 UNL     1       3.489   2.238   1.334  1.00  0.00     0.029 A 
HETATM   27  C15 UNL     1       4.327   3.325   1.205  1.00  0.00     0.004 A 
HETATM   28  C16 UNL     1       5.642   3.178   0.762  1.00  0.00     0.019 A 
HETATM   29  C17 UNL     1       6.142   1.922   0.436  1.00  0.00     0.013 A 
HETATM   30 BR1  UNL     1       7.941   1.711  -0.173  1.00  0.00    -0.051 Br
HETATM   31  C18 UNL     1       5.312   0.828   0.560  1.00  0.00     0.048 A 
ENDBRANCH  23  25
ENDBRANCH  13  23
BRANCH   1  32
HETATM   32  O1  UNL     1      -2.346   1.845  -1.414  1.00  0.00    -0.355 OA
HETATM   33  C1  UNL     1      -2.512   3.225  -1.668  1.00  0.00     0.210 C 
ENDBRANCH   1  32
TORSDOF 3
