REMARK  2 active torsions:
REMARK  status: ('A' for Active; 'I' for Inactive)
REMARK    1  A    between atoms: C11_15  and  N3_16 
REMARK    2  A    between atoms: N3_16  and  C12_17 
ROOT
HETATM    1  O1  UNL     1      -2.761  -3.555  -0.586  1.00  0.00    -0.268 OA
HETATM    2  C1  UNL     1      -2.187  -2.559  -0.064  1.00  0.00     0.245 C 
HETATM    3  C2  UNL     1      -1.006  -2.712   0.778  1.00  0.00     0.070 C 
HETATM    4  C3  UNL     1      -0.403  -1.896   1.624  1.00  0.00    -0.020 C 
HETATM    5  C4  UNL     1      -0.905  -0.550   1.863  1.00  0.00     0.045 C 
HETATM    6  C5  UNL     1      -1.076   0.321   0.645  1.00  0.00     0.108 C 
HETATM    7  C6  UNL     1      -2.298   0.090  -0.125  1.00  0.00     0.024 C 
HETATM    8  C7  UNL     1      -3.151   0.918  -0.711  1.00  0.00     0.027 C 
HETATM    9  C8  UNL     1      -3.284   2.356  -0.868  1.00  0.00     0.021 C 
HETATM   10  C9  UNL     1      -2.643   3.457  -0.515  1.00  0.00     0.114 C 
HETATM   11  N1  UNL     1      -1.535   4.092   0.161  1.00  0.00    -0.276 N 
HETATM   12  O2  UNL     1      -0.832   3.059  -0.291  1.00  0.00    -0.259 OA
HETATM   13  C10 UNL     1       0.334   2.749   0.351  1.00  0.00     0.351 C 
HETATM   14  N2  UNL     1       0.857   1.534  -0.308  1.00  0.00    -0.248 NA
HETATM   15  C11 UNL     1       0.173   0.420  -0.151  1.00  0.00     0.112 C 
HETATM   16  N4  UNL     1      -2.741  -1.259  -0.330  1.00  0.00    -0.327 N 
HETATM   17  H9  UNL     1      -1.494   4.962   0.714  1.00  0.00     0.193 HD
HETATM   18  H17 UNL     1      -3.690  -1.371  -0.776  1.00  0.00     0.169 HD
ENDROOT
BRANCH  15  19
HETATM   19  N3  UNL     1       0.741  -0.665  -0.829  1.00  0.00    -0.344 N 
HETATM   20  H12 UNL     1       0.086  -1.267  -1.416  1.00  0.00     0.167 HD
BRANCH  19  21
HETATM   21  C12 UNL     1       2.113  -1.017  -0.788  1.00  0.00     0.034 A 
HETATM   22  C13 UNL     1       3.069  -0.357  -0.058  1.00  0.00     0.029 A 
HETATM   23  C14 UNL     1       4.408  -0.684  -0.009  1.00  0.00     0.004 A 
HETATM   24  C15 UNL     1       4.849  -1.764  -0.750  1.00  0.00     0.019 A 
HETATM   25  C16 UNL     1       3.916  -2.452  -1.496  1.00  0.00     0.013 A 
HETATM   26 BR1  UNL     1       4.499  -3.954  -2.532  1.00  0.00    -0.051 Br
HETATM   27  C17 UNL     1       2.589  -2.088  -1.514  1.00  0.00     0.048 A 
ENDBRANCH  19  21
ENDBRANCH  15  19
TORSDOF 2
