REMARK  1 active torsions:
REMARK  status: ('A' for Active; 'I' for Inactive)
REMARK    1  A    between atoms: C2_2  and  C3_3 
ROOT
HETATM    1  C3  UNL     1       2.410  -2.037   2.416  1.00  0.00    -0.015 C 
HETATM    2  C4  UNL     1       1.995  -0.644   2.835  1.00  0.00     0.029 C 
HETATM    3  C5  UNL     1       1.613   0.656   2.918  1.00  0.00    -0.018 C 
HETATM    4  C6  UNL     1       1.403   1.627   1.898  1.00  0.00     0.018 C 
HETATM    5  C7  UNL     1       1.371   2.180   0.655  1.00  0.00    -0.023 C 
HETATM    6  O1  UNL     1       1.754   1.577  -0.543  1.00  0.00     0.000 OA
HETATM    7  C8  UNL     1       1.067   0.622  -1.299  1.00  0.00     0.092 C 
HETATM    8  C9  UNL     1       0.238   1.331  -2.341  1.00  0.00     0.082 C 
HETATM    9  C10 UNL     1      -0.324   0.459  -3.365  1.00  0.00    -0.008 C 
HETATM   10 BR1  UNL     1      -0.949  -0.686  -4.748  1.00  0.00    -0.056 Br
HETATM   11  C11 UNL     1      -1.486   0.609  -2.700  1.00  0.00     0.022 C 
HETATM   12  C12 UNL     1      -2.426   1.099  -1.644  1.00  0.00    -0.057 C 
HETATM   13  C13 UNL     1      -2.274   1.908  -0.615  1.00  0.00    -0.024 C 
HETATM   14  C14 UNL     1      -3.391   2.234   0.299  1.00  0.00     0.036 C 
HETATM   15  C15 UNL     1      -3.773   0.354  -1.622  1.00  0.00     0.085 C 
HETATM   16  C16 UNL     1      -3.251  -1.104  -1.579  1.00  0.00     0.095 C 
HETATM   17  N1  UNL     1      -2.072  -1.091  -1.125  1.00  0.00    -0.261 N 
HETATM   18  C17 UNL     1      -1.188  -2.116  -0.915  1.00  0.00     0.226 A 
HETATM   19  N2  UNL     1      -0.752  -0.967  -0.722  1.00  0.00    -0.268 N 
HETATM   20  C18 UNL     1       0.381  -0.266  -0.340  1.00  0.00     0.175 C 
HETATM   21  C19 UNL     1       1.531  -1.214  -0.014  1.00  0.00     0.021 C 
HETATM   22  C20 UNL     1       1.912  -1.577   1.261  1.00  0.00     0.041 C 
HETATM   23  C21 UNL     1       2.085  -1.521  -1.340  1.00  0.00     0.247 C 
HETATM   24  O2  UNL     1       2.489  -2.666  -1.671  1.00  0.00    -0.268 OA
HETATM   25  N3  UNL     1       2.011  -0.241  -2.012  1.00  0.00    -0.343 N 
HETATM   26  H22 UNL     1       2.577  -0.064  -2.883  1.00  0.00     0.163 HD
ENDROOT
BRANCH   1  27
HETATM   27  C2  UNL     1       2.598  -2.196   3.629  1.00  0.00    -0.004 C 
HETATM   28  C1  UNL     1       2.620  -1.784   5.026  1.00  0.00     0.011 C 
ENDBRANCH   1  27
TORSDOF 1
