REMARK  4 active torsions:
REMARK  status: ('A' for Active; 'I' for Inactive)
REMARK    1  A    between atoms: N1_1  and  N2_2 
REMARK    2  A    between atoms: N2_2  and  C1_3 
REMARK    3  A    between atoms: N3_11  and  N4_12 
REMARK    4  A    between atoms: N4_12  and  C9_13 
ROOT
HETATM    1  C1  UNL     1       2.386  -1.031   0.871  1.00  0.00     0.312 C 
HETATM    2  C2  UNL     1       1.631   0.244   0.816  1.00  0.00     0.089 C 
HETATM    3  C3  UNL     1       1.479   0.935  -0.465  1.00  0.00    -0.052 A 
HETATM    4  C4  UNL     1       2.581   0.831  -1.197  1.00  0.00     0.005 A 
HETATM    5  C5  UNL     1       2.723   1.429  -2.520  1.00  0.00    -0.004 A 
HETATM    6  C6  UNL     1       1.648   2.094  -2.911  1.00  0.00    -0.024 A 
HETATM    7  C7  UNL     1       0.376   2.314  -2.229  1.00  0.00     0.058 A 
HETATM    8  C8  UNL     1       0.213   1.644  -0.898  1.00  0.00     0.137 A 
HETATM    9  N3  UNL     1      -0.805   0.574  -1.180  1.00  0.00    -0.289 N 
HETATM   10  C15 UNL     1      -0.231  -0.411  -2.095  1.00  0.00     0.265 C 
HETATM   11  N5  UNL     1       0.175  -0.831  -0.982  1.00  0.00    -0.269 NA
HETATM   12  C16 UNL     1       0.995  -2.007  -0.884  1.00  0.00     0.416 C 
HETATM   13  N6  UNL     1       1.563  -2.127   0.421  1.00  0.00     0.121 N 
HETATM   14  H21 UNL     1       0.842  -2.406   1.097  1.00  0.00     0.320 HD
ENDROOT
BRANCH   9  15
HETATM   15  N4  UNL     1      -2.095   0.547  -0.649  1.00  0.00    -0.300 N 
HETATM   16  H13 UNL     1      -2.366   1.226  -1.394  1.00  0.00     0.187 HD
BRANCH  15  17
HETATM   17  C9  UNL     1      -2.927   0.011   0.340  1.00  0.00     0.049 A 
HETATM   18  C10 UNL     1      -2.422  -0.883   1.255  1.00  0.00     0.031 A 
HETATM   19  C11 UNL     1      -3.266  -1.393   2.217  1.00  0.00     0.004 A 
HETATM   20  C12 UNL     1      -4.582  -0.981   2.218  1.00  0.00     0.024 A 
HETATM   21  C13 UNL     1      -5.051  -0.082   1.284  1.00  0.00     0.036 A 
HETATM   22 CL1  UNL     1      -6.734   0.380   1.366  1.00  0.00    -0.084 Cl
HETATM   23  C14 UNL     1      -4.231   0.453   0.299  1.00  0.00     0.054 A 
ENDBRANCH  15  17
ENDBRANCH   9  15
BRANCH   1  24
HETATM   24  N2  UNL     1       2.537  -1.382   2.337  1.00  0.00    -0.231 NA
HETATM   25  H3  UNL     1       3.190  -2.198   2.358  1.00  0.00     0.142 HD
BRANCH  24  26
HETATM   26  N1  UNL     1       3.241  -0.296   2.868  1.00  0.00    -0.269 NA
HETATM   27  H1  UNL     1       4.005   0.043   2.251  1.00  0.00     0.137 HD
HETATM   28  H2  UNL     1       3.498  -0.436   3.860  1.00  0.00     0.137 HD
ENDBRANCH  24  26
ENDBRANCH   1  24
TORSDOF 4
