REMARK  2 active torsions:
REMARK  status: ('A' for Active; 'I' for Inactive)
REMARK    1  A    between atoms: N1_3  and  C2_4 
REMARK    2  A    between atoms: C7_11  and  N4_12 
ROOT
HETATM    1  B1  UNL     1      -4.242   3.249  -1.268  1.00  0.00     0.222 B 
HETATM    2  C1  UNL     1      -3.469   2.238   0.197  1.00  0.00    -0.158 C 
HETATM    3  N1  UNL     1      -2.910   1.493   1.235  1.00  0.00    -0.339 N 
HETATM    4  H1  UNL     1      -2.952   2.007   2.132  1.00  0.00     0.174 HD
ENDROOT
BRANCH   3   5
HETATM    5  C2  UNL     1      -2.408   0.214   0.871  1.00  0.00     0.038 A 
HETATM    6  C3  UNL     1      -3.204  -0.912   0.938  1.00  0.00     0.032 A 
HETATM    7  C4  UNL     1      -2.655  -2.123   0.574  1.00  0.00     0.035 A 
HETATM    8  C5  UNL     1      -1.340  -2.293   0.138  1.00  0.00     0.072 A 
HETATM    9  N2  UNL     1      -0.868  -3.496  -0.199  1.00  0.00    -0.241 NA
HETATM   10  C13 UNL     1      -0.569  -1.158   0.079  1.00  0.00     0.041 A 
HETATM   11  C6  UNL     1       0.418  -3.611  -0.614  1.00  0.00     0.236 A 
HETATM   12  N3  UNL     1       1.235  -2.530  -0.696  1.00  0.00    -0.223 NA
HETATM   13  C7  UNL     1       0.731  -1.310  -0.346  1.00  0.00     0.147 A 
HETATM   14  C14 UNL     1      -1.093   0.077   0.440  1.00  0.00     0.047 A 
BRANCH  13  15
HETATM   15  N4  UNL     1       1.553  -0.152  -0.411  1.00  0.00    -0.316 N 
HETATM   16  C8  UNL     1       1.640   0.521  -1.659  1.00  0.00     0.094 A 
HETATM   17  C9  UNL     1       2.347   1.606  -1.895  1.00  0.00    -0.004 A 
HETATM   18  C10 UNL     1       3.133   2.205  -0.785  1.00  0.00     0.081 A 
HETATM   19  C11 UNL     1       3.004   1.465   0.483  1.00  0.00     0.031 A 
HETATM   20 CL1  UNL     1       3.881   2.071   1.867  1.00  0.00    -0.087 Cl
HETATM   21  C12 UNL     1       2.286   0.378   0.687  1.00  0.00     0.117 A 
ENDBRANCH  13  15
ENDBRANCH   3   5
TORSDOF 2
