REMARK  3 active torsions:
REMARK  status: ('A' for Active; 'I' for Inactive)
REMARK    1  A    between atoms: C2_2  and  C3_3 
REMARK    2  A    between atoms: C3_3  and  C4_4 
REMARK       I    between atoms: C4_4  and  N1_6 
REMARK    3  A    between atoms: N3_21  and  C17_22 
ROOT
HETATM    1  C4  UNL     1      -1.667   0.431  -0.298  1.00  0.00     0.225 C 
HETATM    2  O1  UNL     1      -1.549   0.390   0.959  1.00  0.00    -0.273 OA
HETATM    3  N1  UNL     1      -0.773  -0.237  -1.213  1.00  0.00    -0.304 N 
HETATM    4  C5  UNL     1      -1.134  -0.049  -2.577  1.00  0.00     0.096 A 
HETATM    5  C6  UNL     1      -0.513  -0.579  -3.610  1.00  0.00     0.017 A 
HETATM    6  C7  UNL     1       0.646  -1.433  -3.409  1.00  0.00     0.001 A 
HETATM    7  C8  UNL     1       0.947  -1.568  -2.133  1.00  0.00     0.017 A 
HETATM    8  C9  UNL     1       0.361  -1.032  -0.842  1.00  0.00     0.136 A 
HETATM    9  C10 UNL     1       0.088  -2.126   0.104  1.00  0.00     0.013 C 
HETATM   10  C11 UNL     1       0.206  -2.506   1.393  1.00  0.00    -0.018 C 
HETATM   11  C12 UNL     1       0.856  -1.362   2.094  1.00  0.00     0.043 C 
HETATM   12  C13 UNL     1       1.244  -1.153   3.371  1.00  0.00     0.003 C 
HETATM   13  C14 UNL     1       1.787   0.219   3.235  1.00  0.00     0.023 C 
HETATM   14 BR1  UNL     1       2.569   1.160   4.728  1.00  0.00    -0.050 Br
HETATM   15  C15 UNL     1       1.805   0.927   2.140  1.00  0.00     0.108 C 
HETATM   16  N2  UNL     1       1.386   0.764   0.793  1.00  0.00    -0.351 N 
HETATM   17  C16 UNL     1       1.483  -0.202  -0.241  1.00  0.00     0.138 C 
HETATM   18  N3  UNL     1       2.734   0.083  -0.247  1.00  0.00    -0.243 NA
HETATM   19  H17 UNL     1       0.814   1.521   0.294  1.00  0.00     0.166 HD
ENDROOT
BRANCH   1  20
HETATM   20  C3  UNL     1      -2.815   1.233  -0.741  1.00  0.00     0.103 C 
BRANCH  20  21
HETATM   21  C2  UNL     1      -3.590   1.823   0.389  1.00  0.00     0.005 C 
HETATM   22  C1  UNL     1      -2.760   2.741   1.253  1.00  0.00     0.005 C 
ENDBRANCH  20  21
ENDBRANCH   1  20
BRANCH  18  23
HETATM   23  C17 UNL     1       3.759  -0.457  -1.068  1.00  0.00     0.372 C 
HETATM   24  F1  UNL     1       4.171  -1.742  -0.691  1.00  0.00    -0.232 F 
ENDBRANCH  18  23
TORSDOF 3
