REMARK  2 active torsions:
REMARK  status: ('A' for Active; 'I' for Inactive)
REMARK    1  A    between atoms: N1_1  and  C1_2 
REMARK    2  A    between atoms: N2_8  and  C6_9 
ROOT
HETATM    1  C6  UNL     1       1.671  -0.841  -0.614  1.00  0.00     0.127 C 
HETATM    2  C7  UNL     1       2.109  -2.043   0.155  1.00  0.00     0.115 C 
HETATM    3  N3  UNL     1       1.300  -2.567   1.055  1.00  0.00    -0.270 NA
HETATM    4  C8  UNL     1       0.042  -1.874   1.175  1.00  0.00     0.035 C 
HETATM    5  C9  UNL     1      -0.773  -1.900   2.205  1.00  0.00     0.054 A 
HETATM    6  C10 UNL     1      -1.833  -2.626   2.063  1.00  0.00    -0.011 A 
HETATM    7  O1  UNL     1      -2.066  -1.288   2.315  1.00  0.00     0.000 OA
HETATM    8  C11 UNL     1      -3.356  -0.766   2.054  1.00  0.00     0.013 C 
HETATM    9  C12 UNL     1      -3.528   0.720   2.210  1.00  0.00    -0.009 C 
HETATM   10  C13 UNL     1      -4.350   1.365   2.992  1.00  0.00    -0.004 C 
HETATM   11  C14 UNL     1      -3.702   2.553   2.385  1.00  0.00    -0.004 C 
HETATM   12  C15 UNL     1      -2.770   2.931   1.556  1.00  0.00    -0.023 C 
HETATM   13  C16 UNL     1      -1.628   2.948   0.564  1.00  0.00     0.054 C 
HETATM   14  C17 UNL     1      -1.226   1.519   0.459  1.00  0.00    -0.026 C 
HETATM   15  C18 UNL     1      -0.427   0.467   0.581  1.00  0.00    -0.020 C 
HETATM   16  C19 UNL     1      -0.649  -0.988   0.233  1.00  0.00     0.059 C 
HETATM   17  C20 UNL     1       0.256  -1.114  -1.029  1.00  0.00     0.045 C 
ENDROOT
BRANCH   1  18
HETATM   18  N2  UNL     1       2.626  -0.486  -1.536  1.00  0.00    -0.358 N 
HETATM   19  C1  UNL     1       2.659  -0.381  -2.937  1.00  0.00     0.098 C 
HETATM   20  C2  UNL     1       3.607   0.147  -3.683  1.00  0.00     0.071 C 
HETATM   21 CL1  UNL     1       3.253   0.149  -5.400  1.00  0.00    -0.081 Cl
HETATM   22  C3  UNL     1       4.822   0.617  -3.055  1.00  0.00     0.025 C 
HETATM   23  C4  UNL     1       4.880   0.460  -1.716  1.00  0.00    -0.005 C 
HETATM   24  C5  UNL     1       3.874  -0.128  -0.838  1.00  0.00     0.152 C 
BRANCH  19  25
HETATM   25  N1  UNL     1       1.522  -0.868  -3.583  1.00  0.00    -0.287 NA
HETATM   26  H1  UNL     1       0.576  -1.013  -3.979  1.00  0.00     0.125 HD
HETATM   27  H2  UNL     1       0.576  -1.063  -4.002  1.00  0.00     0.125 HD
ENDBRANCH  19  25
ENDBRANCH   1  18
TORSDOF 2
