REMARK  4 active torsions:
REMARK  status: ('A' for Active; 'I' for Inactive)
REMARK    1  A    between atoms: C1_2  and  C2_3 
REMARK       I    between atoms: C1_2  and  N2_13 
REMARK    2  A    between atoms: C3_4  and  N1_5 
REMARK    3  A    between atoms: N1_5  and  C4_6 
REMARK    4  A    between atoms: C14_18  and  O2_19 
ROOT
HETATM    1  O1  UNL     1       0.332   0.380   2.820  1.00  0.00    -0.266 OA
HETATM    2  C1  UNL     1       0.029   0.554   1.623  1.00  0.00     0.272 C 
HETATM    3  N2  UNL     1       1.161   0.643   0.776  1.00  0.00    -0.192 N 
HETATM    4  C10 UNL     1       1.318   0.836  -0.637  1.00  0.00     0.127 A 
HETATM    5  C11 UNL     1       2.082   0.962  -1.686  1.00  0.00     0.017 A 
HETATM    6  C12 UNL     1       3.514   0.966  -1.971  1.00  0.00    -0.013 A 
HETATM    7  C13 UNL     1       4.383   0.808  -0.992  1.00  0.00     0.079 A 
HETATM    8  C14 UNL     1       5.572   0.664  -0.167  1.00  0.00     0.052 A 
HETATM    9  C15 UNL     1       5.363   0.487   1.143  1.00  0.00     0.034 A 
HETATM   10  C16 UNL     1       4.371   0.364   2.204  1.00  0.00     0.029 A 
HETATM   11  C17 UNL     1       3.022   0.396   2.216  1.00  0.00     0.168 A 
HETATM   12  O3  UNL     1       2.505   0.584   0.955  1.00  0.00    -0.241 OA
ENDROOT
BRANCH   2  13
HETATM   13  C2  UNL     1      -1.329   0.659   1.112  1.00  0.00     0.093 C 
HETATM   14  C3  UNL     1      -2.175   0.820   0.104  1.00  0.00     0.094 C 
BRANCH  14  15
HETATM   15  N1  UNL     1      -3.597   0.870   0.005  1.00  0.00    -0.366 N 
HETATM   16  H3  UNL     1      -4.132   1.755   0.156  1.00  0.00     0.165 HD
BRANCH  15  17
HETATM   17  C4  UNL     1      -4.350  -0.299  -0.303  1.00  0.00     0.033 A 
HETATM   18  C5  UNL     1      -5.733  -0.315  -0.400  1.00  0.00     0.029 A 
HETATM   19  C6  UNL     1      -6.461  -1.428  -0.695  1.00  0.00     0.004 A 
HETATM   20  C7  UNL     1      -5.781  -2.618  -0.912  1.00  0.00     0.024 A 
HETATM   21  C8  UNL     1      -4.398  -2.641  -0.824  1.00  0.00     0.036 A 
HETATM   22 CL1  UNL     1      -3.620  -4.177  -1.111  1.00  0.00    -0.084 Cl
HETATM   23  C9  UNL     1      -3.668  -1.489  -0.520  1.00  0.00     0.053 A 
ENDBRANCH  15  17
ENDBRANCH  14  15
ENDBRANCH   2  13
BRANCH   8  24
HETATM   24  O2  UNL     1       6.952   0.676  -0.498  1.00  0.00    -0.364 OA
HETATM   25  H12 UNL     1       7.426  -0.184  -0.260  1.00  0.00     0.217 HD
ENDBRANCH   8  24
TORSDOF 4
