REMARK  4 active torsions:
REMARK  status: ('A' for Active; 'I' for Inactive)
REMARK    1  A    between atoms: C2_2  and  C3_3 
REMARK    2  A    between atoms: C7_8  and  S1_9 
REMARK    3  A    between atoms: S1_9  and  N2_10 
REMARK    4  A    between atoms: N2_10  and  C8_11 
ROOT
HETATM    1  C3  UNL     1      -3.702  -0.571   0.049  1.00  0.00     0.004 C 
HETATM    2  C4  UNL     1      -2.372  -0.456   0.003  1.00  0.00    -0.052 C 
HETATM    3  C5  UNL     1      -1.915   0.970  -0.274  1.00  0.00     0.156 C 
HETATM    4  N1  UNL     1      -0.554   1.169   0.325  1.00  0.00    -0.370 N 
HETATM    5  C6  UNL     1       0.201  -0.089   0.166  1.00  0.00     0.135 C 
HETATM    6  C7  UNL     1       0.478  -0.110   1.524  1.00  0.00     0.156 C 
HETATM    7  N3  UNL     1      -0.017  -1.382   2.146  1.00  0.00    -0.252 NA
HETATM    8  C14 UNL     1      -1.170  -1.876   1.669  1.00  0.00     0.102 C 
HETATM    9  C15 UNL     1      -1.675  -1.755   0.228  1.00  0.00     0.074 C 
HETATM   10  C16 UNL     1      -0.570  -2.046  -0.729  1.00  0.00     0.136 C 
HETATM   11  N4  UNL     1       0.485  -1.065  -0.866  1.00  0.00    -0.373 N 
HETATM   12  H7  UNL     1      -0.092   1.953   0.820  1.00  0.00     0.161 HD
HETATM   13  H17 UNL     1       1.171  -1.272  -1.632  1.00  0.00     0.161 HD
ENDROOT
BRANCH   6  14
HETATM   14  S1  UNL     1       1.213   1.370   2.173  1.00  0.00     0.010 SA
BRANCH  14  15
HETATM   15  N2  UNL     1       2.036   2.254   0.915  1.00  0.00    -0.325 N 
HETATM   16  H8  UNL     1       1.890   3.265   0.613  1.00  0.00     0.174 HD
BRANCH  15  17
HETATM   17  C8  UNL     1       3.060   1.597   0.145  1.00  0.00     0.039 A 
HETATM   18  C9  UNL     1       3.779   2.168  -0.872  1.00  0.00     0.030 A 
HETATM   19  C10 UNL     1       4.745   1.516  -1.583  1.00  0.00     0.004 A 
HETATM   20  C11 UNL     1       5.044   0.208  -1.291  1.00  0.00     0.019 A 
HETATM   21  C12 UNL     1       4.360  -0.432  -0.279  1.00  0.00     0.013 A 
HETATM   22 BR1  UNL     1       4.777  -2.247   0.124  1.00  0.00    -0.051 Br
HETATM   23  C13 UNL     1       3.398   0.274   0.402  1.00  0.00     0.049 A 
ENDBRANCH  15  17
ENDBRANCH  14  15
ENDBRANCH   6  14
BRANCH   1  24
HETATM   24  C2  UNL     1      -4.950   0.156  -0.065  1.00  0.00    -0.010 C 
HETATM   25  C1  UNL     1      -6.271  -0.078   0.005  1.00  0.00     0.011 C 
ENDBRANCH   1  24
TORSDOF 4
