REMARK  7 active torsions:
REMARK  status: ('A' for Active; 'I' for Inactive)
REMARK    1  A    between atoms: C3_3  and  B1_4 
REMARK    2  A    between atoms: B1_4  and  N1_5 
REMARK    3  A    between atoms: N1_5  and  C4_6 
REMARK    4  A    between atoms: C4_6  and  C5_7 
REMARK    5  A    between atoms: C6_8  and  C7_9 
REMARK    6  A    between atoms: C15_18  and  N2_19 
REMARK    7  A    between atoms: N2_19  and  C16_20 
ROOT
HETATM    1  C1  UNL     1       0.552  -0.669   2.051  1.00  0.00     0.048 C 
HETATM    2  C2  UNL     1      -0.365  -0.810   0.917  1.00  0.00    -0.035 C 
HETATM    3  C3  UNL     1      -0.240  -1.467  -0.222  1.00  0.00     0.027 C 
HETATM    4  O1  UNL     1      -1.167  -1.578  -1.245  1.00  0.00    -0.337 OA
HETATM    5  C13 UNL     1      -2.384  -0.932  -1.080  1.00  0.00     0.154 C 
HETATM    6  C14 UNL     1      -2.569  -0.241   0.027  1.00  0.00     0.039 C 
HETATM    7  C15 UNL     1      -3.878   0.417   0.220  1.00  0.00     0.140 C 
HETATM    8  N3  UNL     1      -4.104   0.966   1.364  1.00  0.00    -0.224 NA
HETATM    9  C22 UNL     1      -3.174   1.026   2.435  1.00  0.00     0.230 C 
HETATM   10  N4  UNL     1      -1.963   0.545   2.269  1.00  0.00    -0.268 NA
HETATM   11  C23 UNL     1      -1.544   0.005   1.030  1.00  0.00     0.178 C 
ENDROOT
BRANCH   3  12
HETATM   12  B1  UNL     1       1.084  -2.262  -0.524  1.00  0.00     0.305 B 
HETATM   13  H4  UNL     1       1.040  -3.365  -0.980  1.00  0.00     0.000 HD
BRANCH  12  14
HETATM   14  N1  UNL     1       2.370  -1.679   0.036  1.00  0.00    -0.364 NA
HETATM   15  H5  UNL     1       3.018  -2.408   0.345  1.00  0.00     0.103 HD
BRANCH  14  16
HETATM   16  C4  UNL     1       2.921  -0.816  -0.993  1.00  0.00     0.099 C 
BRANCH  16  17
HETATM   17  C5  UNL     1       4.194  -0.186  -0.557  1.00  0.00    -0.013 C 
HETATM   18  C6  UNL     1       5.327  -0.370  -1.197  1.00  0.00     0.008 C 
BRANCH  18  19
HETATM   19  C7  UNL     1       6.580   0.232  -0.792  1.00  0.00    -0.036 A 
HETATM   20  C8  UNL     1       6.708   1.059   0.300  1.00  0.00     0.011 A 
HETATM   21  C9  UNL     1       7.905   1.627   0.678  1.00  0.00     0.001 A 
HETATM   22  C10 UNL     1       9.046   1.368  -0.060  1.00  0.00     0.000 A 
HETATM   23  C11 UNL     1       8.953   0.536  -1.171  1.00  0.00     0.001 A 
HETATM   24  C12 UNL     1       7.738   0.009  -1.487  1.00  0.00     0.011 A 
ENDBRANCH  18  19
ENDBRANCH  16  17
ENDBRANCH  14  16
ENDBRANCH  12  14
ENDBRANCH   3  12
BRANCH   7  25
HETATM   25  N2  UNL     1      -4.876   0.466  -0.776  1.00  0.00    -0.340 N 
HETATM   26  H16 UNL     1      -4.508   0.487  -1.747  1.00  0.00     0.167 HD
BRANCH  25  27
HETATM   27  C16 UNL     1      -6.264   0.478  -0.509  1.00  0.00     0.035 A 
HETATM   28  C17 UNL     1      -7.128   0.576  -1.603  1.00  0.00     0.029 A 
HETATM   29  C18 UNL     1      -8.503   0.594  -1.497  1.00  0.00     0.004 A 
HETATM   30  C19 UNL     1      -9.098   0.513  -0.272  1.00  0.00     0.024 A 
HETATM   31  C20 UNL     1      -8.281   0.415   0.833  1.00  0.00     0.036 A 
HETATM   32 CL1  UNL     1      -8.974   0.308   2.434  1.00  0.00    -0.084 Cl
HETATM   33  C21 UNL     1      -6.911   0.400   0.696  1.00  0.00     0.053 A 
ENDBRANCH  25  27
ENDBRANCH   7  25
TORSDOF 7
