REMARK  4 active torsions:
REMARK  status: ('A' for Active; 'I' for Inactive)
REMARK    1  A    between atoms: C1_2  and  C2_3 
REMARK       I    between atoms: C1_2  and  N1_11 
REMARK    2  A    between atoms: C3_4  and  C4_5 
REMARK    3  A    between atoms: N1_11  and  C10_12 
REMARK    4  A    between atoms: C11_13  and  C12_14 
ROOT
HETATM    1  C12 UNL     1      -1.288   0.030   0.786  1.00  0.00     0.055 C 
HETATM    2  C13 UNL     1      -2.041  -0.428   1.768  1.00  0.00     0.006 C 
HETATM    3  C14 UNL     1      -3.224   0.011   2.521  1.00  0.00     0.049 C 
HETATM    4  C15 UNL     1      -3.810   1.318   2.151  1.00  0.00     0.123 C 
HETATM    5  N2  UNL     1      -4.332   1.534   0.889  1.00  0.00    -0.386 N 
HETATM    6  C16 UNL     1      -5.329   2.572   0.781  1.00  0.00     0.146 C 
HETATM    7  C17 UNL     1      -6.624   1.975   1.154  1.00  0.00    -0.008 C 
HETATM    8  C18 UNL     1      -7.125   0.743   1.247  1.00  0.00    -0.003 C 
HETATM    9  C19 UNL     1      -6.374  -0.495   0.948  1.00  0.00    -0.001 C 
HETATM   10  C20 UNL     1      -5.177  -0.667   0.358  1.00  0.00     0.019 C 
HETATM   11  C21 UNL     1      -4.421   0.530  -0.097  1.00  0.00     0.204 C 
HETATM   12  N3  UNL     1      -3.221   0.230  -0.802  1.00  0.00    -0.360 N 
HETATM   13  C22 UNL     1      -2.350   1.335  -0.774  1.00  0.00     0.205 C 
HETATM   14  N4  UNL     1      -1.359   1.231   0.041  1.00  0.00    -0.245 NA
HETATM   15  H23 UNL     1      -2.705  -0.487  -1.344  1.00  0.00     0.162 HD
ENDROOT
BRANCH   1  16
HETATM   16  C11 UNL     1      -0.164  -0.832   0.369  1.00  0.00     0.048 C 
HETATM   17  C10 UNL     1       0.677  -0.515  -0.594  1.00  0.00     0.093 C 
BRANCH  17  18
HETATM   18  N1  UNL     1       1.767  -1.309  -1.026  1.00  0.00    -0.334 N 
HETATM   19  C1  UNL     1       2.973  -0.580  -0.843  1.00  0.00     0.245 C 
HETATM   20  O1  UNL     1       3.018   0.597  -0.363  1.00  0.00    -0.268 OA
HETATM   21  H8  UNL     1       1.977  -2.228  -1.426  1.00  0.00     0.168 HD
BRANCH  19  22
HETATM   22  C2  UNL     1       4.314  -1.048  -1.166  1.00  0.00     0.075 C 
HETATM   23  C3  UNL     1       5.347  -0.260  -0.942  1.00  0.00     0.017 C 
BRANCH  23  24
HETATM   24  C4  UNL     1       6.709  -0.669  -1.241  1.00  0.00    -0.036 A 
HETATM   25  C5  UNL     1       7.053  -1.891  -1.776  1.00  0.00     0.011 A 
HETATM   26  C6  UNL     1       8.363  -2.244  -2.048  1.00  0.00     0.001 A 
HETATM   27  C7  UNL     1       9.375  -1.347  -1.779  1.00  0.00     0.000 A 
HETATM   28  C8  UNL     1       9.085  -0.112  -1.245  1.00  0.00     0.001 A 
HETATM   29  C9  UNL     1       7.776   0.167  -1.002  1.00  0.00     0.011 A 
ENDBRANCH  23  24
ENDBRANCH  19  22
ENDBRANCH  17  18
ENDBRANCH   1  16
TORSDOF 4
