REMARK  0 active torsions:
REMARK  status: ('A' for Active; 'I' for Inactive)
ROOT
HETATM    1  O1  UNL     1       0.086   1.877  -0.527  1.00  0.00    -0.150 OA
HETATM    2  C1  UNL     1      -0.307   2.736   0.229  1.00  0.00     0.357 A 
HETATM    3  C2  UNL     1      -1.438   1.766   0.225  1.00  0.00     0.088 A 
HETATM    4  C3  UNL     1      -1.271   0.702  -0.602  1.00  0.00    -0.004 A 
HETATM    5  C4  UNL     1      -0.780  -0.259  -1.556  1.00  0.00     0.044 C 
HETATM    6  C5  UNL     1       0.673  -0.242  -1.967  1.00  0.00     0.146 C 
HETATM    7  N1  UNL     1       0.990  -1.527  -2.498  1.00  0.00    -0.273 NA
HETATM    8  C6  UNL     1       1.246  -2.628  -1.924  1.00  0.00     0.229 C 
HETATM    9  N2  UNL     1       1.502  -2.505  -0.485  1.00  0.00    -0.224 NA
HETATM   10  C7  UNL     1       1.428  -1.312  -0.031  1.00  0.00     0.137 C 
HETATM   11  N3  UNL     1       1.090  -1.817   1.306  1.00  0.00    -0.340 N 
HETATM   12  C8  UNL     1      -0.220  -1.559   1.803  1.00  0.00     0.048 A 
HETATM   13  C9  UNL     1      -1.130  -0.651   1.189  1.00  0.00     0.019 A 
HETATM   14  C10 UNL     1      -2.060   0.266   0.576  1.00  0.00     0.016 A 
HETATM   15  C11 UNL     1      -2.807  -0.122   1.659  1.00  0.00    -0.010 A 
HETATM   16  C12 UNL     1      -2.450  -1.038   2.676  1.00  0.00     0.018 A 
HETATM   17  C13 UNL     1      -1.241  -1.685   2.710  1.00  0.00     0.037 A 
HETATM   18 BR1  UNL     1      -0.508  -2.916   3.948  1.00  0.00    -0.049 Br
HETATM   19  C14 UNL     1       1.621  -0.035  -0.790  1.00  0.00     0.011 C 
HETATM   20  C15 UNL     1       2.227   1.066  -0.422  1.00  0.00     0.016 C 
HETATM   21  C16 UNL     1       2.002   2.337  -1.222  1.00  0.00     0.303 C 
HETATM   22  N4  UNL     1       1.037   3.063  -0.282  1.00  0.00     0.090 N 
HETATM   23  H6  UNL     1       1.390  -2.321   2.131  1.00  0.00     0.167 HD
HETATM   24  H13 UNL     1       1.201   4.002   0.188  1.00  0.00     0.322 HD
ENDROOT
TORSDOF 0
