REMARK  7 active torsions:
REMARK  status: ('A' for Active; 'I' for Inactive)
REMARK    1  A    between atoms: N1_1  and  C1_2 
REMARK    2  A    between atoms: C1_2  and  C2_3 
REMARK    3  A    between atoms: C5_6  and  N2_7 
REMARK       I    between atoms: N2_7  and  C6_8 
REMARK    4  A    between atoms: C6_8  and  C7_10 
REMARK    5  A    between atoms: C8_11  and  C9_12 
REMARK    6  A    between atoms: C9_12  and  C14_17 
REMARK    7  A    between atoms: C11_14  and  C12_15 
ROOT
HETATM    1  C2  UNL     1      -3.673   1.022  -0.470  1.00  0.00    -0.014 C 
HETATM    2  C3  UNL     1      -2.431   0.930   0.063  1.00  0.00     0.060 C 
HETATM    3  C4  UNL     1      -1.170   0.230  -0.315  1.00  0.00     0.005 C 
HETATM    4  C5  UNL     1       0.018   0.203   0.258  1.00  0.00     0.014 C 
HETATM    5  C15 UNL     1       0.036   1.185   1.311  1.00  0.00     0.073 C 
HETATM    6  C16 UNL     1       0.751   1.757   2.317  1.00  0.00    -0.015 C 
HETATM    7  C17 UNL     1      -0.311   2.764   2.761  1.00  0.00    -0.001 C 
HETATM    8  C18 UNL     1      -1.565   3.324   2.608  1.00  0.00     0.126 C 
HETATM    9  N3  UNL     1      -2.611   2.999   1.617  1.00  0.00    -0.415 N 
HETATM   10  C19 UNL     1      -3.735   2.100   1.789  1.00  0.00     0.114 C 
HETATM   11  C20 UNL     1      -4.491   1.760   0.555  1.00  0.00     0.027 C 
HETATM   12  H17 UNL     1      -2.724   3.402   0.613  1.00  0.00     0.153 HD
ENDROOT
BRANCH   4  13
HETATM   13  N2  UNL     1       1.156  -0.515  -0.182  1.00  0.00    -0.327 N 
HETATM   14  C6  UNL     1       1.563  -1.287  -1.273  1.00  0.00     0.245 C 
HETATM   15  O1  UNL     1       0.673  -1.380  -2.136  1.00  0.00    -0.268 OA
HETATM   16  H7  UNL     1       1.984  -0.532   0.446  1.00  0.00     0.169 HD
BRANCH  14  17
HETATM   17  C7  UNL     1       2.779  -1.974  -1.579  1.00  0.00     0.071 C 
HETATM   18  C8  UNL     1       3.852  -2.069  -0.899  1.00  0.00    -0.006 C 
BRANCH  18  19
HETATM   19  C9  UNL     1       5.158  -2.844  -1.297  1.00  0.00     0.018 A 
HETATM   20  C10 UNL     1       5.535  -3.667  -2.605  1.00  0.00     0.043 A 
HETATM   21  C11 UNL     1       6.250  -3.543  -1.715  1.00  0.00    -0.057 A 
BRANCH  21  22
HETATM   22  C12 UNL     1       6.884  -3.418  -0.895  1.00  0.00    -0.064 A 
HETATM   23  C13 UNL     1       7.551  -3.270  -0.000  1.00  0.00     0.034 A 
HETATM   24  C14 UNL     1       6.109  -2.648  -0.051  1.00  0.00     0.041 A 
ENDBRANCH  21  22
ENDBRANCH  18  19
ENDBRANCH  14  17
ENDBRANCH   4  13
BRANCH   1  25
HETATM   25  C1  UNL     1      -4.723   0.701  -1.535  1.00  0.00     0.272 C 
BRANCH  25  26
HETATM   26  N1  UNL     1      -5.828   0.019  -0.909  1.00  0.00     0.078 N 
HETATM   27  H1  UNL     1      -5.448  -0.610  -0.141  1.00  0.00     0.312 HD
HETATM   28  H2  UNL     1      -6.221  -0.651  -1.637  1.00  0.00     0.312 HD
ENDBRANCH  25  26
ENDBRANCH   1  25
TORSDOF 7
