REMARK  4 active torsions:
REMARK  status: ('A' for Active; 'I' for Inactive)
REMARK    1  A    between atoms: N1_2  and  C2_3 
REMARK    2  A    between atoms: C2_3  and  S1_4 
REMARK    3  A    between atoms: S1_4  and  N2_5 
REMARK    4  A    between atoms: N2_5  and  C3_6 
ROOT
HETATM    1  C3  UNL     1      -2.165  -0.801   0.472  1.00  0.00     0.089 C 
HETATM    2  C4  UNL     1      -1.531   0.182  -0.227  1.00  0.00     0.028 C 
HETATM    3  C5  UNL     1      -0.980   1.323   0.494  1.00  0.00     0.047 C 
HETATM    4  C6  UNL     1       0.527   1.455   0.394  1.00  0.00    -0.047 A 
HETATM    5  C7  UNL     1       0.802   2.648   1.099  1.00  0.00     0.009 A 
HETATM    6  C8  UNL     1       2.071   3.198   1.283  1.00  0.00     0.013 A 
HETATM    7  C9  UNL     1       3.172   2.562   0.752  1.00  0.00    -0.025 A 
HETATM    8  C10 UNL     1       4.473   2.965   0.826  1.00  0.00     0.012 A 
HETATM    9  C11 UNL     1       5.511   2.237   0.234  1.00  0.00     0.001 A 
HETATM   10  C12 UNL     1       5.182   1.060  -0.452  1.00  0.00     0.001 A 
HETATM   11  C13 UNL     1       3.889   0.574  -0.578  1.00  0.00     0.013 A 
HETATM   12  C14 UNL     1       2.990   1.398   0.055  1.00  0.00    -0.015 A 
HETATM   13  C15 UNL     1       1.743   0.915  -0.089  1.00  0.00    -0.022 A 
HETATM   14  C16 UNL     1       1.353  -0.289  -0.796  1.00  0.00     0.001 C 
HETATM   15  C17 UNL     1       0.780  -1.393  -0.438  1.00  0.00     0.118 C 
HETATM   16  C18 UNL     1       0.146  -2.479   0.293  1.00  0.00     0.226 C 
HETATM   17  O1  UNL     1      -0.275  -3.208   1.201  1.00  0.00    -0.273 OA
HETATM   18  N3  UNL     1      -0.537  -3.374  -0.643  1.00  0.00    -0.357 N 
HETATM   19  C19 UNL     1      -1.396  -4.368   0.056  1.00  0.00     0.149 C 
HETATM   20  C20 UNL     1      -2.382  -3.473   0.868  1.00  0.00    -0.009 C 
HETATM   21  C21 UNL     1      -2.601  -2.122   0.970  1.00  0.00     0.001 C 
HETATM   22  H15 UNL     1      -0.467  -3.366  -1.665  1.00  0.00     0.162 HD
ENDROOT
BRANCH   1  23
HETATM   23  N2  UNL     1      -2.355  -1.471  -0.832  1.00  0.00    -0.156 NA
BRANCH  23  24
HETATM   24  S1  UNL     1      -3.788  -1.087  -1.545  1.00  0.00    -0.020 SA
BRANCH  24  25
HETATM   25  C2  UNL     1      -4.704  -0.120  -0.538  1.00  0.00     0.140 C 
BRANCH  25  26
HETATM   26  N1  UNL     1      -4.082   1.149  -0.751  1.00  0.00    -0.400 NA
HETATM   27  C1  UNL     1      -4.366   1.796  -1.832  1.00  0.00     0.314 C 
ENDBRANCH  25  26
ENDBRANCH  24  25
ENDBRANCH  23  24
ENDBRANCH   1  23
TORSDOF 4
