REMARK  1 active torsions:
REMARK  status: ('A' for Active; 'I' for Inactive)
REMARK    1  A    between atoms: C3_4  and  C4_5 
ROOT
HETATM    1  O1  UNL     1      -1.161  -0.796  -0.974  1.00  0.00    -0.273 OA
HETATM    2  C1  UNL     1      -1.031  -1.465   0.043  1.00  0.00     0.224 C 
HETATM    3  C2  UNL     1       0.322  -1.195   0.529  1.00  0.00     0.116 C 
HETATM    4  C3  UNL     1       1.011  -0.237  -0.410  1.00  0.00     0.051 C 
HETATM    5  C14 UNL     1       0.071   0.823  -0.810  1.00  0.00    -0.017 C 
HETATM    6  C15 UNL     1      -0.194   1.819  -1.618  1.00  0.00    -0.002 C 
HETATM    7  C16 UNL     1      -1.137   2.847  -2.003  1.00  0.00     0.017 C 
HETATM    8  C17 UNL     1      -2.339   3.079  -1.474  1.00  0.00     0.090 C 
HETATM    9  N1  UNL     1      -2.864   2.297  -0.415  1.00  0.00    -0.350 N 
HETATM   10  C18 UNL     1      -3.639   1.181   0.082  1.00  0.00     0.142 A 
HETATM   11  N2  UNL     1      -4.318   1.631   1.133  1.00  0.00    -0.223 NA
HETATM   12  C19 UNL     1      -5.120   0.925   1.935  1.00  0.00     0.236 A 
HETATM   13  N3  UNL     1      -5.264  -0.406   1.659  1.00  0.00    -0.241 NA
HETATM   14  C20 UNL     1      -4.555  -0.861   0.567  1.00  0.00     0.071 A 
HETATM   15  C21 UNL     1      -3.706  -0.163  -0.311  1.00  0.00     0.054 A 
HETATM   16  C22 UNL     1      -3.282  -1.022  -1.259  1.00  0.00     0.112 C 
HETATM   17  N4  UNL     1      -2.347  -1.750  -0.401  1.00  0.00    -0.324 N 
HETATM   18  C23 UNL     1      -3.264  -2.784  -0.003  1.00  0.00     0.161 C 
HETATM   19  C24 UNL     1      -4.617  -2.195   0.363  1.00  0.00     0.026 C 
HETATM   20  H15 UNL     1      -2.362   2.962   0.248  1.00  0.00     0.166 HD
ENDROOT
BRANCH   4  21
HETATM   21  C4  UNL     1       2.317   0.206   0.062  1.00  0.00    -0.039 A 
HETATM   22  C5  UNL     1       2.239   1.423   0.752  1.00  0.00     0.009 A 
HETATM   23  C6  UNL     1       3.392   2.019   1.275  1.00  0.00     0.001 A 
HETATM   24  C7  UNL     1       4.612   1.428   1.124  1.00  0.00     0.012 A 
HETATM   25  C8  UNL     1       4.697   0.231   0.447  1.00  0.00    -0.025 A 
HETATM   26  C9  UNL     1       5.873  -0.463   0.233  1.00  0.00     0.012 A 
HETATM   27  C13 UNL     1       3.566  -0.350  -0.064  1.00  0.00    -0.019 A 
HETATM   28  C10 UNL     1       5.921  -1.665  -0.450  1.00  0.00     0.001 A 
HETATM   29  C11 UNL     1       4.745  -2.228  -0.957  1.00  0.00     0.001 A 
HETATM   30  C12 UNL     1       3.566  -1.546  -0.750  1.00  0.00     0.013 A 
ENDBRANCH   4  21
TORSDOF 1
