REMARK  4 active torsions:
REMARK  status: ('A' for Active; 'I' for Inactive)
REMARK    1  A    between atoms: C2_2  and  C3_4 
REMARK    2  A    between atoms: C4_5  and  C5_6 
REMARK    3  A    between atoms: C5_6  and  N1_7 
REMARK    4  A    between atoms: N1_7  and  C6_8 
ROOT
HETATM    1  C6  UNL     1       0.685  -1.377  -0.340  1.00  0.00     0.129 A 
HETATM    2  N2  UNL     1       0.869  -2.716  -0.404  1.00  0.00    -0.228 NA
HETATM    3  C7  UNL     1      -0.176  -3.538  -0.127  1.00  0.00     0.237 A 
HETATM    4  N3  UNL     1      -1.403  -3.088   0.212  1.00  0.00    -0.215 NA
HETATM    5  C8  UNL     1      -1.599  -1.749   0.279  1.00  0.00     0.201 A 
HETATM    6  C9  UNL     1      -0.555  -0.891   0.003  1.00  0.00     0.122 A 
HETATM    7  N4  UNL     1      -0.523   0.525   0.008  1.00  0.00    -0.379 N 
HETATM    8  C10 UNL     1      -1.541   1.500   0.249  1.00  0.00     0.161 C 
HETATM    9  C11 UNL     1      -2.921   1.000   0.139  1.00  0.00    -0.005 A 
HETATM   10  C12 UNL     1      -3.778   2.051  -0.208  1.00  0.00     0.035 A 
HETATM   11  C13 UNL     1      -5.117   1.899  -0.383  1.00  0.00     0.034 A 
HETATM   12 CL1  UNL     1      -6.196   3.204  -0.816  1.00  0.00    -0.084 Cl
HETATM   13  C14 UNL     1      -5.732   0.657  -0.223  1.00  0.00     0.026 A 
HETATM   14  C15 UNL     1      -4.909  -0.401   0.121  1.00  0.00     0.039 A 
HETATM   15  C16 UNL     1      -3.552  -0.222   0.293  1.00  0.00     0.086 A 
HETATM   16  O1  UNL     1      -2.891  -1.393   0.635  1.00  0.00    -0.289 OA
HETATM   17  H7  UNL     1       0.406   0.965  -0.200  1.00  0.00     0.160 HD
ENDROOT
BRANCH   1  18
HETATM   18  N1  UNL     1       1.834  -0.557  -0.644  1.00  0.00    -0.283 NA
BRANCH  18  19
HETATM   19  C5  UNL     1       2.923  -0.933  -0.077  1.00  0.00     0.260 C 
BRANCH  19  20
HETATM   20  C4  UNL     1       4.259  -1.158   0.445  1.00  0.00    -0.002 C 
HETATM   21  C3  UNL     1       5.303  -0.413   0.168  1.00  0.00     0.014 C 
BRANCH  21  22
HETATM   22  C2  UNL     1       5.428   0.763  -0.674  1.00  0.00    -0.016 C 
HETATM   23  C1  UNL     1       6.486   1.509  -0.947  1.00  0.00     0.163 C 
HETATM   24 BR1  UNL     1       4.319   1.849  -1.775  1.00  0.00    -0.165 Br
ENDBRANCH  21  22
ENDBRANCH  19  20
ENDBRANCH  18  19
ENDBRANCH   1  18
TORSDOF 4
