REMARK  4 active torsions:
REMARK  status: ('A' for Active; 'I' for Inactive)
REMARK    1  A    between atoms: C5_5  and  C6_6 
REMARK    2  A    between atoms: C7_7  and  C8_8 
REMARK       I    between atoms: C8_8  and  N1_10 
REMARK    3  A    between atoms: N1_10  and  C9_11 
REMARK    4  A    between atoms: C16_21  and  C17_22 
ROOT
HETATM    1  C9  UNL     1      -1.661   1.247   0.613  1.00  0.00     0.022 C 
HETATM    2  C10 UNL     1      -2.280   2.085   1.492  1.00  0.00     0.027 C 
HETATM    3  C11 UNL     1      -3.688   2.419   1.675  1.00  0.00     0.021 C 
HETATM    4  C12 UNL     1      -4.900   2.174   1.224  1.00  0.00     0.118 C 
HETATM    5  N2  UNL     1      -6.052   1.755   0.581  1.00  0.00    -0.254 NA
HETATM    6  C13 UNL     1      -6.316   0.841  -0.250  1.00  0.00     0.233 C 
HETATM    7  N3  UNL     1      -5.337  -0.001  -0.705  1.00  0.00    -0.237 NA
HETATM    8  C14 UNL     1      -5.166  -1.057  -1.308  1.00  0.00     0.208 C 
HETATM    9  N4  UNL     1      -3.716  -1.231  -1.363  1.00  0.00    -0.354 N 
HETATM   10  C15 UNL     1      -2.781  -0.863  -0.295  1.00  0.00     0.017 C 
HETATM   11  C16 UNL     1      -2.509  -1.896   0.447  1.00  0.00     0.014 C 
HETATM   12  C18 UNL     1      -2.485   0.558  -0.384  1.00  0.00     0.081 C 
HETATM   13  C19 UNL     1      -2.023   0.863  -1.772  1.00  0.00     0.023 C 
HETATM   14  H14 UNL     1      -3.134  -1.627  -2.133  1.00  0.00     0.166 HD
ENDROOT
BRANCH   1  15
HETATM   15  N1  UNL     1      -0.277   1.009   0.544  1.00  0.00    -0.327 N 
HETATM   16  C8  UNL     1       0.839   1.485   1.270  1.00  0.00     0.245 C 
HETATM   17  O1  UNL     1       0.602   2.303   2.191  1.00  0.00    -0.268 OA
HETATM   18  H8  UNL     1       0.066   0.334  -0.192  1.00  0.00     0.169 HD
BRANCH  16  19
HETATM   19  C7  UNL     1       2.216   1.106   1.034  1.00  0.00     0.075 C 
HETATM   20  C6  UNL     1       2.828   0.307   0.192  1.00  0.00     0.017 C 
BRANCH  20  21
HETATM   21  C5  UNL     1       4.203  -0.067  -0.038  1.00  0.00    -0.036 A 
HETATM   22  C4  UNL     1       4.500  -0.950  -1.029  1.00  0.00     0.012 A 
HETATM   23  C3  UNL     1       5.826  -1.260  -1.191  1.00  0.00     0.007 A 
HETATM   24  C2  UNL     1       6.810  -0.720  -0.407  1.00  0.00    -0.062 A 
HETATM   25  C1  UNL     1       8.240  -1.088  -0.623  1.00  0.00     0.048 C 
HETATM   26  C21 UNL     1       6.493   0.174   0.593  1.00  0.00     0.007 A 
HETATM   27  C20 UNL     1       5.158   0.510   0.784  1.00  0.00     0.012 A 
ENDBRANCH  20  21
ENDBRANCH  16  19
ENDBRANCH   1  15
BRANCH  11  28
HETATM   28  C17 UNL     1      -3.166  -3.175   0.084  1.00  0.00     0.143 C 
HETATM   29 CL1  UNL     1      -4.179  -3.792   1.406  1.00  0.00    -0.126 Cl
ENDBRANCH  11  28
TORSDOF 4
