REMARK  0 active torsions:
REMARK  status: ('A' for Active; 'I' for Inactive)
ROOT
HETATM    1 CL1  UNL     1       6.703   0.229  -1.910  1.00  0.00    -0.084 Cl
HETATM    2  C1  UNL     1       5.164   0.311  -1.081  1.00  0.00     0.034 A 
HETATM    3  C2  UNL     1       4.766   1.530  -0.574  1.00  0.00     0.026 A 
HETATM    4  C3  UNL     1       3.570   1.691   0.094  1.00  0.00     0.039 A 
HETATM    5  C4  UNL     1       2.714   0.592   0.276  1.00  0.00     0.086 A 
HETATM    6  C5  UNL     1       3.136  -0.638  -0.246  1.00  0.00    -0.005 A 
HETATM    7  C6  UNL     1       4.335  -0.778  -0.910  1.00  0.00     0.035 A 
HETATM    8  C7  UNL     1       2.467  -1.960  -0.212  1.00  0.00     0.161 C 
HETATM    9  N1  UNL     1       1.033  -1.880  -0.382  1.00  0.00    -0.382 N 
HETATM   10  C8  UNL     1       0.037  -0.888  -0.051  1.00  0.00     0.082 C 
HETATM   11  C9  UNL     1      -1.054  -1.079  -0.770  1.00  0.00     0.040 C 
HETATM   12  C10 UNL     1      -2.328  -0.381  -0.830  1.00  0.00    -0.055 C 
HETATM   13  C11 UNL     1      -3.500  -1.030  -0.705  1.00  0.00     0.002 C 
HETATM   14  C12 UNL     1      -4.212  -0.710   0.584  1.00  0.00     0.174 C 
HETATM   15  N2  UNL     1      -3.408   0.364   1.187  1.00  0.00    -0.286 N 
HETATM   16  N3  UNL     1      -2.765   0.049   2.413  1.00  0.00    -0.169 NA
HETATM   17  C13 UNL     1      -1.473   0.264   2.508  1.00  0.00     0.257 C 
HETATM   18  N4  UNL     1      -0.213   0.674   2.037  1.00  0.00    -0.214 NA
HETATM   19  C14 UNL     1       0.340   0.144   0.969  1.00  0.00     0.198 C 
HETATM   20  O1  UNL     1       1.529   0.903   0.975  1.00  0.00    -0.289 OA
HETATM   21  C15 UNL     1      -3.514   1.512   0.269  1.00  0.00     0.180 C 
HETATM   22 BR1  UNL     1      -5.364   1.824  -0.088  1.00  0.00    -0.067 Br
HETATM   23  C16 UNL     1      -2.807   1.021  -1.003  1.00  0.00     0.076 C 
HETATM   24  H6  UNL     1       0.574  -2.716  -0.852  1.00  0.00     0.160 HD
ENDROOT
TORSDOF 0
