REMARK  5 active torsions:
REMARK  status: ('A' for Active; 'I' for Inactive)
REMARK    1  A    between atoms: N1_1  and  C1_2 
REMARK    2  A    between atoms: C1_2  and  C3_5 
REMARK    3  A    between atoms: C3_5  and  C4_6 
REMARK    4  A    between atoms: C7_9  and  N2_10 
REMARK    5  A    between atoms: N2_10  and  C8_11 
ROOT
HETATM    1  C4  UNL     1      -2.598  -0.138   1.138  1.00  0.00     0.028 C 
HETATM    2  C5  UNL     1      -1.438   0.308   0.695  1.00  0.00     0.043 A 
HETATM    3  C6  UNL     1      -0.174  -0.468   0.914  1.00  0.00     0.137 A 
HETATM    4  C7  UNL     1       0.967   0.260   0.318  1.00  0.00     0.111 A 
HETATM    5  N3  UNL     1       0.932   1.406  -0.314  1.00  0.00    -0.228 NA
HETATM    6  C14 UNL     1      -0.319   2.058  -0.466  1.00  0.00     0.235 A 
HETATM    7  N4  UNL     1      -1.407   1.545   0.002  1.00  0.00    -0.246 NA
ENDROOT
BRANCH   4   8
HETATM    8  N2  UNL     1       2.267  -0.295   0.412  1.00  0.00    -0.344 N 
HETATM    9  H8  UNL     1       2.558  -0.771   1.319  1.00  0.00     0.167 HD
BRANCH   8  10
HETATM   10  C8  UNL     1       3.255  -0.288  -0.606  1.00  0.00     0.035 A 
HETATM   11  C9  UNL     1       4.528  -0.830  -0.401  1.00  0.00     0.029 A 
HETATM   12  C10 UNL     1       5.505  -0.844  -1.369  1.00  0.00     0.004 A 
HETATM   13  C11 UNL     1       5.280  -0.318  -2.607  1.00  0.00     0.024 A 
HETATM   14  C12 UNL     1       4.040   0.229  -2.860  1.00  0.00     0.036 A 
HETATM   15 CL1  UNL     1       3.717   0.921  -4.454  1.00  0.00    -0.084 Cl
HETATM   16  C13 UNL     1       3.103   0.222  -1.875  1.00  0.00     0.053 A 
ENDBRANCH   8  10
ENDBRANCH   4   8
BRANCH   1  17
HETATM   17  C3  UNL     1      -3.830   0.601   0.934  1.00  0.00     0.038 C 
BRANCH  17  18
HETATM   18  C1  UNL     1      -4.963   0.136   1.385  1.00  0.00     0.177 A 
HETATM   19  C2  UNL     1      -6.245   0.788   1.238  1.00  0.00     0.218 A 
HETATM   20  O1  UNL     1      -6.328  -0.318   1.869  1.00  0.00    -0.342 OA
BRANCH  18  21
HETATM   21  N1  UNL     1      -4.910  -1.105   2.069  1.00  0.00    -0.395 N 
HETATM   22  H1  UNL     1      -5.046  -2.125   1.862  1.00  0.00     0.153 HD
HETATM   23  H2  UNL     1      -4.840  -1.947   2.677  1.00  0.00     0.153 HD
ENDBRANCH  18  21
ENDBRANCH  17  18
ENDBRANCH   1  17
TORSDOF 5
