REMARK  3 active torsions:
REMARK  status: ('A' for Active; 'I' for Inactive)
REMARK    1  A    between atoms: C5_6  and  N1_7 
REMARK    2  A    between atoms: N1_7  and  C6_8 
REMARK    3  A    between atoms: C13_17  and  C14_18 
ROOT
HETATM    1  C6  UNL     1      -2.127   0.076   0.841  1.00  0.00     0.141 A 
HETATM    2  N2  UNL     1      -2.623   0.208   2.058  1.00  0.00    -0.224 NA
HETATM    3  C7  UNL     1      -1.981   0.298   3.206  1.00  0.00     0.236 A 
HETATM    4  N3  UNL     1      -0.655   0.252   3.164  1.00  0.00    -0.241 NA
HETATM    5  C8  UNL     1      -0.021   0.119   1.984  1.00  0.00     0.072 A 
HETATM    6  C9  UNL     1      -0.753   0.030   0.823  1.00  0.00     0.035 A 
HETATM    7  C10 UNL     1      -0.044  -0.120  -0.266  1.00  0.00    -0.005 A 
HETATM    8  C11 UNL     1       1.444  -0.192  -0.459  1.00  0.00     0.066 A 
HETATM    9  C12 UNL     1       2.140  -0.034   0.841  1.00  0.00    -0.052 A 
HETATM   10  C13 UNL     1       3.437   0.010   0.998  1.00  0.00     0.020 C 
HETATM   11  C20 UNL     1       1.301   0.099   2.023  1.00  0.00     0.040 A 
ENDROOT
BRANCH   1  12
HETATM   12  N1  UNL     1      -2.845  -0.016  -0.370  1.00  0.00    -0.340 N 
HETATM   13  H4  UNL     1      -2.397  -0.096  -1.279  1.00  0.00     0.167 HD
BRANCH  12  14
HETATM   14  C5  UNL     1      -4.250  -0.015  -0.563  1.00  0.00     0.035 A 
HETATM   15  C4  UNL     1      -4.895   0.018  -1.798  1.00  0.00     0.029 A 
HETATM   16  C3  UNL     1      -6.257   0.012  -1.944  1.00  0.00     0.004 A 
HETATM   17  C2  UNL     1      -7.088  -0.028  -0.852  1.00  0.00     0.024 A 
HETATM   18  C1  UNL     1      -6.494  -0.061   0.392  1.00  0.00     0.036 A 
HETATM   19 CL1  UNL     1      -7.595  -0.112   1.750  1.00  0.00    -0.084 Cl
HETATM   20  C21 UNL     1      -5.120  -0.054   0.493  1.00  0.00     0.053 A 
ENDBRANCH  12  14
ENDBRANCH   1  12
BRANCH  10  21
HETATM   21  C14 UNL     1       4.552  -0.068   0.078  1.00  0.00    -0.018 A 
HETATM   22  C15 UNL     1       4.683  -0.934  -0.984  1.00  0.00     0.013 A 
HETATM   23  C16 UNL     1       5.749  -0.971  -1.855  1.00  0.00     0.001 A 
HETATM   24  C17 UNL     1       6.769  -0.081  -1.660  1.00  0.00     0.001 A 
HETATM   25  C18 UNL     1       6.751   0.832  -0.633  1.00  0.00     0.020 A 
HETATM   26  C19 UNL     1       5.647   0.798   0.187  1.00  0.00     0.021 A 
HETATM   27 BR1  UNL     1       5.590   2.064   1.638  1.00  0.00    -0.050 Br
ENDBRANCH  10  21
TORSDOF 3
