REMARK  3 active torsions:
REMARK  status: ('A' for Active; 'I' for Inactive)
REMARK    1  A    between atoms: C2_2  and  N1_3 
REMARK    2  A    between atoms: C13_16  and  N3_17 
REMARK    3  A    between atoms: N3_17  and  C14_18 
ROOT
HETATM    1  C1  UNL     1      -3.248  -3.072   0.677  1.00  0.00     0.058 C 
HETATM    2  C2  UNL     1      -3.062  -1.559   0.577  1.00  0.00     0.195 C 
HETATM    3  C3  UNL     1      -3.903  -1.019  -0.471  1.00  0.00     0.015 C 
HETATM    4  C4  UNL     1      -4.421  -0.041  -1.131  1.00  0.00     0.001 C 
HETATM    5  C5  UNL     1      -5.027   0.968  -1.900  1.00  0.00     0.034 C 
HETATM    6  C6  UNL     1      -4.729   2.306  -1.616  1.00  0.00    -0.002 C 
HETATM    7  C7  UNL     1      -3.888   3.176  -0.724  1.00  0.00    -0.024 C 
HETATM    8  C8  UNL     1      -2.968   3.315   0.165  1.00  0.00     0.038 C 
HETATM    9  C9  UNL     1      -2.112   2.334   0.801  1.00  0.00     0.204 A 
HETATM   10  O1  UNL     1      -1.998   1.158   0.441  1.00  0.00     0.000 OA
HETATM   11  N2  UNL     1      -1.263   1.385   1.441  1.00  0.00     0.142 N 
HETATM   12  C10 UNL     1      -1.081   0.029   0.915  1.00  0.00     0.252 A 
HETATM   13  C11 UNL     1       0.326   0.065   0.730  1.00  0.00     0.040 A 
HETATM   14  C12 UNL     1       1.176  -0.925   0.211  1.00  0.00     0.038 A 
HETATM   15  C13 UNL     1       2.523  -0.845   0.043  1.00  0.00     0.141 A 
HETATM   16  N4  UNL     1       3.122  -1.918  -0.480  1.00  0.00    -0.224 NA
HETATM   17  C20 UNL     1       2.526  -3.049  -0.849  1.00  0.00     0.236 A 
HETATM   18  N5  UNL     1       1.197  -3.139  -0.688  1.00  0.00    -0.241 NA
HETATM   19  C21 UNL     1       0.516  -2.085  -0.160  1.00  0.00     0.072 A 
HETATM   20  C22 UNL     1      -0.864  -2.120   0.022  1.00  0.00     0.041 A 
HETATM   21  C23 UNL     1      -1.674  -1.137   0.531  1.00  0.00     0.009 A 
HETATM   22  H12 UNL     1      -0.771   1.718   2.337  1.00  0.00     0.325 HD
ENDROOT
BRANCH  15  23
HETATM   23  N3  UNL     1       3.183   0.336   0.436  1.00  0.00    -0.340 N 
HETATM   24  H14 UNL     1       2.780   1.149   0.927  1.00  0.00     0.167 HD
BRANCH  23  25
HETATM   25  C14 UNL     1       4.546   0.690   0.259  1.00  0.00     0.035 A 
HETATM   26  C15 UNL     1       5.261  -0.012  -0.718  1.00  0.00     0.029 A 
HETATM   27  C16 UNL     1       6.612   0.243  -0.983  1.00  0.00     0.004 A 
HETATM   28  C17 UNL     1       7.267   1.212  -0.266  1.00  0.00     0.019 A 
HETATM   29  C18 UNL     1       6.597   1.918   0.697  1.00  0.00     0.013 A 
HETATM   30 BR1  UNL     1       7.349   3.317   1.785  1.00  0.00    -0.051 Br
HETATM   31  C19 UNL     1       5.268   1.665   0.956  1.00  0.00     0.048 A 
ENDBRANCH  23  25
ENDBRANCH  15  23
BRANCH   2  32
HETATM   32  N1  UNL     1      -3.629  -1.028   1.856  1.00  0.00     0.095 N 
HETATM   33  H4  UNL     1      -4.637  -0.972   1.715  1.00  0.00     0.314 HD
HETATM   34  H5  UNL     1      -3.300  -1.687   2.600  1.00  0.00     0.314 HD
ENDBRANCH   2  32
TORSDOF 3
