REMARK  5 active torsions:
REMARK  status: ('A' for Active; 'I' for Inactive)
REMARK    1  A    between atoms: B1_1  and  C1_2 
REMARK    2  A    between atoms: C4_5  and  N1_6 
REMARK    3  A    between atoms: C5_7  and  N2_8 
REMARK    4  A    between atoms: C6_9  and  N3_10 
REMARK    5  A    between atoms: N3_10  and  C7_11 
ROOT
HETATM    1  N1  UNL     1       1.108   0.191   0.110  1.00  0.00    -0.269 NA
HETATM    2  C5  UNL     1       0.104   0.957   0.393  1.00  0.00     0.229 C 
ENDROOT
BRANCH   1   3
HETATM    3  C4  UNL     1       2.373   0.589   0.688  1.00  0.00     0.163 A 
HETATM    4  C2  UNL     1       3.406  -0.448   0.536  1.00  0.00    -0.046 A 
HETATM    5  C1  UNL     1       4.599  -0.327  -0.046  1.00  0.00    -0.042 A 
HETATM    6  C3  UNL     1       2.962  -1.733   1.136  1.00  0.00     0.047 C 
HETATM    7  N4  UNL     1       4.889   0.960  -0.577  1.00  0.00    -0.380 N 
HETATM    8  C14 UNL     1       4.003   2.071  -0.515  1.00  0.00     0.085 A 
HETATM    9  H16 UNL     1       5.820   1.092  -1.043  1.00  0.00     0.164 HD
HETATM   10  C13 UNL     1       2.839   1.863   0.082  1.00  0.00     0.022 A 
BRANCH   5  11
HETATM   11  B1  UNL     1       5.594  -1.500  -0.139  1.00  0.00     0.196 B 
HETATM   12  H1  UNL     1       6.719  -1.300   0.198  1.00  0.00    -0.025 HD
HETATM   13  H2  UNL     1       5.316  -2.618  -0.358  1.00  0.00    -0.025 HD
ENDBRANCH   5  11
ENDBRANCH   1   3
BRANCH   2  14
HETATM   14  N2  UNL     1      -1.144   0.575  -0.171  1.00  0.00    -0.238 NA
HETATM   15  C6  UNL     1      -1.841   1.488  -0.803  1.00  0.00     0.208 C 
BRANCH  15  16
HETATM   16  N3  UNL     1      -3.072   1.010  -1.330  1.00  0.00    -0.351 N 
HETATM   17  H9  UNL     1      -3.368   1.267  -2.320  1.00  0.00     0.166 HD
BRANCH  16  18
HETATM   18  C7  UNL     1      -3.980   0.189  -0.615  1.00  0.00     0.034 A 
HETATM   19  C8  UNL     1      -5.157  -0.283  -1.186  1.00  0.00     0.029 A 
HETATM   20  C9  UNL     1      -6.060  -1.078  -0.515  1.00  0.00     0.004 A 
HETATM   21  C10 UNL     1      -5.828  -1.450   0.788  1.00  0.00     0.019 A 
HETATM   22  C11 UNL     1      -4.672  -1.011   1.408  1.00  0.00     0.013 A 
HETATM   23 BR1  UNL     1      -4.333  -1.517   3.211  1.00  0.00    -0.051 Br
HETATM   24  C12 UNL     1      -3.807  -0.218   0.687  1.00  0.00     0.048 A 
ENDBRANCH  16  18
ENDBRANCH  15  16
ENDBRANCH   2  14
TORSDOF 5
