REMARK  7 active torsions:
REMARK  status: ('A' for Active; 'I' for Inactive)
REMARK    1  A    between atoms: C7_7  and  N1_8 
REMARK    2  A    between atoms: N1_8  and  C8_9 
REMARK    3  A    between atoms: C10_13  and  O1_14 
REMARK    4  A    between atoms: C18_23  and  O3_24 
REMARK    5  A    between atoms: O3_24  and  C19_25 
REMARK    6  A    between atoms: C19_25  and  C20_26 
REMARK    7  A    between atoms: C20_26  and  O4_27 
ROOT
HETATM    1  C1  UNL     1       6.670   1.104  -3.230  1.00  0.00     0.018 C 
HETATM    2  C2  UNL     1       6.173   1.353  -2.150  1.00  0.00    -0.078 C 
HETATM    3  C3  UNL     1       5.592   1.669  -0.847  1.00  0.00     0.019 A 
HETATM    4  C4  UNL     1       6.324   2.022   0.249  1.00  0.00     0.021 A 
HETATM    5  C5  UNL     1       5.731   2.287   1.464  1.00  0.00     0.004 A 
HETATM    6  C6  UNL     1       4.359   2.191   1.563  1.00  0.00     0.029 A 
HETATM    7  C7  UNL     1       3.628   1.830   0.422  1.00  0.00     0.035 A 
HETATM    8  C22 UNL     1       4.216   1.556  -0.823  1.00  0.00     0.050 A 
ENDROOT
BRANCH   7   9
HETATM    9  N1  UNL     1       2.214   1.771   0.639  1.00  0.00    -0.340 N 
HETATM   10  H5  UNL     1       1.758   2.722   0.757  1.00  0.00     0.167 HD
BRANCH   9  11
HETATM   11  C8  UNL     1       1.571   0.516   0.688  1.00  0.00     0.140 C 
HETATM   12  N2  UNL     1       2.152  -0.577   0.974  1.00  0.00    -0.212 NA
HETATM   13  C9  UNL     1       1.607  -1.890   1.050  1.00  0.00     0.297 C 
HETATM   14  N3  UNL     1       0.756  -2.623   0.664  1.00  0.00    -0.407 NA
HETATM   15  C10 UNL     1      -0.166  -3.524   0.285  1.00  0.00     0.324 C 
HETATM   16  C12 UNL     1      -1.106  -3.038  -0.808  1.00  0.00     0.244 C 
HETATM   17  O2  UNL     1      -1.941  -2.005  -0.654  1.00  0.00    -0.343 OA
HETATM   18  C13 UNL     1      -1.929  -0.705  -0.366  1.00  0.00     0.103 A 
HETATM   19  C14 UNL     1      -0.686  -0.264  -0.020  1.00  0.00     0.055 A 
HETATM   20  C18 UNL     1      -2.661   0.472  -0.245  1.00  0.00     0.102 A 
HETATM   21  C15 UNL     1       0.183   0.685   0.377  1.00  0.00     0.013 A 
HETATM   22  C16 UNL     1      -0.652   1.767   0.461  1.00  0.00     0.018 A 
HETATM   23  C17 UNL     1      -2.016   1.647   0.157  1.00  0.00     0.040 A 
BRANCH  15  24
HETATM   24  O1  UNL     1       0.400  -4.718  -0.293  1.00  0.00    -0.358 OA
HETATM   25  C11 UNL     1      -0.081  -5.825   0.399  1.00  0.00     0.205 C 
ENDBRANCH  15  24
BRANCH  20  26
HETATM   26  O3  UNL     1      -3.861   0.083  -0.586  1.00  0.00    -0.346 OA
BRANCH  26  27
HETATM   27  C19 UNL     1      -5.133   0.430  -0.786  1.00  0.00     0.201 C 
BRANCH  27  28
HETATM   28  C20 UNL     1      -5.928   0.998   0.359  1.00  0.00     0.193 C 
BRANCH  28  29
HETATM   29  O4  UNL     1      -5.463   2.157   0.895  1.00  0.00    -0.394 OA
HETATM   30  C21 UNL     1      -5.458   3.225   0.011  1.00  0.00     0.201 C 
ENDBRANCH  28  29
ENDBRANCH  27  28
ENDBRANCH  26  27
ENDBRANCH  20  26
ENDBRANCH   9  11
ENDBRANCH   7   9
TORSDOF 7
