REMARK  6 active torsions:
REMARK  status: ('A' for Active; 'I' for Inactive)
REMARK    1  A    between atoms: N1_1  and  C1_2 
REMARK    2  A    between atoms: C1_2  and  N2_4 
REMARK    3  A    between atoms: N2_4  and  C2_5 
REMARK    4  A    between atoms: C2_5  and  C3_6 
REMARK    5  A    between atoms: C2_5  and  C11_15 
REMARK    6  A    between atoms: C4_7  and  C5_8 
ROOT
HETATM    1  C2  UNL     1      -0.781   1.227  -0.982  1.00  0.00     0.140 C 
ENDROOT
BRANCH   1   2
HETATM    2  N2  UNL     1      -1.028   2.441  -0.224  1.00  0.00    -0.355 N 
HETATM    3  H3  UNL     1      -0.301   2.907   0.337  1.00  0.00     0.163 HD
BRANCH   2   4
HETATM    4  C1  UNL     1      -2.324   2.983  -0.276  1.00  0.00     0.166 C 
HETATM    5  S1  UNL     1      -3.537   2.315  -1.136  1.00  0.00    -0.041 SA
BRANCH   4   6
HETATM    6  N1  UNL     1      -2.649   4.185   0.448  1.00  0.00    -0.376 N 
HETATM    7  H1  UNL     1      -2.234   4.891  -0.207  1.00  0.00     0.158 HD
HETATM    8  H2  UNL     1      -3.146   4.381   1.359  1.00  0.00     0.158 HD
ENDBRANCH   4   6
ENDBRANCH   2   4
ENDBRANCH   1   2
BRANCH   1   9
HETATM    9  C3  UNL     1       0.606   0.764  -0.845  1.00  0.00     0.004 C 
HETATM   10  C4  UNL     1       1.126  -0.356  -0.369  1.00  0.00     0.011 C 
BRANCH  10  11
HETATM   11  C5  UNL     1       2.413  -1.001  -0.145  1.00  0.00    -0.015 A 
HETATM   12  C6  UNL     1       2.457  -2.260   0.418  1.00  0.00     0.013 A 
HETATM   13  C7  UNL     1       3.710  -2.791   0.592  1.00  0.00     0.001 A 
HETATM   14  C8  UNL     1       4.837  -2.100   0.225  1.00  0.00     0.002 A 
HETATM   15  C9  UNL     1       4.801  -0.843  -0.337  1.00  0.00     0.024 A 
HETATM   16  C10 UNL     1       3.543  -0.305  -0.514  1.00  0.00     0.044 A 
HETATM   17 CL1  UNL     1       3.576   1.289  -1.232  1.00  0.00    -0.083 Cl
ENDBRANCH  10  11
ENDBRANCH   1   9
BRANCH   1  18
HETATM   18  C11 UNL     1      -1.643   0.180  -0.317  1.00  0.00    -0.032 A 
HETATM   19  C12 UNL     1      -1.680   0.100   1.068  1.00  0.00     0.009 A 
HETATM   20  C13 UNL     1      -2.451  -0.839   1.727  1.00  0.00     0.001 A 
HETATM   21  C14 UNL     1      -3.202  -1.715   0.971  1.00  0.00     0.000 A 
HETATM   22  C15 UNL     1      -3.188  -1.661  -0.418  1.00  0.00     0.001 A 
HETATM   23  C16 UNL     1      -2.406  -0.711  -1.043  1.00  0.00     0.009 A 
ENDBRANCH   1  18
TORSDOF 6
