REMARK  6 active torsions:
REMARK  status: ('A' for Active; 'I' for Inactive)
REMARK    1  A    between atoms: C7_7  and  C8_8 
REMARK    2  A    between atoms: C8_8  and  C9_9 
REMARK    3  A    between atoms: C9_9  and  C10_10 
REMARK    4  A    between atoms: N1_16  and  N2_17 
REMARK    5  A    between atoms: N2_17  and  C15_18 
REMARK    6  A    between atoms: C15_18  and  N3_19 
ROOT
HETATM    1  C8  UNL     1      -0.629  -0.080   0.356  1.00  0.00     0.066 C 
HETATM    2  N1  UNL     1      -1.311   0.845  -0.255  1.00  0.00    -0.177 NA
ENDROOT
BRANCH   1   3
HETATM    3  C7  UNL     1      -1.354  -1.321   0.208  1.00  0.00    -0.004 A 
HETATM    4  C2  UNL     1      -0.959  -2.529   0.725  1.00  0.00    -0.050 A 
HETATM    5  C1  UNL     1       0.283  -2.679   1.504  1.00  0.00     0.049 C 
HETATM    6  C3  UNL     1      -1.656  -3.710   0.587  1.00  0.00     0.007 A 
HETATM    7  C4  UNL     1      -2.824  -3.624  -0.127  1.00  0.00     0.001 A 
HETATM    8  C5  UNL     1      -3.293  -2.460  -0.677  1.00  0.00     0.001 A 
HETATM    9  C6  UNL     1      -2.534  -1.305  -0.496  1.00  0.00     0.014 A 
ENDBRANCH   1   3
BRANCH   1  10
HETATM   10  C9  UNL     1       0.563   0.533   0.905  1.00  0.00     0.076 C 
BRANCH  10  11
HETATM   11  C10 UNL     1       1.882   0.074   0.399  1.00  0.00     0.059 A 
HETATM   12  C11 UNL     1       2.033   0.278  -1.073  1.00  0.00    -0.016 A 
HETATM   13  C12 UNL     1       2.915   1.204  -1.414  1.00  0.00    -0.002 A 
HETATM   14  C13 UNL     1       3.450   1.719  -0.159  1.00  0.00     0.020 A 
HETATM   15  C14 UNL     1       2.893   1.108   0.874  1.00  0.00     0.019 A 
HETATM   16 CL1  UNL     1       3.272   1.447   2.551  1.00  0.00    -0.088 Cl
ENDBRANCH  10  11
ENDBRANCH   1  10
BRANCH   2  17
HETATM   17  N2  UNL     1      -1.007   2.166  -0.374  1.00  0.00    -0.258 N 
HETATM   18  H14 UNL     1      -1.373   2.480   0.545  1.00  0.00     0.191 HD
BRANCH  17  19
HETATM   19  C15 UNL     1      -0.449   3.199  -1.159  1.00  0.00     0.164 C 
HETATM   20  S1  UNL     1       0.208   3.053  -2.639  1.00  0.00    -0.046 SA
BRANCH  19  21
HETATM   21  N3  UNL     1      -0.362   4.571  -0.786  1.00  0.00    -0.278 NA
HETATM   22  H15 UNL     1      -0.922   5.320  -1.284  1.00  0.00     0.126 HD
HETATM   23  H16 UNL     1      -0.844   5.384  -1.181  1.00  0.00     0.126 HD
ENDBRANCH  19  21
ENDBRANCH  17  19
ENDBRANCH   2  17
TORSDOF 6
