REMARK  2 active torsions:
REMARK  status: ('A' for Active; 'I' for Inactive)
REMARK    1  A    between atoms: C9_12  and  N3_13 
REMARK    2  A    between atoms: N3_13  and  C10_14 
ROOT
HETATM    1  O1  UNL     1      -0.593   3.491  -0.543  1.00  0.00    -0.193 OA
HETATM    2  C1  UNL     1      -0.588   2.185  -0.724  1.00  0.00     0.121 C 
HETATM    3  C2  UNL     1      -1.953   2.016  -1.199  1.00  0.00     0.000 C 
HETATM    4  C3  UNL     1      -3.195   1.933  -1.686  1.00  0.00     0.033 C 
HETATM    5  C4  UNL     1      -4.151   0.869  -1.257  1.00  0.00     0.119 C 
HETATM    6  N1  UNL     1      -4.555  -0.139  -0.589  1.00  0.00    -0.255 NA
HETATM    7  C5  UNL     1      -3.668  -0.722   0.390  1.00  0.00     0.226 C 
HETATM    8  N2  UNL     1      -2.657  -1.128   1.014  1.00  0.00    -0.279 NA
HETATM    9  C6  UNL     1      -1.267  -1.142   0.831  1.00  0.00     0.186 C 
HETATM   10  C7  UNL     1      -0.711  -0.002  -0.005  1.00  0.00    -0.030 C 
HETATM   11  C8  UNL     1      -1.619   0.687  -0.615  1.00  0.00     0.021 C 
HETATM   12  C9  UNL     1       0.257   0.927  -0.625  1.00  0.00     0.174 C 
ENDROOT
BRANCH  12  13
HETATM   13  N3  UNL     1       1.414   1.158   0.171  1.00  0.00    -0.375 N 
HETATM   14  H8  UNL     1       1.602   2.089   0.598  1.00  0.00     0.160 HD
BRANCH  13  15
HETATM   15  C10 UNL     1       2.328   0.091   0.384  1.00  0.00     0.030 A 
HETATM   16  C11 UNL     1       2.123  -1.159  -0.160  1.00  0.00     0.029 A 
HETATM   17  C12 UNL     1       2.984  -2.231   0.020  1.00  0.00     0.004 A 
HETATM   18  C13 UNL     1       4.108  -2.009   0.794  1.00  0.00     0.019 A 
HETATM   19  C14 UNL     1       4.318  -0.761   1.341  1.00  0.00     0.013 A 
HETATM   20 BR1  UNL     1       5.893  -0.570   2.385  1.00  0.00    -0.051 Br
HETATM   21  C15 UNL     1       3.450   0.276   1.145  1.00  0.00     0.048 A 
ENDBRANCH  13  15
ENDBRANCH  12  13
TORSDOF 2
