REMARK  5 active torsions:
REMARK  status: ('A' for Active; 'I' for Inactive)
REMARK    1  A    between atoms: C2_2  and  C3_3 
REMARK    2  A    between atoms: C6_7  and  N2_8 
REMARK    3  A    between atoms: C14_17  and  N3_18 
REMARK       I    between atoms: N3_18  and  C15_19 
REMARK    4  A    between atoms: C15_19  and  C16_21 
REMARK    5  A    between atoms: C18_23  and  O2_24 
ROOT
HETATM    1  C3  UNL     1      -0.698  -2.523  -0.969  1.00  0.00     0.002 C 
HETATM    2  C4  UNL     1      -1.335  -1.627  -0.223  1.00  0.00     0.056 C 
HETATM    3  N1  UNL     1      -2.760  -1.566  -0.202  1.00  0.00    -0.265 NA
HETATM    4  C5  UNL     1      -3.591  -0.589  -0.338  1.00  0.00     0.119 C 
HETATM    5  C6  UNL     1      -3.356   0.831  -0.567  1.00  0.00     0.152 C 
HETATM    6  C12 UNL     1      -2.209   1.379   0.187  1.00  0.00     0.002 C 
HETATM    7  C13 UNL     1      -1.161   0.703   0.612  1.00  0.00     0.003 C 
HETATM    8  C14 UNL     1      -0.598  -0.672   0.613  1.00  0.00     0.159 C 
ENDROOT
BRANCH   8   9
HETATM    9  N3  UNL     1       0.805  -0.518   0.295  1.00  0.00    -0.344 N 
HETATM   10  C15 UNL     1       1.860  -0.717   1.248  1.00  0.00     0.248 C 
HETATM   11  O1  UNL     1       1.376  -1.035   2.364  1.00  0.00    -0.268 OA
HETATM   12  H17 UNL     1       1.009  -0.245  -0.692  1.00  0.00     0.163 HD
BRANCH  10  13
HETATM   13  C16 UNL     1       3.272  -0.562   0.927  1.00  0.00     0.013 A 
HETATM   14  C17 UNL     1       3.625  -0.222  -0.295  1.00  0.00     0.049 A 
HETATM   15  C18 UNL     1       5.040  -0.070  -0.605  1.00  0.00     0.065 A 
HETATM   16  C20 UNL     1       5.881  -0.290   0.386  1.00  0.00     0.010 A 
HETATM   17  C21 UNL     1       5.614  -0.672   1.787  1.00  0.00     0.035 A 
HETATM   18  C22 UNL     1       4.162  -0.822   2.081  1.00  0.00     0.048 A 
BRANCH  15  19
HETATM   19  O2  UNL     1       5.473   0.284  -1.864  1.00  0.00    -0.356 OA
HETATM   20  C19 UNL     1       6.011   1.541  -2.186  1.00  0.00     0.210 C 
ENDBRANCH  15  19
ENDBRANCH  10  13
ENDBRANCH   8   9
BRANCH   1  21
HETATM   21  C2  UNL     1       0.597  -3.055  -1.393  1.00  0.00     0.025 C 
HETATM   22  C1  UNL     1       0.760  -4.535  -1.058  1.00  0.00     0.009 C 
ENDBRANCH   1  21
BRANCH   5  23
HETATM   23  N2  UNL     1      -4.556   1.582  -0.283  1.00  0.00    -0.352 N 
HETATM   24  C7  UNL     1      -4.291   2.956  -0.577  1.00  0.00     0.088 A 
HETATM   25  C8  UNL     1      -5.217   3.906  -0.410  1.00  0.00    -0.004 A 
HETATM   26  C9  UNL     1      -6.570   3.616   0.085  1.00  0.00     0.081 A 
HETATM   27  C10 UNL     1      -6.750   2.187   0.359  1.00  0.00     0.030 A 
HETATM   28 CL1  UNL     1      -8.297   1.640   0.957  1.00  0.00    -0.087 Cl
HETATM   29  C11 UNL     1      -5.851   1.257   0.198  1.00  0.00     0.111 A 
ENDBRANCH   5  23
TORSDOF 5
