REMARK  9 active torsions:
REMARK  status: ('A' for Active; 'I' for Inactive)
REMARK    1  A    between atoms: N1_1  and  C1_2 
REMARK    2  A    between atoms: C2_3  and  C3_4 
REMARK    3  A    between atoms: C3_4  and  C4_5 
REMARK    4  A    between atoms: C10_14  and  C11_15 
REMARK    5  A    between atoms: C11_15  and  C12_16 
REMARK    6  A    between atoms: C12_16  and  C13_17 
REMARK    7  A    between atoms: C15_19  and  O1_20 
REMARK    8  A    between atoms: O1_20  and  C16_21 
REMARK    9  A    between atoms: S1_24  and  C18_25 
ROOT
HETATM    1  C1  UNL     1       3.036  -1.898   0.253  1.00  0.00     0.052 C 
HETATM    2  C2  UNL     1       4.037  -1.808  -0.555  1.00  0.00     0.061 C 
HETATM    3  N2  UNL     1       4.206  -0.696  -1.462  1.00  0.00    -0.340 N 
HETATM    4  C5  UNL     1       4.086   0.700  -1.174  1.00  0.00     0.267 C 
HETATM    5  N3  UNL     1       3.343   0.685  -0.299  1.00  0.00    -0.442 NA
HETATM    6  C6  UNL     1       2.488   0.767   0.717  1.00  0.00     0.240 C 
HETATM    7  C7  UNL     1       1.120   0.102   0.370  1.00  0.00     0.041 A 
HETATM    8  C8  UNL     1       1.065  -0.283  -1.055  1.00  0.00    -0.006 A 
HETATM    9  C9  UNL     1       0.171   0.507  -1.687  1.00  0.00     0.004 A 
HETATM   10  C10 UNL     1      -0.465   1.481  -0.805  1.00  0.00    -0.061 A 
HETATM   11  C19 UNL     1       0.100   1.218   0.364  1.00  0.00     0.001 A 
HETATM   12  C20 UNL     1       0.838  -1.022   1.312  1.00  0.00    -0.004 C 
HETATM   13  C21 UNL     1       1.852  -1.727   1.022  1.00  0.00     0.028 C 
HETATM   14  H5  UNL     1       4.436  -1.040  -2.412  1.00  0.00     0.167 HD
ENDROOT
BRANCH  10  15
HETATM   15  C11 UNL     1      -1.442   2.547  -0.940  1.00  0.00     0.039 C 
BRANCH  15  16
HETATM   16  C12 UNL     1      -2.791   1.950  -1.439  1.00  0.00     0.022 C 
BRANCH  16  17
HETATM   17  C13 UNL     1      -3.203   1.027  -0.455  1.00  0.00     0.021 A 
HETATM   18  C14 UNL     1      -4.483   1.055   0.364  1.00  0.00     0.112 A 
HETATM   19  C15 UNL     1      -5.960   1.703   0.834  1.00  0.00     0.135 A 
HETATM   20  C18 UNL     1      -4.182   1.588  -0.244  1.00  0.00    -0.030 A 
HETATM   21  S1  UNL     1      -5.299   2.204   0.015  1.00  0.00    -0.175 SA
HETATM   22  C17 UNL     1      -6.666   2.930   0.354  1.00  0.00     0.099 A 
BRANCH  19  23
HETATM   23  O1  UNL     1      -6.584   0.895   1.859  1.00  0.00    -0.304 OA
BRANCH  23  24
HETATM   24  C16 UNL     1      -7.684   1.006   2.552  1.00  0.00     0.399 C 
HETATM   25  O2  UNL     1      -7.876   2.072   1.935  1.00  0.00    -0.276 OA
ENDBRANCH  23  24
ENDBRANCH  19  23
ENDBRANCH  16  17
ENDBRANCH  15  16
ENDBRANCH  10  15
BRANCH   1  26
HETATM   26  N1  UNL     1       3.513  -3.130   0.786  1.00  0.00    -0.397 N 
HETATM   27  H1  UNL     1       3.759  -3.605   1.682  1.00  0.00     0.156 HD
HETATM   28  H2  UNL     1       3.875  -4.107   1.061  1.00  0.00     0.156 HD
ENDBRANCH   1  26
BRANCH   2  29
HETATM   29  C3  UNL     1       5.013  -2.853  -0.521  1.00  0.00     0.044 C 
BRANCH  29  30
HETATM   30  C4  UNL     1       5.792  -3.858  -0.369  1.00  0.00     0.220 C 
HETATM   31 CL1  UNL     1       7.107  -4.992  -0.522  1.00  0.00    -0.230 Cl
ENDBRANCH  29  30
ENDBRANCH   2  29
TORSDOF 9
