REMARK  8 active torsions:
REMARK  status: ('A' for Active; 'I' for Inactive)
REMARK    1  A    between atoms: C2_2  and  O1_3 
REMARK    2  A    between atoms: O1_3  and  C3_4 
REMARK    3  A    between atoms: C7_8  and  C8_9 
REMARK       I    between atoms: C8_9  and  N1_11 
REMARK    4  A    between atoms: N1_11  and  C9_12 
REMARK    5  A    between atoms: C12_15  and  N2_16 
REMARK    6  A    between atoms: N2_16  and  C13_17 
REMARK    7  A    between atoms: C14_19  and  N4_20 
REMARK    8  A    between atoms: N4_20  and  C15_21 
ROOT
HETATM    1  C9  UNL     1       1.296   0.396   0.050  1.00  0.00     0.034 A 
HETATM    2  C10 UNL     1       1.308  -0.841  -0.529  1.00  0.00     0.032 A 
HETATM    3  C11 UNL     1       0.111  -1.475  -0.821  1.00  0.00     0.034 A 
HETATM    4  C12 UNL     1      -1.110  -0.891  -0.543  1.00  0.00     0.059 A 
HETATM    5  C20 UNL     1      -1.150   0.362   0.043  1.00  0.00     0.034 A 
HETATM    6  C21 UNL     1       0.075   0.974   0.325  1.00  0.00     0.032 A 
ENDROOT
BRANCH   4   7
HETATM    7  N2  UNL     1      -2.283  -1.612  -0.877  1.00  0.00    -0.226 NA
BRANCH   7   8
HETATM    8  C13 UNL     1      -3.331  -1.567  -0.091  1.00  0.00     0.199 A 
HETATM    9  N3  UNL     1      -3.522  -0.885   1.112  1.00  0.00    -0.204 NA
HETATM   10  C14 UNL     1      -4.551  -1.665   0.587  1.00  0.00     0.179 A 
BRANCH  10  11
HETATM   11  N4  UNL     1      -5.701  -2.422   0.181  1.00  0.00    -0.337 N 
HETATM   12  H11 UNL     1      -5.801  -3.423   0.498  1.00  0.00     0.168 HD
BRANCH  11  13
HETATM   13  C15 UNL     1      -6.730  -1.884  -0.642  1.00  0.00     0.050 A 
HETATM   14  C16 UNL     1      -6.612  -1.586  -1.926  1.00  0.00     0.113 A 
HETATM   15  N5  UNL     1      -7.742  -1.054  -2.605  1.00  0.00    -0.392 N 
HETATM   16  C17 UNL     1      -9.025  -0.803  -2.021  1.00  0.00     0.170 A 
HETATM   17  H13 UNL     1      -7.639  -0.821  -3.621  1.00  0.00     0.159 HD
HETATM   18  C18 UNL     1      -9.034  -1.176  -0.582  1.00  0.00     0.031 A 
HETATM   19 CL1  UNL     1     -10.624  -0.853   0.094  1.00  0.00    -0.087 Cl
HETATM   20  C19 UNL     1      -7.994  -1.665   0.039  1.00  0.00     0.052 A 
ENDBRANCH  11  13
ENDBRANCH  10  11
ENDBRANCH   7   8
ENDBRANCH   4   7
BRANCH   1  21
HETATM   21  N1  UNL     1       2.441   1.189   0.418  1.00  0.00    -0.327 N 
HETATM   22  C8  UNL     1       3.176   1.236   1.635  1.00  0.00     0.230 C 
HETATM   23  O2  UNL     1       2.721   0.443   2.507  1.00  0.00    -0.272 OA
HETATM   24  H8  UNL     1       2.523   1.695  -0.511  1.00  0.00     0.169 HD
BRANCH  22  25
HETATM   25  C7  UNL     1       4.263   2.247   1.436  1.00  0.00     0.107 A 
HETATM   26  C6  UNL     1       5.021   2.294   2.709  1.00  0.00    -0.012 A 
HETATM   27  C5  UNL     1       6.307   2.109   2.955  1.00  0.00    -0.001 A 
HETATM   28  C4  UNL     1       7.113   1.809   1.781  1.00  0.00     0.032 A 
HETATM   29  C3  UNL     1       6.508   1.750   0.614  1.00  0.00     0.048 A 
HETATM   30  C22 UNL     1       5.086   1.939   0.232  1.00  0.00     0.082 A 
BRANCH  29  31
HETATM   31  O1  UNL     1       7.259   1.463  -0.539  1.00  0.00    -0.347 OA
BRANCH  31  32
HETATM   32  C2  UNL     1       8.038   0.289  -0.583  1.00  0.00     0.158 C 
HETATM   33  C1  UNL     1       7.530  -0.801   0.015  1.00  0.00     0.038 C 
ENDBRANCH  31  32
ENDBRANCH  29  31
ENDBRANCH  22  25
ENDBRANCH   1  21
TORSDOF 8
