REMARK  4 active torsions:
REMARK  status: ('A' for Active; 'I' for Inactive)
REMARK    1  A    between atoms: C2_3  and  C3_4 
REMARK    2  A    between atoms: C3_4  and  C4_5 
REMARK    3  A    between atoms: C5_6  and  C6_7 
REMARK    4  A    between atoms: C9_10  and  C10_11 
REMARK       I    between atoms: C10_11  and  N1_13 
ROOT
HETATM    1  B1  UNL     1       5.173   3.040   1.279  1.00  0.00     0.189 B 
HETATM    2  C1  UNL     1       5.847   1.619   0.553  1.00  0.00    -0.261 C 
HETATM    3  C2  UNL     1       6.409   0.405  -0.050  1.00  0.00     0.066 C 
ENDROOT
BRANCH   3   4
HETATM    4  C3  UNL     1       5.838  -0.829   0.616  1.00  0.00     0.037 C 
BRANCH   4   5
HETATM    5  C4  UNL     1       4.373  -0.831   0.418  1.00  0.00    -0.025 C 
HETATM    6  C5  UNL     1       3.483  -0.076  -0.196  1.00  0.00     0.007 C 
BRANCH   6   7
HETATM    7  C6  UNL     1       2.045  -0.308  -0.240  1.00  0.00    -0.036 A 
HETATM    8  C7  UNL     1       1.488  -1.391   0.399  1.00  0.00     0.012 A 
HETATM    9  C8  UNL     1       0.131  -1.589   0.340  1.00  0.00     0.018 A 
HETATM   10  C9  UNL     1      -0.641  -0.691  -0.363  1.00  0.00     0.032 A 
HETATM   11  C15 UNL     1      -0.058   0.396  -1.001  1.00  0.00     0.018 A 
HETATM   12  C16 UNL     1       1.298   0.605  -0.949  1.00  0.00     0.012 A 
BRANCH  10  13
HETATM   13  C10 UNL     1      -2.087  -0.755  -0.524  1.00  0.00     0.253 C 
HETATM   14  O1  UNL     1      -2.410  -1.370  -1.581  1.00  0.00    -0.267 OA
HETATM   15  N1  UNL     1      -3.286  -0.352   0.119  1.00  0.00    -0.345 N 
HETATM   16  C11 UNL     1      -4.491  -0.741  -0.587  1.00  0.00     0.156 C 
HETATM   17  C14 UNL     1      -3.660   0.368   1.325  1.00  0.00     0.156 C 
HETATM   18  C12 UNL     1      -4.991   0.535  -1.251  1.00  0.00     0.289 C 
HETATM   19  N2  UNL     1      -4.916   1.624  -0.277  1.00  0.00     0.086 N 
HETATM   20  C13 UNL     1      -4.964   1.095   1.078  1.00  0.00     0.289 C 
HETATM   21  H13 UNL     1      -3.998   2.104  -0.393  1.00  0.00     0.316 HD
ENDBRANCH  10  13
ENDBRANCH   6   7
ENDBRANCH   4   5
ENDBRANCH   3   4
TORSDOF 4
