REMARK  0 active torsions:
REMARK  status: ('A' for Active; 'I' for Inactive)
ROOT
HETATM    1  O1  UNL     1       0.981   1.790   0.435  1.00  0.00    -0.269 OA
HETATM    2  C1  UNL     1       0.631   1.372  -0.668  1.00  0.00     0.260 C 
HETATM    3  C2  UNL     1       1.644   1.628  -1.672  1.00  0.00     0.220 C 
HETATM    4  N1  UNL     1       2.864   2.095  -1.154  1.00  0.00    -0.398 N 
HETATM    5  C3  UNL     1       3.830   1.275  -0.607  1.00  0.00     0.234 C 
HETATM    6  N2  UNL     1       3.668   0.358   0.472  1.00  0.00    -0.395 N 
HETATM    7  C4  UNL     1       2.659  -0.722   0.557  1.00  0.00     0.046 A 
HETATM    8  C5  UNL     1       2.819  -1.172  -0.708  1.00  0.00    -0.014 A 
HETATM    9  C6  UNL     1       1.570  -1.581  -0.331  1.00  0.00     0.055 A 
HETATM   10  C7  UNL     1       1.081  -1.301   0.892  1.00  0.00     0.024 A 
HETATM   11  C8  UNL     1       0.840  -0.899   2.146  1.00  0.00    -0.028 A 
HETATM   12  C9  UNL     1       2.092  -0.485   1.766  1.00  0.00     0.054 A 
HETATM   13  C10 UNL     1      -0.322  -1.601   0.511  1.00  0.00     0.017 C 
HETATM   14  C11 UNL     1      -0.925  -0.521  -0.023  1.00  0.00     0.045 C 
HETATM   15  C12 UNL     1      -2.321  -0.541  -0.494  1.00  0.00     0.092 A 
HETATM   16  C13 UNL     1      -3.136  -1.734  -0.217  1.00  0.00     0.044 A 
HETATM   17  C14 UNL     1      -4.403  -1.436   0.515  1.00  0.00    -0.026 A 
HETATM   18  C15 UNL     1      -4.841  -0.276   0.953  1.00  0.00    -0.002 A 
HETATM   19  C16 UNL     1      -4.019   0.920   0.716  1.00  0.00     0.027 A 
HETATM   20  C17 UNL     1      -2.892   0.714   0.058  1.00  0.00     0.036 A 
HETATM   21  N3  UNL     1      -1.843   1.600  -0.300  1.00  0.00    -0.295 N 
HETATM   22  N4  UNL     1      -0.647   0.832  -0.346  1.00  0.00    -0.226 N 
HETATM   23  H3  UNL     1       2.996   3.121  -1.150  1.00  0.00     0.155 HD
HETATM   24  H6  UNL     1       4.337   0.442   1.287  1.00  0.00     0.155 HD
HETATM   25  H18 UNL     1      -1.931   2.635  -0.490  1.00  0.00     0.187 HD
ENDROOT
TORSDOF 0
