REMARK  5 active torsions:
REMARK  status: ('A' for Active; 'I' for Inactive)
REMARK    1  A    between atoms: C2_2  and  N1_4 
REMARK    2  A    between atoms: N1_4  and  N2_5 
REMARK    3  A    between atoms: C3_6  and  C4_7 
REMARK    4  A    between atoms: C3_6  and  C12_16 
REMARK    5  A    between atoms: C5_8  and  C6_9 
ROOT
HETATM    1  N2  UNL     1      -2.009   1.028  -0.827  1.00  0.00    -0.174 NA
HETATM    2  C3  UNL     1      -1.293   0.015  -0.521  1.00  0.00     0.083 C 
ENDROOT
BRANCH   2   3
HETATM    3  C4  UNL     1       0.112  -0.178  -0.295  1.00  0.00     0.035 C 
HETATM    4  C5  UNL     1       1.072   0.711  -0.355  1.00  0.00     0.015 C 
BRANCH   4   5
HETATM    5  C6  UNL     1       2.481   0.453  -0.115  1.00  0.00    -0.014 A 
HETATM    6  C7  UNL     1       3.013  -0.776   0.212  1.00  0.00     0.013 A 
HETATM    7  C8  UNL     1       4.340  -1.032   0.440  1.00  0.00     0.001 A 
HETATM    8  C9  UNL     1       5.238   0.008   0.341  1.00  0.00     0.002 A 
HETATM    9  C10 UNL     1       4.761   1.255   0.018  1.00  0.00     0.024 A 
HETATM   10  C11 UNL     1       3.420   1.457  -0.201  1.00  0.00     0.044 A 
HETATM   11 CL1  UNL     1       2.911   3.081  -0.607  1.00  0.00    -0.083 Cl
ENDBRANCH   4   5
ENDBRANCH   2   3
BRANCH   2  12
HETATM   12  C12 UNL     1      -2.179  -1.160  -0.392  1.00  0.00    -0.024 A 
HETATM   13  C13 UNL     1      -3.486  -1.273  -0.540  1.00  0.00     0.009 A 
HETATM   14  C14 UNL     1      -4.004  -2.605  -0.331  1.00  0.00    -0.003 A 
HETATM   15  C15 UNL     1      -2.938  -3.327  -0.039  1.00  0.00    -0.022 A 
HETATM   16  C16 UNL     1      -1.695  -2.542  -0.039  1.00  0.00     0.068 A 
ENDBRANCH   2  12
BRANCH   1  17
HETATM   17  N1  UNL     1      -1.437   2.272  -1.012  1.00  0.00    -0.271 N 
HETATM   18  H4  UNL     1      -0.928   2.988  -1.611  1.00  0.00     0.190 HD
BRANCH  17  19
HETATM   19  C2  UNL     1      -1.718   2.780   0.309  1.00  0.00     0.090 C 
HETATM   20  C1  UNL     1      -2.430   1.898   1.271  1.00  0.00     0.083 C 
HETATM   21  S1  UNL     1      -1.318   4.265   0.856  1.00  0.00    -0.064 SA
ENDBRANCH  17  19
ENDBRANCH   1  17
TORSDOF 5
