REMARK  0 active torsions:
REMARK  status: ('A' for Active; 'I' for Inactive)
ROOT
HETATM    1  C1  UNL     1       2.528   1.586  -0.762  1.00  0.00    -0.000 C 
HETATM    2  C2  UNL     1       2.901   2.726  -1.431  1.00  0.00    -0.000 C 
HETATM    3  C3  UNL     1       1.771   3.291  -0.710  1.00  0.00    -0.002 C 
HETATM    4  C4  UNL     1       0.866   2.915   0.145  1.00  0.00     0.003 C 
HETATM    5  C5  UNL     1       0.044   2.154   1.061  1.00  0.00     0.302 C 
HETATM    6  N1  UNL     1      -1.363   2.078   0.711  1.00  0.00     0.114 N 
HETATM    7  C6  UNL     1      -2.242   2.485   1.785  1.00  0.00     0.305 C 
HETATM    8  C7  UNL     1      -3.649   2.493   1.249  1.00  0.00     0.299 C 
HETATM    9  N2  UNL     1      -4.026   1.335   0.507  1.00  0.00     0.088 N 
HETATM   10  C8  UNL     1      -3.030   0.801  -0.374  1.00  0.00     0.322 C 
HETATM   11  C9  UNL     1      -1.712   0.706   0.372  1.00  0.00     0.342 C 
HETATM   12  N3  UNL     1      -0.689   0.001  -0.347  1.00  0.00    -0.206 NA
HETATM   13  N4  UNL     1      -0.650  -1.339   0.122  1.00  0.00    -0.319 N 
HETATM   14  C10 UNL     1       0.106  -2.456  -0.245  1.00  0.00     0.049 A 
HETATM   15  C11 UNL     1      -0.675  -3.484  -0.799  1.00  0.00     0.031 A 
HETATM   16  C12 UNL     1      -0.146  -4.700  -1.250  1.00  0.00     0.002 A 
HETATM   17  C13 UNL     1       1.212  -4.897  -1.144  1.00  0.00     0.001 A 
HETATM   18  C14 UNL     1       1.954  -3.885  -0.603  1.00  0.00     0.010 A 
HETATM   19  C15 UNL     1       1.486  -2.684  -0.150  1.00  0.00    -0.027 A 
HETATM   20  C16 UNL     1       2.369  -1.652   0.418  1.00  0.00     0.068 C 
HETATM   21  C17 UNL     1       3.374  -1.137  -0.553  1.00  0.00    -0.022 C 
HETATM   22  C18 UNL     1       3.172   0.196  -0.825  1.00  0.00    -0.004 C 
HETATM   23  H11 UNL     1      -4.380   0.617   1.165  1.00  0.00     0.316 HD
HETATM   24  H15 UNL     1      -1.001  -0.066  -1.362  1.00  0.00     0.149 HD
HETATM   25  H16 UNL     1      -1.297  -1.645   0.908  1.00  0.00     0.181 HD
ENDROOT
TORSDOF 0
