REMARK  5 active torsions:
REMARK  status: ('A' for Active; 'I' for Inactive)
REMARK    1  A    between atoms: C7_7  and  C8_8 
REMARK    2  A    between atoms: C9_9  and  C10_10 
REMARK    3  A    between atoms: C10_10  and  C12_16 
REMARK    4  A    between atoms: N1_11  and  N2_12 
REMARK    5  A    between atoms: N2_12  and  C11_13 
ROOT
HETATM    1  C10 UNL     1       1.812  -0.084  -0.250  1.00  0.00     0.083 C 
HETATM    2  N1  UNL     1       2.623   0.710   0.353  1.00  0.00    -0.173 NA
ENDROOT
BRANCH   1   3
HETATM    3  C9  UNL     1       0.380  -0.048  -0.220  1.00  0.00     0.035 C 
HETATM    4  C8  UNL     1      -0.744   0.462   0.171  1.00  0.00     0.014 C 
BRANCH   4   5
HETATM    5  C7  UNL     1      -2.178   0.559   0.247  1.00  0.00    -0.030 A 
HETATM    6  C2  UNL     1      -3.009  -0.307  -0.420  1.00  0.00    -0.052 A 
HETATM    7  C1  UNL     1      -2.538  -1.412  -1.279  1.00  0.00     0.049 C 
HETATM    8  C3  UNL     1      -4.361  -0.106  -0.261  1.00  0.00     0.007 A 
HETATM    9  C4  UNL     1      -4.756   0.931   0.541  1.00  0.00     0.001 A 
HETATM   10  C5  UNL     1      -3.960   1.823   1.229  1.00  0.00     0.001 A 
HETATM   11  C6  UNL     1      -2.618   1.598   1.051  1.00  0.00     0.012 A 
ENDBRANCH   4   5
ENDBRANCH   1   3
BRANCH   1  12
HETATM   12  C12 UNL     1       2.389  -1.147  -1.056  1.00  0.00    -0.024 A 
HETATM   13  C13 UNL     1       1.733  -2.080  -1.758  1.00  0.00     0.009 A 
HETATM   14  C14 UNL     1       2.672  -2.958  -2.426  1.00  0.00    -0.003 A 
HETATM   15  C15 UNL     1       3.905  -2.586  -2.150  1.00  0.00    -0.022 A 
HETATM   16  C16 UNL     1       3.820  -1.420  -1.268  1.00  0.00     0.068 A 
ENDBRANCH   1  12
BRANCH   2  17
HETATM   17  N2  UNL     1       2.174   1.754   1.149  1.00  0.00    -0.248 N 
HETATM   18  H10 UNL     1       1.951   2.530   0.494  1.00  0.00     0.191 HD
BRANCH  17  19
HETATM   19  C11 UNL     1       1.882   2.233   2.469  1.00  0.00     0.298 A 
HETATM   20  N3  UNL     1       1.648   2.540   3.835  1.00  0.00     0.038 N 
HETATM   21  H11 UNL     1       1.684   3.568   3.563  1.00  0.00     0.302 HD
HETATM   22  H12 UNL     1       1.678   3.573   3.593  1.00  0.00     0.302 HD
HETATM   23  S1  UNL     1       2.305   0.866   3.258  1.00  0.00     0.143 SA
ENDBRANCH  17  19
ENDBRANCH   2  17
TORSDOF 5
