REMARK  5 active torsions:
REMARK  status: ('A' for Active; 'I' for Inactive)
REMARK    1  A    between atoms: N1_2  and  C2_3 
REMARK    2  A    between atoms: C2_3  and  N2_5 
REMARK    3  A    between atoms: C3_6  and  C4_7 
REMARK    4  A    between atoms: C3_6  and  C11_15 
REMARK    5  A    between atoms: C4_7  and  C5_8 
ROOT
HETATM    1  N2  UNL     1      -0.934  -0.203  -1.116  1.00  0.00    -0.224 NA
HETATM    2  C3  UNL     1      -0.536  -0.879  -0.095  1.00  0.00     0.052 C 
ENDROOT
BRANCH   2   3
HETATM    3  C4  UNL     1       0.542  -0.759   0.911  1.00  0.00     0.099 C 
BRANCH   3   4
HETATM    4  C5  UNL     1       1.407   0.412   0.764  1.00  0.00    -0.052 A 
HETATM    5  C6  UNL     1       0.995   1.542   1.482  1.00  0.00     0.010 A 
HETATM    6  C7  UNL     1       1.772   2.702   1.396  1.00  0.00     0.043 A 
HETATM    7  C8  UNL     1       2.918   2.744   0.628  1.00  0.00     0.116 A 
HETATM    8  F1  UNL     1       3.704   3.839   0.511  1.00  0.00    -0.206 F 
HETATM    9  C9  UNL     1       3.339   1.627  -0.090  1.00  0.00     0.043 A 
HETATM   10  C10 UNL     1       2.558   0.495   0.008  1.00  0.00     0.010 A 
ENDBRANCH   3   4
ENDBRANCH   2   3
BRANCH   2  11
HETATM   11  C11 UNL     1      -1.361  -2.072   0.121  1.00  0.00    -0.011 A 
HETATM   12  C12 UNL     1      -1.175  -2.997   1.146  1.00  0.00     0.013 A 
HETATM   13  C13 UNL     1      -1.915  -4.119   1.386  1.00  0.00     0.001 A 
HETATM   14  C14 UNL     1      -2.962  -4.374   0.528  1.00  0.00     0.000 A 
HETATM   15  C15 UNL     1      -3.247  -3.532  -0.525  1.00  0.00     0.001 A 
HETATM   16  C16 UNL     1      -2.438  -2.430  -0.675  1.00  0.00     0.013 A 
ENDBRANCH   2  11
BRANCH   1  17
HETATM   17  C2  UNL     1      -0.381   0.974  -1.605  1.00  0.00     0.193 C 
HETATM   18  S1  UNL     1       0.645   0.923  -2.879  1.00  0.00    -0.039 SA
BRANCH  17  19
HETATM   19  N1  UNL     1      -0.386   2.377  -1.376  1.00  0.00    -0.370 N 
HETATM   20  C1  UNL     1       0.138   3.645  -1.814  1.00  0.00     0.148 C 
HETATM   21  H4  UNL     1      -1.051   2.416  -0.555  1.00  0.00     0.161 HD
ENDBRANCH  17  19
ENDBRANCH   1  17
TORSDOF 5
