REMARK  7 active torsions:
REMARK  status: ('A' for Active; 'I' for Inactive)
REMARK    1  A    between atoms: C2_2  and  N1_3 
REMARK    2  A    between atoms: N1_3  and  S1_4 
REMARK    3  A    between atoms: N1_3  and  N2_5 
REMARK    4  A    between atoms: N2_5  and  N3_6 
REMARK    5  A    between atoms: N3_6  and  C4_8 
REMARK    6  A    between atoms: C4_8  and  C5_9 
REMARK    7  A    between atoms: C10_15  and  C11_16 
ROOT
HETATM    1  C5  UNL     1      -0.824   1.280  -1.166  1.00  0.00    -0.033 A 
HETATM    2  C6  UNL     1      -0.446   1.706  -2.420  1.00  0.00     0.012 A 
HETATM    3  C7  UNL     1      -1.310   1.617  -3.485  1.00  0.00     0.043 A 
HETATM    4  C8  UNL     1      -2.569   1.096  -3.296  1.00  0.00     0.117 A 
HETATM    5  F1  UNL     1      -3.415   1.012  -4.351  1.00  0.00    -0.206 F 
HETATM    6  C9  UNL     1      -2.910   0.683  -2.032  1.00  0.00     0.055 A 
HETATM    7  C10 UNL     1      -2.064   0.755  -0.921  1.00  0.00    -0.015 A 
ENDROOT
BRANCH   1   8
HETATM    8  C4  UNL     1       0.135   1.373  -0.073  1.00  0.00     0.148 C 
BRANCH   8   9
HETATM    9  N3  UNL     1       0.690   0.057   0.222  1.00  0.00    -0.237 NA
HETATM   10  C3  UNL     1       1.284  -0.539  -0.956  1.00  0.00     0.132 C 
BRANCH   9  11
HETATM   11  N2  UNL     1       1.608   0.085   1.256  1.00  0.00    -0.179 NA
HETATM   12  H7  UNL     1       1.590   0.921   1.855  1.00  0.00     0.161 HD
BRANCH  11  13
HETATM   13  N1  UNL     1       2.894  -0.308   0.876  1.00  0.00    -0.181 NA
BRANCH  13  14
HETATM   14  C2  UNL     1       3.905   0.610   1.372  1.00  0.00     0.118 C 
HETATM   15  C1  UNL     1       5.240   0.135   0.815  1.00  0.00     0.023 C 
ENDBRANCH  13  14
BRANCH  13  16
HETATM   16  S1  UNL     1       3.235  -1.961   1.411  1.00  0.00    -0.079 SA
HETATM   17  H6  UNL     1       4.061  -2.551   0.414  1.00  0.00     0.121 HD
ENDBRANCH  13  16
ENDBRANCH  11  13
ENDBRANCH   9  11
ENDBRANCH   8   9
ENDBRANCH   1   8
BRANCH   7  18
HETATM   18  C11 UNL     1      -2.622   0.289   0.334  1.00  0.00    -0.025 A 
HETATM   19  C12 UNL     1      -2.785   0.858   1.577  1.00  0.00     0.012 A 
HETATM   20  C13 UNL     1      -3.337   0.156   2.627  1.00  0.00     0.001 A 
HETATM   21  C14 UNL     1      -3.749  -1.142   2.476  1.00  0.00     0.000 A 
HETATM   22  C15 UNL     1      -3.606  -1.749   1.257  1.00  0.00     0.001 A 
HETATM   23  C16 UNL     1      -3.050  -1.040   0.206  1.00  0.00     0.012 A 
ENDBRANCH   7  18
TORSDOF 7
