REMARK  7 active torsions:
REMARK  status: ('A' for Active; 'I' for Inactive)
REMARK    1  A    between atoms: O1_2  and  C2_3 
REMARK    2  A    between atoms: C2_3  and  C3_4 
REMARK    3  A    between atoms: C4_5  and  C5_6 
REMARK    4  A    between atoms: C6_8  and  N1_9 
REMARK    5  A    between atoms: C10_15  and  C11_16 
REMARK    6  A    between atoms: C12_17  and  C13_18 
REMARK    7  A    between atoms: C13_18  and  O2_19 
ROOT
HETATM    1  N1  UNL     1       1.437  -0.359  -1.268  1.00  0.00    -0.239 N 
HETATM    2  N2  UNL     1       1.625   1.000  -1.620  1.00  0.00    -0.161 NA
HETATM    3  C7  UNL     1       0.605   1.820  -1.550  1.00  0.00     0.256 A 
HETATM    4  N3  UNL     1      -0.748   1.526  -1.146  1.00  0.00    -0.237 NA
HETATM    5  C8  UNL     1      -0.952   0.297  -0.820  1.00  0.00     0.094 A 
HETATM    6  C9  UNL     1      -2.328  -0.049  -0.397  1.00  0.00    -0.025 C 
HETATM    7  C10 UNL     1      -3.042   1.062  -0.174  1.00  0.00     0.009 C 
HETATM    8  C14 UNL     1      -3.114  -1.257  -0.158  1.00  0.00     0.060 C 
HETATM    9  C15 UNL     1      -2.487  -2.551  -0.528  1.00  0.00     0.123 C 
HETATM   10  N4  UNL     1      -1.115  -2.727  -0.103  1.00  0.00    -0.397 N 
HETATM   11  C16 UNL     1       0.068  -2.029  -0.553  1.00  0.00     0.117 C 
HETATM   12  C17 UNL     1       0.124  -0.720  -0.860  1.00  0.00     0.102 A 
HETATM   13  H20 UNL     1      -0.875  -3.456   0.634  1.00  0.00     0.158 HD
ENDROOT
BRANCH   1  14
HETATM   14  C6  UNL     1       2.501  -1.292  -1.324  1.00  0.00     0.138 C 
HETATM   15  C5  UNL     1       3.529  -1.236  -0.493  1.00  0.00     0.028 C 
HETATM   16 BR1  UNL     1       4.730  -2.635  -0.874  1.00  0.00    -0.050 Br
BRANCH  15  17
HETATM   17  C4  UNL     1       3.560  -0.186   0.501  1.00  0.00     0.018 C 
HETATM   18  C3  UNL     1       4.522  -0.016   1.387  1.00  0.00     0.000 C 
BRANCH  18  19
HETATM   19  C2  UNL     1       5.799  -0.645   1.773  1.00  0.00     0.194 C 
BRANCH  19  20
HETATM   20  O1  UNL     1       6.864   0.261   1.651  1.00  0.00    -0.392 OA
HETATM   21  C1  UNL     1       6.867   0.625   0.295  1.00  0.00     0.201 C 
ENDBRANCH  19  20
ENDBRANCH  18  19
ENDBRANCH  15  17
ENDBRANCH   1  14
BRANCH   7  22
HETATM   22  C11 UNL     1      -4.434   1.134   0.256  1.00  0.00    -0.001 C 
HETATM   23  C12 UNL     1      -5.174   2.227   0.486  1.00  0.00    -0.001 C 
BRANCH  23  24
HETATM   24  C13 UNL     1      -6.588   2.113   0.922  1.00  0.00     0.191 C 
BRANCH  24  25
HETATM   25  O2  UNL     1      -7.441   2.722   0.012  1.00  0.00    -0.397 OA
HETATM   26  H15 UNL     1      -8.309   2.852   0.486  1.00  0.00     0.209 HD
ENDBRANCH  24  25
ENDBRANCH  23  24
ENDBRANCH   7  22
TORSDOF 7
