REMARK  7 active torsions:
REMARK  status: ('A' for Active; 'I' for Inactive)
REMARK    1  A    between atoms: N1_1  and  C1_2 
REMARK    2  A    between atoms: C1_2  and  N2_4 
REMARK    3  A    between atoms: N2_4  and  N3_5 
REMARK    4  A    between atoms: C2_6  and  C3_7 
REMARK    5  A    between atoms: C2_6  and  C11_16 
REMARK    6  A    between atoms: C3_7  and  C4_8 
REMARK    7  A    between atoms: C4_8  and  C5_9 
ROOT
HETATM    1  N3  UNL     1      -1.366   0.735  -1.718  1.00  0.00    -0.198 NA
HETATM    2  C2  UNL     1      -0.854  -0.312  -1.098  1.00  0.00     0.068 C 
ENDROOT
BRANCH   2   3
HETATM    3  C3  UNL     1       0.225  -0.553  -0.144  1.00  0.00     0.077 C 
BRANCH   3   4
HETATM    4  C4  UNL     1       1.220  -0.399   0.663  1.00  0.00    -0.003 C 
BRANCH   4   5
HETATM    5  C5  UNL     1       2.191   0.468   1.314  1.00  0.00    -0.036 A 
HETATM    6  C6  UNL     1       2.159   1.808   0.953  1.00  0.00     0.011 A 
HETATM    7  C7  UNL     1       3.060   2.620   1.573  1.00  0.00     0.004 A 
HETATM    8  C8  UNL     1       3.953   2.111   2.515  1.00  0.00     0.042 A 
HETATM    9  C9  UNL     1       3.910   0.771   2.809  1.00  0.00     0.117 A 
HETATM   10  F1  UNL     1       4.737   0.136   3.718  1.00  0.00    -0.206 F 
HETATM   11  C10 UNL     1       3.016  -0.118   2.213  1.00  0.00     0.053 A 
ENDBRANCH   4   5
ENDBRANCH   3   4
ENDBRANCH   2   3
BRANCH   2  12
HETATM   12  C11 UNL     1      -1.517  -1.607  -1.347  1.00  0.00    -0.010 A 
HETATM   13  C12 UNL     1      -2.602  -1.564  -2.172  1.00  0.00     0.013 A 
HETATM   14  C13 UNL     1      -3.405  -2.645  -2.559  1.00  0.00     0.001 A 
HETATM   15  C14 UNL     1      -3.068  -3.876  -2.058  1.00  0.00     0.000 A 
HETATM   16  C15 UNL     1      -1.980  -3.966  -1.222  1.00  0.00     0.001 A 
HETATM   17  C16 UNL     1      -1.191  -2.864  -0.850  1.00  0.00     0.013 A 
ENDBRANCH   2  12
BRANCH   1  18
HETATM   18  N2  UNL     1      -0.858   2.032  -1.523  1.00  0.00    -0.162 NA
HETATM   19  H3  UNL     1      -0.680   1.586  -2.427  1.00  0.00     0.157 HD
BRANCH  18  20
HETATM   20  C1  UNL     1      -1.371   2.180  -0.163  1.00  0.00     0.142 C 
HETATM   21  S1  UNL     1      -2.264   1.252   0.884  1.00  0.00    -0.052 SA
BRANCH  20  22
HETATM   22  N1  UNL     1      -1.022   3.466   0.408  1.00  0.00    -0.282 NA
HETATM   23  H1  UNL     1      -1.787   4.128   0.755  1.00  0.00     0.126 HD
HETATM   24  H2  UNL     1      -1.897   3.952   0.678  1.00  0.00     0.126 HD
ENDBRANCH  20  22
ENDBRANCH  18  20
ENDBRANCH   1  18
TORSDOF 7
