REMARK  5 active torsions:
REMARK  status: ('A' for Active; 'I' for Inactive)
REMARK    1  A    between atoms: N1_1  and  C1_2 
REMARK    2  A    between atoms: C6_7  and  C7_8 
REMARK    3  A    between atoms: C6_7  and  N2_16 
REMARK    4  A    between atoms: C8_9  and  C9_10 
REMARK    5  A    between atoms: N2_16  and  C15_17 
ROOT
HETATM    1  C1  UNL     1      -1.953  -1.711  -0.093  1.00  0.00     0.035 A 
HETATM    2  C2  UNL     1      -2.531  -2.658  -0.806  1.00  0.00     0.027 A 
HETATM    3  C3  UNL     1      -2.536  -2.419  -2.240  1.00  0.00    -0.002 A 
HETATM    4  C4  UNL     1      -1.958  -1.288  -2.598  1.00  0.00    -0.023 A 
HETATM    5  C5  UNL     1      -1.289  -0.176  -1.879  1.00  0.00     0.069 A 
HETATM    6  C6  UNL     1      -1.286  -0.422  -0.392  1.00  0.00     0.095 A 
ENDROOT
BRANCH   6   7
HETATM    7  C7  UNL     1       0.111  -0.421   0.133  1.00  0.00     0.011 C 
HETATM    8  C8  UNL     1       1.017   0.456  -0.249  1.00  0.00     0.010 C 
BRANCH   8   9
HETATM    9  C9  UNL     1       2.388   0.485   0.242  1.00  0.00    -0.036 A 
HETATM   10  C10 UNL     1       2.889  -0.406   1.165  1.00  0.00     0.011 A 
HETATM   11  C11 UNL     1       4.178  -0.403   1.647  1.00  0.00     0.001 A 
HETATM   12  C12 UNL     1       5.053   0.568   1.174  1.00  0.00     0.000 A 
HETATM   13  C13 UNL     1       4.588   1.478   0.249  1.00  0.00     0.001 A 
HETATM   14  C14 UNL     1       3.273   1.436  -0.210  1.00  0.00     0.011 A 
ENDBRANCH   8   9
ENDBRANCH   6   7
BRANCH   6  15
HETATM   15  N2  UNL     1      -2.088   0.600   0.245  1.00  0.00    -0.341 N 
HETATM   16  H15 UNL     1      -2.954   0.413   0.796  1.00  0.00     0.163 HD
BRANCH  15  17
HETATM   17  C15 UNL     1      -1.990   2.013   0.330  1.00  0.00     0.322 A 
HETATM   18  S1  UNL     1      -1.159   3.358  -0.076  1.00  0.00     0.186 SA
HETATM   19  N3  UNL     1      -2.729   3.070   0.930  1.00  0.00     0.189 N 
HETATM   20  F1  UNL     1      -3.856   3.123   1.678  1.00  0.00    -0.198 F 
HETATM   21  H16 UNL     1      -3.597   3.042   1.499  1.00  0.00     0.558 HD
ENDBRANCH  15  17
ENDBRANCH   6  15
BRANCH   1  22
HETATM   22  N1  UNL     1      -1.926  -1.909   1.334  1.00  0.00    -0.400 N 
HETATM   23  H1  UNL     1      -1.519  -2.606   2.000  1.00  0.00     0.156 HD
HETATM   24  H2  UNL     1      -2.309  -1.417   2.158  1.00  0.00     0.156 HD
ENDBRANCH   1  22
TORSDOF 5
