REMARK  7 active torsions:
REMARK  status: ('A' for Active; 'I' for Inactive)
REMARK    1  A    between atoms: N1_1  and  C1_2 
REMARK    2  A    between atoms: C1_2  and  N2_4 
REMARK    3  A    between atoms: N2_4  and  P1_5 
REMARK    4  A    between atoms: P1_5  and  C2_6 
REMARK    5  A    between atoms: C2_6  and  C3_7 
REMARK    6  A    between atoms: C2_6  and  C11_16 
REMARK    7  A    between atoms: C4_8  and  C5_9 
ROOT
HETATM    1  C2  UNL     1      -1.091   0.325  -0.113  1.00  0.00     0.087 C 
ENDROOT
BRANCH   1   2
HETATM    2  P1  UNL     1      -1.893   1.240   1.282  1.00  0.00    -0.015 P 
HETATM    3  H4  UNL     1      -2.475   0.280   2.209  1.00  0.00     0.081 HD
BRANCH   2   4
HETATM    4  N2  UNL     1      -3.251   2.205   0.603  1.00  0.00    -0.344 N 
HETATM    5  H3  UNL     1      -4.255   1.883   0.481  1.00  0.00     0.166 HD
BRANCH   4   6
HETATM    6  C1  UNL     1      -3.111   3.564   0.140  1.00  0.00     0.168 C 
HETATM    7  S1  UNL     1      -1.620   4.229   0.254  1.00  0.00    -0.041 SA
BRANCH   6   8
HETATM    8  N1  UNL     1      -4.097   4.426  -0.412  1.00  0.00    -0.376 N 
HETATM    9  H1  UNL     1      -4.652   5.008   0.281  1.00  0.00     0.158 HD
HETATM   10  H2  UNL     1      -4.000   4.237  -1.423  1.00  0.00     0.158 HD
ENDBRANCH   6   8
ENDBRANCH   4   6
ENDBRANCH   2   4
ENDBRANCH   1   2
BRANCH   1  11
HETATM   11  C3  UNL     1       0.371   0.488  -0.101  1.00  0.00    -0.010 C 
HETATM   12  C4  UNL     1       1.320  -0.410  -0.202  1.00  0.00     0.008 C 
BRANCH  12  13
HETATM   13  C5  UNL     1       2.753  -0.136  -0.178  1.00  0.00    -0.036 A 
HETATM   14  C6  UNL     1       3.179   1.169  -0.039  1.00  0.00     0.013 A 
HETATM   15  C7  UNL     1       4.550   1.407  -0.019  1.00  0.00     0.024 A 
HETATM   16  C8  UNL     1       5.461   0.352  -0.137  1.00  0.00     0.034 A 
HETATM   17 CL1  UNL     1       7.174   0.712  -0.105  1.00  0.00    -0.084 Cl
HETATM   18  C9  UNL     1       4.957  -0.945  -0.275  1.00  0.00     0.024 A 
HETATM   19  C10 UNL     1       3.604  -1.216  -0.299  1.00  0.00     0.013 A 
ENDBRANCH  12  13
ENDBRANCH   1  11
BRANCH   1  20
HETATM   20  C11 UNL     1      -1.394  -1.141  -0.023  1.00  0.00    -0.045 A 
HETATM   21  C12 UNL     1      -2.028  -1.761  -1.078  1.00  0.00     0.008 A 
HETATM   22  C13 UNL     1      -2.342  -3.111  -1.069  1.00  0.00     0.001 A 
HETATM   23  C14 UNL     1      -2.012  -3.884   0.037  1.00  0.00     0.000 A 
HETATM   24  C15 UNL     1      -1.381  -3.231   1.068  1.00  0.00     0.001 A 
HETATM   25  C16 UNL     1      -1.055  -1.895   1.093  1.00  0.00     0.008 A 
ENDBRANCH   1  20
TORSDOF 7
