REMARK  6 active torsions:
REMARK  status: ('A' for Active; 'I' for Inactive)
REMARK    1  A    between atoms: N1_1  and  C1_2 
REMARK    2  A    between atoms: C1_2  and  N2_4 
REMARK    3  A    between atoms: N2_4  and  N3_5 
REMARK    4  A    between atoms: C2_6  and  C3_7 
REMARK    5  A    between atoms: C2_6  and  C11_16 
REMARK    6  A    between atoms: C4_8  and  C5_9 
ROOT
HETATM    1  N3  UNL     1      -2.524   0.866  -0.461  1.00  0.00    -0.176 NA
HETATM    2  C2  UNL     1      -1.434   0.198  -0.156  1.00  0.00     0.066 C 
ENDROOT
BRANCH   2   3
HETATM    3  C3  UNL     1      -0.148   0.651  -0.673  1.00  0.00     0.035 C 
HETATM    4  C4  UNL     1       0.951  -0.036  -0.356  1.00  0.00     0.069 C 
BRANCH   4   5
HETATM    5  C5  UNL     1       2.380  -0.074  -0.548  1.00  0.00    -0.052 A 
HETATM    6  C6  UNL     1       3.415   0.617  -1.197  1.00  0.00     0.009 A 
HETATM    7  C7  UNL     1       4.739   0.296  -1.172  1.00  0.00     0.024 A 
HETATM    8  C8  UNL     1       5.020  -0.815  -0.429  1.00  0.00     0.034 A 
HETATM    9 CL1  UNL     1       6.756  -1.151  -0.457  1.00  0.00    -0.084 Cl
HETATM   10  C9  UNL     1       4.123  -1.590   0.259  1.00  0.00     0.024 A 
HETATM   11  C10 UNL     1       2.781  -1.198   0.187  1.00  0.00     0.009 A 
ENDBRANCH   4   5
ENDBRANCH   2   3
BRANCH   2  12
HETATM   12  C11 UNL     1      -1.842  -0.915   0.695  1.00  0.00    -0.010 A 
HETATM   13  C12 UNL     1      -0.985  -1.849   1.225  1.00  0.00     0.013 A 
HETATM   14  C13 UNL     1      -1.273  -2.925   2.031  1.00  0.00     0.001 A 
HETATM   15  C14 UNL     1      -2.598  -3.102   2.360  1.00  0.00     0.000 A 
HETATM   16  C15 UNL     1      -3.535  -2.221   1.880  1.00  0.00     0.001 A 
HETATM   17  C16 UNL     1      -3.139  -1.178   1.080  1.00  0.00     0.013 A 
ENDBRANCH   2  12
BRANCH   1  18
HETATM   18  N2  UNL     1      -2.403   1.988  -1.275  1.00  0.00    -0.253 N 
HETATM   19  H3  UNL     1      -2.290   1.987  -2.319  1.00  0.00     0.191 HD
BRANCH  18  20
HETATM   20  C1  UNL     1      -2.393   3.394  -0.974  1.00  0.00     0.185 C 
HETATM   21  S1  UNL     1      -2.551   3.826   0.610  1.00  0.00    -0.040 SA
BRANCH  20  22
HETATM   22  N1  UNL     1      -2.282   4.662  -1.646  1.00  0.00    -0.375 N 
HETATM   23  H1  UNL     1      -1.399   5.197  -1.582  1.00  0.00     0.158 HD
HETATM   24  H2  UNL     1      -3.081   5.072  -2.209  1.00  0.00     0.158 HD
ENDBRANCH  20  22
ENDBRANCH  18  20
ENDBRANCH   1  18
TORSDOF 6
