REMARK  6 active torsions:
REMARK  status: ('A' for Active; 'I' for Inactive)
REMARK    1  A    between atoms: N1_1  and  C1_2 
REMARK    2  A    between atoms: C1_2  and  N2_4 
REMARK    3  A    between atoms: N2_4  and  N3_5 
REMARK    4  A    between atoms: C2_6  and  C3_7 
REMARK    5  A    between atoms: C2_6  and  C11_16 
REMARK    6  A    between atoms: C4_8  and  C5_9 
ROOT
HETATM    1  N3  UNL     1       0.864  -0.868  -0.686  1.00  0.00    -0.172 NA
HETATM    2  C2  UNL     1       0.721   0.338  -0.265  1.00  0.00     0.087 C 
ENDROOT
BRANCH   2   3
HETATM    3  C3  UNL     1      -0.690   0.304   0.086  1.00  0.00     0.035 C 
HETATM    4  C4  UNL     1      -1.381  -0.783  -0.083  1.00  0.00     0.014 C 
BRANCH   4   5
HETATM    5  C5  UNL     1      -2.792  -0.918   0.236  1.00  0.00    -0.036 A 
HETATM    6  C6  UNL     1      -3.550   0.110   0.758  1.00  0.00     0.014 A 
HETATM    7  C7  UNL     1      -4.883   0.011   1.068  1.00  0.00     0.043 A 
HETATM    8  C8  UNL     1      -5.540  -1.195   0.852  1.00  0.00     0.116 A 
HETATM    9  F1  UNL     1      -6.851  -1.354   1.137  1.00  0.00    -0.206 F 
HETATM   10  C9  UNL     1      -4.821  -2.250   0.331  1.00  0.00     0.043 A 
HETATM   11  C10 UNL     1      -3.497  -2.081   0.046  1.00  0.00     0.014 A 
ENDBRANCH   4   5
ENDBRANCH   2   3
BRANCH   2  12
HETATM   12  C11 UNL     1       1.599   1.488  -0.123  1.00  0.00    -0.006 A 
HETATM   13  C12 UNL     1       2.921   1.393  -0.492  1.00  0.00     0.014 A 
HETATM   14  C13 UNL     1       3.768   2.497  -0.358  1.00  0.00     0.001 A 
HETATM   15  C14 UNL     1       3.219   3.651   0.151  1.00  0.00     0.000 A 
HETATM   16  C15 UNL     1       1.902   3.717   0.510  1.00  0.00     0.001 A 
HETATM   17  C16 UNL     1       1.055   2.630   0.381  1.00  0.00     0.014 A 
ENDBRANCH   2  12
BRANCH   1  18
HETATM   18  N2  UNL     1       2.019  -1.443  -1.165  1.00  0.00    -0.253 N 
HETATM   19  H3  UNL     1       2.350  -1.272  -2.158  1.00  0.00     0.191 HD
BRANCH  18  20
HETATM   20  C1  UNL     1       2.837  -2.304  -0.355  1.00  0.00     0.185 C 
HETATM   21  S1  UNL     1       2.396  -2.619   1.184  1.00  0.00    -0.040 SA
BRANCH  20  22
HETATM   22  N1  UNL     1       4.031  -2.899  -0.851  1.00  0.00    -0.375 N 
HETATM   23  H1  UNL     1       5.014  -2.915  -0.481  1.00  0.00     0.158 HD
HETATM   24  H2  UNL     1       4.670  -3.444  -1.487  1.00  0.00     0.158 HD
ENDBRANCH  20  22
ENDBRANCH  18  20
ENDBRANCH   1  18
TORSDOF 6
