REMARK  3 active torsions:
REMARK  status: ('A' for Active; 'I' for Inactive)
REMARK    1  A    between atoms: N1_1  and  C1_2 
REMARK    2  A    between atoms: C1_2  and  N2_4 
REMARK    3  A    between atoms: N2_4  and  N3_5 
ROOT
HETATM    1  N3  UNL     1       2.513   0.413  -0.625  1.00  0.00    -0.181 NA
HETATM    2  C2  UNL     1       1.401  -0.196  -0.167  1.00  0.00     0.041 C 
HETATM    3  C3  UNL     1      -0.058   0.053   0.174  1.00  0.00     0.083 C 
HETATM    4  C4  UNL     1      -0.386   1.368  -0.166  1.00  0.00     0.016 C 
HETATM    5  C5  UNL     1      -1.819   1.536   0.192  1.00  0.00    -0.047 A 
HETATM    6  C6  UNL     1      -2.244   2.649   0.886  1.00  0.00     0.010 A 
HETATM    7  C7  UNL     1      -3.530   2.918   1.292  1.00  0.00     0.024 A 
HETATM    8  C8  UNL     1      -4.498   2.003   0.986  1.00  0.00     0.034 A 
HETATM    9 CL1  UNL     1      -6.119   2.374   1.515  1.00  0.00    -0.084 Cl
HETATM   10  C9  UNL     1      -4.080   0.887   0.293  1.00  0.00     0.035 A 
HETATM   11  C10 UNL     1      -2.765   0.594  -0.131  1.00  0.00    -0.028 A 
HETATM   12  C11 UNL     1      -2.799  -0.747  -0.756  1.00  0.00     0.012 C 
HETATM   13  C12 UNL     1      -1.967  -1.746  -0.976  1.00  0.00     0.001 C 
HETATM   14  C13 UNL     1      -0.679  -2.493  -0.961  1.00  0.00    -0.004 C 
HETATM   15  C14 UNL     1       0.620  -2.394  -0.626  1.00  0.00    -0.021 C 
HETATM   16  C15 UNL     1       1.791  -1.642  -0.101  1.00  0.00     0.084 C 
ENDROOT
BRANCH   1  17
HETATM   17  N2  UNL     1       3.727  -0.155  -0.819  1.00  0.00    -0.254 N 
HETATM   18  H3  UNL     1       4.097  -0.636  -1.643  1.00  0.00     0.191 HD
BRANCH  17  19
HETATM   19  C1  UNL     1       4.582  -0.055   0.289  1.00  0.00     0.185 C 
HETATM   20  S1  UNL     1       4.305   0.635   1.725  1.00  0.00    -0.040 SA
BRANCH  19  21
HETATM   21  N1  UNL     1       5.910  -0.487   0.548  1.00  0.00    -0.375 N 
HETATM   22  H1  UNL     1       6.347  -1.403   0.814  1.00  0.00     0.158 HD
HETATM   23  H2  UNL     1       6.804   0.038   0.532  1.00  0.00     0.158 HD
ENDBRANCH  19  21
ENDBRANCH  17  19
ENDBRANCH   1  17
TORSDOF 3
