REMARK  7 active torsions:
REMARK  status: ('A' for Active; 'I' for Inactive)
REMARK    1  A    between atoms: N1_1  and  C1_2 
REMARK    2  A    between atoms: C1_2  and  N2_4 
REMARK    3  A    between atoms: N2_4  and  C2_5 
REMARK    4  A    between atoms: C2_5  and  C3_6 
REMARK    5  A    between atoms: C2_5  and  C14_18 
REMARK    6  A    between atoms: C4_7  and  N3_8 
REMARK    7  A    between atoms: N3_8  and  C5_9 
ROOT
HETATM    1  C2  UNL     1      -2.411  -0.721   0.360  1.00  0.00     0.141 C 
ENDROOT
BRANCH   1   2
HETATM    2  N2  UNL     1      -3.671  -1.255   0.838  1.00  0.00    -0.355 N 
HETATM    3  H3  UNL     1      -4.676  -0.991   0.619  1.00  0.00     0.163 HD
BRANCH   2   4
HETATM    4  C1  UNL     1      -3.558  -2.324   1.768  1.00  0.00     0.166 C 
HETATM    5  S1  UNL     1      -4.812  -3.108   2.463  1.00  0.00    -0.041 SA
BRANCH   4   6
HETATM    6  N1  UNL     1      -2.272  -2.825   2.190  1.00  0.00    -0.376 N 
HETATM    7  H1  UNL     1      -1.995  -2.399   3.120  1.00  0.00     0.158 HD
HETATM    8  H2  UNL     1      -2.187  -3.430   1.323  1.00  0.00     0.158 HD
ENDBRANCH   4   6
ENDBRANCH   2   4
ENDBRANCH   1   2
BRANCH   1   9
HETATM    9  C3  UNL     1      -1.574  -0.188   1.438  1.00  0.00     0.020 C 
HETATM   10  C4  UNL     1      -0.302  -0.460   1.670  1.00  0.00     0.086 C 
BRANCH  10  11
HETATM   11  N3  UNL     1       0.396  -1.348   0.835  1.00  0.00    -0.367 N 
HETATM   12  H7  UNL     1       0.224  -2.308   0.481  1.00  0.00     0.165 HD
BRANCH  11  13
HETATM   13  C5  UNL     1       1.639  -0.723   0.395  1.00  0.00     0.025 A 
HETATM   14  C6  UNL     1       2.622  -0.250   1.188  1.00  0.00     0.003 A 
HETATM   15  C7  UNL     1       3.805   0.323   1.876  1.00  0.00     0.035 A 
HETATM   16  C8  UNL     1       4.814   0.843   0.927  1.00  0.00     0.002 A 
HETATM   17  C9  UNL     1       4.370   0.649  -0.343  1.00  0.00     0.020 A 
HETATM   18  C10 UNL     1       4.859   0.920  -1.728  1.00  0.00    -0.024 A 
HETATM   19  C11 UNL     1       3.809   0.412  -2.388  1.00  0.00    -0.021 A 
HETATM   20  C12 UNL     1       2.955  -0.036  -1.247  1.00  0.00     0.044 A 
HETATM   21  C13 UNL     1       1.746  -0.640  -1.096  1.00  0.00     0.012 A 
ENDBRANCH  11  13
ENDBRANCH  10  11
ENDBRANCH   1   9
BRANCH   1  22
HETATM   22  C14 UNL     1      -2.753   0.413  -0.564  1.00  0.00    -0.032 A 
HETATM   23  C15 UNL     1      -3.707   1.377  -0.264  1.00  0.00     0.009 A 
HETATM   24  C16 UNL     1      -3.955   2.383  -1.174  1.00  0.00     0.001 A 
HETATM   25  C17 UNL     1      -3.284   2.468  -2.382  1.00  0.00     0.000 A 
HETATM   26  C18 UNL     1      -2.321   1.521  -2.720  1.00  0.00     0.001 A 
HETATM   27  C19 UNL     1      -2.114   0.539  -1.774  1.00  0.00     0.009 A 
ENDBRANCH   1  22
TORSDOF 7
