REMARK  3 active torsions:
REMARK  status: ('A' for Active; 'I' for Inactive)
REMARK    1  A    between atoms: C2_2  and  C3_3 
REMARK    2  A    between atoms: B1_5  and  C5_6 
REMARK    3  A    between atoms: C12_17  and  C13_18 
ROOT
HETATM    1  C3  UNL     1       1.070  -2.173  -1.144  1.00  0.00    -0.059 C 
HETATM    2  C4  UNL     1       1.828  -1.059  -1.132  1.00  0.00     0.012 C 
HETATM    3  B1  UNL     1       2.035   0.459  -0.968  1.00  0.00     0.712 B 
HETATM    4  N1  UNL     1       2.167   1.408  -2.147  1.00  0.00     0.034 N 
HETATM    5  C11 UNL     1       0.759   1.611  -1.907  1.00  0.00     0.386 A 
HETATM    6  S1  UNL     1       1.107   2.617  -3.192  1.00  0.00     0.108 SA
HETATM    7  N2  UNL     1       0.220   0.826  -0.813  1.00  0.00     0.077 N 
HETATM    8  N3  UNL     1      -1.106   0.900  -0.444  1.00  0.00    -0.095 NA
HETATM    9  C12 UNL     1      -1.833  -0.159  -0.376  1.00  0.00     0.089 C 
HETATM   10  C19 UNL     1      -1.452  -1.550  -0.604  1.00  0.00     0.018 C 
HETATM   11  C20 UNL     1      -0.129  -1.413  -0.833  1.00  0.00     0.054 C 
HETATM   12  H10 UNL     1       3.206   1.210  -2.269  1.00  0.00     0.281 HD
HETATM   13  H11 UNL     1      -0.374   1.493  -1.361  1.00  0.00     0.372 HD
ENDROOT
BRANCH   3  14
HETATM   14  C5  UNL     1       2.641   0.980   0.398  1.00  0.00    -0.020 A 
HETATM   15  C6  UNL     1       2.300   2.095   1.106  1.00  0.00     0.000 A 
HETATM   16  C7  UNL     1       2.967   2.351   2.275  1.00  0.00    -0.000 A 
HETATM   17  C8  UNL     1       3.982   1.588   2.847  1.00  0.00     0.000 A 
HETATM   18  C9  UNL     1       4.288   0.464   2.085  1.00  0.00    -0.000 A 
HETATM   19  C10 UNL     1       3.654   0.149   0.897  1.00  0.00     0.000 A 
ENDBRANCH   3  14
BRANCH   1  20
HETATM   20  C2  UNL     1       1.747  -3.430  -1.433  1.00  0.00    -0.004 C 
HETATM   21  C1  UNL     1       0.936  -4.462  -1.425  1.00  0.00     0.012 C 
ENDBRANCH   1  20
BRANCH   9  22
HETATM   22  C13 UNL     1      -3.163   0.281   0.034  1.00  0.00    -0.006 A 
HETATM   23  C14 UNL     1      -3.496   1.595   0.273  1.00  0.00     0.014 A 
HETATM   24  C15 UNL     1      -4.776   2.001   0.670  1.00  0.00     0.001 A 
HETATM   25  C16 UNL     1      -5.781   1.080   0.844  1.00  0.00     0.000 A 
HETATM   26  C17 UNL     1      -5.489  -0.245   0.615  1.00  0.00     0.001 A 
HETATM   27  C18 UNL     1      -4.213  -0.587   0.225  1.00  0.00     0.014 A 
ENDBRANCH   9  22
TORSDOF 3
