REMARK  7 active torsions:
REMARK  status: ('A' for Active; 'I' for Inactive)
REMARK    1  A    between atoms: C2_2  and  N1_3 
REMARK    2  A    between atoms: N1_3  and  N2_4 
REMARK    3  A    between atoms: N2_4  and  S1_5 
REMARK    4  A    between atoms: N2_4  and  C3_6 
REMARK    5  A    between atoms: C3_6  and  C4_7 
REMARK    6  A    between atoms: C3_6  and  C10_13 
REMARK    7  A    between atoms: C13_16  and  O1_17 
ROOT
HETATM    1  C3  UNL     1      -0.783   0.212  -0.211  1.00  0.00     0.158 C 
ENDROOT
BRANCH   1   2
HETATM    2  N2  UNL     1      -1.529   0.847   0.846  1.00  0.00    -0.160 NA
BRANCH   2   3
HETATM    3  N1  UNL     1      -2.903   0.815   0.637  1.00  0.00    -0.321 N 
HETATM    4  H4  UNL     1      -3.411   0.028   0.135  1.00  0.00     0.181 HD
BRANCH   3   5
HETATM    5  C2  UNL     1      -3.729   1.880   1.104  1.00  0.00     0.092 C 
HETATM    6  C1  UNL     1      -4.505   2.440   0.191  1.00  0.00     0.031 C 
ENDBRANCH   3   5
ENDBRANCH   2   3
BRANCH   2   7
HETATM    7  S1  UNL     1      -1.027   2.540   0.888  1.00  0.00    -0.073 SA
HETATM    8  H5  UNL     1      -1.521   3.272  -0.209  1.00  0.00     0.121 HD
ENDBRANCH   2   7
ENDBRANCH   1   2
BRANCH   1   9
HETATM    9  C4  UNL     1      -1.085  -1.203  -0.428  1.00  0.00    -0.033 A 
HETATM   10  C5  UNL     1      -1.270  -1.731  -1.699  1.00  0.00     0.009 A 
HETATM   11  C6  UNL     1      -1.557  -3.039  -2.031  1.00  0.00     0.001 A 
HETATM   12  C7  UNL     1      -1.674  -3.923  -0.965  1.00  0.00     0.000 A 
HETATM   13  C8  UNL     1      -1.501  -3.461   0.325  1.00  0.00     0.001 A 
HETATM   14  C9  UNL     1      -1.214  -2.133   0.580  1.00  0.00     0.009 A 
ENDBRANCH   1   9
BRANCH   1  15
HETATM   15  C10 UNL     1       0.663   0.348   0.102  1.00  0.00    -0.033 A 
HETATM   16  C11 UNL     1       1.213   0.123   1.341  1.00  0.00     0.012 A 
HETATM   17  C12 UNL     1       2.550   0.247   1.638  1.00  0.00     0.037 A 
HETATM   18  C13 UNL     1       3.426   0.622   0.645  1.00  0.00     0.068 A 
HETATM   19  C15 UNL     1       2.949   0.865  -0.624  1.00  0.00     0.037 A 
HETATM   20  C16 UNL     1       1.599   0.726  -0.867  1.00  0.00     0.012 A 
BRANCH  18  21
HETATM   21  O1  UNL     1       4.755   0.741   0.956  1.00  0.00    -0.356 OA
HETATM   22  C14 UNL     1       5.769   1.115   0.050  1.00  0.00     0.210 C 
ENDBRANCH  18  21
ENDBRANCH   1  15
TORSDOF 7
