REMARK  5 active torsions:
REMARK  status: ('A' for Active; 'I' for Inactive)
REMARK    1  A    between atoms: C6_7  and  C7_8 
REMARK    2  A    between atoms: C7_8  and  C9_14 
REMARK    3  A    between atoms: N1_9  and  N2_10 
REMARK    4  A    between atoms: N2_10  and  C8_11 
REMARK    5  A    between atoms: C8_11  and  N3_12 
ROOT
HETATM    1  C7  UNL     1      -0.987   0.300   0.006  1.00  0.00     0.089 C 
HETATM    2  N1  UNL     1      -1.720   1.381  -0.214  1.00  0.00    -0.172 NA
ENDROOT
BRANCH   1   3
HETATM    3  C6  UNL     1       0.357   0.543   0.471  1.00  0.00     0.067 C 
HETATM    4  C5  UNL     1       1.495  -0.034   0.842  1.00  0.00     0.055 C 
HETATM    5  O1  UNL     1       1.929  -1.340   0.954  1.00  0.00    -0.327 OA
HETATM    6  C15 UNL     1       2.675   0.785   1.264  1.00  0.00     0.073 C 
HETATM    7  C4  UNL     1       3.228  -1.735   0.797  1.00  0.00     0.138 C 
HETATM    8  C3  UNL     1       4.244  -0.971   0.527  1.00  0.00     0.002 C 
HETATM    9  C2  UNL     1       3.875   0.457   0.394  1.00  0.00     0.012 C 
HETATM   10  C1  UNL     1       3.595   0.878  -1.029  1.00  0.00     0.014 C 
ENDBRANCH   1   3
BRANCH   1  11
HETATM   11  C9  UNL     1      -1.744  -0.908  -0.285  1.00  0.00    -0.006 A 
HETATM   12  C10 UNL     1      -3.031  -0.821  -0.720  1.00  0.00     0.014 A 
HETATM   13  C11 UNL     1      -3.828  -1.911  -1.022  1.00  0.00     0.001 A 
HETATM   14  C12 UNL     1      -3.328  -3.182  -0.886  1.00  0.00     0.000 A 
HETATM   15  C13 UNL     1      -2.032  -3.344  -0.449  1.00  0.00     0.001 A 
HETATM   16  C14 UNL     1      -1.305  -2.210  -0.170  1.00  0.00     0.014 A 
ENDBRANCH   1  11
BRANCH   2  17
HETATM   17  N2  UNL     1      -1.118   2.631   0.025  1.00  0.00    -0.253 N 
HETATM   18  H8  UNL     1      -0.510   3.475   0.133  1.00  0.00     0.191 HD
BRANCH  17  19
HETATM   19  C8  UNL     1      -2.255   3.345   0.550  1.00  0.00     0.185 C 
HETATM   20  S1  UNL     1      -2.977   4.656   1.155  1.00  0.00    -0.040 SA
BRANCH  19  21
HETATM   21  N3  UNL     1      -3.426   2.546   0.604  1.00  0.00    -0.375 N 
HETATM   22  H9  UNL     1      -4.404   2.280   0.291  1.00  0.00     0.158 HD
HETATM   23  H10 UNL     1      -3.905   1.727   1.063  1.00  0.00     0.158 HD
ENDBRANCH  19  21
ENDBRANCH  17  19
ENDBRANCH   2  17
TORSDOF 5
